MODEL        1
REMARK 921   NORMALIZED FREE ENERGY PREDICTED BY IDOCK:   -6.84 KCAL/MOL
REMARK 922        TOTAL FREE ENERGY PREDICTED BY IDOCK:  -10.42 KCAL/MOL
REMARK 923 INTER-LIGAND FREE ENERGY PREDICTED BY IDOCK:   -8.84 KCAL/MOL
REMARK 924 INTRA-LIGAND FREE ENERGY PREDICTED BY IDOCK:   -1.58 KCAL/MOL
REMARK 927      BINDING AFFINITY PREDICTED BY RF-SCORE:    0.00 PKD
ROOT
HETATM    1  O   UNL     1     -10.900  14.229  68.874  1.00  0.00    -0.245 OA 
HETATM    2  H   UNL     1     -11.269  14.586  69.674  1.00  0.00     0.000 HD 
HETATM    3  C   UNL     1     -11.929  14.084  67.896  1.00  0.00    -0.351 C  
ENDROOT
BRANCH   3   4
HETATM    4  C   UNL     1     -11.335  13.509  66.608  1.00  0.00    -0.322 C  
HETATM    5  O   UNL     1     -12.249  12.548  66.045  1.00  0.00    -0.605 OA 
HETATM    6  C   UNL     1     -12.043  12.564  64.631  1.00  0.00    -0.428 C  
HETATM    7  O   UNL     1     -13.282  12.217  63.999  1.00  0.00    -0.757 OA 
HETATM    8  H   UNL     1     -12.653  15.651  63.744  1.00  0.00     0.000 HD 
HETATM    9  C   UNL     1     -11.677  14.010  64.267  1.00  0.00    -0.367 C  
HETATM   10  C   UNL     1     -11.079  14.589  65.550  1.00  0.00    -0.339 C  
HETATM   11  O   UNL     1     -12.879  14.756  63.969  1.00  0.00    -0.697 OA 
HETATM   12  H   UNL     1     -13.146  12.229  63.059  1.00  0.00     0.000 HD 
BRANCH   6  13
HETATM   13  C   UNL     1     -10.974  11.527  64.255  1.00  0.00    -0.341 C  
HETATM   14  H   UNL     1      -9.486  11.445  62.985  1.00  0.00     0.000 HD 
HETATM   15  O   UNL     1     -10.147  12.086  63.217  1.00  0.00    -0.430 OA 
ENDBRANCH   6  13
BRANCH  10  16
HETATM   16  O   UNL     1      -9.679  14.859  65.379  1.00  0.00    -0.313 OA 
BRANCH  16  17
HETATM   17  C   UNL     1      -9.235  16.017  66.103  1.00  0.00    -0.352 C  
HETATM   18  O   UNL     1      -8.738  15.635  67.391  1.00  0.00    -0.168 OA 
HETATM   19  C   UNL     1      -8.231  16.756  68.137  1.00  0.00    -0.199 C  
HETATM   20  C   UNL     1      -9.352  17.768  68.408  1.00  0.00    -0.294 C  
HETATM   21  H   UNL     1     -11.472  18.120  64.949  1.00  0.00     0.000 HD 
HETATM   22  O   UNL     1     -10.767  17.486  64.887  1.00  0.00    -0.657 OA 
HETATM   23  C   UNL     1      -9.908  18.244  67.061  1.00  0.00    -0.326 C  
HETATM   24  O   UNL     1     -10.451  17.204  69.139  1.00  0.00    -0.323 OA 
HETATM   25  H   UNL     1     -11.318  19.466  66.448  1.00  0.00     0.000 HD 
HETATM   26  O   UNL     1     -10.974  19.172  67.283  1.00  0.00    -0.478 OA 
HETATM   27  H   UNL     1     -11.146  17.830  69.306  1.00  0.00     0.000 HD 
HETATM   28  C   UNL     1     -10.383  17.049  66.205  1.00  0.00    -0.306 C  
BRANCH  19  29
HETATM   29  C   UNL     1      -7.591  16.225  69.423  1.00  0.00    -0.126 C  
HETATM   30  O   UNL     1      -8.299  15.064  69.859  1.00  0.00    -0.415 OA 
HETATM   31  H   UNL     1      -7.902  14.734  70.656  1.00  0.00     0.000 HD 
ENDBRANCH  19  29
ENDBRANCH  16  17
ENDBRANCH  10  16
ENDBRANCH   3   4
TORSDOF 5
ENDMDL
MODEL        2
REMARK 921   NORMALIZED FREE ENERGY PREDICTED BY IDOCK:   -6.76 KCAL/MOL
REMARK 922        TOTAL FREE ENERGY PREDICTED BY IDOCK:  -10.31 KCAL/MOL
REMARK 923 INTER-LIGAND FREE ENERGY PREDICTED BY IDOCK:   -9.53 KCAL/MOL
REMARK 924 INTRA-LIGAND FREE ENERGY PREDICTED BY IDOCK:   -0.79 KCAL/MOL
REMARK 927      BINDING AFFINITY PREDICTED BY RF-SCORE:    0.00 PKD
ROOT
HETATM    1  O   UNL     1     -10.209  10.740  62.780  1.00  0.00    -0.727 OA 
HETATM    2  H   UNL     1      -9.947   9.899  62.424  1.00  0.00     0.000 HD 
HETATM    3  C   UNL     1      -9.675  10.892  64.095  1.00  0.00    -0.296 C  
ENDROOT
BRANCH   3   4
HETATM    4  C   UNL     1     -10.097  12.247  64.667  1.00  0.00    -0.250 C  
HETATM    5  O   UNL     1     -10.621  13.073  63.610  1.00  0.00    -0.270 OA 
HETATM    6  C   UNL     1     -11.580  13.948  64.209  1.00  0.00    -0.355 C  
HETATM    7  O   UNL     1     -12.572  14.261  63.224  1.00  0.00    -1.069 OA 
HETATM    8  H   UNL     1     -13.792  11.954  65.557  1.00  0.00     0.000 HD 
HETATM    9  C   UNL     1     -12.231  13.155  65.350  1.00  0.00    -0.461 C  
HETATM   10  C   UNL     1     -11.183  12.112  65.742  1.00  0.00    -0.339 C  
HETATM   11  O   UNL     1     -13.388  12.445  64.850  1.00  0.00    -0.623 OA 
HETATM   12  H   UNL     1     -13.209  14.842  63.622  1.00  0.00     0.000 HD 
BRANCH   6  13
HETATM   13  C   UNL     1     -10.883  15.242  64.656  1.00  0.00    -0.257 C  
HETATM   14  H   UNL     1     -11.086  17.150  64.266  1.00  0.00     0.000 HD 
HETATM   15  O   UNL     1     -11.517  16.350  63.990  1.00  0.00    -1.048 OA 
ENDBRANCH   6  13
BRANCH  10  16
HETATM   16  O   UNL     1     -10.676  12.374  67.059  1.00  0.00    -0.232 OA 
BRANCH  16  17
HETATM   17  C   UNL     1     -11.435  13.366  67.769  1.00  0.00    -0.316 C  
HETATM   18  O   UNL     1     -10.723  14.607  67.800  1.00  0.00    -0.258 OA 
HETATM   19  C   UNL     1     -11.466  15.651  68.456  1.00  0.00    -0.375 C  
HETATM   20  C   UNL     1     -11.721  15.282  69.924  1.00  0.00    -0.323 C  
HETATM   21  H   UNL     1     -12.799  11.355  69.973  1.00  0.00     0.000 HD 
HETATM   22  O   UNL     1     -12.590  11.669  69.101  1.00  0.00    -0.108 OA 
HETATM   23  C   UNL     1     -12.514  13.970  69.960  1.00  0.00    -0.281 C  
HETATM   24  O   UNL     1     -10.511  15.060  70.664  1.00  0.00    -0.520 OA 
HETATM   25  H   UNL     1     -13.237  12.776  71.341  1.00  0.00     0.000 HD 
HETATM   26  O   UNL     1     -12.746  13.588  71.319  1.00  0.00    -0.345 OA 
HETATM   27  H   UNL     1     -10.668  14.831  71.572  1.00  0.00     0.000 HD 
HETATM   28  C   UNL     1     -11.775  12.854  69.190  1.00  0.00    -0.324 C  
BRANCH  19  29
HETATM   29  C   UNL     1     -10.689  16.961  68.302  1.00  0.00    -0.377 C  
HETATM   30  O   UNL     1     -10.599  17.609  69.572  1.00  0.00    -0.371 OA 
HETATM   31  H   UNL     1     -10.118  18.422  69.477  1.00  0.00     0.000 HD 
ENDBRANCH  19  29
ENDBRANCH  16  17
ENDBRANCH  10  16
ENDBRANCH   3   4
TORSDOF 5
ENDMDL
MODEL        3
REMARK 921   NORMALIZED FREE ENERGY PREDICTED BY IDOCK:   -6.63 KCAL/MOL
REMARK 922        TOTAL FREE ENERGY PREDICTED BY IDOCK:  -10.15 KCAL/MOL
REMARK 923 INTER-LIGAND FREE ENERGY PREDICTED BY IDOCK:   -8.95 KCAL/MOL
REMARK 924 INTRA-LIGAND FREE ENERGY PREDICTED BY IDOCK:   -1.20 KCAL/MOL
REMARK 927      BINDING AFFINITY PREDICTED BY RF-SCORE:    0.00 PKD
ROOT
HETATM    1  O   UNL     1     -10.190  10.751  65.699  1.00  0.00    -0.249 OA 
HETATM    2  H   UNL     1      -9.735   9.917  65.699  1.00  0.00     0.000 HD 
HETATM    3  C   UNL     1      -9.263  11.803  65.962  1.00  0.00    -0.194 C  
ENDROOT
BRANCH   3   4
HETATM    4  C   UNL     1      -9.998  13.146  65.963  1.00  0.00    -0.280 C  
HETATM    5  O   UNL     1     -10.249  13.556  64.605  1.00  0.00    -0.387 OA 
HETATM    6  C   UNL     1     -11.442  14.344  64.628  1.00  0.00    -0.387 C  
HETATM    7  O   UNL     1     -12.097  14.193  63.363  1.00  0.00    -0.927 OA 
HETATM    8  H   UNL     1     -13.725  12.353  65.857  1.00  0.00     0.000 HD 
HETATM    9  C   UNL     1     -12.327  13.750  65.731  1.00  0.00    -0.486 C  
HETATM   10  C   UNL     1     -11.346  13.072  66.689  1.00  0.00    -0.325 C  
HETATM   11  O   UNL     1     -13.176  12.721  65.174  1.00  0.00    -0.686 OA 
HETATM   12  H   UNL     1     -12.890  14.716  63.378  1.00  0.00     0.000 HD 
BRANCH   6  13
HETATM   13  C   UNL     1     -11.076  15.822  64.836  1.00  0.00    -0.399 C  
HETATM   14  H   UNL     1     -11.440  17.502  63.899  1.00  0.00     0.000 HD 
HETATM   15  O   UNL     1     -11.666  16.588  63.770  1.00  0.00    -1.086 OA 
ENDBRANCH   6  13
BRANCH  10  16
HETATM   16  O   UNL     1     -11.319  13.754  67.952  1.00  0.00    -0.271 OA 
BRANCH  16  17
HETATM   17  C   UNL     1     -11.171  12.866  69.071  1.00  0.00    -0.267 C  
HETATM   18  O   UNL     1     -11.027  11.516  68.616  1.00  0.00    -0.195 OA 
HETATM   19  C   UNL     1     -10.823  10.591  69.700  1.00  0.00    -0.274 C  
HETATM   20  C   UNL     1     -12.041  10.587  70.633  1.00  0.00    -0.356 C  
HETATM   21  H   UNL     1     -13.135  14.475  71.148  1.00  0.00     0.000 HD 
HETATM   22  O   UNL     1     -12.400  14.374  70.555  1.00  0.00    -0.303 OA 
HETATM   23  C   UNL     1     -12.231  12.005  71.184  1.00  0.00    -0.038 C  
HETATM   24  O   UNL     1     -13.259  10.230  69.964  1.00  0.00    -0.504 OA 
HETATM   25  H   UNL     1     -13.494  12.915  72.381  1.00  0.00     0.000 HD 
HETATM   26  O   UNL     1     -13.376  12.036  72.041  1.00  0.00    -0.495 OA 
HETATM   27  H   UNL     1     -14.013  10.227  70.541  1.00  0.00     0.000 HD 
HETATM   28  C   UNL     1     -12.369  13.030  70.037  1.00  0.00    -0.152 C  
BRANCH  19  29
HETATM   29  C   UNL     1     -10.530   9.212  69.103  1.00  0.00    -0.217 C  
HETATM   30  O   UNL     1     -11.213   9.082  67.855  1.00  0.00    -0.476 OA 
HETATM   31  H   UNL     1     -11.032   8.227  67.485  1.00  0.00     0.000 HD 
ENDBRANCH  19  29
ENDBRANCH  16  17
ENDBRANCH  10  16
ENDBRANCH   3   4
TORSDOF 5
ENDMDL
MODEL        4
REMARK 921   NORMALIZED FREE ENERGY PREDICTED BY IDOCK:   -6.61 KCAL/MOL
REMARK 922        TOTAL FREE ENERGY PREDICTED BY IDOCK:  -10.12 KCAL/MOL
REMARK 923 INTER-LIGAND FREE ENERGY PREDICTED BY IDOCK:   -9.12 KCAL/MOL
REMARK 924 INTRA-LIGAND FREE ENERGY PREDICTED BY IDOCK:   -0.99 KCAL/MOL
REMARK 927      BINDING AFFINITY PREDICTED BY RF-SCORE:    0.00 PKD
ROOT
HETATM    1  O   UNL     1     -12.321  14.954  67.988  1.00  0.00    -0.563 OA 
HETATM    2  H   UNL     1     -12.761  15.187  68.798  1.00  0.00     0.000 HD 
HETATM    3  C   UNL     1     -12.105  13.545  67.948  1.00  0.00    -0.269 C  
ENDROOT
BRANCH   3   4
HETATM    4  C   UNL     1     -11.397  13.170  66.644  1.00  0.00    -0.325 C  
HETATM    5  O   UNL     1     -12.234  12.280  65.881  1.00  0.00    -0.634 OA 
HETATM    6  C   UNL     1     -11.922  12.502  64.503  1.00  0.00    -0.404 C  
HETATM    7  O   UNL     1     -13.097  12.223  63.732  1.00  0.00    -0.780 OA 
HETATM    8  H   UNL     1     -12.561  15.671  64.012  1.00  0.00     0.000 HD 
HETATM    9  C   UNL     1     -11.576  13.992  64.377  1.00  0.00    -0.369 C  
HETATM   10  C   UNL     1     -11.096  14.396  65.772  1.00  0.00    -0.316 C  
HETATM   11  O   UNL     1     -12.775  14.748  64.091  1.00  0.00    -0.758 OA 
HETATM   12  H   UNL     1     -12.890  12.371  62.817  1.00  0.00     0.000 HD 
BRANCH   6  13
HETATM   13  C   UNL     1     -10.795  11.552  64.073  1.00  0.00    -0.387 C  
HETATM   14  H   UNL     1      -9.161  11.708  63.005  1.00  0.00     0.000 HD 
HETATM   15  O   UNL     1      -9.858  12.296  63.271  1.00  0.00    -0.390 OA 
ENDBRANCH   6  13
BRANCH  10  16
HETATM   16  O   UNL     1      -9.697  14.717  65.753  1.00  0.00    -0.323 OA 
BRANCH  16  17
HETATM   17  C   UNL     1      -9.380  15.904  66.496  1.00  0.00    -0.277 C  
HETATM   18  O   UNL     1      -9.959  17.052  65.867  1.00  0.00    -0.462 OA 
HETATM   19  C   UNL     1      -9.714  18.264  66.604  1.00  0.00    -0.339 C  
HETATM   20  C   UNL     1      -8.207  18.547  66.678  1.00  0.00    -0.274 C  
HETATM   21  H   UNL     1      -6.387  14.994  67.483  1.00  0.00     0.000 HD 
HETATM   22  O   UNL     1      -7.328  14.913  67.389  1.00  0.00    -0.189 OA 
HETATM   23  C   UNL     1      -7.527  17.362  67.374  1.00  0.00    -0.182 C  
HETATM   24  O   UNL     1      -7.598  18.678  65.385  1.00  0.00    -0.433 OA 
HETATM   25  H   UNL     1      -5.695  16.854  67.867  1.00  0.00     0.000 HD 
HETATM   26  O   UNL     1      -6.116  17.588  67.436  1.00  0.00    -0.129 OA 
HETATM   27  H   UNL     1      -6.665  18.853  65.430  1.00  0.00     0.000 HD 
HETATM   28  C   UNL     1      -7.845  16.037  66.649  1.00  0.00    -0.231 C  
BRANCH  19  29
HETATM   29  C   UNL     1     -10.496  19.398  65.937  1.00  0.00    -0.472 C  
HETATM   30  O   UNL     1      -9.755  20.613  66.048  1.00  0.00    -0.619 OA 
HETATM   31  H   UNL     1     -10.241  21.317  65.634  1.00  0.00     0.000 HD 
ENDBRANCH  19  29
ENDBRANCH  16  17
ENDBRANCH  10  16
ENDBRANCH   3   4
TORSDOF 5
ENDMDL
MODEL        5
REMARK 921   NORMALIZED FREE ENERGY PREDICTED BY IDOCK:   -6.44 KCAL/MOL
REMARK 922        TOTAL FREE ENERGY PREDICTED BY IDOCK:   -9.91 KCAL/MOL
REMARK 923 INTER-LIGAND FREE ENERGY PREDICTED BY IDOCK:   -8.18 KCAL/MOL
REMARK 924 INTRA-LIGAND FREE ENERGY PREDICTED BY IDOCK:   -1.73 KCAL/MOL
REMARK 927      BINDING AFFINITY PREDICTED BY RF-SCORE:    0.00 PKD
ROOT
HETATM    1  O   UNL     1      -8.560  13.869  66.466  1.00  0.00    -0.439 OA 
HETATM    2  H   UNL     1      -7.767  13.638  65.996  1.00  0.00     0.000 HD 
HETATM    3  C   UNL     1      -8.298  13.886  67.869  1.00  0.00    -0.167 C  
ENDROOT
BRANCH   3   4
HETATM    4  C   UNL     1      -9.575  14.257  68.626  1.00  0.00    -0.192 C  
HETATM    5  O   UNL     1      -9.369  15.492  69.338  1.00  0.00    -0.254 OA 
HETATM    6  C   UNL     1     -10.644  16.133  69.428  1.00  0.00    -0.300 C  
HETATM    7  O   UNL     1     -10.426  17.549  69.466  1.00  0.00    -0.354 OA 
HETATM    8  H   UNL     1     -11.587  16.534  66.324  1.00  0.00     0.000 HD 
HETATM    9  C   UNL     1     -11.397  15.771  68.141  1.00  0.00    -0.337 C  
HETATM   10  C   UNL     1     -10.773  14.450  67.688  1.00  0.00    -0.263 C  
HETATM   11  O   UNL     1     -11.120  16.758  67.121  1.00  0.00    -0.077 OA 
HETATM   12  H   UNL     1     -11.274  17.975  69.526  1.00  0.00     0.000 HD 
BRANCH   6  13
HETATM   13  C   UNL     1     -11.349  15.692  70.719  1.00  0.00    -0.371 C  
HETATM   14  H   UNL     1     -13.179  15.205  71.221  1.00  0.00     0.000 HD 
HETATM   15  O   UNL     1     -12.742  15.477  70.423  1.00  0.00    -0.425 OA 
ENDBRANCH   6  13
BRANCH  10  16
HETATM   16  O   UNL     1     -11.723  13.379  67.795  1.00  0.00    -0.318 OA 
BRANCH  16  17
HETATM   17  C   UNL     1     -11.829  12.596  66.596  1.00  0.00    -0.380 C  
HETATM   18  O   UNL     1     -10.607  11.889  66.355  1.00  0.00    -0.233 OA 
HETATM   19  C   UNL     1     -10.681  11.047  65.190  1.00  0.00    -0.183 C  
HETATM   20  C   UNL     1     -10.924  11.895  63.935  1.00  0.00    -0.406 C  
HETATM   21  H   UNL     1     -13.750  14.658  64.917  1.00  0.00     0.000 HD 
HETATM   22  O   UNL     1     -13.509  14.101  65.647  1.00  0.00    -0.576 OA 
HETATM   23  C   UNL     1     -12.243  12.657  64.115  1.00  0.00    -0.450 C  
HETATM   24  O   UNL     1      -9.901  12.876  63.714  1.00  0.00    -0.700 OA 
HETATM   25  H   UNL     1     -13.301  13.947  63.079  1.00  0.00     0.000 HD 
HETATM   26  O   UNL     1     -12.484  13.475  62.967  1.00  0.00    -0.709 OA 
HETATM   27  H   UNL     1     -10.051  13.401  62.936  1.00  0.00     0.000 HD 
HETATM   28  C   UNL     1     -12.220  13.504  65.405  1.00  0.00    -0.447 C  
BRANCH  19  29
HETATM   29  C   UNL     1      -9.390  10.228  65.110  1.00  0.00    -0.226 C  
HETATM   30  O   UNL     1      -8.270  11.113  65.070  1.00  0.00    -0.375 OA 
HETATM   31  H   UNL     1      -7.469  10.605  65.020  1.00  0.00     0.000 HD 
ENDBRANCH  19  29
ENDBRANCH  16  17
ENDBRANCH  10  16
ENDBRANCH   3   4
TORSDOF 5
ENDMDL
MODEL        6
REMARK 921   NORMALIZED FREE ENERGY PREDICTED BY IDOCK:   -6.44 KCAL/MOL
REMARK 922        TOTAL FREE ENERGY PREDICTED BY IDOCK:   -9.90 KCAL/MOL
REMARK 923 INTER-LIGAND FREE ENERGY PREDICTED BY IDOCK:   -8.94 KCAL/MOL
REMARK 924 INTRA-LIGAND FREE ENERGY PREDICTED BY IDOCK:   -0.96 KCAL/MOL
REMARK 927      BINDING AFFINITY PREDICTED BY RF-SCORE:    0.00 PKD
ROOT
HETATM    1  O   UNL     1     -10.279  15.381  69.557  1.00  0.00    -0.238 OA 
HETATM    2  H   UNL     1     -10.662  14.824  70.225  1.00  0.00     0.000 HD 
HETATM    3  C   UNL     1     -11.089  16.543  69.380  1.00  0.00    -0.253 C  
ENDROOT
BRANCH   3   4
HETATM    4  C   UNL     1     -10.473  17.440  68.304  1.00  0.00    -0.385 C  
HETATM    5  O   UNL     1      -9.922  18.620  68.921  1.00  0.00    -0.389 OA 
HETATM    6  C   UNL     1      -8.830  19.041  68.100  1.00  0.00    -0.316 C  
HETATM    7  O   UNL     1      -7.873  19.699  68.939  1.00  0.00    -0.339 OA 
HETATM    8  H   UNL     1      -6.790  16.487  68.065  1.00  0.00     0.000 HD 
HETATM    9  C   UNL     1      -8.206  17.761  67.527  1.00  0.00    -0.225 C  
HETATM   10  C   UNL     1      -9.344  16.739  67.538  1.00  0.00    -0.231 C  
HETATM   11  O   UNL     1      -7.176  17.279  68.420  1.00  0.00    -0.201 OA 
HETATM   12  H   UNL     1      -7.147  19.978  68.394  1.00  0.00     0.000 HD 
BRANCH   6  13
HETATM   13  C   UNL     1      -9.338  20.028  67.038  1.00  0.00    -0.386 C  
HETATM   14  H   UNL     1      -9.016  20.321  65.129  1.00  0.00     0.000 HD 
HETATM   15  O   UNL     1      -8.703  19.711  65.785  1.00  0.00    -0.398 OA 
ENDBRANCH   6  13
BRANCH  10  16
HETATM   16  O   UNL     1      -9.730  16.397  66.198  1.00  0.00    -0.290 OA 
BRANCH  16  17
HETATM   17  C   UNL     1     -10.891  15.553  66.143  1.00  0.00    -0.295 C  
HETATM   18  O   UNL     1     -10.703  14.397  66.967  1.00  0.00    -0.279 OA 
HETATM   19  C   UNL     1     -11.861  13.544  66.987  1.00  0.00    -0.402 C  
HETATM   20  C   UNL     1     -12.152  13.007  65.579  1.00  0.00    -0.452 C  
HETATM   21  H   UNL     1     -11.686  16.135  63.014  1.00  0.00     0.000 HD 
HETATM   22  O   UNL     1     -11.496  16.366  63.916  1.00  0.00    -1.063 OA 
HETATM   23  C   UNL     1     -12.397  14.201  64.649  1.00  0.00    -0.410 C  
HETATM   24  O   UNL     1     -11.057  12.263  65.025  1.00  0.00    -0.299 OA 
HETATM   25  H   UNL     1     -12.800  14.470  62.746  1.00  0.00     0.000 HD 
HETATM   26  O   UNL     1     -12.648  13.730  63.322  1.00  0.00    -0.830 OA 
HETATM   27  H   UNL     1     -11.237  11.931  64.154  1.00  0.00     0.000 HD 
HETATM   28  C   UNL     1     -11.201  15.177  64.674  1.00  0.00    -0.343 C  
BRANCH  19  29
HETATM   29  C   UNL     1     -11.616  12.428  68.006  1.00  0.00    -0.347 C  
HETATM   30  O   UNL     1     -11.819  11.161  67.378  1.00  0.00    -0.570 OA 
HETATM   31  H   UNL     1     -11.667  10.469  68.010  1.00  0.00     0.000 HD 
ENDBRANCH  19  29
ENDBRANCH  16  17
ENDBRANCH  10  16
ENDBRANCH   3   4
TORSDOF 5
ENDMDL
MODEL        7
REMARK 921   NORMALIZED FREE ENERGY PREDICTED BY IDOCK:   -6.22 KCAL/MOL
REMARK 922        TOTAL FREE ENERGY PREDICTED BY IDOCK:   -9.63 KCAL/MOL
REMARK 923 INTER-LIGAND FREE ENERGY PREDICTED BY IDOCK:   -8.77 KCAL/MOL
REMARK 924 INTRA-LIGAND FREE ENERGY PREDICTED BY IDOCK:   -0.86 KCAL/MOL
REMARK 927      BINDING AFFINITY PREDICTED BY RF-SCORE:    0.00 PKD
ROOT
HETATM    1  O   UNL     1     -10.498  19.836  68.749  1.00  0.00    -0.558 OA 
HETATM    2  H   UNL     1     -11.278  20.128  69.206  1.00  0.00     0.000 HD 
HETATM    3  C   UNL     1     -10.851  19.364  67.450  1.00  0.00    -0.440 C  
ENDROOT
BRANCH   3   4
HETATM    4  C   UNL     1      -9.594  18.894  66.715  1.00  0.00    -0.324 C  
HETATM    5  O   UNL     1      -8.457  19.647  67.178  1.00  0.00    -0.284 OA 
HETATM    6  C   UNL     1      -7.316  18.796  67.042  1.00  0.00    -0.214 C  
HETATM    7  O   UNL     1      -6.368  19.159  68.053  1.00  0.00    -0.212 OA 
HETATM    8  H   UNL     1      -8.014  16.182  68.877  1.00  0.00     0.000 HD 
HETATM    9  C   UNL     1      -7.814  17.368  67.305  1.00  0.00    -0.198 C  
HETATM   10  C   UNL     1      -9.302  17.407  66.952  1.00  0.00    -0.263 C  
HETATM   11  O   UNL     1      -7.706  17.066  68.715  1.00  0.00    -0.234 OA 
HETATM   12  H   UNL     1      -5.611  18.593  67.963  1.00  0.00     0.000 HD 
BRANCH   6  13
HETATM   13  C   UNL     1      -6.685  19.001  65.657  1.00  0.00    -0.280 C  
HETATM   14  H   UNL     1      -6.372  20.528  64.471  1.00  0.00     0.000 HD 
HETATM   15  O   UNL     1      -6.762  20.401  65.328  1.00  0.00    -0.282 OA 
ENDBRANCH   6  13
BRANCH  10  16
HETATM   16  O   UNL     1      -9.567  16.610  65.788  1.00  0.00    -0.492 OA 
BRANCH  16  17
HETATM   17  C   UNL     1     -10.739  15.790  65.921  1.00  0.00    -0.313 C  
HETATM   18  O   UNL     1     -10.489  14.712  66.829  1.00  0.00    -0.271 OA 
HETATM   19  C   UNL     1     -11.651  13.889  67.037  1.00  0.00    -0.369 C  
HETATM   20  C   UNL     1     -12.080  13.230  65.720  1.00  0.00    -0.441 C  
HETATM   21  H   UNL     1     -11.817  16.095  62.838  1.00  0.00     0.000 HD 
HETATM   22  O   UNL     1     -11.540  16.405  63.692  1.00  0.00    -0.926 OA 
HETATM   23  C   UNL     1     -12.396  14.337  64.707  1.00  0.00    -0.426 C  
HETATM   24  O   UNL     1     -11.051  12.414  65.140  1.00  0.00    -0.292 OA 
HETATM   25  H   UNL     1     -12.972  14.437  62.832  1.00  0.00     0.000 HD 
HETATM   26  O   UNL     1     -12.777  13.751  63.459  1.00  0.00    -0.774 OA 
HETATM   27  H   UNL     1     -11.316  12.006  64.324  1.00  0.00     0.000 HD 
HETATM   28  C   UNL     1     -11.190  15.285  64.529  1.00  0.00    -0.280 C  
BRANCH  19  29
HETATM   29  C   UNL     1     -11.325  12.868  68.130  1.00  0.00    -0.289 C  
HETATM   30  O   UNL     1     -11.919  11.612  67.797  1.00  0.00    -0.608 OA 
HETATM   31  H   UNL     1     -11.717  10.979  68.475  1.00  0.00     0.000 HD 
ENDBRANCH  19  29
ENDBRANCH  16  17
ENDBRANCH  10  16
ENDBRANCH   3   4
TORSDOF 5
ENDMDL
MODEL        8
REMARK 921   NORMALIZED FREE ENERGY PREDICTED BY IDOCK:   -6.18 KCAL/MOL
REMARK 922        TOTAL FREE ENERGY PREDICTED BY IDOCK:   -9.57 KCAL/MOL
REMARK 923 INTER-LIGAND FREE ENERGY PREDICTED BY IDOCK:   -8.35 KCAL/MOL
REMARK 924 INTRA-LIGAND FREE ENERGY PREDICTED BY IDOCK:   -1.22 KCAL/MOL
REMARK 927      BINDING AFFINITY PREDICTED BY RF-SCORE:    0.00 PKD
ROOT
HETATM    1  O   UNL     1     -11.510  13.893  70.623  1.00  0.00    -0.513 OA 
HETATM    2  H   UNL     1     -11.332  14.474  71.354  1.00  0.00     0.000 HD 
HETATM    3  C   UNL     1     -11.620  14.656  69.421  1.00  0.00    -0.305 C  
ENDROOT
BRANCH   3   4
HETATM    4  C   UNL     1     -11.906  13.721  68.244  1.00  0.00    -0.378 C  
HETATM    5  O   UNL     1     -11.420  14.319  67.027  1.00  0.00    -0.328 OA 
HETATM    6  C   UNL     1     -11.068  13.244  66.153  1.00  0.00    -0.285 C  
HETATM    7  O   UNL     1     -10.006  13.693  65.302  1.00  0.00    -0.483 OA 
HETATM    8  H   UNL     1      -8.806  11.549  67.795  1.00  0.00     0.000 HD 
HETATM    9  C   UNL     1     -10.552  12.111  67.051  1.00  0.00    -0.228 C  
HETATM   10  C   UNL     1     -11.223  12.357  68.404  1.00  0.00    -0.273 C  
HETATM   11  O   UNL     1      -9.125  12.250  67.239  1.00  0.00    -0.172 OA 
HETATM   12  H   UNL     1      -9.773  12.979  64.721  1.00  0.00     0.000 HD 
BRANCH   6  13
HETATM   13  C   UNL     1     -12.283  12.865  65.292  1.00  0.00    -0.476 C  
HETATM   14  H   UNL     1     -13.875  13.791  64.629  1.00  0.00     0.000 HD 
HETATM   15  O   UNL     1     -13.124  14.026  65.161  1.00  0.00    -0.776 OA 
ENDBRANCH   6  13
BRANCH  10  16
HETATM   16  O   UNL     1     -12.162  11.312  68.700  1.00  0.00    -0.562 OA 
BRANCH  16  17
HETATM   17  C   UNL     1     -11.726  10.445  69.758  1.00  0.00    -0.237 C  
HETATM   18  O   UNL     1     -11.349   9.169  69.229  1.00  0.00     0.046 OA 
HETATM   19  C   UNL     1     -10.853   8.278  70.246  1.00  0.00    -0.240 C  
HETATM   20  C   UNL     1     -11.948   7.991  71.282  1.00  0.00    -0.296 C  
HETATM   21  H   UNL     1     -13.773  11.544  72.074  1.00  0.00     0.000 HD 
HETATM   22  O   UNL     1     -13.093  11.617  71.414  1.00  0.00    -0.375 OA 
HETATM   23  C   UNL     1     -12.376   9.321  71.913  1.00  0.00    -0.382 C  
HETATM   24  O   UNL     1     -13.124   7.403  70.706  1.00  0.00    -0.598 OA 
HETATM   25  H   UNL     1     -13.679   9.910  73.259  1.00  0.00     0.000 HD 
HETATM   26  O   UNL     1     -13.414   9.086  72.868  1.00  0.00    -0.354 OA 
HETATM   27  H   UNL     1     -13.802   7.225  71.347  1.00  0.00     0.000 HD 
HETATM   28  C   UNL     1     -12.833  10.325  70.833  1.00  0.00    -0.374 C  
BRANCH  19  29
HETATM   29  C   UNL     1     -10.339   7.009  69.561  1.00  0.00    -0.213 C  
HETATM   30  O   UNL     1     -11.321   6.541  68.636  1.00  0.00    -0.550 OA 
HETATM   31  H   UNL     1     -11.002   5.753  68.211  1.00  0.00     0.000 HD 
ENDBRANCH  19  29
ENDBRANCH  16  17
ENDBRANCH  10  16
ENDBRANCH   3   4
TORSDOF 5
ENDMDL
MODEL        9
REMARK 921   NORMALIZED FREE ENERGY PREDICTED BY IDOCK:   -6.04 KCAL/MOL
REMARK 922        TOTAL FREE ENERGY PREDICTED BY IDOCK:   -9.39 KCAL/MOL
REMARK 923 INTER-LIGAND FREE ENERGY PREDICTED BY IDOCK:   -8.41 KCAL/MOL
REMARK 924 INTRA-LIGAND FREE ENERGY PREDICTED BY IDOCK:   -0.98 KCAL/MOL
REMARK 927      BINDING AFFINITY PREDICTED BY RF-SCORE:    0.00 PKD
ROOT
HETATM    1  O   UNL     1     -11.590  16.342  63.757  1.00  0.00    -1.605 OA 
HETATM    2  H   UNL     1     -12.077  16.601  62.983  1.00  0.00     0.000 HD 
HETATM    3  C   UNL     1     -12.295  15.310  64.444  1.00  0.00    -0.158 C  
ENDROOT
BRANCH   3   4
HETATM    4  C   UNL     1     -11.510  14.894  65.691  1.00  0.00    -0.290 C  
HETATM    5  O   UNL     1     -12.312  14.000  66.487  1.00  0.00    -0.457 OA 
HETATM    6  C   UNL     1     -11.405  13.140  67.180  1.00  0.00    -0.316 C  
HETATM    7  O   UNL     1     -12.061  11.885  67.397  1.00  0.00    -0.577 OA 
HETATM    8  H   UNL     1      -9.709  11.650  64.815  1.00  0.00     0.000 HD 
HETATM    9  C   UNL     1     -10.210  12.931  66.240  1.00  0.00    -0.278 C  
HETATM   10  C   UNL     1     -10.204  14.169  65.342  1.00  0.00    -0.358 C  
HETATM   11  O   UNL     1     -10.449  11.780  65.397  1.00  0.00    -0.253 OA 
HETATM   12  H   UNL     1     -11.458  11.314  67.857  1.00  0.00     0.000 HD 
BRANCH   6  13
HETATM   13  C   UNL     1     -11.041  13.764  68.536  1.00  0.00    -0.267 C  
HETATM   14  H   UNL     1     -12.038  14.451  70.076  1.00  0.00     0.000 HD 
HETATM   15  O   UNL     1     -12.262  14.064  69.237  1.00  0.00    -0.344 OA 
ENDBRANCH   6  13
BRANCH  10  16
HETATM   16  O   UNL     1      -9.049  14.979  65.604  1.00  0.00    -0.054 OA 
BRANCH  16  17
HETATM   17  C   UNL     1      -9.299  16.030  66.550  1.00  0.00    -0.268 C  
HETATM   18  O   UNL     1      -9.610  17.249  65.867  1.00  0.00    -0.500 OA 
HETATM   19  C   UNL     1      -9.921  18.322  66.774  1.00  0.00    -0.352 C  
HETATM   20  C   UNL     1      -8.708  18.641  67.658  1.00  0.00    -0.272 C  
HETATM   21  H   UNL     1      -7.140  15.068  68.826  1.00  0.00     0.000 HD 
HETATM   22  O   UNL     1      -7.885  14.972  68.245  1.00  0.00    -0.112 OA 
HETATM   23  C   UNL     1      -8.341  17.378  68.447  1.00  0.00    -0.263 C  
HETATM   24  O   UNL     1      -7.546  19.015  66.903  1.00  0.00    -0.225 OA 
HETATM   25  H   UNL     1      -6.969  16.857  69.752  1.00  0.00     0.000 HD 
HETATM   26  O   UNL     1      -7.197  17.639  69.264  1.00  0.00    -0.203 OA 
HETATM   27  H   UNL     1      -6.795  19.212  67.450  1.00  0.00     0.000 HD 
HETATM   28  C   UNL     1      -8.085  16.188  67.497  1.00  0.00    -0.145 C  
BRANCH  19  29
HETATM   29  C   UNL     1     -10.384  19.526  65.950  1.00  0.00    -0.470 C  
HETATM   30  O   UNL     1      -9.618  20.674  66.317  1.00  0.00    -0.642 OA 
HETATM   31  H   UNL     1      -9.905  21.421  65.806  1.00  0.00     0.000 HD 
ENDBRANCH  19  29
ENDBRANCH  16  17
ENDBRANCH  10  16
ENDBRANCH   3   4
TORSDOF 5
ENDMDL
MODEL       10
REMARK 921   NORMALIZED FREE ENERGY PREDICTED BY IDOCK:   -6.03 KCAL/MOL
REMARK 922        TOTAL FREE ENERGY PREDICTED BY IDOCK:   -9.38 KCAL/MOL
REMARK 923 INTER-LIGAND FREE ENERGY PREDICTED BY IDOCK:   -8.46 KCAL/MOL
REMARK 924 INTRA-LIGAND FREE ENERGY PREDICTED BY IDOCK:   -0.92 KCAL/MOL
REMARK 927      BINDING AFFINITY PREDICTED BY RF-SCORE:    0.00 PKD
ROOT
HETATM    1  O   UNL     1     -10.080  14.395  69.375  1.00  0.00    -0.420 OA 
HETATM    2  H   UNL     1     -10.173  13.689  70.004  1.00  0.00     0.000 HD 
HETATM    3  C   UNL     1     -11.205  15.268  69.467  1.00  0.00    -0.281 C  
ENDROOT
BRANCH   3   4
HETATM    4  C   UNL     1     -11.056  16.406  68.453  1.00  0.00    -0.351 C  
HETATM    5  O   UNL     1     -10.479  17.554  69.103  1.00  0.00    -0.347 OA 
HETATM    6  C   UNL     1      -9.748  18.268  68.102  1.00  0.00    -0.327 C  
HETATM    7  O   UNL     1      -8.659  18.942  68.745  1.00  0.00    -0.345 OA 
HETATM    8  H   UNL     1      -7.544  16.120  66.999  1.00  0.00     0.000 HD 
HETATM    9  C   UNL     1      -9.192  17.209  67.141  1.00  0.00    -0.236 C  
HETATM   10  C   UNL     1     -10.148  16.024  67.278  1.00  0.00    -0.266 C  
HETATM   11  O   UNL     1      -7.889  16.776  67.595  1.00  0.00    -0.169 OA 
HETATM   12  H   UNL     1      -8.173  19.416  68.080  1.00  0.00     0.000 HD 
BRANCH   6  13
HETATM   13  C   UNL     1     -10.666  19.305  67.439  1.00  0.00    -0.486 C  
HETATM   14  H   UNL     1     -10.999  19.916  65.608  1.00  0.00     0.000 HD 
HETATM   15  O   UNL     1     -10.432  19.274  66.018  1.00  0.00    -0.465 OA 
ENDBRANCH   6  13
BRANCH  10  16
HETATM   16  O   UNL     1     -10.888  15.827  66.064  1.00  0.00    -0.317 OA 
BRANCH  16  17
HETATM   17  C   UNL     1     -11.594  14.577  66.029  1.00  0.00    -0.356 C  
HETATM   18  O   UNL     1     -10.844  13.564  66.707  1.00  0.00    -0.280 OA 
HETATM   19  C   UNL     1     -11.535  12.302  66.746  1.00  0.00    -0.361 C  
HETATM   20  C   UNL     1     -11.757  11.772  65.324  1.00  0.00    -0.065 C  
HETATM   21  H   UNL     1     -12.951  14.943  63.065  1.00  0.00     0.000 HD 
HETATM   22  O   UNL     1     -12.759  15.182  63.964  1.00  0.00    -0.746 OA 
HETATM   23  C   UNL     1     -12.588  12.802  64.549  1.00  0.00    -0.389 C  
HETATM   24  O   UNL     1     -10.533  11.590  64.596  1.00  0.00    -0.266 OA 
HETATM   25  H   UNL     1     -13.305  12.982  62.730  1.00  0.00     0.000 HD 
HETATM   26  O   UNL     1     -12.791  12.343  63.210  1.00  0.00    -0.696 OA 
HETATM   27  H   UNL     1     -10.670  11.262  63.715  1.00  0.00     0.000 HD 
HETATM   28  C   UNL     1     -11.907  14.187  64.564  1.00  0.00    -0.436 C  
BRANCH  19  29
HETATM   29  C   UNL     1     -10.724  11.339  67.617  1.00  0.00    -0.226 C  
HETATM   30  O   UNL     1     -11.603  10.379  68.205  1.00  0.00    -0.631 OA 
HETATM   31  H   UNL     1     -11.101   9.781  68.745  1.00  0.00     0.000 HD 
ENDBRANCH  19  29
ENDBRANCH  16  17
ENDBRANCH  10  16
ENDBRANCH   3   4
TORSDOF 5
ENDMDL
MODEL       11
REMARK 921   NORMALIZED FREE ENERGY PREDICTED BY IDOCK:   -5.95 KCAL/MOL
REMARK 922        TOTAL FREE ENERGY PREDICTED BY IDOCK:   -9.27 KCAL/MOL
REMARK 923 INTER-LIGAND FREE ENERGY PREDICTED BY IDOCK:   -8.62 KCAL/MOL
REMARK 924 INTRA-LIGAND FREE ENERGY PREDICTED BY IDOCK:   -0.65 KCAL/MOL
REMARK 927      BINDING AFFINITY PREDICTED BY RF-SCORE:    0.00 PKD
ROOT
HETATM    1  O   UNL     1      -8.394  12.299  66.318  1.00  0.00    -0.394 OA 
HETATM    2  H   UNL     1      -7.741  11.695  66.652  1.00  0.00     0.000 HD 
HETATM    3  C   UNL     1      -8.798  13.190  67.357  1.00  0.00    -0.204 C  
ENDROOT
BRANCH   3   4
HETATM    4  C   UNL     1      -9.850  14.163  66.818  1.00  0.00    -0.272 C  
HETATM    5  O   UNL     1      -9.882  14.087  65.380  1.00  0.00    -0.278 OA 
HETATM    6  C   UNL     1     -11.216  14.413  64.981  1.00  0.00    -0.375 C  
HETATM    7  O   UNL     1     -11.494  13.720  63.758  1.00  0.00    -0.600 OA 
HETATM    8  H   UNL     1     -13.090  12.186  66.469  1.00  0.00     0.000 HD 
HETATM    9  C   UNL     1     -12.137  13.878  66.086  1.00  0.00    -0.448 C  
HETATM   10  C   UNL     1     -11.258  13.845  67.337  1.00  0.00    -0.312 C  
HETATM   11  O   UNL     1     -12.520  12.517  65.784  1.00  0.00    -0.626 OA 
HETATM   12  H   UNL     1     -12.380  13.936  63.492  1.00  0.00     0.000 HD 
BRANCH   6  13
HETATM   13  C   UNL     1     -11.325  15.926  64.743  1.00  0.00    -0.309 C  
HETATM   14  H   UNL     1     -12.442  17.095  63.638  1.00  0.00     0.000 HD 
HETATM   15  O   UNL     1     -12.375  16.159  63.786  1.00  0.00    -0.864 OA 
ENDBRANCH   6  13
BRANCH  10  16
HETATM   16  O   UNL     1     -11.710  14.810  68.299  1.00  0.00    -0.308 OA 
BRANCH  16  17
HETATM   17  C   UNL     1     -11.646  14.331  69.652  1.00  0.00    -0.296 C  
HETATM   18  O   UNL     1     -12.381  13.109  69.781  1.00  0.00    -0.222 OA 
HETATM   19  C   UNL     1     -12.304  12.560  71.109  1.00  0.00    -0.140 C  
HETATM   20  C   UNL     1     -12.927  13.529  72.123  1.00  0.00    -0.311 C  
HETATM   21  H   UNL     1     -11.626  17.258  71.133  1.00  0.00     0.000 HD 
HETATM   22  O   UNL     1     -11.313  16.588  70.537  1.00  0.00    -0.311 OA 
HETATM   23  C   UNL     1     -12.159  14.855  72.059  1.00  0.00    -0.359 C  
HETATM   24  O   UNL     1     -14.302  13.827  71.842  1.00  0.00    -0.375 OA 
HETATM   25  H   UNL     1     -12.259  16.608  72.938  1.00  0.00     0.000 HD 
HETATM   26  O   UNL     1     -12.735  15.786  72.979  1.00  0.00    -0.400 OA 
HETATM   27  H   UNL     1     -14.688  14.427  72.469  1.00  0.00     0.000 HD 
HETATM   28  C   UNL     1     -12.156  15.423  70.623  1.00  0.00    -0.369 C  
BRANCH  19  29
HETATM   29  C   UNL     1     -12.988  11.191  71.102  1.00  0.00    -0.296 C  
HETATM   30  O   UNL     1     -12.815  10.583  69.821  1.00  0.00    -0.555 OA 
HETATM   31  H   UNL     1     -13.240   9.733  69.816  1.00  0.00     0.000 HD 
ENDBRANCH  19  29
ENDBRANCH  16  17
ENDBRANCH  10  16
ENDBRANCH   3   4
TORSDOF 5
ENDMDL
MODEL       12
REMARK 921   NORMALIZED FREE ENERGY PREDICTED BY IDOCK:   -5.94 KCAL/MOL
REMARK 922        TOTAL FREE ENERGY PREDICTED BY IDOCK:   -9.27 KCAL/MOL
REMARK 923 INTER-LIGAND FREE ENERGY PREDICTED BY IDOCK:   -8.41 KCAL/MOL
REMARK 924 INTRA-LIGAND FREE ENERGY PREDICTED BY IDOCK:   -0.86 KCAL/MOL
REMARK 927      BINDING AFFINITY PREDICTED BY RF-SCORE:    0.00 PKD
ROOT
HETATM    1  O   UNL     1      -7.753  20.789  66.563  1.00  0.00    -0.525 OA 
HETATM    2  H   UNL     1      -7.148  21.445  66.236  1.00  0.00     0.000 HD 
HETATM    3  C   UNL     1      -7.081  19.537  66.688  1.00  0.00    -0.215 C  
ENDROOT
BRANCH   3   4
HETATM    4  C   UNL     1      -8.055  18.481  67.215  1.00  0.00    -0.241 C  
HETATM    5  O   UNL     1      -8.558  18.892  68.501  1.00  0.00    -0.329 OA 
HETATM    6  C   UNL     1      -9.868  18.331  68.628  1.00  0.00    -0.380 C  
HETATM    7  O   UNL     1     -10.643  19.201  69.463  1.00  0.00    -0.191 OA 
HETATM    8  H   UNL     1     -11.538  19.554  66.098  1.00  0.00     0.000 HD 
HETATM    9  C   UNL     1     -10.468  18.319  67.215  1.00  0.00    -0.398 C  
HETATM   10  C   UNL     1      -9.256  18.279  66.283  1.00  0.00    -0.203 C  
HETATM   11  O   UNL     1     -11.167  19.561  66.972  1.00  0.00    -0.338 OA 
HETATM   12  H   UNL     1     -11.513  18.829  69.547  1.00  0.00     0.000 HD 
BRANCH   6  13
HETATM   13  C   UNL     1      -9.772  16.947  69.287  1.00  0.00    -0.110 C  
HETATM   14  H   UNL     1     -11.030  15.705  70.130  1.00  0.00     0.000 HD 
HETATM   15  O   UNL     1     -11.089  16.561  69.722  1.00  0.00    -0.337 OA 
ENDBRANCH   6  13
BRANCH  10  16
HETATM   16  O   UNL     1      -9.196  17.026  65.585  1.00  0.00    -0.508 OA 
BRANCH  16  17
HETATM   17  C   UNL     1     -10.296  16.155  65.891  1.00  0.00    -0.367 C  
HETATM   18  O   UNL     1      -9.871  15.108  66.770  1.00  0.00    -0.231 OA 
HETATM   19  C   UNL     1     -10.952  14.237  67.149  1.00  0.00    -0.302 C  
HETATM   20  C   UNL     1     -11.528  13.533  65.913  1.00  0.00    -0.320 C  
HETATM   21  H   UNL     1     -11.807  16.351  62.986  1.00  0.00     0.000 HD 
HETATM   22  O   UNL     1     -11.429  16.689  63.789  1.00  0.00    -1.015 OA 
HETATM   23  C   UNL     1     -12.035  14.605  64.941  1.00  0.00    -0.400 C  
HETATM   24  O   UNL     1     -10.552  12.754  65.205  1.00  0.00    -0.278 OA 
HETATM   25  H   UNL     1     -12.871  14.642  63.164  1.00  0.00     0.000 HD 
HETATM   26  O   UNL     1     -12.557  13.978  63.766  1.00  0.00    -0.772 OA 
HETATM   27  H   UNL     1     -10.909  12.319  64.440  1.00  0.00     0.000 HD 
HETATM   28  C   UNL     1     -10.913  15.604  64.583  1.00  0.00    -0.325 C  
BRANCH  19  29
HETATM   29  C   UNL     1     -10.428  13.253  68.199  1.00  0.00    -0.245 C  
HETATM   30  O   UNL     1     -11.065  13.513  69.450  1.00  0.00    -0.381 OA 
HETATM   31  H   UNL     1     -10.740  12.903  70.102  1.00  0.00     0.000 HD 
ENDBRANCH  19  29
ENDBRANCH  16  17
ENDBRANCH  10  16
ENDBRANCH   3   4
TORSDOF 5
ENDMDL
MODEL       13
REMARK 921   NORMALIZED FREE ENERGY PREDICTED BY IDOCK:   -5.86 KCAL/MOL
REMARK 922        TOTAL FREE ENERGY PREDICTED BY IDOCK:   -9.16 KCAL/MOL
REMARK 923 INTER-LIGAND FREE ENERGY PREDICTED BY IDOCK:   -8.54 KCAL/MOL
REMARK 924 INTRA-LIGAND FREE ENERGY PREDICTED BY IDOCK:   -0.62 KCAL/MOL
REMARK 927      BINDING AFFINITY PREDICTED BY RF-SCORE:    0.00 PKD
ROOT
HETATM    1  O   UNL     1     -10.466  10.825  62.656  1.00  0.00    -0.760 OA 
HETATM    2  H   UNL     1     -10.178  10.058  62.173  1.00  0.00     0.000 HD 
HETATM    3  C   UNL     1      -9.648  10.998  63.812  1.00  0.00    -0.286 C  
ENDROOT
BRANCH   3   4
HETATM    4  C   UNL     1     -10.111  12.233  64.589  1.00  0.00    -0.250 C  
HETATM    5  O   UNL     1     -10.661  13.198  63.672  1.00  0.00    -0.191 OA 
HETATM    6  C   UNL     1     -11.645  13.939  64.397  1.00  0.00    -0.382 C  
HETATM    7  O   UNL     1     -12.647  14.373  63.468  1.00  0.00    -1.043 OA 
HETATM    8  H   UNL     1     -13.796  11.692  65.403  1.00  0.00     0.000 HD 
HETATM    9  C   UNL     1     -12.273  12.957  65.395  1.00  0.00    -0.478 C  
HETATM   10  C   UNL     1     -11.193  11.898  65.624  1.00  0.00    -0.306 C  
HETATM   11  O   UNL     1     -13.407  12.300  64.785  1.00  0.00    -0.631 OA 
HETATM   12  H   UNL     1     -13.301  14.865  63.949  1.00  0.00     0.000 HD 
BRANCH   6  13
HETATM   13  C   UNL     1     -10.989  15.167  65.045  1.00  0.00    -0.430 C  
HETATM   14  H   UNL     1     -10.968  17.094  64.696  1.00  0.00     0.000 HD 
HETATM   15  O   UNL     1     -11.374  16.335  64.296  1.00  0.00    -0.741 OA 
ENDBRANCH   6  13
BRANCH  10  16
HETATM   16  O   UNL     1     -10.695  11.965  66.968  1.00  0.00    -0.223 OA 
BRANCH  16  17
HETATM   17  C   UNL     1     -11.232  10.942  67.821  1.00  0.00    -0.317 C  
HETATM   18  O   UNL     1     -11.684  11.511  69.055  1.00  0.00    -0.279 OA 
HETATM   19  C   UNL     1     -12.280  10.532  69.925  1.00  0.00    -0.218 C  
HETATM   20  C   UNL     1     -11.248   9.465  70.313  1.00  0.00    -0.246 C  
HETATM   21  H   UNL     1      -9.195   8.532  66.922  1.00  0.00     0.000 HD 
HETATM   22  O   UNL     1      -9.843   9.214  66.786  1.00  0.00    -0.187 OA 
HETATM   23  C   UNL     1     -10.746   8.790  69.031  1.00  0.00    -0.112 C  
HETATM   24  O   UNL     1     -10.099  10.011  70.976  1.00  0.00    -0.250 OA 
HETATM   25  H   UNL     1      -9.453   7.387  68.567  1.00  0.00     0.000 HD 
HETATM   26  O   UNL     1      -9.764   7.805  69.362  1.00  0.00    -0.166 OA 
HETATM   27  H   UNL     1      -9.460   9.351  71.216  1.00  0.00     0.000 HD 
HETATM   28  C   UNL     1     -10.177   9.832  68.044  1.00  0.00    -0.190 C  
BRANCH  19  29
HETATM   29  C   UNL     1     -12.862  11.261  71.139  1.00  0.00    -0.352 C  
HETATM   30  O   UNL     1     -13.171  10.310  72.158  1.00  0.00    -0.500 OA 
HETATM   31  H   UNL     1     -13.532  10.762  72.912  1.00  0.00     0.000 HD 
ENDBRANCH  19  29
ENDBRANCH  16  17
ENDBRANCH  10  16
ENDBRANCH   3   4
TORSDOF 5
ENDMDL
MODEL       14
REMARK 921   NORMALIZED FREE ENERGY PREDICTED BY IDOCK:   -5.85 KCAL/MOL
REMARK 922        TOTAL FREE ENERGY PREDICTED BY IDOCK:   -9.15 KCAL/MOL
REMARK 923 INTER-LIGAND FREE ENERGY PREDICTED BY IDOCK:   -8.14 KCAL/MOL
REMARK 924 INTRA-LIGAND FREE ENERGY PREDICTED BY IDOCK:   -1.00 KCAL/MOL
REMARK 927      BINDING AFFINITY PREDICTED BY RF-SCORE:    0.00 PKD
ROOT
HETATM    1  O   UNL     1     -10.736  10.759  63.555  1.00  0.00    -0.530 OA 
HETATM    2  H   UNL     1     -10.506  10.221  62.806  1.00  0.00     0.000 HD 
HETATM    3  C   UNL     1     -10.064  12.015  63.466  1.00  0.00    -0.424 C  
ENDROOT
BRANCH   3   4
HETATM    4  C   UNL     1     -10.435  12.881  64.672  1.00  0.00    -0.363 C  
HETATM    5  O   UNL     1      -9.924  14.215  64.480  1.00  0.00    -0.210 OA 
HETATM    6  C   UNL     1     -10.806  15.097  65.179  1.00  0.00    -0.422 C  
HETATM    7  O   UNL     1     -10.795  16.361  64.503  1.00  0.00    -0.886 OA 
HETATM    8  H   UNL     1     -13.734  14.589  63.817  1.00  0.00     0.000 HD 
HETATM    9  C   UNL     1     -12.206  14.478  65.071  1.00  0.00    -0.373 C  
HETATM   10  C   UNL     1     -11.952  12.983  64.872  1.00  0.00    -0.396 C  
HETATM   11  O   UNL     1     -12.867  14.972  63.883  1.00  0.00    -0.679 OA 
HETATM   12  H   UNL     1     -11.381  16.947  64.967  1.00  0.00     0.000 HD 
BRANCH   6  13
HETATM   13  C   UNL     1     -10.307  15.286  66.619  1.00  0.00    -0.280 C  
HETATM   14  H   UNL     1      -9.547  16.763  67.657  1.00  0.00     0.000 HD 
HETATM   15  O   UNL     1      -9.856  16.646  66.766  1.00  0.00    -0.252 OA 
ENDBRANCH   6  13
BRANCH  10  16
HETATM   16  O   UNL     1     -12.399  12.237  66.014  1.00  0.00    -0.609 OA 
BRANCH  16  17
HETATM   17  C   UNL     1     -11.321  11.770  66.841  1.00  0.00    -0.320 C  
HETATM   18  O   UNL     1     -10.835  10.513  66.358  1.00  0.00    -0.146 OA 
HETATM   19  C   UNL     1      -9.718  10.026  67.123  1.00  0.00    -0.174 C  
HETATM   20  C   UNL     1     -10.135   9.779  68.578  1.00  0.00    -0.166 C  
HETATM   21  H   UNL     1     -12.436  12.949  69.692  1.00  0.00     0.000 HD 
HETATM   22  O   UNL     1     -12.152  12.999  68.787  1.00  0.00    -0.293 OA 
HETATM   23  C   UNL     1     -10.638  11.102  69.168  1.00  0.00    -0.204 C  
HETATM   24  O   UNL     1     -11.207   8.832  68.701  1.00  0.00    -0.395 OA 
HETATM   25  H   UNL     1     -11.368  11.716  70.884  1.00  0.00     0.000 HD 
HETATM   26  O   UNL     1     -11.056  10.896  70.520  1.00  0.00    -0.168 OA 
HETATM   27  H   UNL     1     -11.466   8.679  69.602  1.00  0.00     0.000 HD 
HETATM   28  C   UNL     1     -11.784  11.688  68.315  1.00  0.00    -0.304 C  
BRANCH  19  29
HETATM   29  C   UNL     1      -9.182   8.766  66.439  1.00  0.00    -0.189 C  
HETATM   30  O   UNL     1      -9.578   8.768  65.067  1.00  0.00    -0.362 OA 
HETATM   31  H   UNL     1      -9.246   7.986  64.642  1.00  0.00     0.000 HD 
ENDBRANCH  19  29
ENDBRANCH  16  17
ENDBRANCH  10  16
ENDBRANCH   3   4
TORSDOF 5
ENDMDL
MODEL       15
REMARK 921   NORMALIZED FREE ENERGY PREDICTED BY IDOCK:   -5.84 KCAL/MOL
REMARK 922        TOTAL FREE ENERGY PREDICTED BY IDOCK:   -9.13 KCAL/MOL
REMARK 923 INTER-LIGAND FREE ENERGY PREDICTED BY IDOCK:   -7.69 KCAL/MOL
REMARK 924 INTRA-LIGAND FREE ENERGY PREDICTED BY IDOCK:   -1.44 KCAL/MOL
REMARK 927      BINDING AFFINITY PREDICTED BY RF-SCORE:    0.00 PKD
ROOT
HETATM    1  O   UNL     1      -7.012  14.155  67.186  1.00  0.00    -0.388 OA 
HETATM    2  H   UNL     1      -6.231  14.127  67.728  1.00  0.00     0.000 HD 
HETATM    3  C   UNL     1      -7.803  12.992  67.424  1.00  0.00    -0.164 C  
ENDROOT
BRANCH   3   4
HETATM    4  C   UNL     1      -9.059  13.037  66.551  1.00  0.00    -0.127 C  
HETATM    5  O   UNL     1      -9.920  11.933  66.891  1.00  0.00    -0.198 OA 
HETATM    6  C   UNL     1     -11.259  12.358  66.624  1.00  0.00    -0.315 C  
HETATM    7  O   UNL     1     -12.131  11.668  67.526  1.00  0.00    -0.611 OA 
HETATM    8  H   UNL     1     -11.679  14.997  68.508  1.00  0.00     0.000 HD 
HETATM    9  C   UNL     1     -11.300  13.862  66.931  1.00  0.00    -0.328 C  
HETATM   10  C   UNL     1      -9.857  14.333  66.745  1.00  0.00    -0.270 C  
HETATM   11  O   UNL     1     -11.652  14.066  68.318  1.00  0.00    -0.290 OA 
HETATM   12  H   UNL     1     -13.021  11.950  67.349  1.00  0.00     0.000 HD 
BRANCH   6  13
HETATM   13  C   UNL     1     -11.633  11.997  65.179  1.00  0.00    -0.272 C  
HETATM   14  H   UNL     1     -13.089  12.453  63.952  1.00  0.00     0.000 HD 
HETATM   15  O   UNL     1     -12.857  12.677  64.845  1.00  0.00    -0.763 OA 
ENDBRANCH   6  13
BRANCH  10  16
HETATM   16  O   UNL     1      -9.752  15.208  65.613  1.00  0.00    -0.336 OA 
BRANCH  16  17
HETATM   17  C   UNL     1      -9.322  16.534  65.962  1.00  0.00    -0.267 C  
HETATM   18  O   UNL     1      -8.654  16.521  67.228  1.00  0.00    -0.177 OA 
HETATM   19  C   UNL     1      -8.157  17.820  67.599  1.00  0.00    -0.222 C  
HETATM   20  C   UNL     1      -9.318  18.811  67.752  1.00  0.00    -0.293 C  
HETATM   21  H   UNL     1     -11.837  18.157  64.619  1.00  0.00     0.000 HD 
HETATM   22  O   UNL     1     -11.095  17.564  64.626  1.00  0.00    -0.978 OA 
HETATM   23  C   UNL     1     -10.060  18.896  66.412  1.00  0.00    -0.409 C  
HETATM   24  O   UNL     1     -10.279  18.401  68.736  1.00  0.00    -0.379 OA 
HETATM   25  H   UNL     1     -11.623  19.850  65.703  1.00  0.00     0.000 HD 
HETATM   26  O   UNL     1     -11.164  19.798  66.533  1.00  0.00    -0.196 OA 
HETATM   27  H   UNL     1     -10.998  19.015  68.831  1.00  0.00     0.000 HD 
HETATM   28  C   UNL     1     -10.531  17.500  65.951  1.00  0.00    -0.249 C  
BRANCH  19  29
HETATM   29  C   UNL     1      -7.335  17.669  68.881  1.00  0.00    -0.239 C  
HETATM   30  O   UNL     1      -7.295  16.292  69.258  1.00  0.00    -0.221 OA 
HETATM   31  H   UNL     1      -6.785  16.199  70.054  1.00  0.00     0.000 HD 
ENDBRANCH  19  29
ENDBRANCH  16  17
ENDBRANCH  10  16
ENDBRANCH   3   4
TORSDOF 5
ENDMDL
MODEL       16
REMARK 921   NORMALIZED FREE ENERGY PREDICTED BY IDOCK:   -5.80 KCAL/MOL
REMARK 922        TOTAL FREE ENERGY PREDICTED BY IDOCK:   -9.07 KCAL/MOL
REMARK 923 INTER-LIGAND FREE ENERGY PREDICTED BY IDOCK:   -8.43 KCAL/MOL
REMARK 924 INTRA-LIGAND FREE ENERGY PREDICTED BY IDOCK:   -0.64 KCAL/MOL
REMARK 927      BINDING AFFINITY PREDICTED BY RF-SCORE:    0.00 PKD
ROOT
HETATM    1  O   UNL     1     -11.680  16.419  63.601  1.00  0.00    -1.520 OA 
HETATM    2  H   UNL     1     -12.478  16.108  63.189  1.00  0.00     0.000 HD 
HETATM    3  C   UNL     1     -11.596  15.907  64.931  1.00  0.00    -0.058 C  
ENDROOT
BRANCH   3   4
HETATM    4  C   UNL     1     -10.310  16.409  65.594  1.00  0.00    -0.350 C  
HETATM    5  O   UNL     1     -10.395  17.834  65.788  1.00  0.00    -0.570 OA 
HETATM    6  C   UNL     1      -9.602  18.140  66.938  1.00  0.00    -0.299 C  
HETATM    7  O   UNL     1     -10.163  19.298  67.567  1.00  0.00    -0.362 OA 
HETATM    8  H   UNL     1     -10.942  16.390  69.353  1.00  0.00     0.000 HD 
HETATM    9  C   UNL     1      -9.735  16.937  67.882  1.00  0.00    -0.254 C  
HETATM   10  C   UNL     1     -10.070  15.761  66.963  1.00  0.00    -0.261 C  
HETATM   11  O   UNL     1     -10.860  17.135  68.768  1.00  0.00    -0.305 OA 
HETATM   12  H   UNL     1      -9.637  19.501  68.332  1.00  0.00     0.000 HD 
BRANCH   6  13
HETATM   13  C   UNL     1      -8.162  18.446  66.501  1.00  0.00    -0.269 C  
HETATM   14  H   UNL     1      -7.160  20.054  66.005  1.00  0.00     0.000 HD 
HETATM   15  O   UNL     1      -8.050  19.864  66.275  1.00  0.00    -0.320 OA 
ENDBRANCH   6  13
BRANCH  10  16
HETATM   16  O   UNL     1      -8.989  14.817  66.933  1.00  0.00    -0.226 OA 
BRANCH  16  17
HETATM   17  C   UNL     1      -9.420  13.473  66.669  1.00  0.00    -0.265 C  
HETATM   18  O   UNL     1      -9.774  13.327  65.290  1.00  0.00    -0.122 OA 
HETATM   19  C   UNL     1     -10.164  11.981  64.962  1.00  0.00    -0.276 C  
HETATM   20  C   UNL     1     -11.415  11.580  65.756  1.00  0.00    -0.006 C  
HETATM   21  H   UNL     1     -10.864  12.919  69.563  1.00  0.00     0.000 HD 
HETATM   22  O   UNL     1     -10.147  13.149  68.983  1.00  0.00    -0.024 OA 
HETATM   23  C   UNL     1     -11.090  11.684  67.251  1.00  0.00    -0.290 C  
HETATM   24  O   UNL     1     -12.535  12.443  65.511  1.00  0.00    -0.643 OA 
HETATM   25  H   UNL     1     -12.046  11.402  68.943  1.00  0.00     0.000 HD 
HETATM   26  O   UNL     1     -12.248  11.338  68.017  1.00  0.00    -0.621 OA 
HETATM   27  H   UNL     1     -13.309  12.196  66.002  1.00  0.00     0.000 HD 
HETATM   28  C   UNL     1     -10.589  13.098  67.613  1.00  0.00    -0.228 C  
BRANCH  19  29
HETATM   29  C   UNL     1     -10.373  11.898  63.448  1.00  0.00    -0.444 C  
HETATM   30  O   UNL     1     -11.349  12.863  63.052  1.00  0.00    -0.721 OA 
HETATM   31  H   UNL     1     -11.479  12.812  62.113  1.00  0.00     0.000 HD 
ENDBRANCH  19  29
ENDBRANCH  16  17
ENDBRANCH  10  16
ENDBRANCH   3   4
TORSDOF 5
ENDMDL
MODEL       17
REMARK 921   NORMALIZED FREE ENERGY PREDICTED BY IDOCK:   -5.76 KCAL/MOL
REMARK 922        TOTAL FREE ENERGY PREDICTED BY IDOCK:   -9.03 KCAL/MOL
REMARK 923 INTER-LIGAND FREE ENERGY PREDICTED BY IDOCK:   -7.26 KCAL/MOL
REMARK 924 INTRA-LIGAND FREE ENERGY PREDICTED BY IDOCK:   -1.77 KCAL/MOL
REMARK 927      BINDING AFFINITY PREDICTED BY RF-SCORE:    0.00 PKD
ROOT
HETATM    1  O   UNL     1      -9.958  10.598  65.192  1.00  0.00    -0.261 OA 
HETATM    2  H   UNL     1      -9.666  10.456  64.299  1.00  0.00     0.000 HD 
HETATM    3  C   UNL     1     -10.015   9.350  65.882  1.00  0.00    -0.256 C  
ENDROOT
BRANCH   3   4
HETATM    4  C   UNL     1     -10.487   9.579  67.320  1.00  0.00    -0.262 C  
HETATM    5  O   UNL     1      -9.668   8.809  68.221  1.00  0.00    -0.152 OA 
HETATM    6  C   UNL     1      -9.643   9.520  69.462  1.00  0.00    -0.188 C  
HETATM    7  O   UNL     1      -8.396   9.239  70.109  1.00  0.00    -0.138 OA 
HETATM    8  H   UNL     1      -8.399  12.448  68.711  1.00  0.00     0.000 HD 
HETATM    9  C   UNL     1      -9.703  11.011  69.103  1.00  0.00    -0.076 C  
HETATM   10  C   UNL     1     -10.390  11.051  67.737  1.00  0.00    -0.188 C  
HETATM   11  O   UNL     1      -8.362  11.525  68.933  1.00  0.00    -0.110 OA 
HETATM   12  H   UNL     1      -8.379   9.711  70.933  1.00  0.00     0.000 HD 
BRANCH   6  13
HETATM   13  C   UNL     1     -10.797   9.037  70.353  1.00  0.00    -0.246 C  
HETATM   14  H   UNL     1     -12.026   9.870  71.630  1.00  0.00     0.000 HD 
HETATM   15  O   UNL     1     -11.313  10.169  71.078  1.00  0.00    -0.347 OA 
ENDBRANCH   6  13
BRANCH  10  16
HETATM   16  O   UNL     1     -11.681  11.671  67.839  1.00  0.00    -0.459 OA 
BRANCH  16  17
HETATM   17  C   UNL     1     -11.875  12.731  66.889  1.00  0.00    -0.371 C  
HETATM   18  O   UNL     1     -12.115  12.190  65.585  1.00  0.00    -0.545 OA 
HETATM   19  C   UNL     1     -12.368  13.213  64.605  1.00  0.00    -0.405 C  
HETATM   20  C   UNL     1     -11.142  14.124  64.457  1.00  0.00    -0.330 C  
HETATM   21  H   UNL     1      -9.783  14.877  68.221  1.00  0.00     0.000 HD 
HETATM   22  O   UNL     1     -10.530  14.291  68.209  1.00  0.00    -0.235 OA 
HETATM   23  C   UNL     1     -10.850  14.764  65.820  1.00  0.00    -0.331 C  
HETATM   24  O   UNL     1      -9.959  13.413  64.067  1.00  0.00    -0.764 OA 
HETATM   25  H   UNL     1      -9.515  15.998  66.561  1.00  0.00     0.000 HD 
HETATM   26  O   UNL     1      -9.696  15.603  65.717  1.00  0.00    -0.328 OA 
HETATM   27  H   UNL     1      -9.200  13.977  63.975  1.00  0.00     0.000 HD 
HETATM   28  C   UNL     1     -10.658  13.686  66.908  1.00  0.00    -0.271 C  
BRANCH  19  29
HETATM   29  C   UNL     1     -12.760  12.531  63.291  1.00  0.00    -0.091 C  
HETATM   30  O   UNL     1     -11.877  11.435  63.046  1.00  0.00    -0.903 OA 
HETATM   31  H   UNL     1     -12.120  11.012  62.231  1.00  0.00     0.000 HD 
ENDBRANCH  19  29
ENDBRANCH  16  17
ENDBRANCH  10  16
ENDBRANCH   3   4
TORSDOF 5
ENDMDL
MODEL       18
REMARK 921   NORMALIZED FREE ENERGY PREDICTED BY IDOCK:   -5.76 KCAL/MOL
REMARK 922        TOTAL FREE ENERGY PREDICTED BY IDOCK:   -9.03 KCAL/MOL
REMARK 923 INTER-LIGAND FREE ENERGY PREDICTED BY IDOCK:   -8.07 KCAL/MOL
REMARK 924 INTRA-LIGAND FREE ENERGY PREDICTED BY IDOCK:   -0.96 KCAL/MOL
REMARK 927      BINDING AFFINITY PREDICTED BY RF-SCORE:    0.00 PKD
ROOT
HETATM    1  O   UNL     1     -11.355  13.600  69.121  1.00  0.00    -0.261 OA 
HETATM    2  H   UNL     1     -11.607  13.940  69.972  1.00  0.00     0.000 HD 
HETATM    3  C   UNL     1     -12.160  14.201  68.108  1.00  0.00    -0.262 C  
ENDROOT
BRANCH   3   4
HETATM    4  C   UNL     1     -11.756  13.653  66.738  1.00  0.00    -0.392 C  
HETATM    5  O   UNL     1     -12.704  14.092  65.746  1.00  0.00    -0.516 OA 
HETATM    6  C   UNL     1     -11.993  14.182  64.509  1.00  0.00    -0.458 C  
HETATM    7  O   UNL     1     -12.611  15.203  63.716  1.00  0.00    -0.982 OA 
HETATM    8  H   UNL     1      -9.593  16.325  65.089  1.00  0.00     0.000 HD 
HETATM    9  C   UNL     1     -10.564  14.614  64.866  1.00  0.00    -0.422 C  
HETATM   10  C   UNL     1     -10.366  14.136  66.305  1.00  0.00    -0.292 C  
HETATM   11  O   UNL     1     -10.478  16.057  64.868  1.00  0.00    -0.574 OA 
HETATM   12  H   UNL     1     -12.139  15.263  62.894  1.00  0.00     0.000 HD 
BRANCH   6  13
HETATM   13  C   UNL     1     -12.082  12.839  63.768  1.00  0.00    -0.517 C  
HETATM   14  H   UNL     1     -13.404  11.402  63.623  1.00  0.00     0.000 HD 
HETATM   15  O   UNL     1     -13.349  12.233  64.081  1.00  0.00    -0.731 OA 
ENDBRANCH   6  13
BRANCH  10  16
HETATM   16  O   UNL     1      -9.387  13.087  66.359  1.00  0.00    -0.244 OA 
BRANCH  16  17
HETATM   17  C   UNL     1      -9.967  11.779  66.482  1.00  0.00    -0.204 C  
HETATM   18  O   UNL     1     -10.111  11.427  67.862  1.00  0.00    -0.176 OA 
HETATM   19  C   UNL     1     -10.737  10.144  68.039  1.00  0.00    -0.260 C  
HETATM   20  C   UNL     1      -9.874   9.039  67.417  1.00  0.00    -0.190 C  
HETATM   21  H   UNL     1      -8.575  10.451  63.825  1.00  0.00     0.000 HD 
HETATM   22  O   UNL     1      -9.098  11.083  64.303  1.00  0.00    -0.181 OA 
HETATM   23  C   UNL     1      -9.709   9.340  65.923  1.00  0.00    -0.285 C  
HETATM   24  O   UNL     1      -8.555   8.974  67.979  1.00  0.00    -0.128 OA 
HETATM   25  H   UNL     1      -8.784   8.523  64.395  1.00  0.00     0.000 HD 
HETATM   26  O   UNL     1      -8.887   8.336  65.320  1.00  0.00    -0.138 OA 
HETATM   27  H   UNL     1      -8.020   8.290  67.594  1.00  0.00     0.000 HD 
HETATM   28  C   UNL     1      -9.114  10.748  65.704  1.00  0.00    -0.194 C  
BRANCH  19  29
HETATM   29  C   UNL     1     -10.980   9.932  69.536  1.00  0.00    -0.242 C  
HETATM   30  O   UNL     1     -12.190  10.591  69.916  1.00  0.00    -0.424 OA 
HETATM   31  H   UNL     1     -12.340  10.460  70.845  1.00  0.00     0.000 HD 
ENDBRANCH  19  29
ENDBRANCH  16  17
ENDBRANCH  10  16
ENDBRANCH   3   4
TORSDOF 5
ENDMDL
MODEL       19
REMARK 921   NORMALIZED FREE ENERGY PREDICTED BY IDOCK:   -5.75 KCAL/MOL
REMARK 922        TOTAL FREE ENERGY PREDICTED BY IDOCK:   -9.01 KCAL/MOL
REMARK 923 INTER-LIGAND FREE ENERGY PREDICTED BY IDOCK:   -8.12 KCAL/MOL
REMARK 924 INTRA-LIGAND FREE ENERGY PREDICTED BY IDOCK:   -0.90 KCAL/MOL
REMARK 927      BINDING AFFINITY PREDICTED BY RF-SCORE:    0.00 PKD
ROOT
HETATM    1  O   UNL     1     -12.466  14.112  68.588  1.00  0.00    -0.537 OA 
HETATM    2  H   UNL     1     -12.910  14.354  69.392  1.00  0.00     0.000 HD 
HETATM    3  C   UNL     1     -11.519  15.120  68.241  1.00  0.00    -0.336 C  
ENDROOT
BRANCH   3   4
HETATM    4  C   UNL     1     -10.804  14.730  66.945  1.00  0.00    -0.316 C  
HETATM    5  O   UNL     1     -11.747  14.123  66.041  1.00  0.00    -0.356 OA 
HETATM    6  C   UNL     1     -11.288  14.405  64.717  1.00  0.00    -0.388 C  
HETATM    7  O   UNL     1     -12.431  14.466  63.854  1.00  0.00    -0.911 OA 
HETATM    8  H   UNL     1     -11.202  17.669  64.550  1.00  0.00     0.000 HD 
HETATM    9  C   UNL     1     -10.626  15.788  64.778  1.00  0.00    -0.144 C  
HETATM   10  C   UNL     1     -10.184  15.939  66.234  1.00  0.00    -0.311 C  
HETATM   11  O   UNL     1     -11.612  16.812  64.512  1.00  0.00    -0.721 OA 
HETATM   12  H   UNL     1     -12.125  14.654  62.974  1.00  0.00     0.000 HD 
BRANCH   6  13
HETATM   13  C   UNL     1     -10.356  13.278  64.246  1.00  0.00    -0.294 C  
HETATM   14  H   UNL     1     -10.482  11.794  62.974  1.00  0.00     0.000 HD 
HETATM   15  O   UNL     1     -11.058  12.491  63.265  1.00  0.00    -0.438 OA 
ENDBRANCH   6  13
BRANCH  10  16
HETATM   16  O   UNL     1      -8.751  15.947  66.330  1.00  0.00    -0.306 OA 
BRANCH  16  17
HETATM   17  C   UNL     1      -8.239  17.085  67.040  1.00  0.00    -0.204 C  
HETATM   18  O   UNL     1      -9.314  17.931  67.463  1.00  0.00    -0.251 OA 
HETATM   19  C   UNL     1      -8.855  19.062  68.226  1.00  0.00    -0.333 C  
HETATM   20  C   UNL     1      -7.941  19.948  67.369  1.00  0.00    -0.289 C  
HETATM   21  H   UNL     1      -5.470  17.444  65.318  1.00  0.00     0.000 HD 
HETATM   22  O   UNL     1      -6.099  16.981  65.858  1.00  0.00    -0.084 OA 
HETATM   23  C   UNL     1      -6.745  19.105  66.909  1.00  0.00    -0.196 C  
HETATM   24  O   UNL     1      -8.587  20.439  66.185  1.00  0.00    -0.553 OA 
HETATM   25  H   UNL     1      -5.146  19.379  65.802  1.00  0.00     0.000 HD 
HETATM   26  O   UNL     1      -5.887  19.901  66.088  1.00  0.00    -0.170 OA 
HETATM   27  H   UNL     1      -8.021  20.988  65.654  1.00  0.00     0.000 HD 
HETATM   28  C   UNL     1      -7.215  17.841  66.159  1.00  0.00    -0.311 C  
BRANCH  19  29
HETATM   29  C   UNL     1     -10.080  19.812  68.754  1.00  0.00    -0.421 C  
HETATM   30  O   UNL     1     -11.142  19.711  67.804  1.00  0.00    -0.245 OA 
HETATM   31  H   UNL     1     -11.903  20.176  68.131  1.00  0.00     0.000 HD 
ENDBRANCH  19  29
ENDBRANCH  16  17
ENDBRANCH  10  16
ENDBRANCH   3   4
TORSDOF 5
ENDMDL
MODEL       20
REMARK 921   NORMALIZED FREE ENERGY PREDICTED BY IDOCK:   -5.73 KCAL/MOL
REMARK 922        TOTAL FREE ENERGY PREDICTED BY IDOCK:   -8.99 KCAL/MOL
REMARK 923 INTER-LIGAND FREE ENERGY PREDICTED BY IDOCK:   -7.74 KCAL/MOL
REMARK 924 INTRA-LIGAND FREE ENERGY PREDICTED BY IDOCK:   -1.25 KCAL/MOL
REMARK 927      BINDING AFFINITY PREDICTED BY RF-SCORE:    0.00 PKD
ROOT
HETATM    1  O   UNL     1     -12.085  12.249  67.783  1.00  0.00    -0.478 OA 
HETATM    2  H   UNL     1     -12.367  11.976  68.648  1.00  0.00     0.000 HD 
HETATM    3  C   UNL     1     -10.877  11.572  67.437  1.00  0.00    -0.246 C  
ENDROOT
BRANCH   3   4
HETATM    4  C   UNL     1     -10.422  12.012  66.043  1.00  0.00    -0.249 C  
HETATM    5  O   UNL     1     -11.036  11.169  65.050  1.00  0.00    -0.170 OA 
HETATM    6  C   UNL     1     -11.173  11.961  63.867  1.00  0.00    -0.420 C  
HETATM    7  O   UNL     1     -12.316  11.485  63.145  1.00  0.00    -0.938 OA 
HETATM    8  H   UNL     1     -13.022  14.498  64.781  1.00  0.00     0.000 HD 
HETATM    9  C   UNL     1     -11.436  13.397  64.341  1.00  0.00    -0.384 C  
HETATM   10  C   UNL     1     -10.812  13.463  65.735  1.00  0.00    -0.275 C  
HETATM   11  O   UNL     1     -12.859  13.609  64.488  1.00  0.00    -0.645 OA 
HETATM   12  H   UNL     1     -12.407  12.011  62.359  1.00  0.00     0.000 HD 
BRANCH   6  13
HETATM   13  C   UNL     1      -9.919  11.802  62.995  1.00  0.00    -0.239 C  
HETATM   14  H   UNL     1      -8.961  10.303  62.176  1.00  0.00     0.000 HD 
HETATM   15  O   UNL     1      -9.737  10.402  62.715  1.00  0.00    -0.312 OA 
ENDBRANCH   6  13
BRANCH  10  16
HETATM   16  O   UNL     1      -9.676  14.342  65.740  1.00  0.00    -0.297 OA 
BRANCH  16  17
HETATM   17  C   UNL     1      -9.522  15.058  66.975  1.00  0.00    -0.229 C  
HETATM   18  O   UNL     1     -10.768  15.109  67.678  1.00  0.00    -0.272 OA 
HETATM   19  C   UNL     1     -10.653  15.773  68.950  1.00  0.00    -0.233 C  
HETATM   20  C   UNL     1     -10.228  17.234  68.752  1.00  0.00    -0.353 C  
HETATM   21  H   UNL     1      -7.296  17.228  65.927  1.00  0.00     0.000 HD 
HETATM   22  O   UNL     1      -7.646  16.362  66.096  1.00  0.00    -0.163 OA 
HETATM   23  C   UNL     1      -8.876  17.249  68.029  1.00  0.00    -0.238 C  
HETATM   24  O   UNL     1     -11.146  17.980  67.939  1.00  0.00    -0.191 OA 
HETATM   25  H   UNL     1      -7.628  18.611  67.362  1.00  0.00     0.000 HD 
HETATM   26  O   UNL     1      -8.465  18.602  67.810  1.00  0.00    -0.268 OA 
HETATM   27  H   UNL     1     -10.883  18.884  67.816  1.00  0.00     0.000 HD 
HETATM   28  C   UNL     1      -8.951  16.470  66.699  1.00  0.00    -0.255 C  
BRANCH  19  29
HETATM   29  C   UNL     1     -11.992  15.641  69.681  1.00  0.00    -0.349 C  
HETATM   30  O   UNL     1     -12.738  14.564  69.110  1.00  0.00    -0.537 OA 
HETATM   31  H   UNL     1     -13.569  14.482  69.563  1.00  0.00     0.000 HD 
ENDBRANCH  19  29
ENDBRANCH  16  17
ENDBRANCH  10  16
ENDBRANCH   3   4
TORSDOF 5
ENDMDL
MODEL       21
REMARK 921   NORMALIZED FREE ENERGY PREDICTED BY IDOCK:   -5.70 KCAL/MOL
REMARK 922        TOTAL FREE ENERGY PREDICTED BY IDOCK:   -8.95 KCAL/MOL
REMARK 923 INTER-LIGAND FREE ENERGY PREDICTED BY IDOCK:   -7.34 KCAL/MOL
REMARK 924 INTRA-LIGAND FREE ENERGY PREDICTED BY IDOCK:   -1.61 KCAL/MOL
REMARK 927      BINDING AFFINITY PREDICTED BY RF-SCORE:    0.00 PKD
ROOT
HETATM    1  O   UNL     1      -8.739  14.226  68.708  1.00  0.00    -0.251 OA 
HETATM    2  H   UNL     1      -8.244  13.485  69.037  1.00  0.00     0.000 HD 
HETATM    3  C   UNL     1      -8.365  15.406  69.419  1.00  0.00    -0.250 C  
ENDROOT
BRANCH   3   4
HETATM    4  C   UNL     1      -9.163  16.599  68.888  1.00  0.00    -0.244 C  
HETATM    5  O   UNL     1      -8.308  17.757  68.822  1.00  0.00    -0.286 OA 
HETATM    6  C   UNL     1      -8.804  18.573  67.758  1.00  0.00    -0.275 C  
HETATM    7  O   UNL     1      -7.699  19.298  67.204  1.00  0.00    -0.241 OA 
HETATM    8  H   UNL     1      -8.655  16.661  65.111  1.00  0.00     0.000 HD 
HETATM    9  C   UNL     1      -9.358  17.609  66.700  1.00  0.00    -0.278 C  
HETATM   10  C   UNL     1      -9.723  16.347  67.483  1.00  0.00    -0.231 C  
HETATM   11  O   UNL     1      -8.312  17.258  65.766  1.00  0.00    -0.535 OA 
HETATM   12  H   UNL     1      -8.028  19.841  66.497  1.00  0.00     0.000 HD 
BRANCH   6  13
HETATM   13  C   UNL     1      -9.836  19.567  68.312  1.00  0.00    -0.416 C  
HETATM   14  H   UNL     1     -11.679  20.063  67.875  1.00  0.00     0.000 HD 
HETATM   15  O   UNL     1     -11.041  19.448  67.532  1.00  0.00    -0.417 OA 
ENDBRANCH   6  13
BRANCH  10  16
HETATM   16  O   UNL     1     -11.146  16.152  67.493  1.00  0.00    -0.282 OA 
BRANCH  16  17
HETATM   17  C   UNL     1     -11.544  14.873  66.978  1.00  0.00    -0.304 C  
HETATM   18  O   UNL     1     -11.332  13.854  67.961  1.00  0.00    -0.261 OA 
HETATM   19  C   UNL     1     -11.766  12.558  67.510  1.00  0.00    -0.374 C  
HETATM   20  C   UNL     1     -10.957  12.123  66.281  1.00  0.00    -0.295 C  
HETATM   21  H   UNL     1     -10.663  15.384  63.859  1.00  0.00     0.000 HD 
HETATM   22  O   UNL     1     -11.126  15.565  64.668  1.00  0.00    -0.412 OA 
HETATM   23  C   UNL     1     -11.168  13.161  65.172  1.00  0.00    -0.294 C  
HETATM   24  O   UNL     1      -9.545  12.060  66.532  1.00  0.00    -0.212 OA 
HETATM   25  H   UNL     1     -10.537  13.436  63.334  1.00  0.00     0.000 HD 
HETATM   26  O   UNL     1     -10.406  12.793  64.020  1.00  0.00    -0.415 OA 
HETATM   27  H   UNL     1      -9.044  11.791  65.771  1.00  0.00     0.000 HD 
HETATM   28  C   UNL     1     -10.789  14.576  65.660  1.00  0.00    -0.326 C  
BRANCH  19  29
HETATM   29  C   UNL     1     -11.638  11.577  68.679  1.00  0.00    -0.313 C  
HETATM   30  O   UNL     1     -10.396  11.798  69.348  1.00  0.00    -0.429 OA 
HETATM   31  H   UNL     1     -10.316  11.190  70.073  1.00  0.00     0.000 HD 
ENDBRANCH  19  29
ENDBRANCH  16  17
ENDBRANCH  10  16
ENDBRANCH   3   4
TORSDOF 5
ENDMDL
MODEL       22
REMARK 921   NORMALIZED FREE ENERGY PREDICTED BY IDOCK:   -5.70 KCAL/MOL
REMARK 922        TOTAL FREE ENERGY PREDICTED BY IDOCK:   -8.95 KCAL/MOL
REMARK 923 INTER-LIGAND FREE ENERGY PREDICTED BY IDOCK:   -7.70 KCAL/MOL
REMARK 924 INTRA-LIGAND FREE ENERGY PREDICTED BY IDOCK:   -1.26 KCAL/MOL
REMARK 927      BINDING AFFINITY PREDICTED BY RF-SCORE:    0.00 PKD
ROOT
HETATM    1  O   UNL     1     -11.951  10.778  67.923  1.00  0.00    -0.753 OA 
HETATM    2  H   UNL     1     -12.184  10.236  68.668  1.00  0.00     0.000 HD 
HETATM    3  C   UNL     1     -10.745  10.292  67.335  1.00  0.00    -0.281 C  
ENDROOT
BRANCH   3   4
HETATM    4  C   UNL     1     -10.370  11.165  66.135  1.00  0.00    -0.250 C  
HETATM    5  O   UNL     1     -10.871  10.561  64.927  1.00  0.00    -0.044 OA 
HETATM    6  C   UNL     1     -11.129  11.628  64.011  1.00  0.00    -0.384 C  
HETATM    7  O   UNL     1     -12.202  11.224  63.150  1.00  0.00    -0.814 OA 
HETATM    8  H   UNL     1     -13.304  13.527  65.545  1.00  0.00     0.000 HD 
HETATM    9  C   UNL     1     -11.585  12.822  64.860  1.00  0.00    -0.330 C  
HETATM   10  C   UNL     1     -10.961  12.577  66.235  1.00  0.00    -0.277 C  
HETATM   11  O   UNL     1     -13.022  12.787  65.019  1.00  0.00    -0.811 OA 
HETATM   12  H   UNL     1     -12.374  11.933  62.542  1.00  0.00     0.000 HD 
BRANCH   6  13
HETATM   13  C   UNL     1      -9.874  11.894  63.166  1.00  0.00    -0.249 C  
HETATM   14  H   UNL     1      -8.633  10.802  62.117  1.00  0.00     0.000 HD 
HETATM   15  O   UNL     1      -9.409  10.638  62.639  1.00  0.00    -0.268 OA 
ENDBRANCH   6  13
BRANCH  10  16
HETATM   16  O   UNL     1      -9.959  13.564  66.520  1.00  0.00    -0.272 OA 
BRANCH  16  17
HETATM   17  C   UNL     1     -10.059  14.105  67.847  1.00  0.00    -0.235 C  
HETATM   18  O   UNL     1     -11.224  13.594  68.503  1.00  0.00    -0.251 OA 
HETATM   19  C   UNL     1     -11.342  14.066  69.858  1.00  0.00    -0.145 C  
HETATM   20  C   UNL     1     -11.488  15.593  69.880  1.00  0.00    -0.338 C  
HETATM   21  H   UNL     1      -8.807  17.065  67.191  1.00  0.00     0.000 HD 
HETATM   22  O   UNL     1      -8.811  16.116  67.226  1.00  0.00    -0.180 OA 
HETATM   23  C   UNL     1     -10.249  16.206  69.216  1.00  0.00    -0.257 C  
HETATM   24  O   UNL     1     -12.629  16.057  69.143  1.00  0.00    -0.384 OA 
HETATM   25  H   UNL     1      -9.602  18.011  68.790  1.00  0.00     0.000 HD 
HETATM   26  O   UNL     1     -10.369  17.631  69.202  1.00  0.00    -0.353 OA 
HETATM   27  H   UNL     1     -12.720  17.003  69.156  1.00  0.00     0.000 HD 
HETATM   28  C   UNL     1     -10.053  15.651  67.789  1.00  0.00    -0.226 C  
BRANCH  19  29
HETATM   29  C   UNL     1     -12.525  13.349  70.513  1.00  0.00    -0.279 C  
HETATM   30  O   UNL     1     -13.031  14.152  71.581  1.00  0.00    -0.315 OA 
HETATM   31  H   UNL     1     -13.765  13.707  71.988  1.00  0.00     0.000 HD 
ENDBRANCH  19  29
ENDBRANCH  16  17
ENDBRANCH  10  16
ENDBRANCH   3   4
TORSDOF 5
ENDMDL
MODEL       23
REMARK 921   NORMALIZED FREE ENERGY PREDICTED BY IDOCK:   -5.68 KCAL/MOL
REMARK 922        TOTAL FREE ENERGY PREDICTED BY IDOCK:   -8.92 KCAL/MOL
REMARK 923 INTER-LIGAND FREE ENERGY PREDICTED BY IDOCK:   -8.27 KCAL/MOL
REMARK 924 INTRA-LIGAND FREE ENERGY PREDICTED BY IDOCK:   -0.64 KCAL/MOL
REMARK 927      BINDING AFFINITY PREDICTED BY RF-SCORE:    0.00 PKD
ROOT
HETATM    1  O   UNL     1     -12.006  16.265  63.662  1.00  0.00    -1.356 OA 
HETATM    2  H   UNL     1     -12.788  16.109  63.145  1.00  0.00     0.000 HD 
HETATM    3  C   UNL     1     -11.706  15.104  64.436  1.00  0.00    -0.295 C  
ENDROOT
BRANCH   3   4
HETATM    4  C   UNL     1     -10.446  15.354  65.269  1.00  0.00    -0.415 C  
HETATM    5  O   UNL     1     -10.131  16.760  65.252  1.00  0.00    -0.577 OA 
HETATM    6  C   UNL     1      -9.468  17.047  66.486  1.00  0.00    -0.276 C  
HETATM    7  O   UNL     1      -9.747  18.409  66.833  1.00  0.00    -0.295 OA 
HETATM    8  H   UNL     1     -11.618  16.196  68.797  1.00  0.00     0.000 HD 
HETATM    9  C   UNL     1     -10.094  16.118  67.535  1.00  0.00    -0.256 C  
HETATM   10  C   UNL     1     -10.621  14.929  66.732  1.00  0.00    -0.305 C  
HETATM   11  O   UNL     1     -11.230  16.771  68.147  1.00  0.00    -0.325 OA 
HETATM   12  H   UNL     1      -9.307  18.600  67.653  1.00  0.00     0.000 HD 
BRANCH   6  13
HETATM   13  C   UNL     1      -7.953  16.869  66.307  1.00  0.00    -0.315 C  
HETATM   14  H   UNL     1      -6.517  17.873  65.433  1.00  0.00     0.000 HD 
HETATM   15  O   UNL     1      -7.453  17.983  65.544  1.00  0.00    -0.538 OA 
ENDBRANCH   6  13
BRANCH  10  16
HETATM   16  O   UNL     1      -9.878  13.740  67.042  1.00  0.00    -0.239 OA 
BRANCH  16  17
HETATM   17  C   UNL     1     -10.706  12.663  67.509  1.00  0.00    -0.225 C  
HETATM   18  O   UNL     1     -11.029  12.850  68.891  1.00  0.00    -0.243 OA 
HETATM   19  C   UNL     1     -11.902  11.822  69.394  1.00  0.00    -0.334 C  
HETATM   20  C   UNL     1     -11.216  10.452  69.311  1.00  0.00    -0.248 C  
HETATM   21  H   UNL     1      -9.373  10.286  65.683  1.00  0.00     0.000 HD 
HETATM   22  O   UNL     1      -9.804  11.117  65.840  1.00  0.00    -0.213 OA 
HETATM   23  C   UNL     1     -10.871  10.175  67.842  1.00  0.00    -0.284 C  
HETATM   24  O   UNL     1      -9.986  10.395  70.048  1.00  0.00    -0.418 OA 
HETATM   25  H   UNL     1      -9.994   8.740  66.828  1.00  0.00     0.000 HD 
HETATM   26  O   UNL     1     -10.208   8.912  67.737  1.00  0.00    -0.201 OA 
HETATM   27  H   UNL     1      -9.561   9.547  69.996  1.00  0.00     0.000 HD 
HETATM   28  C   UNL     1     -10.003  11.308  67.254  1.00  0.00    -0.183 C  
BRANCH  19  29
HETATM   29  C   UNL     1     -12.306  12.195  70.823  1.00  0.00    -0.297 C  
HETATM   30  O   UNL     1     -11.928  13.547  71.084  1.00  0.00    -0.437 OA 
HETATM   31  H   UNL     1     -12.178  13.778  71.971  1.00  0.00     0.000 HD 
ENDBRANCH  19  29
ENDBRANCH  16  17
ENDBRANCH  10  16
ENDBRANCH   3   4
TORSDOF 5
ENDMDL
MODEL       24
REMARK 921   NORMALIZED FREE ENERGY PREDICTED BY IDOCK:   -5.66 KCAL/MOL
REMARK 922        TOTAL FREE ENERGY PREDICTED BY IDOCK:   -8.89 KCAL/MOL
REMARK 923 INTER-LIGAND FREE ENERGY PREDICTED BY IDOCK:   -7.99 KCAL/MOL
REMARK 924 INTRA-LIGAND FREE ENERGY PREDICTED BY IDOCK:   -0.90 KCAL/MOL
REMARK 927      BINDING AFFINITY PREDICTED BY RF-SCORE:    0.00 PKD
ROOT
HETATM    1  O   UNL     1     -12.472  13.861  63.004  1.00  0.00    -1.099 OA 
HETATM    2  H   UNL     1     -12.654  13.724  62.082  1.00  0.00     0.000 HD 
HETATM    3  C   UNL     1     -12.396  12.601  63.669  1.00  0.00    -0.492 C  
ENDROOT
BRANCH   3   4
HETATM    4  C   UNL     1     -12.102  12.821  65.155  1.00  0.00    -0.450 C  
HETATM    5  O   UNL     1     -12.011  11.547  65.821  1.00  0.00    -0.167 OA 
HETATM    6  C   UNL     1     -11.112  11.720  66.919  1.00  0.00    -0.307 C  
HETATM    7  O   UNL     1     -10.464  10.466  67.164  1.00  0.00    -0.228 OA 
HETATM    8  H   UNL     1      -8.312  12.703  65.548  1.00  0.00     0.000 HD 
HETATM    9  C   UNL     1     -10.068  12.748  66.461  1.00  0.00    -0.258 C  
HETATM   10  C   UNL     1     -10.781  13.566  65.383  1.00  0.00    -0.304 C  
HETATM   11  O   UNL     1      -8.958  12.067  65.831  1.00  0.00    -0.110 OA 
HETATM   12  H   UNL     1      -9.867  10.581  67.894  1.00  0.00     0.000 HD 
BRANCH   6  13
HETATM   13  C   UNL     1     -11.903  12.136  68.169  1.00  0.00    -0.299 C  
HETATM   14  H   UNL     1     -12.833  11.199  69.615  1.00  0.00     0.000 HD 
HETATM   15  O   UNL     1     -12.344  10.942  68.842  1.00  0.00    -0.486 OA 
ENDBRANCH   6  13
BRANCH  10  16
HETATM   16  O   UNL     1     -10.989  14.915  65.828  1.00  0.00    -0.326 OA 
BRANCH  16  17
HETATM   17  C   UNL     1     -10.416  15.180  67.118  1.00  0.00    -0.280 C  
HETATM   18  O   UNL     1     -11.449  15.420  68.080  1.00  0.00    -0.338 OA 
HETATM   19  C   UNL     1     -10.926  15.639  69.403  1.00  0.00    -0.283 C  
HETATM   20  C   UNL     1     -10.039  16.891  69.425  1.00  0.00    -0.162 C  
HETATM   21  H   UNL     1      -7.734  16.753  66.071  1.00  0.00     0.000 HD 
HETATM   22  O   UNL     1      -8.343  16.027  66.130  1.00  0.00    -0.307 OA 
HETATM   23  C   UNL     1      -8.888  16.684  68.433  1.00  0.00    -0.226 C  
HETATM   24  O   UNL     1     -10.735  18.078  69.016  1.00  0.00    -0.330 OA 
HETATM   25  H   UNL     1      -7.344  17.720  67.801  1.00  0.00     0.000 HD 
HETATM   26  O   UNL     1      -8.057  17.848  68.416  1.00  0.00    -0.282 OA 
HETATM   27  H   UNL     1     -10.187  18.854  69.029  1.00  0.00     0.000 HD 
HETATM   28  C   UNL     1      -9.424  16.364  67.021  1.00  0.00    -0.230 C  
BRANCH  19  29
HETATM   29  C   UNL     1     -12.106  15.733  70.374  1.00  0.00    -0.370 C  
HETATM   30  O   UNL     1     -11.712  16.480  71.525  1.00  0.00    -0.658 OA 
HETATM   31  H   UNL     1     -12.443  16.538  72.128  1.00  0.00     0.000 HD 
ENDBRANCH  19  29
ENDBRANCH  16  17
ENDBRANCH  10  16
ENDBRANCH   3   4
TORSDOF 5
ENDMDL
MODEL       25
REMARK 921   NORMALIZED FREE ENERGY PREDICTED BY IDOCK:   -5.65 KCAL/MOL
REMARK 922        TOTAL FREE ENERGY PREDICTED BY IDOCK:   -8.89 KCAL/MOL
REMARK 923 INTER-LIGAND FREE ENERGY PREDICTED BY IDOCK:   -7.79 KCAL/MOL
REMARK 924 INTRA-LIGAND FREE ENERGY PREDICTED BY IDOCK:   -1.10 KCAL/MOL
REMARK 927      BINDING AFFINITY PREDICTED BY RF-SCORE:    0.00 PKD
ROOT
HETATM    1  O   UNL     1     -11.928  15.353  63.866  1.00  0.00    -0.946 OA 
HETATM    2  H   UNL     1     -12.072  15.482  62.935  1.00  0.00     0.000 HD 
HETATM    3  C   UNL     1     -12.377  14.052  64.243  1.00  0.00    -0.355 C  
ENDROOT
BRANCH   3   4
HETATM    4  C   UNL     1     -12.146  13.843  65.742  1.00  0.00    -0.425 C  
HETATM    5  O   UNL     1     -12.110  12.432  66.030  1.00  0.00    -0.600 OA 
HETATM    6  C   UNL     1     -11.258  12.267  67.166  1.00  0.00    -0.307 C  
HETATM    7  O   UNL     1     -10.646  10.974  67.077  1.00  0.00    -0.231 OA 
HETATM    8  H   UNL     1      -8.381  13.504  66.229  1.00  0.00     0.000 HD 
HETATM    9  C   UNL     1     -10.175  13.348  67.051  1.00  0.00    -0.249 C  
HETATM   10  C   UNL     1     -10.823  14.455  66.217  1.00  0.00    -0.313 C  
HETATM   11  O   UNL     1      -9.052  12.835  66.300  1.00  0.00    -0.155 OA 
HETATM   12  H   UNL     1     -10.080  10.864  67.832  1.00  0.00     0.000 HD 
BRANCH   6  13
HETATM   13  C   UNL     1     -12.096  12.344  68.451  1.00  0.00    -0.060 C  
HETATM   14  H   UNL     1     -12.962  11.052  69.640  1.00  0.00     0.000 HD 
HETATM   15  O   UNL     1     -12.444  11.004  68.846  1.00  0.00    -0.460 OA 
ENDBRANCH   6  13
BRANCH  10  16
HETATM   16  O   UNL     1     -11.026  15.634  67.011  1.00  0.00    -0.322 OA 
BRANCH  16  17
HETATM   17  C   UNL     1      -9.986  16.611  66.846  1.00  0.00    -0.271 C  
HETATM   18  O   UNL     1      -9.326  16.848  68.094  1.00  0.00    -0.229 OA 
HETATM   19  C   UNL     1      -8.239  17.784  67.971  1.00  0.00    -0.248 C  
HETATM   20  C   UNL     1      -8.762  19.151  67.512  1.00  0.00    -0.292 C  
HETATM   21  H   UNL     1     -11.482  18.435  64.567  1.00  0.00     0.000 HD 
HETATM   22  O   UNL     1     -11.122  17.639  64.938  1.00  0.00    -0.854 OA 
HETATM   23  C   UNL     1      -9.456  18.972  66.156  1.00  0.00    -0.234 C  
HETATM   24  O   UNL     1      -9.734  19.709  68.408  1.00  0.00    -0.361 OA 
HETATM   25  H   UNL     1     -10.405  20.117  64.874  1.00  0.00     0.000 HD 
HETATM   26  O   UNL     1      -9.975  20.229  65.714  1.00  0.00    -0.387 OA 
HETATM   27  H   UNL     1     -10.058  20.556  68.124  1.00  0.00     0.000 HD 
HETATM   28  C   UNL     1     -10.573  17.910  66.242  1.00  0.00    -0.240 C  
BRANCH  19  29
HETATM   29  C   UNL     1      -7.511  17.850  69.316  1.00  0.00     0.021 C  
HETATM   30  O   UNL     1      -7.005  19.171  69.514  1.00  0.00    -0.272 OA 
HETATM   31  H   UNL     1      -6.553  19.213  70.349  1.00  0.00     0.000 HD 
ENDBRANCH  19  29
ENDBRANCH  16  17
ENDBRANCH  10  16
ENDBRANCH   3   4
TORSDOF 5
ENDMDL
MODEL       26
REMARK 921   NORMALIZED FREE ENERGY PREDICTED BY IDOCK:   -5.60 KCAL/MOL
REMARK 922        TOTAL FREE ENERGY PREDICTED BY IDOCK:   -8.82 KCAL/MOL
REMARK 923 INTER-LIGAND FREE ENERGY PREDICTED BY IDOCK:   -7.60 KCAL/MOL
REMARK 924 INTRA-LIGAND FREE ENERGY PREDICTED BY IDOCK:   -1.22 KCAL/MOL
REMARK 927      BINDING AFFINITY PREDICTED BY RF-SCORE:    0.00 PKD
ROOT
HETATM    1  O   UNL     1     -12.887  14.457  69.754  1.00  0.00    -0.517 OA 
HETATM    2  H   UNL     1     -12.929  14.554  70.698  1.00  0.00     0.000 HD 
HETATM    3  C   UNL     1     -11.769  15.185  69.247  1.00  0.00    -0.329 C  
ENDROOT
BRANCH   3   4
HETATM    4  C   UNL     1     -11.701  15.030  67.726  1.00  0.00    -0.274 C  
HETATM    5  O   UNL     1     -10.961  16.130  67.164  1.00  0.00    -0.266 OA 
HETATM    6  C   UNL     1     -10.344  15.643  65.969  1.00  0.00    -0.335 C  
HETATM    7  O   UNL     1      -9.131  16.377  65.766  1.00  0.00    -0.465 OA 
HETATM    8  H   UNL     1      -8.472  13.154  66.962  1.00  0.00     0.000 HD 
HETATM    9  C   UNL     1     -10.007  14.169  66.231  1.00  0.00    -0.303 C  
HETATM   10  C   UNL     1     -11.005  13.730  67.303  1.00  0.00    -0.292 C  
HETATM   11  O   UNL     1      -8.681  14.067  66.800  1.00  0.00    -0.203 OA 
HETATM   12  H   UNL     1      -8.721  16.053  64.972  1.00  0.00     0.000 HD 
BRANCH   6  13
HETATM   13  C   UNL     1     -11.284  15.874  64.776  1.00  0.00    -0.355 C  
HETATM   14  H   UNL     1     -11.805  17.411  63.679  1.00  0.00     0.000 HD 
HETATM   15  O   UNL     1     -11.224  17.267  64.417  1.00  0.00    -1.082 OA 
ENDBRANCH   6  13
BRANCH  10  16
HETATM   16  O   UNL     1     -11.929  12.769  66.771  1.00  0.00    -0.399 OA 
BRANCH  16  17
HETATM   17  C   UNL     1     -11.907  11.516  67.472  1.00  0.00    -0.078 C  
HETATM   18  O   UNL     1     -12.208  11.717  68.857  1.00  0.00    -0.377 OA 
HETATM   19  C   UNL     1     -12.249  10.481  69.595  1.00  0.00    -0.137 C  
HETATM   20  C   UNL     1     -10.877   9.795  69.563  1.00  0.00    -0.240 C  
HETATM   21  H   UNL     1      -9.498  10.111  65.744  1.00  0.00     0.000 HD 
HETATM   22  O   UNL     1     -10.338  10.537  65.870  1.00  0.00    -0.249 OA 
HETATM   23  C   UNL     1     -10.509   9.521  68.100  1.00  0.00    -0.223 C  
HETATM   24  O   UNL     1      -9.831  10.609  70.112  1.00  0.00    -0.333 OA 
HETATM   25  H   UNL     1      -8.993   8.731  67.132  1.00  0.00     0.000 HD 
HETATM   26  O   UNL     1      -9.221   8.901  68.039  1.00  0.00    -0.139 OA 
HETATM   27  H   UNL     1      -8.981  10.185  70.093  1.00  0.00     0.000 HD 
HETATM   28  C   UNL     1     -10.539  10.821  67.268  1.00  0.00    -0.257 C  
BRANCH  19  29
HETATM   29  C   UNL     1     -12.724  10.789  71.017  1.00  0.00    -0.415 C  
HETATM   30  O   UNL     1     -12.844  12.203  71.180  1.00  0.00    -0.326 OA 
HETATM   31  H   UNL     1     -13.138  12.394  72.063  1.00  0.00     0.000 HD 
ENDBRANCH  19  29
ENDBRANCH  16  17
ENDBRANCH  10  16
ENDBRANCH   3   4
TORSDOF 5
ENDMDL
MODEL       27
REMARK 921   NORMALIZED FREE ENERGY PREDICTED BY IDOCK:   -5.57 KCAL/MOL
REMARK 922        TOTAL FREE ENERGY PREDICTED BY IDOCK:   -8.79 KCAL/MOL
REMARK 923 INTER-LIGAND FREE ENERGY PREDICTED BY IDOCK:   -8.22 KCAL/MOL
REMARK 924 INTRA-LIGAND FREE ENERGY PREDICTED BY IDOCK:   -0.56 KCAL/MOL
REMARK 927      BINDING AFFINITY PREDICTED BY RF-SCORE:    0.00 PKD
ROOT
HETATM    1  O   UNL     1     -10.232  10.622  62.662  1.00  0.00    -0.751 OA 
HETATM    2  H   UNL     1      -9.871   9.868  62.211  1.00  0.00     0.000 HD 
HETATM    3  C   UNL     1      -9.560  10.802  63.908  1.00  0.00    -0.293 C  
ENDROOT
BRANCH   3   4
HETATM    4  C   UNL     1     -10.141  12.017  64.635  1.00  0.00    -0.264 C  
HETATM    5  O   UNL     1     -10.497  13.027  63.672  1.00  0.00    -0.278 OA 
HETATM    6  C   UNL     1     -11.588  13.762  64.232  1.00  0.00    -0.369 C  
HETATM    7  O   UNL     1     -12.394  14.251  63.153  1.00  0.00    -1.096 OA 
HETATM    8  H   UNL     1     -13.920  11.526  64.734  1.00  0.00     0.000 HD 
HETATM    9  C   UNL     1     -12.403  12.757  65.057  1.00  0.00    -0.499 C  
HETATM   10  C   UNL     1     -11.400  11.668  65.438  1.00  0.00    -0.153 C  
HETATM   11  O   UNL     1     -13.415  12.148  64.223  1.00  0.00    -0.708 OA 
HETATM   12  H   UNL     1     -13.119  14.739  63.525  1.00  0.00     0.000 HD 
BRANCH   6  13
HETATM   13  C   UNL     1     -11.045  14.951  65.039  1.00  0.00    -0.414 C  
HETATM   14  H   UNL     1     -10.857  16.877  64.743  1.00  0.00     0.000 HD 
HETATM   15  O   UNL     1     -11.194  16.142  64.245  1.00  0.00    -0.660 OA 
ENDBRANCH   6  13
BRANCH  10  16
HETATM   16  O   UNL     1     -11.158  11.674  66.853  1.00  0.00    -0.280 OA 
BRANCH  16  17
HETATM   17  C   UNL     1     -10.199  10.688  67.267  1.00  0.00    -0.208 C  
HETATM   18  O   UNL     1     -10.867   9.517  67.749  1.00  0.00    -0.269 OA 
HETATM   19  C   UNL     1      -9.948   8.477  68.127  1.00  0.00    -0.181 C  
HETATM   20  C   UNL     1      -9.055   8.950  69.282  1.00  0.00    -0.145 C  
HETATM   21  H   UNL     1      -7.928  12.764  68.406  1.00  0.00     0.000 HD 
HETATM   22  O   UNL     1      -8.514  12.394  67.756  1.00  0.00    -0.148 OA 
HETATM   23  C   UNL     1      -8.282  10.190  68.818  1.00  0.00    -0.113 C  
HETATM   24  O   UNL     1      -9.801   9.334  70.447  1.00  0.00    -0.205 OA 
HETATM   25  H   UNL     1      -6.978  11.436  69.596  1.00  0.00     0.000 HD 
HETATM   26  O   UNL     1      -7.457  10.668  69.884  1.00  0.00    -0.133 OA 
HETATM   27  H   UNL     1      -9.248   9.627  71.162  1.00  0.00     0.000 HD 
HETATM   28  C   UNL     1      -9.246  11.292  68.327  1.00  0.00    -0.176 C  
BRANCH  19  29
HETATM   29  C   UNL     1     -10.758   7.227  68.480  1.00  0.00    -0.126 C  
HETATM   30  O   UNL     1     -11.475   6.787  67.326  1.00  0.00    -0.752 OA 
HETATM   31  H   UNL     1     -11.978   6.012  67.544  1.00  0.00     0.000 HD 
ENDBRANCH  19  29
ENDBRANCH  16  17
ENDBRANCH  10  16
ENDBRANCH   3   4
TORSDOF 5
ENDMDL
MODEL       28
REMARK 921   NORMALIZED FREE ENERGY PREDICTED BY IDOCK:   -5.57 KCAL/MOL
REMARK 922        TOTAL FREE ENERGY PREDICTED BY IDOCK:   -8.78 KCAL/MOL
REMARK 923 INTER-LIGAND FREE ENERGY PREDICTED BY IDOCK:   -7.72 KCAL/MOL
REMARK 924 INTRA-LIGAND FREE ENERGY PREDICTED BY IDOCK:   -1.05 KCAL/MOL
REMARK 927      BINDING AFFINITY PREDICTED BY RF-SCORE:    0.00 PKD
ROOT
HETATM    1  O   UNL     1      -8.131  14.531  69.589  1.00  0.00    -0.387 OA 
HETATM    2  H   UNL     1      -7.471  13.928  69.911  1.00  0.00     0.000 HD 
HETATM    3  C   UNL     1      -7.502  15.725  69.126  1.00  0.00    -0.207 C  
ENDROOT
BRANCH   3   4
HETATM    4  C   UNL     1      -8.566  16.697  68.608  1.00  0.00    -0.253 C  
HETATM    5  O   UNL     1      -8.072  18.047  68.708  1.00  0.00    -0.298 OA 
HETATM    6  C   UNL     1      -8.700  18.793  67.663  1.00  0.00    -0.280 C  
HETATM    7  O   UNL     1      -7.809  19.845  67.272  1.00  0.00    -0.262 OA 
HETATM    8  H   UNL     1      -7.823  17.260  64.911  1.00  0.00     0.000 HD 
HETATM    9  C   UNL     1      -8.880  17.820  66.489  1.00  0.00    -0.262 C  
HETATM   10  C   UNL     1      -8.928  16.437  67.140  1.00  0.00    -0.202 C  
HETATM   11  O   UNL     1      -7.712  17.863  65.638  1.00  0.00    -0.541 OA 
HETATM   12  H   UNL     1      -8.226  20.341  66.577  1.00  0.00     0.000 HD 
BRANCH   6  13
HETATM   13  C   UNL     1     -10.009  19.404  68.184  1.00  0.00    -0.413 C  
HETATM   14  H   UNL     1     -11.791  19.743  67.444  1.00  0.00     0.000 HD 
HETATM   15  O   UNL     1     -10.981  19.365  67.122  1.00  0.00    -0.483 OA 
ENDBRANCH   6  13
BRANCH  10  16
HETATM   16  O   UNL     1     -10.233  15.856  67.000  1.00  0.00    -0.270 OA 
BRANCH  16  17
HETATM   17  C   UNL     1     -10.198  14.446  66.729  1.00  0.00    -0.270 C  
HETATM   18  O   UNL     1     -10.441  14.202  65.339  1.00  0.00    -0.316 OA 
HETATM   19  C   UNL     1     -10.364  12.804  65.006  1.00  0.00    -0.303 C  
HETATM   20  C   UNL     1     -11.443  12.016  65.761  1.00  0.00    -0.320 C  
HETATM   21  H   UNL     1     -11.478  13.439  69.577  1.00  0.00     0.000 HD 
HETATM   22  O   UNL     1     -10.855  13.892  69.020  1.00  0.00    -0.245 OA 
HETATM   23  C   UNL     1     -11.218  12.210  67.266  1.00  0.00    -0.306 C  
HETATM   24  O   UNL     1     -12.773  12.472  65.475  1.00  0.00    -0.583 OA 
HETATM   25  H   UNL     1     -12.086  11.625  68.927  1.00  0.00     0.000 HD 
HETATM   26  O   UNL     1     -12.225  11.504  67.995  1.00  0.00    -0.582 OA 
HETATM   27  H   UNL     1     -13.442  11.984  65.943  1.00  0.00     0.000 HD 
HETATM   28  C   UNL     1     -11.212  13.709  67.636  1.00  0.00    -0.279 C  
BRANCH  19  29
HETATM   29  C   UNL     1     -10.486  12.666  63.487  1.00  0.00    -0.216 C  
HETATM   30  O   UNL     1     -10.073  11.356  63.096  1.00  0.00    -0.445 OA 
HETATM   31  H   UNL     1     -10.149  11.270  62.153  1.00  0.00     0.000 HD 
ENDBRANCH  19  29
ENDBRANCH  16  17
ENDBRANCH  10  16
ENDBRANCH   3   4
TORSDOF 5
ENDMDL
MODEL       29
REMARK 921   NORMALIZED FREE ENERGY PREDICTED BY IDOCK:   -5.56 KCAL/MOL
REMARK 922        TOTAL FREE ENERGY PREDICTED BY IDOCK:   -8.77 KCAL/MOL
REMARK 923 INTER-LIGAND FREE ENERGY PREDICTED BY IDOCK:   -7.93 KCAL/MOL
REMARK 924 INTRA-LIGAND FREE ENERGY PREDICTED BY IDOCK:   -0.83 KCAL/MOL
REMARK 927      BINDING AFFINITY PREDICTED BY RF-SCORE:    0.00 PKD
ROOT
HETATM    1  O   UNL     1      -7.516  10.513  70.387  1.00  0.00    -0.452 OA 
HETATM    2  H   UNL     1      -6.734  11.052  70.380  1.00  0.00     0.000 HD 
HETATM    3  C   UNL     1      -8.238  10.700  69.170  1.00  0.00    -0.139 C  
ENDROOT
BRANCH   3   4
HETATM    4  C   UNL     1      -9.498   9.831  69.182  1.00  0.00    -0.188 C  
HETATM    5  O   UNL     1      -9.711   9.312  70.508  1.00  0.00    -0.221 OA 
HETATM    6  C   UNL     1     -11.122   9.133  70.659  1.00  0.00    -0.265 C  
HETATM    7  O   UNL     1     -11.444   9.300  72.045  1.00  0.00    -0.355 OA 
HETATM    8  H   UNL     1     -12.386  12.110  70.182  1.00  0.00     0.000 HD 
HETATM    9  C   UNL     1     -11.784  10.254  69.846  1.00  0.00    -0.225 C  
HETATM   10  C   UNL     1     -10.752  10.618  68.778  1.00  0.00    -0.215 C  
HETATM   11  O   UNL     1     -11.975  11.416  70.685  1.00  0.00    -0.352 OA 
HETATM   12  H   UNL     1     -12.381   9.182  72.145  1.00  0.00     0.000 HD 
BRANCH   6  13
HETATM   13  C   UNL     1     -11.509   7.715  70.214  1.00  0.00    -0.127 C  
HETATM   14  H   UNL     1     -12.733   6.329  70.860  1.00  0.00     0.000 HD 
HETATM   15  O   UNL     1     -12.493   7.206  71.134  1.00  0.00    -0.358 OA 
ENDBRANCH   6  13
BRANCH  10  16
HETATM   16  O   UNL     1     -11.223  10.253  67.473  1.00  0.00    -0.295 OA 
BRANCH  16  17
HETATM   17  C   UNL     1     -10.722  11.107  66.432  1.00  0.00    -0.247 C  
HETATM   18  O   UNL     1     -11.743  12.013  65.999  1.00  0.00    -0.460 OA 
HETATM   19  C   UNL     1     -11.274  12.927  64.992  1.00  0.00    -0.293 C  
HETATM   20  C   UNL     1     -10.841  12.159  63.736  1.00  0.00    -0.432 C  
HETATM   21  H   UNL     1      -8.733   8.918  65.014  1.00  0.00     0.000 HD 
HETATM   22  O   UNL     1      -9.071   9.443  65.729  1.00  0.00    -0.170 OA 
HETATM   23  C   UNL     1      -9.719  11.189  64.126  1.00  0.00    -0.276 C  
HETATM   24  O   UNL     1     -11.897  11.371  63.168  1.00  0.00    -0.887 OA 
HETATM   25  H   UNL     1      -8.617   9.841  63.220  1.00  0.00     0.000 HD 
HETATM   26  O   UNL     1      -9.311  10.442  62.977  1.00  0.00    -0.266 OA 
HETATM   27  H   UNL     1     -11.629  10.895  62.391  1.00  0.00     0.000 HD 
HETATM   28  C   UNL     1     -10.171  10.251  65.266  1.00  0.00    -0.238 C  
BRANCH  19  29
HETATM   29  C   UNL     1     -12.386  13.941  64.711  1.00  0.00    -0.400 C  
HETATM   30  O   UNL     1     -12.558  14.075  63.299  1.00  0.00    -1.073 OA 
HETATM   31  H   UNL     1     -13.247  14.704  63.124  1.00  0.00     0.000 HD 
ENDBRANCH  19  29
ENDBRANCH  16  17
ENDBRANCH  10  16
ENDBRANCH   3   4
TORSDOF 5
ENDMDL
MODEL       30
REMARK 921   NORMALIZED FREE ENERGY PREDICTED BY IDOCK:   -5.52 KCAL/MOL
REMARK 922        TOTAL FREE ENERGY PREDICTED BY IDOCK:   -8.72 KCAL/MOL
REMARK 923 INTER-LIGAND FREE ENERGY PREDICTED BY IDOCK:   -7.96 KCAL/MOL
REMARK 924 INTRA-LIGAND FREE ENERGY PREDICTED BY IDOCK:   -0.76 KCAL/MOL
REMARK 927      BINDING AFFINITY PREDICTED BY RF-SCORE:    0.00 PKD
ROOT
HETATM    1  O   UNL     1     -11.856  10.456  68.492  1.00  0.00    -0.690 OA 
HETATM    2  H   UNL     1     -11.360   9.651  68.391  1.00  0.00     0.000 HD 
HETATM    3  C   UNL     1     -11.232  11.282  69.475  1.00  0.00    -0.272 C  
ENDROOT
BRANCH   3   4
HETATM    4  C   UNL     1     -12.030  12.578  69.638  1.00  0.00    -0.272 C  
HETATM    5  O   UNL     1     -12.045  12.960  71.027  1.00  0.00    -0.231 OA 
HETATM    6  C   UNL     1     -12.147  14.386  71.059  1.00  0.00    -0.349 C  
HETATM    7  O   UNL     1     -11.497  14.850  72.249  1.00  0.00    -0.397 OA 
HETATM    8  H   UNL     1      -9.523  15.440  69.419  1.00  0.00     0.000 HD 
HETATM    9  C   UNL     1     -11.382  14.899  69.831  1.00  0.00    -0.277 C  
HETATM   10  C   UNL     1     -11.428  13.738  68.837  1.00  0.00    -0.304 C  
HETATM   11  O   UNL     1      -9.997  15.122  70.180  1.00  0.00    -0.142 OA 
HETATM   12  H   UNL     1     -11.565  15.798  72.270  1.00  0.00     0.000 HD 
BRANCH   6  13
HETATM   13  C   UNL     1     -13.628  14.793  71.098  1.00  0.00    -0.371 C  
HETATM   14  H   UNL     1     -15.065  14.731  72.426  1.00  0.00     0.000 HD 
HETATM   15  O   UNL     1     -14.149  14.480  72.403  1.00  0.00    -0.471 OA 
ENDBRANCH   6  13
BRANCH  10  16
HETATM   16  O   UNL     1     -12.228  14.081  67.695  1.00  0.00    -0.352 OA 
BRANCH  16  17
HETATM   17  C   UNL     1     -12.080  13.158  66.604  1.00  0.00    -0.346 C  
HETATM   18  O   UNL     1     -10.740  12.659  66.556  1.00  0.00    -0.246 OA 
HETATM   19  C   UNL     1     -10.553  11.689  65.509  1.00  0.00    -0.279 C  
HETATM   20  C   UNL     1     -10.808  12.329  64.138  1.00  0.00    -0.365 C  
HETATM   21  H   UNL     1     -14.141  14.636  64.523  1.00  0.00     0.000 HD 
HETATM   22  O   UNL     1     -13.885  14.219  65.337  1.00  0.00    -0.037 OA 
HETATM   23  C   UNL     1     -12.247  12.858  64.112  1.00  0.00    -0.414 C  
HETATM   24  O   UNL     1      -9.946  13.445  63.872  1.00  0.00    -0.715 OA 
HETATM   25  H   UNL     1     -13.396  13.810  62.836  1.00  0.00     0.000 HD 
HETATM   26  O   UNL     1     -12.505  13.482  62.851  1.00  0.00    -0.601 OA 
HETATM   27  H   UNL     1     -10.104  13.842  63.023  1.00  0.00     0.000 HD 
HETATM   28  C   UNL     1     -12.497  13.839  65.278  1.00  0.00    -0.480 C  
BRANCH  19  29
HETATM   29  C   UNL     1      -9.142  11.110  65.639  1.00  0.00    -0.205 C  
HETATM   30  O   UNL     1      -9.129  10.123  66.671  1.00  0.00    -0.142 OA 
HETATM   31  H   UNL     1      -8.253   9.764  66.752  1.00  0.00     0.000 HD 
ENDBRANCH  19  29
ENDBRANCH  16  17
ENDBRANCH  10  16
ENDBRANCH   3   4
TORSDOF 5
ENDMDL
MODEL       31
REMARK 921   NORMALIZED FREE ENERGY PREDICTED BY IDOCK:   -5.52 KCAL/MOL
REMARK 922        TOTAL FREE ENERGY PREDICTED BY IDOCK:   -8.71 KCAL/MOL
REMARK 923 INTER-LIGAND FREE ENERGY PREDICTED BY IDOCK:   -8.16 KCAL/MOL
REMARK 924 INTRA-LIGAND FREE ENERGY PREDICTED BY IDOCK:   -0.56 KCAL/MOL
REMARK 927      BINDING AFFINITY PREDICTED BY RF-SCORE:    0.00 PKD
ROOT
HETATM    1  O   UNL     1      -8.816  15.116  65.920  1.00  0.00    -0.436 OA 
HETATM    2  H   UNL     1      -8.240  15.690  66.412  1.00  0.00     0.000 HD 
HETATM    3  C   UNL     1      -9.716  14.460  66.812  1.00  0.00    -0.270 C  
ENDROOT
BRANCH   3   4
HETATM    4  C   UNL     1     -10.643  13.536  66.018  1.00  0.00    -0.285 C  
HETATM    5  O   UNL     1     -10.292  13.588  64.622  1.00  0.00    -0.408 OA 
HETATM    6  C   UNL     1     -10.635  12.317  64.064  1.00  0.00    -0.400 C  
HETATM    7  O   UNL     1      -9.741  12.055  62.975  1.00  0.00    -0.508 OA 
HETATM    8  H   UNL     1      -8.890  10.159  65.792  1.00  0.00     0.000 HD 
HETATM    9  C   UNL     1     -10.398  11.284  65.174  1.00  0.00    -0.295 C  
HETATM   10  C   UNL     1     -10.541  12.076  66.475  1.00  0.00    -0.234 C  
HETATM   11  O   UNL     1      -9.037  10.799  65.105  1.00  0.00    -0.193 OA 
HETATM   12  H   UNL     1      -9.969  11.210  62.605  1.00  0.00     0.000 HD 
BRANCH   6  13
HETATM   13  C   UNL     1     -12.078  12.360  63.538  1.00  0.00    -0.558 C  
HETATM   14  H   UNL     1     -13.248  13.726  62.765  1.00  0.00     0.000 HD 
HETATM   15  O   UNL     1     -12.356  13.700  63.090  1.00  0.00    -0.729 OA 
ENDBRANCH   6  13
BRANCH  10  16
HETATM   16  O   UNL     1     -11.706  11.652  67.199  1.00  0.00    -0.566 OA 
BRANCH  16  17
HETATM   17  C   UNL     1     -11.439  11.367  68.581  1.00  0.00    -0.296 C  
HETATM   18  O   UNL     1     -11.401   9.952  68.797  1.00  0.00    -0.127 OA 
HETATM   19  C   UNL     1     -11.084   9.614  70.159  1.00  0.00    -0.269 C  
HETATM   20  C   UNL     1     -12.165  10.150  71.107  1.00  0.00    -0.389 C  
HETATM   21  H   UNL     1     -13.052  13.922  69.857  1.00  0.00     0.000 HD 
HETATM   22  O   UNL     1     -12.407  13.494  69.307  1.00  0.00    -0.260 OA 
HETATM   23  C   UNL     1     -12.234  11.673  70.948  1.00  0.00    -0.298 C  
HETATM   24  O   UNL     1     -13.474   9.639  70.812  1.00  0.00    -0.606 OA 
HETATM   25  H   UNL     1     -13.294  13.143  71.706  1.00  0.00     0.000 HD 
HETATM   26  O   UNL     1     -13.251  12.199  71.805  1.00  0.00    -0.448 OA 
HETATM   27  H   UNL     1     -14.143   9.971  71.398  1.00  0.00     0.000 HD 
HETATM   28  C   UNL     1     -12.490  12.065  69.477  1.00  0.00     0.170 C  
BRANCH  19  29
HETATM   29  C   UNL     1     -10.920   8.094  70.249  1.00  0.00    -0.240 C  
HETATM   30  O   UNL     1     -12.165   7.506  70.631  1.00  0.00    -0.509 OA 
HETATM   31  H   UNL     1     -12.063   6.563  70.687  1.00  0.00     0.000 HD 
ENDBRANCH  19  29
ENDBRANCH  16  17
ENDBRANCH  10  16
ENDBRANCH   3   4
TORSDOF 5
ENDMDL
MODEL       32
REMARK 921   NORMALIZED FREE ENERGY PREDICTED BY IDOCK:   -5.51 KCAL/MOL
REMARK 922        TOTAL FREE ENERGY PREDICTED BY IDOCK:   -8.70 KCAL/MOL
REMARK 923 INTER-LIGAND FREE ENERGY PREDICTED BY IDOCK:   -7.82 KCAL/MOL
REMARK 924 INTRA-LIGAND FREE ENERGY PREDICTED BY IDOCK:   -0.88 KCAL/MOL
REMARK 927      BINDING AFFINITY PREDICTED BY RF-SCORE:    0.00 PKD
ROOT
HETATM    1  O   UNL     1     -11.427  13.383  63.553  1.00  0.00    -0.628 OA 
HETATM    2  H   UNL     1     -11.814  13.301  62.689  1.00  0.00     0.000 HD 
HETATM    3  C   UNL     1     -12.229  12.685  64.505  1.00  0.00    -0.443 C  
ENDROOT
BRANCH   3   4
HETATM    4  C   UNL     1     -11.606  12.817  65.897  1.00  0.00    -0.382 C  
HETATM    5  O   UNL     1     -12.485  12.228  66.874  1.00  0.00    -0.221 OA 
HETATM    6  C   UNL     1     -11.656  11.752  67.938  1.00  0.00    -0.307 C  
HETATM    7  O   UNL     1     -12.307  10.624  68.536  1.00  0.00    -0.814 OA 
HETATM    8  H   UNL     1      -9.631   9.616  66.517  1.00  0.00     0.000 HD 
HETATM    9  C   UNL     1     -10.344  11.294  67.288  1.00  0.00    -0.201 C  
HETATM   10  C   UNL     1     -10.249  12.109  65.997  1.00  0.00    -0.237 C  
HETATM   11  O   UNL     1     -10.444   9.900  66.919  1.00  0.00    -0.238 OA 
HETATM   12  H   UNL     1     -11.756  10.308  69.243  1.00  0.00     0.000 HD 
BRANCH   6  13
HETATM   13  C   UNL     1     -11.489  12.858  68.991  1.00  0.00    -0.308 C  
HETATM   14  H   UNL     1     -11.864  13.041  70.905  1.00  0.00     0.000 HD 
HETATM   15  O   UNL     1     -11.967  12.357  70.253  1.00  0.00    -0.349 OA 
ENDBRANCH   6  13
BRANCH  10  16
HETATM   16  O   UNL     1      -9.157  13.038  66.064  1.00  0.00    -0.007 OA 
BRANCH  16  17
HETATM   17  C   UNL     1      -9.536  14.318  66.592  1.00  0.00    -0.289 C  
HETATM   18  O   UNL     1      -9.942  15.192  65.533  1.00  0.00    -0.335 OA 
HETATM   19  C   UNL     1     -10.383  16.473  66.017  1.00  0.00    -0.345 C  
HETATM   20  C   UNL     1      -9.234  17.196  66.734  1.00  0.00    -0.254 C  
HETATM   21  H   UNL     1      -7.367  14.417  69.052  1.00  0.00     0.000 HD 
HETATM   22  O   UNL     1      -8.081  14.052  68.542  1.00  0.00    -0.139 OA 
HETATM   23  C   UNL     1      -8.772  16.323  67.907  1.00  0.00    -0.175 C  
HETATM   24  O   UNL     1      -8.091  17.404  65.892  1.00  0.00    -0.537 OA 
HETATM   25  H   UNL     1      -7.398  16.421  69.306  1.00  0.00     0.000 HD 
HETATM   26  O   UNL     1      -7.685  16.963  68.580  1.00  0.00    -0.205 OA 
HETATM   27  H   UNL     1      -7.380  17.852  66.335  1.00  0.00     0.000 HD 
HETATM   28  C   UNL     1      -8.373  14.912  67.423  1.00  0.00    -0.194 C  
BRANCH  19  29
HETATM   29  C   UNL     1     -10.934  17.269  64.831  1.00  0.00     0.347 C  
HETATM   30  O   UNL     1     -11.590  16.379  63.928  1.00  0.00    -1.564 OA 
HETATM   31  H   UNL     1     -11.932  16.872  63.192  1.00  0.00     0.000 HD 
ENDBRANCH  19  29
ENDBRANCH  16  17
ENDBRANCH  10  16
ENDBRANCH   3   4
TORSDOF 5
ENDMDL
MODEL       33
REMARK 921   NORMALIZED FREE ENERGY PREDICTED BY IDOCK:   -5.49 KCAL/MOL
REMARK 922        TOTAL FREE ENERGY PREDICTED BY IDOCK:   -8.67 KCAL/MOL
REMARK 923 INTER-LIGAND FREE ENERGY PREDICTED BY IDOCK:   -7.72 KCAL/MOL
REMARK 924 INTRA-LIGAND FREE ENERGY PREDICTED BY IDOCK:   -0.95 KCAL/MOL
REMARK 927      BINDING AFFINITY PREDICTED BY RF-SCORE:    0.00 PKD
ROOT
HETATM    1  O   UNL     1     -12.945  13.467  64.586  1.00  0.00    -0.675 OA 
HETATM    2  H   UNL     1     -13.131  13.883  63.752  1.00  0.00     0.000 HD 
HETATM    3  C   UNL     1     -12.410  14.429  65.493  1.00  0.00    -0.345 C  
ENDROOT
BRANCH   3   4
HETATM    4  C   UNL     1     -12.110  13.758  66.836  1.00  0.00    -0.413 C  
HETATM    5  O   UNL     1     -12.014  12.333  66.649  1.00  0.00    -0.598 OA 
HETATM    6  C   UNL     1     -11.111  11.848  67.647  1.00  0.00    -0.257 C  
HETATM    7  O   UNL     1     -10.459  10.683  67.126  1.00  0.00    -0.219 OA 
HETATM    8  H   UNL     1      -8.318  13.452  67.083  1.00  0.00     0.000 HD 
HETATM    9  C   UNL     1     -10.071  12.957  67.859  1.00  0.00    -0.232 C  
HETATM   10  C   UNL     1     -10.790  14.243  67.448  1.00  0.00    -0.285 C  
HETATM   11  O   UNL     1      -8.962  12.766  66.951  1.00  0.00    -0.214 OA 
HETATM   12  H   UNL     1      -9.859  10.361  67.788  1.00  0.00     0.000 HD 
BRANCH   6  13
HETATM   13  C   UNL     1     -11.898  11.468  68.910  1.00  0.00    -0.341 C  
HETATM   14  H   UNL     1     -11.549  10.391  70.508  1.00  0.00     0.000 HD 
HETATM   15  O   UNL     1     -11.062  10.627  69.727  1.00  0.00    -0.257 OA 
ENDBRANCH   6  13
BRANCH  10  16
HETATM   16  O   UNL     1     -11.000  15.092  68.586  1.00  0.00    -0.239 OA 
BRANCH  16  17
HETATM   17  C   UNL     1     -10.348  16.366  68.469  1.00  0.00    -0.270 C  
HETATM   18  O   UNL     1     -10.755  17.023  67.264  1.00  0.00    -0.299 OA 
HETATM   19  C   UNL     1     -10.167  18.329  67.126  1.00  0.00    -0.373 C  
HETATM   20  C   UNL     1      -8.639  18.220  67.043  1.00  0.00    -0.254 C  
HETATM   21  H   UNL     1      -7.504  15.510  69.863  1.00  0.00     0.000 HD 
HETATM   22  O   UNL     1      -8.446  15.624  69.818  1.00  0.00    -0.170 OA 
HETATM   23  C   UNL     1      -8.133  17.550  68.326  1.00  0.00    -0.268 C  
HETATM   24  O   UNL     1      -8.194  17.411  65.945  1.00  0.00    -0.537 OA 
HETATM   25  H   UNL     1      -6.397  16.999  69.061  1.00  0.00     0.000 HD 
HETATM   26  O   UNL     1      -6.710  17.414  68.266  1.00  0.00    -0.173 OA 
HETATM   27  H   UNL     1      -7.248  17.343  65.893  1.00  0.00     0.000 HD 
HETATM   28  C   UNL     1      -8.813  16.181  68.541  1.00  0.00    -0.200 C  
BRANCH  19  29
HETATM   29  C   UNL     1     -10.780  19.002  65.895  1.00  0.00    -0.327 C  
HETATM   30  O   UNL     1     -11.012  18.019  64.885  1.00  0.00    -0.776 OA 
HETATM   31  H   UNL     1     -11.391  18.436  64.121  1.00  0.00     0.000 HD 
ENDBRANCH  19  29
ENDBRANCH  16  17
ENDBRANCH  10  16
ENDBRANCH   3   4
TORSDOF 5
ENDMDL
MODEL       34
REMARK 921   NORMALIZED FREE ENERGY PREDICTED BY IDOCK:   -5.47 KCAL/MOL
REMARK 922        TOTAL FREE ENERGY PREDICTED BY IDOCK:   -8.65 KCAL/MOL
REMARK 923 INTER-LIGAND FREE ENERGY PREDICTED BY IDOCK:   -7.84 KCAL/MOL
REMARK 924 INTRA-LIGAND FREE ENERGY PREDICTED BY IDOCK:   -0.81 KCAL/MOL
REMARK 927      BINDING AFFINITY PREDICTED BY RF-SCORE:    0.00 PKD
ROOT
HETATM    1  O   UNL     1     -12.149  11.750  67.635  1.00  0.00    -0.598 OA 
HETATM    2  H   UNL     1     -12.445  11.407  68.470  1.00  0.00     0.000 HD 
HETATM    3  C   UNL     1     -10.965  11.065  67.228  1.00  0.00    -0.297 C  
ENDROOT
BRANCH   3   4
HETATM    4  C   UNL     1     -10.488  11.617  65.883  1.00  0.00    -0.255 C  
HETATM    5  O   UNL     1     -11.111  10.879  64.813  1.00  0.00    -0.095 OA 
HETATM    6  C   UNL     1     -11.220  11.776  63.705  1.00  0.00    -0.435 C  
HETATM    7  O   UNL     1     -12.365  11.391  62.935  1.00  0.00    -0.954 OA 
HETATM    8  H   UNL     1     -13.023  14.261  64.827  1.00  0.00     0.000 HD 
HETATM    9  C   UNL     1     -11.457  13.170  64.302  1.00  0.00    -0.384 C  
HETATM   10  C   UNL     1     -10.844  13.098  65.702  1.00  0.00    -0.278 C  
HETATM   11  O   UNL     1     -12.876  13.398  64.457  1.00  0.00    -0.653 OA 
HETATM   12  H   UNL     1     -12.438  11.987  62.198  1.00  0.00     0.000 HD 
BRANCH   6  13
HETATM   13  C   UNL     1      -9.961  11.668  62.832  1.00  0.00    -0.153 C  
HETATM   14  H   UNL     1      -8.873  10.205  62.115  1.00  0.00     0.000 HD 
HETATM   15  O   UNL     1      -9.652  10.272  62.654  1.00  0.00    -0.310 OA 
ENDBRANCH   6  13
BRANCH  10  16
HETATM   16  O   UNL     1      -9.690  13.947  65.793  1.00  0.00    -0.253 OA 
BRANCH  16  17
HETATM   17  C   UNL     1      -9.827  14.982  66.780  1.00  0.00    -0.243 C  
HETATM   18  O   UNL     1     -10.002  16.253  66.145  1.00  0.00    -0.293 OA 
HETATM   19  C   UNL     1     -10.197  17.318  67.093  1.00  0.00    -0.319 C  
HETATM   20  C   UNL     1      -8.959  17.468  67.987  1.00  0.00    -0.258 C  
HETATM   21  H   UNL     1      -7.792  13.704  69.014  1.00  0.00     0.000 HD 
HETATM   22  O   UNL     1      -8.542  13.712  68.430  1.00  0.00    -0.170 OA 
HETATM   23  C   UNL     1      -8.734  16.143  68.726  1.00  0.00    -0.240 C  
HETATM   24  O   UNL     1      -7.761  17.742  67.245  1.00  0.00    -0.200 OA 
HETATM   25  H   UNL     1      -7.431  15.426  70.008  1.00  0.00     0.000 HD 
HETATM   26  O   UNL     1      -7.570  16.247  69.551  1.00  0.00    -0.190 OA 
HETATM   27  H   UNL     1      -6.995  17.835  67.798  1.00  0.00     0.000 HD 
HETATM   28  C   UNL     1      -8.606  14.970  67.731  1.00  0.00    -0.161 C  
BRANCH  19  29
HETATM   29  C   UNL     1     -10.524  18.596  66.316  1.00  0.00    -0.424 C  
HETATM   30  O   UNL     1     -10.824  18.262  64.960  1.00  0.00    -0.679 OA 
HETATM   31  H   UNL     1     -11.026  19.054  64.478  1.00  0.00     0.000 HD 
ENDBRANCH  19  29
ENDBRANCH  16  17
ENDBRANCH  10  16
ENDBRANCH   3   4
TORSDOF 5
ENDMDL
MODEL       35
REMARK 921   NORMALIZED FREE ENERGY PREDICTED BY IDOCK:   -5.43 KCAL/MOL
REMARK 922        TOTAL FREE ENERGY PREDICTED BY IDOCK:   -8.60 KCAL/MOL
REMARK 923 INTER-LIGAND FREE ENERGY PREDICTED BY IDOCK:   -7.36 KCAL/MOL
REMARK 924 INTRA-LIGAND FREE ENERGY PREDICTED BY IDOCK:   -1.24 KCAL/MOL
REMARK 927      BINDING AFFINITY PREDICTED BY RF-SCORE:    0.00 PKD
ROOT
HETATM    1  O   UNL     1      -6.595  15.998  69.568  1.00  0.00    -0.184 OA 
HETATM    2  H   UNL     1      -5.778  15.662  69.917  1.00  0.00     0.000 HD 
HETATM    3  C   UNL     1      -6.490  17.408  69.373  1.00  0.00    -0.233 C  
ENDROOT
BRANCH   3   4
HETATM    4  C   UNL     1      -7.807  17.949  68.812  1.00  0.00    -0.253 C  
HETATM    5  O   UNL     1      -7.645  19.337  68.462  1.00  0.00    -0.305 OA 
HETATM    6  C   UNL     1      -8.547  19.597  67.383  1.00  0.00    -0.306 C  
HETATM    7  O   UNL     1      -7.986  20.639  66.577  1.00  0.00    -0.519 OA 
HETATM    8  H   UNL     1      -7.639  17.520  65.028  1.00  0.00     0.000 HD 
HETATM    9  C   UNL     1      -8.616  18.303  66.561  1.00  0.00    -0.266 C  
HETATM   10  C   UNL     1      -8.256  17.196  67.554  1.00  0.00    -0.185 C  
HETATM   11  O   UNL     1      -7.596  18.321  65.537  1.00  0.00    -0.518 OA 
HETATM   12  H   UNL     1      -8.585  20.812  65.860  1.00  0.00     0.000 HD 
BRANCH   6  13
HETATM   13  C   UNL     1      -9.899  20.062  67.946  1.00  0.00    -0.406 C  
HETATM   14  H   UNL     1     -11.780  19.638  67.605  1.00  0.00     0.000 HD 
HETATM   15  O   UNL     1     -10.944  19.350  67.258  1.00  0.00    -0.491 OA 
ENDBRANCH   6  13
BRANCH  10  16
HETATM   16  O   UNL     1      -9.391  16.352  67.804  1.00  0.00    -0.211 OA 
BRANCH  16  17
HETATM   17  C   UNL     1      -9.498  15.261  66.876  1.00  0.00    -0.234 C  
HETATM   18  O   UNL     1     -10.731  15.344  66.154  1.00  0.00    -0.304 OA 
HETATM   19  C   UNL     1     -10.864  14.300  65.172  1.00  0.00    -0.378 C  
HETATM   20  C   UNL     1     -10.874  12.925  65.854  1.00  0.00    -0.272 C  
HETATM   21  H   UNL     1      -7.961  13.007  68.698  1.00  0.00     0.000 HD 
HETATM   22  O   UNL     1      -8.051  13.833  68.238  1.00  0.00    -0.136 OA 
HETATM   23  C   UNL     1      -9.558  12.759  66.623  1.00  0.00    -0.255 C  
HETATM   24  O   UNL     1     -11.937  12.781  66.808  1.00  0.00    -0.399 OA 
HETATM   25  H   UNL     1      -8.735  11.390  67.766  1.00  0.00     0.000 HD 
HETATM   26  O   UNL     1      -9.550  11.493  67.289  1.00  0.00    -0.171 OA 
HETATM   27  H   UNL     1     -11.944  11.930  67.230  1.00  0.00     0.000 HD 
HETATM   28  C   UNL     1      -9.352  13.914  67.626  1.00  0.00    -0.205 C  
BRANCH  19  29
HETATM   29  C   UNL     1     -12.133  14.566  64.358  1.00  0.00    -0.472 C  
HETATM   30  O   UNL     1     -12.727  13.321  63.989  1.00  0.00    -0.659 OA 
HETATM   31  H   UNL     1     -13.515  13.486  63.484  1.00  0.00     0.000 HD 
ENDBRANCH  19  29
ENDBRANCH  16  17
ENDBRANCH  10  16
ENDBRANCH   3   4
TORSDOF 5
ENDMDL
MODEL       36
REMARK 921   NORMALIZED FREE ENERGY PREDICTED BY IDOCK:   -5.42 KCAL/MOL
REMARK 922        TOTAL FREE ENERGY PREDICTED BY IDOCK:   -8.59 KCAL/MOL
REMARK 923 INTER-LIGAND FREE ENERGY PREDICTED BY IDOCK:   -7.48 KCAL/MOL
REMARK 924 INTRA-LIGAND FREE ENERGY PREDICTED BY IDOCK:   -1.11 KCAL/MOL
REMARK 927      BINDING AFFINITY PREDICTED BY RF-SCORE:    0.00 PKD
ROOT
HETATM    1  O   UNL     1     -11.613  16.373  63.597  1.00  0.00    -1.514 OA 
HETATM    2  H   UNL     1     -12.007  16.996  62.998  1.00  0.00     0.000 HD 
HETATM    3  C   UNL     1     -12.588  15.412  63.998  1.00  0.00     0.414 C  
ENDROOT
BRANCH   3   4
HETATM    4  C   UNL     1     -11.953  14.408  64.964  1.00  0.00    -0.412 C  
HETATM    5  O   UNL     1     -12.546  13.110  64.767  1.00  0.00    -0.575 OA 
HETATM    6  C   UNL     1     -11.549  12.146  65.112  1.00  0.00    -0.317 C  
HETATM    7  O   UNL     1     -11.781  10.969  64.329  1.00  0.00     0.042 OA 
HETATM    8  H   UNL     1      -9.052  12.784  63.100  1.00  0.00     0.000 HD 
HETATM    9  C   UNL     1     -10.201  12.762  64.712  1.00  0.00    -0.281 C  
HETATM   10  C   UNL     1     -10.440  14.272  64.751  1.00  0.00    -0.395 C  
HETATM   11  O   UNL     1      -9.887  12.403  63.347  1.00  0.00    -0.370 OA 
HETATM   12  H   UNL     1     -11.118  10.328  64.558  1.00  0.00     0.000 HD 
BRANCH   6  13
HETATM   13  C   UNL     1     -11.667  11.796  66.603  1.00  0.00    -0.093 C  
HETATM   14  H   UNL     1     -10.469  11.076  67.974  1.00  0.00     0.000 HD 
HETATM   15  O   UNL     1     -10.395  11.293  67.052  1.00  0.00    -0.211 OA 
ENDBRANCH   6  13
BRANCH  10  16
HETATM   16  O   UNL     1      -9.687  14.877  65.812  1.00  0.00    -0.323 OA 
BRANCH  16  17
HETATM   17  C   UNL     1     -10.382  15.957  66.453  1.00  0.00    -0.306 C  
HETATM   18  O   UNL     1      -9.945  17.213  65.923  1.00  0.00    -0.478 OA 
HETATM   19  C   UNL     1     -10.651  18.328  66.498  1.00  0.00    -0.288 C  
HETATM   20  C   UNL     1     -10.391  18.402  68.008  1.00  0.00    -0.384 C  
HETATM   21  H   UNL     1     -10.630  14.592  69.426  1.00  0.00     0.000 HD 
HETATM   22  O   UNL     1     -10.749  14.643  68.485  1.00  0.00    -0.234 OA 
HETATM   23  C   UNL     1     -10.871  17.092  68.645  1.00  0.00    -0.284 C  
HETATM   24  O   UNL     1      -9.000  18.539  68.332  1.00  0.00    -0.307 OA 
HETATM   25  H   UNL     1     -10.916  16.312  70.447  1.00  0.00     0.000 HD 
HETATM   26  O   UNL     1     -10.619  17.124  70.053  1.00  0.00    -0.057 OA 
HETATM   27  H   UNL     1      -8.838  18.585  69.267  1.00  0.00     0.000 HD 
HETATM   28  C   UNL     1     -10.188  15.874  67.987  1.00  0.00    -0.238 C  
BRANCH  19  29
HETATM   29  C   UNL     1     -10.221  19.599  65.761  1.00  0.00    -0.356 C  
HETATM   30  O   UNL     1     -10.058  20.659  66.703  1.00  0.00    -0.514 OA 
HETATM   31  H   UNL     1      -9.791  21.448  66.246  1.00  0.00     0.000 HD 
ENDBRANCH  19  29
ENDBRANCH  16  17
ENDBRANCH  10  16
ENDBRANCH   3   4
TORSDOF 5
ENDMDL
MODEL       37
REMARK 921   NORMALIZED FREE ENERGY PREDICTED BY IDOCK:   -5.38 KCAL/MOL
REMARK 922        TOTAL FREE ENERGY PREDICTED BY IDOCK:   -8.53 KCAL/MOL
REMARK 923 INTER-LIGAND FREE ENERGY PREDICTED BY IDOCK:   -7.93 KCAL/MOL
REMARK 924 INTRA-LIGAND FREE ENERGY PREDICTED BY IDOCK:   -0.60 KCAL/MOL
REMARK 927      BINDING AFFINITY PREDICTED BY RF-SCORE:    0.00 PKD
ROOT
HETATM    1  O   UNL     1     -11.602  16.359  63.847  1.00  0.00    -1.564 OA 
HETATM    2  H   UNL     1     -11.569  16.124  62.927  1.00  0.00     0.000 HD 
HETATM    3  C   UNL     1     -11.199  15.244  64.641  1.00  0.00    -0.356 C  
ENDROOT
BRANCH   3   4
HETATM    4  C   UNL     1     -11.254  15.623  66.123  1.00  0.00    -0.036 C  
HETATM    5  O   UNL     1     -11.274  14.425  66.924  1.00  0.00    -0.314 OA 
HETATM    6  C   UNL     1     -10.651  14.752  68.168  1.00  0.00    -0.241 C  
HETATM    7  O   UNL     1     -10.036  13.564  68.681  1.00  0.00    -0.310 OA 
HETATM    8  H   UNL     1      -7.647  15.750  67.351  1.00  0.00     0.000 HD 
HETATM    9  C   UNL     1      -9.564  15.786  67.845  1.00  0.00    -0.214 C  
HETATM   10  C   UNL     1     -10.042  16.457  66.556  1.00  0.00    -0.295 C  
HETATM   11  O   UNL     1      -8.320  15.110  67.551  1.00  0.00    -0.150 OA 
HETATM   12  H   UNL     1      -9.621  13.782  69.508  1.00  0.00     0.000 HD 
BRANCH   6  13
HETATM   13  C   UNL     1     -11.715  15.243  69.162  1.00  0.00    -0.335 C  
HETATM   14  H   UNL     1     -11.867  16.720  70.438  1.00  0.00     0.000 HD 
HETATM   15  O   UNL     1     -11.209  16.417  69.824  1.00  0.00    -0.325 OA 
ENDBRANCH   6  13
BRANCH  10  16
HETATM   16  O   UNL     1     -10.388  17.829  66.798  1.00  0.00    -0.338 OA 
BRANCH  16  17
HETATM   17  C   UNL     1      -9.245  18.695  66.870  1.00  0.00    -0.304 C  
HETATM   18  O   UNL     1      -8.182  18.183  66.059  1.00  0.00    -0.482 OA 
HETATM   19  C   UNL     1      -7.029  19.045  66.057  1.00  0.00    -0.259 C  
HETATM   20  C   UNL     1      -6.450  19.164  67.473  1.00  0.00    -0.193 C  
HETATM   21  H   UNL     1      -9.614  19.617  69.997  1.00  0.00     0.000 HD 
HETATM   22  O   UNL     1      -9.877  19.504  69.092  1.00  0.00    -0.433 OA 
HETATM   23  C   UNL     1      -7.535  19.742  68.391  1.00  0.00    -0.314 C  
HETATM   24  O   UNL     1      -6.062  17.899  68.029  1.00  0.00    -0.165 OA 
HETATM   25  H   UNL     1      -7.701  20.200  70.293  1.00  0.00     0.000 HD 
HETATM   26  O   UNL     1      -7.029  19.842  69.725  1.00  0.00    -0.308 OA 
HETATM   27  H   UNL     1      -5.704  17.972  68.906  1.00  0.00     0.000 HD 
HETATM   28  C   UNL     1      -8.814  18.879  68.346  1.00  0.00    -0.344 C  
BRANCH  19  29
HETATM   29  C   UNL     1      -6.018  18.489  65.050  1.00  0.00    -0.211 C  
HETATM   30  O   UNL     1      -6.089  19.248  63.842  1.00  0.00    -0.442 OA 
HETATM   31  H   UNL     1      -5.463  18.903  63.217  1.00  0.00     0.000 HD 
ENDBRANCH  19  29
ENDBRANCH  16  17
ENDBRANCH  10  16
ENDBRANCH   3   4
TORSDOF 5
ENDMDL
MODEL       38
REMARK 921   NORMALIZED FREE ENERGY PREDICTED BY IDOCK:   -5.37 KCAL/MOL
REMARK 922        TOTAL FREE ENERGY PREDICTED BY IDOCK:   -8.52 KCAL/MOL
REMARK 923 INTER-LIGAND FREE ENERGY PREDICTED BY IDOCK:   -7.54 KCAL/MOL
REMARK 924 INTRA-LIGAND FREE ENERGY PREDICTED BY IDOCK:   -0.98 KCAL/MOL
REMARK 927      BINDING AFFINITY PREDICTED BY RF-SCORE:    0.00 PKD
ROOT
HETATM    1  O   UNL     1     -11.524  13.591  68.306  1.00  0.00    -0.271 OA 
HETATM    2  H   UNL     1     -12.369  14.014  68.405  1.00  0.00     0.000 HD 
HETATM    3  C   UNL     1     -11.613  12.237  68.748  1.00  0.00    -0.330 C  
ENDROOT
BRANCH   3   4
HETATM    4  C   UNL     1     -10.252  11.555  68.589  1.00  0.00    -0.208 C  
HETATM    5  O   UNL     1     -10.154  10.456  69.515  1.00  0.00    -0.229 OA 
HETATM    6  C   UNL     1      -9.287   9.489  68.916  1.00  0.00    -0.149 C  
HETATM    7  O   UNL     1      -9.679   8.193  69.384  1.00  0.00    -0.167 OA 
HETATM    8  H   UNL     1     -10.739   8.717  66.090  1.00  0.00     0.000 HD 
HETATM    9  C   UNL     1      -9.530   9.575  67.403  1.00  0.00    -0.135 C  
HETATM   10  C   UNL     1     -10.041  10.999  67.175  1.00  0.00    -0.193 C  
HETATM   11  O   UNL     1     -10.589   8.665  67.027  1.00  0.00    -0.294 OA 
HETATM   12  H   UNL     1      -9.103   7.550  68.986  1.00  0.00     0.000 HD 
BRANCH   6  13
HETATM   13  C   UNL     1      -7.838   9.767  69.341  1.00  0.00    -0.114 C  
HETATM   14  H   UNL     1      -6.667   9.180  70.797  1.00  0.00     0.000 HD 
HETATM   15  O   UNL     1      -7.563   9.008  70.534  1.00  0.00    -0.082 OA 
ENDBRANCH   6  13
BRANCH  10  16
HETATM   16  O   UNL     1      -9.085  11.766  66.428  1.00  0.00    -0.208 OA 
BRANCH  16  17
HETATM   17  C   UNL     1      -9.683  12.547  65.381  1.00  0.00    -0.086 C  
HETATM   18  O   UNL     1     -10.020  13.851  65.866  1.00  0.00    -0.299 OA 
HETATM   19  C   UNL     1     -10.575  14.692  64.838  1.00  0.00    -0.422 C  
HETATM   20  C   UNL     1     -11.886  14.094  64.310  1.00  0.00    -0.397 C  
HETATM   21  H   UNL     1     -11.255  10.095  63.872  1.00  0.00     0.000 HD 
HETATM   22  O   UNL     1     -10.501  10.550  64.226  1.00  0.00    -0.287 OA 
HETATM   23  C   UNL     1     -11.586  12.701  63.743  1.00  0.00    -0.476 C  
HETATM   24  O   UNL     1     -12.877  13.925  65.334  1.00  0.00    -0.662 OA 
HETATM   25  H   UNL     1     -12.611  11.246  62.914  1.00  0.00     0.000 HD 
HETATM   26  O   UNL     1     -12.797  12.109  63.264  1.00  0.00    -0.735 OA 
HETATM   27  H   UNL     1     -13.689  13.554  65.008  1.00  0.00     0.000 HD 
HETATM   28  C   UNL     1     -10.912  11.804  64.804  1.00  0.00    -0.303 C  
BRANCH  19  29
HETATM   29  C   UNL     1     -10.757  16.098  65.416  1.00  0.00    -0.358 C  
HETATM   30  O   UNL     1     -11.364  16.938  64.433  1.00  0.00    -1.139 OA 
HETATM   31  H   UNL     1     -11.477  17.810  64.792  1.00  0.00     0.000 HD 
ENDBRANCH  19  29
ENDBRANCH  16  17
ENDBRANCH  10  16
ENDBRANCH   3   4
TORSDOF 5
ENDMDL
MODEL       39
REMARK 921   NORMALIZED FREE ENERGY PREDICTED BY IDOCK:   -5.36 KCAL/MOL
REMARK 922        TOTAL FREE ENERGY PREDICTED BY IDOCK:   -8.51 KCAL/MOL
REMARK 923 INTER-LIGAND FREE ENERGY PREDICTED BY IDOCK:   -7.05 KCAL/MOL
REMARK 924 INTRA-LIGAND FREE ENERGY PREDICTED BY IDOCK:   -1.45 KCAL/MOL
REMARK 927      BINDING AFFINITY PREDICTED BY RF-SCORE:    0.00 PKD
ROOT
HETATM    1  O   UNL     1     -10.222  10.114  63.891  1.00  0.00    -0.464 OA 
HETATM    2  H   UNL     1     -10.294   9.357  63.321  1.00  0.00     0.000 HD 
HETATM    3  C   UNL     1     -10.389  11.306  63.124  1.00  0.00    -0.280 C  
ENDROOT
BRANCH   3   4
HETATM    4  C   UNL     1     -10.274  12.527  64.041  1.00  0.00    -0.364 C  
HETATM    5  O   UNL     1     -11.313  13.470  63.718  1.00  0.00    -0.272 OA 
HETATM    6  C   UNL     1     -11.614  14.179  64.922  1.00  0.00    -0.379 C  
HETATM    7  O   UNL     1     -12.990  14.575  64.872  1.00  0.00    -0.569 OA 
HETATM    8  H   UNL     1     -12.536  11.862  67.036  1.00  0.00     0.000 HD 
HETATM    9  C   UNL     1     -11.417  13.178  66.069  1.00  0.00    -0.335 C  
HETATM   10  C   UNL     1     -10.417  12.158  65.523  1.00  0.00    -0.265 C  
HETATM   11  O   UNL     1     -12.658  12.481  66.326  1.00  0.00    -0.334 OA 
HETATM   12  H   UNL     1     -13.190  15.046  65.672  1.00  0.00     0.000 HD 
BRANCH   6  13
HETATM   13  C   UNL     1     -10.728  15.431  65.016  1.00  0.00    -0.438 C  
HETATM   14  H   UNL     1     -10.783  17.245  64.280  1.00  0.00     0.000 HD 
HETATM   15  O   UNL     1     -11.331  16.471  64.223  1.00  0.00    -1.020 OA 
ENDBRANCH   6  13
BRANCH  10  16
HETATM   16  O   UNL     1      -9.169  12.246  66.226  1.00  0.00    -0.225 OA 
BRANCH  16  17
HETATM   17  C   UNL     1      -8.810  11.026  66.894  1.00  0.00    -0.149 C  
HETATM   18  O   UNL     1      -8.455  10.022  65.937  1.00  0.00    -0.127 OA 
HETATM   19  C   UNL     1      -8.037   8.794  66.559  1.00  0.00    -0.103 C  
HETATM   20  C   UNL     1      -9.185   8.195  67.382  1.00  0.00    -0.137 C  
HETATM   21  H   UNL     1     -10.916  11.282  69.396  1.00  0.00     0.000 HD 
HETATM   22  O   UNL     1     -10.206  11.562  68.831  1.00  0.00    -0.206 OA 
HETATM   23  C   UNL     1      -9.593   9.213  68.453  1.00  0.00    -0.151 C  
HETATM   24  O   UNL     1     -10.355   7.923  66.596  1.00  0.00    -0.406 OA 
HETATM   25  H   UNL     1     -10.932   9.321  69.886  1.00  0.00     0.000 HD 
HETATM   26  O   UNL     1     -10.679   8.690  69.222  1.00  0.00    -0.213 OA 
HETATM   27  H   UNL     1     -11.066   7.552  67.106  1.00  0.00     0.000 HD 
HETATM   28  C   UNL     1      -9.967  10.568  67.815  1.00  0.00    -0.171 C  
BRANCH  19  29
HETATM   29  C   UNL     1      -7.538   7.848  65.463  1.00  0.00    -0.083 C  
HETATM   30  O   UNL     1      -8.488   7.817  64.397  1.00  0.00    -0.364 OA 
HETATM   31  H   UNL     1      -8.179   7.231  63.717  1.00  0.00     0.000 HD 
ENDBRANCH  19  29
ENDBRANCH  16  17
ENDBRANCH  10  16
ENDBRANCH   3   4
TORSDOF 5
ENDMDL
MODEL       40
REMARK 921   NORMALIZED FREE ENERGY PREDICTED BY IDOCK:   -5.30 KCAL/MOL
REMARK 922        TOTAL FREE ENERGY PREDICTED BY IDOCK:   -8.43 KCAL/MOL
REMARK 923 INTER-LIGAND FREE ENERGY PREDICTED BY IDOCK:   -7.50 KCAL/MOL
REMARK 924 INTRA-LIGAND FREE ENERGY PREDICTED BY IDOCK:   -0.93 KCAL/MOL
REMARK 927      BINDING AFFINITY PREDICTED BY RF-SCORE:    0.00 PKD
ROOT
HETATM    1  O   UNL     1      -9.017   9.484  71.452  1.00  0.00    -0.302 OA 
HETATM    2  H   UNL     1      -8.165   9.595  71.857  1.00  0.00     0.000 HD 
HETATM    3  C   UNL     1      -9.831   8.644  72.270  1.00  0.00    -0.289 C  
ENDROOT
BRANCH   3   4
HETATM    4  C   UNL     1     -11.204   8.466  71.617  1.00  0.00    -0.278 C  
HETATM    5  O   UNL     1     -12.184   8.175  72.632  1.00  0.00    -0.334 OA 
HETATM    6  C   UNL     1     -13.432   8.683  72.155  1.00  0.00    -0.398 C  
HETATM    7  O   UNL     1     -14.223   9.054  73.291  1.00  0.00    -1.192 OA 
HETATM    8  H   UNL     1     -12.904  11.877  71.697  1.00  0.00     0.000 HD 
HETATM    9  C   UNL     1     -13.100   9.939  71.338  1.00  0.00    -0.407 C  
HETATM   10  C   UNL     1     -11.661   9.724  70.868  1.00  0.00    -0.361 C  
HETATM   11  O   UNL     1     -13.109  11.099  72.202  1.00  0.00    -0.463 OA 
HETATM   12  H   UNL     1     -15.053   9.392  72.974  1.00  0.00     0.000 HD 
BRANCH   6  13
HETATM   13  C   UNL     1     -14.163   7.588  71.363  1.00  0.00    -0.388 C  
HETATM   14  H   UNL     1     -14.723   5.744  71.709  1.00  0.00     0.000 HD 
HETATM   15  O   UNL     1     -14.271   6.421  72.199  1.00  0.00    -0.053 OA 
ENDBRANCH   6  13
BRANCH  10  16
HETATM   16  O   UNL     1     -11.614   9.553  69.443  1.00  0.00     0.056 OA 
BRANCH  16  17
HETATM   17  C   UNL     1     -10.954  10.634  68.766  1.00  0.00    -0.246 C  
HETATM   18  O   UNL     1     -11.466  11.891  69.222  1.00  0.00    -0.262 OA 
HETATM   19  C   UNL     1     -10.799  13.010  68.610  1.00  0.00    -0.259 C  
HETATM   20  C   UNL     1     -11.020  12.997  67.092  1.00  0.00    -0.269 C  
HETATM   21  H   UNL     1     -10.558   9.139  65.873  1.00  0.00     0.000 HD 
HETATM   22  O   UNL     1     -10.468   9.242  66.813  1.00  0.00    -0.244 OA 
HETATM   23  C   UNL     1     -10.460  11.683  66.534  1.00  0.00    -0.239 C  
HETATM   24  O   UNL     1     -12.407  13.049  66.727  1.00  0.00    -0.367 OA 
HETATM   25  H   UNL     1     -10.327  10.820  64.775  1.00  0.00     0.000 HD 
HETATM   26  O   UNL     1     -10.674  11.634  65.121  1.00  0.00    -0.282 OA 
HETATM   27  H   UNL     1     -12.545  13.041  65.787  1.00  0.00     0.000 HD 
HETATM   28  C   UNL     1     -11.101  10.466  67.235  1.00  0.00    -0.179 C  
BRANCH  19  29
HETATM   29  C   UNL     1     -11.311  14.292  69.272  1.00  0.00    -0.283 C  
HETATM   30  O   UNL     1     -12.685  14.126  69.626  1.00  0.00    -0.459 OA 
HETATM   31  H   UNL     1     -13.002  14.921  70.037  1.00  0.00     0.000 HD 
ENDBRANCH  19  29
ENDBRANCH  16  17
ENDBRANCH  10  16
ENDBRANCH   3   4
TORSDOF 5
ENDMDL
MODEL       41
REMARK 921   NORMALIZED FREE ENERGY PREDICTED BY IDOCK:   -5.27 KCAL/MOL
REMARK 922        TOTAL FREE ENERGY PREDICTED BY IDOCK:   -8.40 KCAL/MOL
REMARK 923 INTER-LIGAND FREE ENERGY PREDICTED BY IDOCK:   -6.66 KCAL/MOL
REMARK 924 INTRA-LIGAND FREE ENERGY PREDICTED BY IDOCK:   -1.74 KCAL/MOL
REMARK 927      BINDING AFFINITY PREDICTED BY RF-SCORE:    0.00 PKD
ROOT
HETATM    1  O   UNL     1     -12.877  10.482  69.450  1.00  0.00    -0.654 OA 
HETATM    2  H   UNL     1     -13.550  11.031  69.063  1.00  0.00     0.000 HD 
HETATM    3  C   UNL     1     -13.077  10.402  70.861  1.00  0.00    -0.330 C  
ENDROOT
BRANCH   3   4
HETATM    4  C   UNL     1     -11.993   9.518  71.483  1.00  0.00    -0.399 C  
HETATM    5  O   UNL     1     -12.612   8.448  72.221  1.00  0.00    -0.348 OA 
HETATM    6  C   UNL     1     -11.705   7.343  72.182  1.00  0.00    -0.290 C  
HETATM    7  O   UNL     1     -12.473   6.136  72.252  1.00  0.00    -0.505 OA 
HETATM    8  H   UNL     1     -11.315   6.707  68.999  1.00  0.00     0.000 HD 
HETATM    9  C   UNL     1     -11.000   7.416  70.821  1.00  0.00    -0.255 C  
HETATM   10  C   UNL     1     -11.074   8.892  70.427  1.00  0.00    -0.239 C  
HETATM   11  O   UNL     1     -11.752   6.663  69.842  1.00  0.00    -0.361 OA 
HETATM   12  H   UNL     1     -11.871   5.402  72.226  1.00  0.00     0.000 HD 
BRANCH   6  13
HETATM   13  C   UNL     1     -10.758   7.413  73.389  1.00  0.00    -0.357 C  
HETATM   14  H   UNL     1      -8.862   7.044  73.707  1.00  0.00     0.000 HD 
HETATM   15  O   UNL     1      -9.447   7.001  72.961  1.00  0.00    -0.141 OA 
ENDBRANCH   6  13
BRANCH  10  16
HETATM   16  O   UNL     1      -9.766   9.482  70.427  1.00  0.00    -0.242 OA 
BRANCH  16  17
HETATM   17  C   UNL     1      -9.488  10.241  69.239  1.00  0.00    -0.215 C  
HETATM   18  O   UNL     1     -10.225  11.468  69.251  1.00  0.00    -0.084 OA 
HETATM   19  C   UNL     1      -9.940  12.290  68.104  1.00  0.00    -0.210 C  
HETATM   20  C   UNL     1     -10.356  11.568  66.815  1.00  0.00    -0.226 C  
HETATM   21  H   UNL     1      -9.137   7.701  67.193  1.00  0.00     0.000 HD 
HETATM   22  O   UNL     1      -8.948   8.224  67.963  1.00  0.00    -0.137 OA 
HETATM   23  C   UNL     1      -9.574  10.253  66.725  1.00  0.00    -0.172 C  
HETATM   24  O   UNL     1     -11.750  11.229  66.788  1.00  0.00    -0.418 OA 
HETATM   25  H   UNL     1      -9.475   8.731  65.487  1.00  0.00     0.000 HD 
HETATM   26  O   UNL     1      -9.960   9.547  65.543  1.00  0.00    -0.304 OA 
HETATM   27  H   UNL     1     -12.008  10.782  65.990  1.00  0.00     0.000 HD 
HETATM   28  C   UNL     1      -9.797   9.388  67.985  1.00  0.00    -0.164 C  
BRANCH  19  29
HETATM   29  C   UNL     1     -10.654  13.632  68.288  1.00  0.00    -0.253 C  
HETATM   30  O   UNL     1     -12.050  13.402  68.482  1.00  0.00    -0.352 OA 
HETATM   31  H   UNL     1     -12.493  14.234  68.596  1.00  0.00     0.000 HD 
ENDBRANCH  19  29
ENDBRANCH  16  17
ENDBRANCH  10  16
ENDBRANCH   3   4
TORSDOF 5
ENDMDL
MODEL       42
REMARK 921   NORMALIZED FREE ENERGY PREDICTED BY IDOCK:   -5.26 KCAL/MOL
REMARK 922        TOTAL FREE ENERGY PREDICTED BY IDOCK:   -8.38 KCAL/MOL
REMARK 923 INTER-LIGAND FREE ENERGY PREDICTED BY IDOCK:   -7.45 KCAL/MOL
REMARK 924 INTRA-LIGAND FREE ENERGY PREDICTED BY IDOCK:   -0.93 KCAL/MOL
REMARK 927      BINDING AFFINITY PREDICTED BY RF-SCORE:    0.00 PKD
ROOT
HETATM    1  O   UNL     1     -12.793  14.058  64.248  1.00  0.00    -0.612 OA 
HETATM    2  H   UNL     1     -13.408  14.734  63.987  1.00  0.00     0.000 HD 
HETATM    3  C   UNL     1     -12.652  14.061  65.668  1.00  0.00    -0.512 C  
ENDROOT
BRANCH   3   4
HETATM    4  C   UNL     1     -11.661  12.973  66.088  1.00  0.00    -0.394 C  
HETATM    5  O   UNL     1     -10.340  13.328  65.638  1.00  0.00    -0.278 OA 
HETATM    6  C   UNL     1      -9.420  12.746  66.565  1.00  0.00    -0.253 C  
HETATM    7  O   UNL     1      -8.250  13.573  66.608  1.00  0.00    -0.401 OA 
HETATM    8  H   UNL     1     -10.231  14.040  69.456  1.00  0.00     0.000 HD 
HETATM    9  C   UNL     1     -10.113  12.779  67.934  1.00  0.00    -0.231 C  
HETATM   10  C   UNL     1     -11.607  12.790  67.609  1.00  0.00    -0.358 C  
HETATM   11  O   UNL     1      -9.802  14.020  68.608  1.00  0.00    -0.225 OA 
HETATM   12  H   UNL     1      -7.639  13.187  67.224  1.00  0.00     0.000 HD 
BRANCH   6  13
HETATM   13  C   UNL     1      -9.030  11.340  66.086  1.00  0.00    -0.202 C  
HETATM   14  H   UNL     1      -7.422  10.225  66.173  1.00  0.00     0.000 HD 
HETATM   15  O   UNL     1      -7.664  11.094  66.469  1.00  0.00    -0.150 OA 
ENDBRANCH   6  13
BRANCH  10  16
HETATM   16  O   UNL     1     -12.226  11.565  68.030  1.00  0.00    -0.582 OA 
BRANCH  16  17
HETATM   17  C   UNL     1     -11.348  10.721  68.792  1.00  0.00    -0.288 C  
HETATM   18  O   UNL     1     -11.069   9.516  68.071  1.00  0.00    -0.157 OA 
HETATM   19  C   UNL     1     -10.150   8.658  68.772  1.00  0.00    -0.196 C  
HETATM   20  C   UNL     1     -10.752   8.212  70.111  1.00  0.00    -0.243 C  
HETATM   21  H   UNL     1     -12.493  11.500  71.766  1.00  0.00     0.000 HD 
HETATM   22  O   UNL     1     -12.116  11.673  70.911  1.00  0.00    -0.341 OA 
HETATM   23  C   UNL     1     -11.044   9.462  70.949  1.00  0.00    -0.319 C  
HETATM   24  O   UNL     1     -11.994   7.509  69.960  1.00  0.00    -0.469 OA 
HETATM   25  H   UNL     1     -11.810   9.852  72.714  1.00  0.00     0.000 HD 
HETATM   26  O   UNL     1     -11.629   9.077  72.196  1.00  0.00    -0.355 OA 
HETATM   27  H   UNL     1     -12.367   7.232  70.789  1.00  0.00     0.000 HD 
HETATM   28  C   UNL     1     -11.963  10.439  70.183  1.00  0.00    -0.276 C  
BRANCH  19  29
HETATM   29  C   UNL     1      -9.803   7.480  67.857  1.00  0.00    -0.154 C  
HETATM   30  O   UNL     1     -10.981   7.050  67.174  1.00  0.00    -0.452 OA 
HETATM   31  H   UNL     1     -10.767   6.319  66.607  1.00  0.00     0.000 HD 
ENDBRANCH  19  29
ENDBRANCH  16  17
ENDBRANCH  10  16
ENDBRANCH   3   4
TORSDOF 5
ENDMDL
MODEL       43
REMARK 921   NORMALIZED FREE ENERGY PREDICTED BY IDOCK:   -5.26 KCAL/MOL
REMARK 922        TOTAL FREE ENERGY PREDICTED BY IDOCK:   -8.38 KCAL/MOL
REMARK 923 INTER-LIGAND FREE ENERGY PREDICTED BY IDOCK:   -7.73 KCAL/MOL
REMARK 924 INTRA-LIGAND FREE ENERGY PREDICTED BY IDOCK:   -0.65 KCAL/MOL
REMARK 927      BINDING AFFINITY PREDICTED BY RF-SCORE:    0.00 PKD
ROOT
HETATM    1  O   UNL     1     -12.382  15.662  68.786  1.00  0.00    -0.570 OA 
HETATM    2  H   UNL     1     -12.085  16.234  69.484  1.00  0.00     0.000 HD 
HETATM    3  C   UNL     1     -11.557  14.499  68.737  1.00  0.00    -0.312 C  
ENDROOT
BRANCH   3   4
HETATM    4  C   UNL     1     -12.035  13.578  67.611  1.00  0.00    -0.336 C  
HETATM    5  O   UNL     1     -11.911  14.260  66.348  1.00  0.00    -0.402 OA 
HETATM    6  C   UNL     1     -11.687  13.253  65.358  1.00  0.00    -0.343 C  
HETATM    7  O   UNL     1     -10.906  13.832  64.306  1.00  0.00    -0.552 OA 
HETATM    8  H   UNL     1      -8.955  11.739  66.322  1.00  0.00     0.000 HD 
HETATM    9  C   UNL     1     -10.872  12.149  66.045  1.00  0.00    -0.282 C  
HETATM   10  C   UNL     1     -11.216  12.284  67.529  1.00  0.00    -0.297 C  
HETATM   11  O   UNL     1      -9.460  12.423  65.897  1.00  0.00    -0.219 OA 
HETATM   12  H   UNL     1     -10.757  13.163  63.648  1.00  0.00     0.000 HD 
BRANCH   6  13
HETATM   13  C   UNL     1     -13.035  12.783  64.790  1.00  0.00    -0.143 C  
HETATM   14  H   UNL     1     -13.621  11.808  63.196  1.00  0.00     0.000 HD 
HETATM   15  O   UNL     1     -12.788  12.098  63.548  1.00  0.00    -0.768 OA 
ENDBRANCH   6  13
BRANCH  10  16
HETATM   16  O   UNL     1     -11.959  11.143  67.982  1.00  0.00    -0.625 OA 
BRANCH  16  17
HETATM   17  C   UNL     1     -11.336  10.463  69.083  1.00  0.00    -0.226 C  
HETATM   18  O   UNL     1     -10.811   9.202  68.655  1.00  0.00    -0.162 OA 
HETATM   19  C   UNL     1     -10.129   8.504  69.712  1.00  0.00    -0.197 C  
HETATM   20  C   UNL     1     -11.103   8.182  70.854  1.00  0.00    -0.258 C  
HETATM   21  H   UNL     1     -13.370  11.515  71.432  1.00  0.00     0.000 HD 
HETATM   22  O   UNL     1     -12.751  11.609  70.718  1.00  0.00    -0.285 OA 
HETATM   23  C   UNL     1     -11.678   9.501  71.383  1.00  0.00    -0.393 C  
HETATM   24  O   UNL     1     -12.215   7.379  70.432  1.00  0.00    -0.533 OA 
HETATM   25  H   UNL     1     -12.966  10.048  72.762  1.00  0.00     0.000 HD 
HETATM   26  O   UNL     1     -12.609   9.230  72.435  1.00  0.00    -0.351 OA 
HETATM   27  H   UNL     1     -12.819   7.180  71.139  1.00  0.00     0.000 HD 
HETATM   28  C   UNL     1     -12.344  10.309  70.248  1.00  0.00    -0.192 C  
BRANCH  19  29
HETATM   29  C   UNL     1      -9.481   7.251  69.118  1.00  0.00    -0.148 C  
HETATM   30  O   UNL     1      -8.623   6.654  70.092  1.00  0.00    -0.137 OA 
HETATM   31  H   UNL     1      -8.221   5.877  69.724  1.00  0.00     0.000 HD 
ENDBRANCH  19  29
ENDBRANCH  16  17
ENDBRANCH  10  16
ENDBRANCH   3   4
TORSDOF 5
ENDMDL
MODEL       44
REMARK 921   NORMALIZED FREE ENERGY PREDICTED BY IDOCK:   -5.25 KCAL/MOL
REMARK 922        TOTAL FREE ENERGY PREDICTED BY IDOCK:   -8.37 KCAL/MOL
REMARK 923 INTER-LIGAND FREE ENERGY PREDICTED BY IDOCK:   -7.53 KCAL/MOL
REMARK 924 INTRA-LIGAND FREE ENERGY PREDICTED BY IDOCK:   -0.84 KCAL/MOL
REMARK 927      BINDING AFFINITY PREDICTED BY RF-SCORE:    0.00 PKD
ROOT
HETATM    1  O   UNL     1     -11.240  16.737  64.010  1.00  0.00    -1.438 OA 
HETATM    2  H   UNL     1     -11.925  16.304  63.513  1.00  0.00     0.000 HD 
HETATM    3  C   UNL     1     -10.716  15.839  64.986  1.00  0.00    -0.421 C  
ENDROOT
BRANCH   3   4
HETATM    4  C   UNL     1      -9.612  16.536  65.786  1.00  0.00    -0.156 C  
HETATM    5  O   UNL     1      -9.906  17.943  65.882  1.00  0.00    -0.529 OA 
HETATM    6  C   UNL     1      -9.330  18.400  67.108  1.00  0.00    -0.271 C  
HETATM    7  O   UNL     1     -10.119  19.497  67.586  1.00  0.00    -0.358 OA 
HETATM    8  H   UNL     1     -10.762  16.585  69.420  1.00  0.00     0.000 HD 
HETATM    9  C   UNL     1      -9.439  17.230  68.095  1.00  0.00    -0.278 C  
HETATM   10  C   UNL     1      -9.488  15.983  67.211  1.00  0.00    -0.215 C  
HETATM   11  O   UNL     1     -10.695  17.310  68.808  1.00  0.00    -0.325 OA 
HETATM   12  H   UNL     1      -9.736  19.800  68.401  1.00  0.00     0.000 HD 
BRANCH   6  13
HETATM   13  C   UNL     1      -7.894  18.881  66.853  1.00  0.00    -0.246 C  
HETATM   14  H   UNL     1      -7.032  20.129  65.614  1.00  0.00     0.000 HD 
HETATM   15  O   UNL     1      -7.920  19.832  65.773  1.00  0.00    -0.363 OA 
ENDBRANCH   6  13
BRANCH  10  16
HETATM   16  O   UNL     1      -8.301  15.194  67.383  1.00  0.00    -0.159 OA 
BRANCH  16  17
HETATM   17  C   UNL     1      -8.510  13.796  67.127  1.00  0.00    -0.175 C  
HETATM   18  O   UNL     1      -9.824  13.407  67.542  1.00  0.00    -0.219 OA 
HETATM   19  C   UNL     1     -10.103  12.024  67.258  1.00  0.00    -0.194 C  
HETATM   20  C   UNL     1      -9.138  11.116  68.032  1.00  0.00    -0.153 C  
HETATM   21  H   UNL     1      -5.442  12.797  67.715  1.00  0.00     0.000 HD 
HETATM   22  O   UNL     1      -6.118  13.309  67.288  1.00  0.00    -0.328 OA 
HETATM   23  C   UNL     1      -7.705  11.461  67.607  1.00  0.00    -0.121 C  
HETATM   24  O   UNL     1      -9.209  11.305  69.453  1.00  0.00    -0.382 OA 
HETATM   25  H   UNL     1      -5.894  10.859  68.068  1.00  0.00     0.000 HD 
HETATM   26  O   UNL     1      -6.781  10.645  68.331  1.00  0.00    -0.058 OA 
HETATM   27  H   UNL     1      -8.612  10.743  69.933  1.00  0.00     0.000 HD 
HETATM   28  C   UNL     1      -7.409  12.961  67.824  1.00  0.00    -0.134 C  
BRANCH  19  29
HETATM   29  C   UNL     1     -11.571  11.752  67.597  1.00  0.00    -0.294 C  
HETATM   30  O   UNL     1     -11.740  10.363  67.885  1.00  0.00    -0.714 OA 
HETATM   31  H   UNL     1     -12.650  10.194  68.095  1.00  0.00     0.000 HD 
ENDBRANCH  19  29
ENDBRANCH  16  17
ENDBRANCH  10  16
ENDBRANCH   3   4
TORSDOF 5
ENDMDL
MODEL       45
REMARK 921   NORMALIZED FREE ENERGY PREDICTED BY IDOCK:   -5.25 KCAL/MOL
REMARK 922        TOTAL FREE ENERGY PREDICTED BY IDOCK:   -8.36 KCAL/MOL
REMARK 923 INTER-LIGAND FREE ENERGY PREDICTED BY IDOCK:   -6.97 KCAL/MOL
REMARK 924 INTRA-LIGAND FREE ENERGY PREDICTED BY IDOCK:   -1.39 KCAL/MOL
REMARK 927      BINDING AFFINITY PREDICTED BY RF-SCORE:    0.00 PKD
ROOT
HETATM    1  O   UNL     1      -6.329  16.762  69.459  1.00  0.00    -0.214 OA 
HETATM    2  H   UNL     1      -5.489  16.484  69.806  1.00  0.00     0.000 HD 
HETATM    3  C   UNL     1      -6.340  18.181  69.312  1.00  0.00    -0.256 C  
ENDROOT
BRANCH   3   4
HETATM    4  C   UNL     1      -7.693  18.630  68.753  1.00  0.00    -0.300 C  
HETATM    5  O   UNL     1      -7.499  19.751  67.869  1.00  0.00    -0.272 OA 
HETATM    6  C   UNL     1      -8.546  19.694  66.898  1.00  0.00    -0.315 C  
HETATM    7  O   UNL     1      -8.056  20.275  65.683  1.00  0.00    -0.517 OA 
HETATM    8  H   UNL     1      -8.175  16.785  65.452  1.00  0.00     0.000 HD 
HETATM    9  C   UNL     1      -8.835  18.204  66.665  1.00  0.00    -0.275 C  
HETATM   10  C   UNL     1      -8.391  17.519  67.958  1.00  0.00    -0.241 C  
HETATM   11  O   UNL     1      -7.996  17.707  65.597  1.00  0.00    -0.529 OA 
HETATM   12  H   UNL     1      -8.752  20.237  65.037  1.00  0.00     0.000 HD 
BRANCH   6  13
HETATM   13  C   UNL     1      -9.754  20.501  67.397  1.00  0.00    -0.446 C  
HETATM   14  H   UNL     1     -11.695  20.245  67.431  1.00  0.00     0.000 HD 
HETATM   15  O   UNL     1     -10.948  19.746  67.122  1.00  0.00    -0.426 OA 
ENDBRANCH   6  13
BRANCH  10  16
HETATM   16  O   UNL     1      -9.522  16.981  68.660  1.00  0.00    -0.258 OA 
BRANCH  16  17
HETATM   17  C   UNL     1      -9.593  15.548  68.602  1.00  0.00    -0.203 C  
HETATM   18  O   UNL     1      -8.403  15.016  68.009  1.00  0.00    -0.141 OA 
HETATM   19  C   UNL     1      -8.402  13.577  67.976  1.00  0.00    -0.168 C  
HETATM   20  C   UNL     1      -9.561  13.063  67.112  1.00  0.00    -0.230 C  
HETATM   21  H   UNL     1     -12.821  15.307  68.072  1.00  0.00     0.000 HD 
HETATM   22  O   UNL     1     -12.039  15.574  68.539  1.00  0.00    -0.246 OA 
HETATM   23  C   UNL     1     -10.875  13.573  67.715  1.00  0.00    -0.253 C  
HETATM   24  O   UNL     1      -9.507  13.543  65.760  1.00  0.00    -0.490 OA 
HETATM   25  H   UNL     1     -12.788  13.444  67.289  1.00  0.00     0.000 HD 
HETATM   26  O   UNL     1     -11.974  13.128  66.915  1.00  0.00    -0.380 OA 
HETATM   27  H   UNL     1     -10.225  13.225  65.225  1.00  0.00     0.000 HD 
HETATM   28  C   UNL     1     -10.867  15.112  67.839  1.00  0.00    -0.291 C  
BRANCH  19  29
HETATM   29  C   UNL     1      -7.034  13.111  67.469  1.00  0.00    -0.149 C  
HETATM   30  O   UNL     1      -7.208  11.980  66.614  1.00  0.00    -0.369 OA 
HETATM   31  H   UNL     1      -6.359  11.691  66.300  1.00  0.00     0.000 HD 
ENDBRANCH  19  29
ENDBRANCH  16  17
ENDBRANCH  10  16
ENDBRANCH   3   4
TORSDOF 5
ENDMDL
MODEL       46
REMARK 921   NORMALIZED FREE ENERGY PREDICTED BY IDOCK:   -5.24 KCAL/MOL
REMARK 922        TOTAL FREE ENERGY PREDICTED BY IDOCK:   -8.35 KCAL/MOL
REMARK 923 INTER-LIGAND FREE ENERGY PREDICTED BY IDOCK:   -7.99 KCAL/MOL
REMARK 924 INTRA-LIGAND FREE ENERGY PREDICTED BY IDOCK:   -0.36 KCAL/MOL
REMARK 927      BINDING AFFINITY PREDICTED BY RF-SCORE:    0.00 PKD
ROOT
HETATM    1  O   UNL     1      -9.899  20.952  66.941  1.00  0.00    -0.620 OA 
HETATM    2  H   UNL     1     -10.534  21.641  66.781  1.00  0.00     0.000 HD 
HETATM    3  C   UNL     1     -10.366  19.730  66.370  1.00  0.00    -0.508 C  
ENDROOT
BRANCH   3   4
HETATM    4  C   UNL     1      -9.345  18.620  66.628  1.00  0.00    -0.315 C  
HETATM    5  O   UNL     1      -8.051  19.037  66.151  1.00  0.00    -0.338 OA 
HETATM    6  C   UNL     1      -7.080  18.378  66.967  1.00  0.00    -0.194 C  
HETATM    7  O   UNL     1      -5.917  19.213  67.034  1.00  0.00    -0.167 OA 
HETATM    8  H   UNL     1      -7.753  19.364  70.011  1.00  0.00     0.000 HD 
HETATM    9  C   UNL     1      -7.702  18.263  68.366  1.00  0.00    -0.299 C  
HETATM   10  C   UNL     1      -9.211  18.286  68.119  1.00  0.00    -0.301 C  
HETATM   11  O   UNL     1      -7.368  19.435  69.145  1.00  0.00    -0.357 OA 
HETATM   12  H   UNL     1      -5.272  18.775  67.577  1.00  0.00     0.000 HD 
BRANCH   6  13
HETATM   13  C   UNL     1      -6.703  17.032  66.330  1.00  0.00    -0.187 C  
HETATM   14  H   UNL     1      -5.371  15.640  66.680  1.00  0.00     0.000 HD 
HETATM   15  O   UNL     1      -5.604  16.472  67.074  1.00  0.00    -0.241 OA 
ENDBRANCH   6  13
BRANCH  10  16
HETATM   16  O   UNL     1      -9.796  17.016  68.445  1.00  0.00    -0.257 OA 
BRANCH  16  17
HETATM   17  C   UNL     1      -9.610  16.029  67.418  1.00  0.00    -0.225 C  
HETATM   18  O   UNL     1     -10.742  16.005  66.542  1.00  0.00    -0.306 OA 
HETATM   19  C   UNL     1     -10.581  15.066  65.463  1.00  0.00    -0.363 C  
HETATM   20  C   UNL     1     -10.452  13.640  66.013  1.00  0.00    -0.300 C  
HETATM   21  H   UNL     1      -7.963  13.845  69.230  1.00  0.00     0.000 HD 
HETATM   22  O   UNL     1      -8.129  14.694  68.837  1.00  0.00    -0.151 OA 
HETATM   23  C   UNL     1      -9.231  13.588  66.939  1.00  0.00    -0.249 C  
HETATM   24  O   UNL     1     -11.586  13.235  66.793  1.00  0.00    -0.330 OA 
HETATM   25  H   UNL     1      -8.344  12.242  68.060  1.00  0.00     0.000 HD 
HETATM   26  O   UNL     1      -9.100  12.273  67.485  1.00  0.00    -0.170 OA 
HETATM   27  H   UNL     1     -11.507  12.352  67.133  1.00  0.00     0.000 HD 
HETATM   28  C   UNL     1      -9.341  14.646  68.059  1.00  0.00    -0.198 C  
BRANCH  19  29
HETATM   29  C   UNL     1     -11.766  15.227  64.507  1.00  0.00    -0.305 C  
HETATM   30  O   UNL     1     -11.638  16.460  63.798  1.00  0.00    -1.605 OA 
HETATM   31  H   UNL     1     -12.373  16.560  63.205  1.00  0.00     0.000 HD 
ENDBRANCH  19  29
ENDBRANCH  16  17
ENDBRANCH  10  16
ENDBRANCH   3   4
TORSDOF 5
ENDMDL
MODEL       47
REMARK 921   NORMALIZED FREE ENERGY PREDICTED BY IDOCK:   -5.23 KCAL/MOL
REMARK 922        TOTAL FREE ENERGY PREDICTED BY IDOCK:   -8.34 KCAL/MOL
REMARK 923 INTER-LIGAND FREE ENERGY PREDICTED BY IDOCK:   -7.57 KCAL/MOL
REMARK 924 INTRA-LIGAND FREE ENERGY PREDICTED BY IDOCK:   -0.77 KCAL/MOL
REMARK 927      BINDING AFFINITY PREDICTED BY RF-SCORE:    0.00 PKD
ROOT
HETATM    1  O   UNL     1     -10.088   6.902  66.469  1.00  0.00    -0.372 OA 
HETATM    2  H   UNL     1      -9.678   6.164  66.034  1.00  0.00     0.000 HD 
HETATM    3  C   UNL     1      -9.829   6.837  67.871  1.00  0.00    -0.129 C  
ENDROOT
BRANCH   3   4
HETATM    4  C   UNL     1     -10.491   8.026  68.572  1.00  0.00    -0.164 C  
HETATM    5  O   UNL     1     -10.101   8.044  69.958  1.00  0.00    -0.190 OA 
HETATM    6  C   UNL     1     -10.126   9.412  70.374  1.00  0.00    -0.255 C  
HETATM    7  O   UNL     1      -9.150   9.578  71.410  1.00  0.00    -0.311 OA 
HETATM    8  H   UNL     1      -8.018  10.921  68.382  1.00  0.00     0.000 HD 
HETATM    9  C   UNL     1      -9.712  10.240  69.150  1.00  0.00    -0.217 C  
HETATM   10  C   UNL     1     -10.085   9.368  67.951  1.00  0.00    -0.194 C  
HETATM   11  O   UNL     1      -8.275  10.408  69.139  1.00  0.00    -0.135 OA 
HETATM   12  H   UNL     1      -9.167  10.487  71.686  1.00  0.00     0.000 HD 
BRANCH   6  13
HETATM   13  C   UNL     1     -11.517   9.754  70.928  1.00  0.00    -0.369 C  
HETATM   14  H   UNL     1     -12.749  11.270  70.786  1.00  0.00     0.000 HD 
HETATM   15  O   UNL     1     -11.889  11.058  70.443  1.00  0.00    -0.317 OA 
ENDBRANCH   6  13
BRANCH  10  16
HETATM   16  O   UNL     1     -11.156   9.966  67.204  1.00  0.00    -0.163 OA 
BRANCH  16  17
HETATM   17  C   UNL     1     -10.704  10.941  66.252  1.00  0.00    -0.176 C  
HETATM   18  O   UNL     1     -11.761  11.855  65.939  1.00  0.00    -0.424 OA 
HETATM   19  C   UNL     1     -11.343  12.886  65.026  1.00  0.00    -0.305 C  
HETATM   20  C   UNL     1     -10.916  12.271  63.686  1.00  0.00    -0.471 C  
HETATM   21  H   UNL     1      -8.684   8.980  64.567  1.00  0.00     0.000 HD 
HETATM   22  O   UNL     1      -9.022   9.415  65.341  1.00  0.00    -0.179 OA 
HETATM   23  C   UNL     1      -9.758  11.300  63.948  1.00  0.00    -0.277 C  
HETATM   24  O   UNL     1     -11.962  11.514  63.059  1.00  0.00    -0.917 OA 
HETATM   25  H   UNL     1      -8.637  10.092  62.880  1.00  0.00     0.000 HD 
HETATM   26  O   UNL     1      -9.355  10.693  62.718  1.00  0.00    -0.266 OA 
HETATM   27  H   UNL     1     -11.698  11.133  62.230  1.00  0.00     0.000 HD 
HETATM   28  C   UNL     1     -10.155  10.232  64.990  1.00  0.00    -0.283 C  
BRANCH  19  29
HETATM   29  C   UNL     1     -12.490  13.888  64.878  1.00  0.00    -0.391 C  
HETATM   30  O   UNL     1     -12.365  14.568  63.627  1.00  0.00    -1.064 OA 
HETATM   31  H   UNL     1     -13.077  15.190  63.535  1.00  0.00     0.000 HD 
ENDBRANCH  19  29
ENDBRANCH  16  17
ENDBRANCH  10  16
ENDBRANCH   3   4
TORSDOF 5
ENDMDL
MODEL       48
REMARK 921   NORMALIZED FREE ENERGY PREDICTED BY IDOCK:   -5.22 KCAL/MOL
REMARK 922        TOTAL FREE ENERGY PREDICTED BY IDOCK:   -8.33 KCAL/MOL
REMARK 923 INTER-LIGAND FREE ENERGY PREDICTED BY IDOCK:   -7.43 KCAL/MOL
REMARK 924 INTRA-LIGAND FREE ENERGY PREDICTED BY IDOCK:   -0.90 KCAL/MOL
REMARK 927      BINDING AFFINITY PREDICTED BY RF-SCORE:    0.00 PKD
ROOT
HETATM    1  O   UNL     1     -14.187   8.904  73.171  1.00  0.00    -1.144 OA 
HETATM    2  H   UNL     1     -15.133   9.002  73.164  1.00  0.00     0.000 HD 
HETATM    3  C   UNL     1     -13.638   9.476  71.985  1.00  0.00    -0.415 C  
ENDROOT
BRANCH   3   4
HETATM    4  C   UNL     1     -12.115   9.317  71.996  1.00  0.00    -0.336 C  
HETATM    5  O   UNL     1     -11.766   8.081  72.647  1.00  0.00    -0.388 OA 
HETATM    6  C   UNL     1     -10.537   7.641  72.063  1.00  0.00    -0.220 C  
HETATM    7  O   UNL     1     -10.505   6.210  72.123  1.00  0.00    -0.194 OA 
HETATM    8  H   UNL     1     -11.202   7.323  68.878  1.00  0.00     0.000 HD 
HETATM    9  C   UNL     1     -10.577   8.086  70.595  1.00  0.00    -0.219 C  
HETATM   10  C   UNL     1     -11.522   9.288  70.582  1.00  0.00    -0.274 C  
HETATM   11  O   UNL     1     -11.178   7.048  69.788  1.00  0.00    -0.262 OA 
HETATM   12  H   UNL     1      -9.688   5.918  71.735  1.00  0.00     0.000 HD 
BRANCH   6  13
HETATM   13  C   UNL     1      -9.357   8.210  72.865  1.00  0.00    -0.273 C  
HETATM   14  H   UNL     1      -7.747   9.244  72.448  1.00  0.00     0.000 HD 
HETATM   15  O   UNL     1      -8.478   8.893  71.952  1.00  0.00    -0.348 OA 
ENDBRANCH   6  13
BRANCH  10  16
HETATM   16  O   UNL     1     -10.805  10.492  70.270  1.00  0.00    -0.279 OA 
BRANCH  16  17
HETATM   17  C   UNL     1     -11.441  11.280  69.251  1.00  0.00    -0.301 C  
HETATM   18  O   UNL     1     -10.736  11.149  68.012  1.00  0.00    -0.187 OA 
HETATM   19  C   UNL     1     -11.365  11.879  66.943  1.00  0.00    -0.330 C  
HETATM   20  C   UNL     1     -11.375  13.381  67.257  1.00  0.00    -0.319 C  
HETATM   21  H   UNL     1     -12.419  13.749  71.176  1.00  0.00     0.000 HD 
HETATM   22  O   UNL     1     -12.357  12.844  70.895  1.00  0.00    -0.370 OA 
HETATM   23  C   UNL     1     -12.148  13.595  68.565  1.00  0.00    -0.286 C  
HETATM   24  O   UNL     1     -10.060  13.921  67.456  1.00  0.00    -0.239 OA 
HETATM   25  H   UNL     1     -12.632  15.118  69.705  1.00  0.00     0.000 HD 
HETATM   26  O   UNL     1     -12.153  14.986  68.895  1.00  0.00    -0.271 OA 
HETATM   27  H   UNL     1     -10.066  14.851  67.651  1.00  0.00     0.000 HD 
HETATM   28  C   UNL     1     -11.542  12.755  69.709  1.00  0.00    -0.218 C  
BRANCH  19  29
HETATM   29  C   UNL     1     -10.627  11.553  65.641  1.00  0.00    -0.274 C  
HETATM   30  O   UNL     1     -10.669  12.689  64.777  1.00  0.00    -0.283 OA 
HETATM   31  H   UNL     1     -10.212  12.486  63.969  1.00  0.00     0.000 HD 
ENDBRANCH  19  29
ENDBRANCH  16  17
ENDBRANCH  10  16
ENDBRANCH   3   4
TORSDOF 5
ENDMDL
MODEL       49
REMARK 921   NORMALIZED FREE ENERGY PREDICTED BY IDOCK:   -5.22 KCAL/MOL
REMARK 922        TOTAL FREE ENERGY PREDICTED BY IDOCK:   -8.32 KCAL/MOL
REMARK 923 INTER-LIGAND FREE ENERGY PREDICTED BY IDOCK:   -7.20 KCAL/MOL
REMARK 924 INTRA-LIGAND FREE ENERGY PREDICTED BY IDOCK:   -1.13 KCAL/MOL
REMARK 927      BINDING AFFINITY PREDICTED BY RF-SCORE:    0.00 PKD
ROOT
HETATM    1  O   UNL     1     -11.735  15.195  63.995  1.00  0.00    -0.760 OA 
HETATM    2  H   UNL     1     -11.925  15.672  63.196  1.00  0.00     0.000 HD 
HETATM    3  C   UNL     1     -11.973  13.803  63.790  1.00  0.00    -0.321 C  
ENDROOT
BRANCH   3   4
HETATM    4  C   UNL     1     -11.667  13.035  65.079  1.00  0.00    -0.339 C  
HETATM    5  O   UNL     1     -10.539  12.165  64.863  1.00  0.00    -0.272 OA 
HETATM    6  C   UNL     1      -9.882  12.024  66.125  1.00  0.00    -0.235 C  
HETATM    7  O   UNL     1      -8.489  11.800  65.876  1.00  0.00    -0.388 OA 
HETATM    8  H   UNL     1      -9.064  15.073  66.975  1.00  0.00     0.000 HD 
HETATM    9  C   UNL     1     -10.057  13.365  66.851  1.00  0.00    -0.255 C  
HETATM   10  C   UNL     1     -11.325  13.968  66.246  1.00  0.00    -0.333 C  
HETATM   11  O   UNL     1      -8.956  14.243  66.525  1.00  0.00    -0.223 OA 
HETATM   12  H   UNL     1      -8.052  11.706  66.714  1.00  0.00     0.000 HD 
BRANCH   6  13
HETATM   13  C   UNL     1     -10.465  10.817  66.875  1.00  0.00    -0.252 C  
HETATM   14  H   UNL     1     -10.221  10.015  68.645  1.00  0.00     0.000 HD 
HETATM   15  O   UNL     1      -9.861  10.762  68.181  1.00  0.00    -0.152 OA 
ENDBRANCH   6  13
BRANCH  10  16
HETATM   16  O   UNL     1     -12.376  14.021  67.223  1.00  0.00    -0.351 OA 
BRANCH  16  17
HETATM   17  C   UNL     1     -11.909  13.823  68.567  1.00  0.00    -0.370 C  
HETATM   18  O   UNL     1     -12.576  12.706  69.164  1.00  0.00     0.240 OA 
HETATM   19  C   UNL     1     -12.104  12.433  70.496  1.00  0.00    -0.275 C  
HETATM   20  C   UNL     1     -12.388  13.627  71.417  1.00  0.00    -0.210 C  
HETATM   21  H   UNL     1     -11.431  16.981  69.315  1.00  0.00     0.000 HD 
HETATM   22  O   UNL     1     -11.315  16.184  68.811  1.00  0.00    -0.346 OA 
HETATM   23  C   UNL     1     -11.670  14.857  70.848  1.00  0.00    -0.323 C  
HETATM   24  O   UNL     1     -13.783  13.956  71.495  1.00  0.00    -0.324 OA 
HETATM   25  H   UNL     1     -11.493  16.754  71.322  1.00  0.00     0.000 HD 
HETATM   26  O   UNL     1     -11.937  15.992  71.675  1.00  0.00    -0.441 OA 
HETATM   27  H   UNL     1     -13.959  14.695  72.065  1.00  0.00     0.000 HD 
HETATM   28  C   UNL     1     -12.098  15.121  69.388  1.00  0.00    -0.260 C  
BRANCH  19  29
HETATM   29  C   UNL     1     -12.764  11.141  70.982  1.00  0.00    -0.378 C  
HETATM   30  O   UNL     1     -13.410  11.382  72.233  1.00  0.00    -0.629 OA 
HETATM   31  H   UNL     1     -13.820  10.580  72.536  1.00  0.00     0.000 HD 
ENDBRANCH  19  29
ENDBRANCH  16  17
ENDBRANCH  10  16
ENDBRANCH   3   4
TORSDOF 5
ENDMDL
MODEL       50
REMARK 921   NORMALIZED FREE ENERGY PREDICTED BY IDOCK:   -5.20 KCAL/MOL
REMARK 922        TOTAL FREE ENERGY PREDICTED BY IDOCK:   -8.30 KCAL/MOL
REMARK 923 INTER-LIGAND FREE ENERGY PREDICTED BY IDOCK:   -7.03 KCAL/MOL
REMARK 924 INTRA-LIGAND FREE ENERGY PREDICTED BY IDOCK:   -1.27 KCAL/MOL
REMARK 927      BINDING AFFINITY PREDICTED BY RF-SCORE:    0.00 PKD
ROOT
HETATM    1  O   UNL     1     -10.331   8.189  66.408  1.00  0.00    -0.458 OA 
HETATM    2  H   UNL     1     -10.467   7.437  65.842  1.00  0.00     0.000 HD 
HETATM    3  C   UNL     1      -9.519   9.152  65.738  1.00  0.00    -0.254 C  
ENDROOT
BRANCH   3   4
HETATM    4  C   UNL     1      -9.300  10.362  66.650  1.00  0.00    -0.158 C  
HETATM    5  O   UNL     1      -9.178  11.552  65.847  1.00  0.00    -0.219 OA 
HETATM    6  C   UNL     1      -9.659  12.637  66.645  1.00  0.00    -0.249 C  
HETATM    7  O   UNL     1     -10.202  13.628  65.765  1.00  0.00    -0.293 OA 
HETATM    8  H   UNL     1     -12.745  11.831  67.363  1.00  0.00     0.000 HD 
HETATM    9  C   UNL     1     -10.784  12.063  67.516  1.00  0.00    -0.226 C  
HETATM   10  C   UNL     1     -10.462  10.572  67.629  1.00  0.00    -0.234 C  
HETATM   11  O   UNL     1     -12.048  12.186  66.824  1.00  0.00    -0.609 OA 
HETATM   12  H   UNL     1     -10.521  14.349  66.295  1.00  0.00     0.000 HD 
BRANCH   6  13
HETATM   13  C   UNL     1      -8.493  13.246  67.438  1.00  0.00    -0.206 C  
HETATM   14  H   UNL     1      -8.318  14.410  69.003  1.00  0.00     0.000 HD 
HETATM   15  O   UNL     1      -9.039  14.033  68.513  1.00  0.00    -0.192 OA 
ENDBRANCH   6  13
BRANCH  10  16
HETATM   16  O   UNL     1     -10.102  10.232  68.976  1.00  0.00    -0.190 OA 
BRANCH  16  17
HETATM   17  C   UNL     1     -10.992   9.277  69.574  1.00  0.00    -0.151 C  
HETATM   18  O   UNL     1     -11.740   9.889  70.631  1.00  0.00    -0.284 OA 
HETATM   19  C   UNL     1     -12.686   8.985  71.229  1.00  0.00    -0.262 C  
HETATM   20  C   UNL     1     -11.956   7.798  71.872  1.00  0.00    -0.301 C  
HETATM   21  H   UNL     1      -9.064   6.643  69.248  1.00  0.00     0.000 HD 
HETATM   22  O   UNL     1      -9.554   7.399  68.947  1.00  0.00    -0.148 OA 
HETATM   23  C   UNL     1     -11.158   7.075  70.780  1.00  0.00    -0.273 C  
HETATM   24  O   UNL     1     -11.018   8.197  72.882  1.00  0.00    -0.364 OA 
HETATM   25  H   UNL     1      -9.952   5.528  70.680  1.00  0.00     0.000 HD 
HETATM   26  O   UNL     1     -10.447   5.975  71.356  1.00  0.00    -0.215 OA 
HETATM   27  H   UNL     1     -10.566   7.463  73.280  1.00  0.00     0.000 HD 
HETATM   28  C   UNL     1     -10.193   8.045  70.065  1.00  0.00    -0.205 C  
BRANCH  19  29
HETATM   29  C   UNL     1     -13.532   9.772  72.233  1.00  0.00    -0.349 C  
HETATM   30  O   UNL     1     -13.823   8.944  73.359  1.00  0.00    -1.192 OA 
HETATM   31  H   UNL     1     -14.348   9.432  73.982  1.00  0.00     0.000 HD 
ENDBRANCH  19  29
ENDBRANCH  16  17
ENDBRANCH  10  16
ENDBRANCH   3   4
TORSDOF 5
ENDMDL
MODEL       51
REMARK 921   NORMALIZED FREE ENERGY PREDICTED BY IDOCK:   -5.17 KCAL/MOL
REMARK 922        TOTAL FREE ENERGY PREDICTED BY IDOCK:   -8.26 KCAL/MOL
REMARK 923 INTER-LIGAND FREE ENERGY PREDICTED BY IDOCK:   -6.49 KCAL/MOL
REMARK 924 INTRA-LIGAND FREE ENERGY PREDICTED BY IDOCK:   -1.77 KCAL/MOL
REMARK 927      BINDING AFFINITY PREDICTED BY RF-SCORE:    0.00 PKD
ROOT
HETATM    1  O   UNL     1     -12.362  10.820  68.510  1.00  0.00    -0.825 OA 
HETATM    2  H   UNL     1     -13.130  11.349  68.689  1.00  0.00     0.000 HD 
HETATM    3  C   UNL     1     -11.743  10.442  69.739  1.00  0.00    -0.237 C  
ENDROOT
BRANCH   3   4
HETATM    4  C   UNL     1     -10.505   9.589  69.450  1.00  0.00    -0.217 C  
HETATM    5  O   UNL     1     -10.691   8.271  70.000  1.00  0.00    -0.237 OA 
HETATM    6  C   UNL     1      -9.938   7.374  69.180  1.00  0.00    -0.173 C  
HETATM    7  O   UNL     1     -10.587   6.096  69.209  1.00  0.00    -0.221 OA 
HETATM    8  H   UNL     1     -11.186   7.748  66.182  1.00  0.00     0.000 HD 
HETATM    9  C   UNL     1     -10.000   7.940  67.755  1.00  0.00    -0.173 C  
HETATM   10  C   UNL     1     -10.240   9.439  67.947  1.00  0.00    -0.211 C  
HETATM   11  O   UNL     1     -11.148   7.398  67.064  1.00  0.00    -0.268 OA 
HETATM   12  H   UNL     1     -10.087   5.500  68.664  1.00  0.00     0.000 HD 
BRANCH   6  13
HETATM   13  C   UNL     1      -8.517   7.234  69.745  1.00  0.00    -0.136 C  
HETATM   14  H   UNL     1      -6.710   7.167  68.993  1.00  0.00     0.000 HD 
HETATM   15  O   UNL     1      -7.589   7.254  68.644  1.00  0.00    -0.108 OA 
ENDBRANCH   6  13
BRANCH  10  16
HETATM   16  O   UNL     1      -9.095  10.193  67.521  1.00  0.00    -0.134 OA 
BRANCH  16  17
HETATM   17  C   UNL     1      -9.433  11.300  66.669  1.00  0.00    -0.186 C  
HETATM   18  O   UNL     1     -10.185  12.275  67.399  1.00  0.00    -0.202 OA 
HETATM   19  C   UNL     1     -10.504  13.431  66.602  1.00  0.00    -0.280 C  
HETATM   20  C   UNL     1     -11.387  13.031  65.413  1.00  0.00    -0.297 C  
HETATM   21  H   UNL     1      -9.820   9.592  63.895  1.00  0.00     0.000 HD 
HETATM   22  O   UNL     1      -9.353   9.904  64.661  1.00  0.00    -0.249 OA 
HETATM   23  C   UNL     1     -10.622  12.005  64.567  1.00  0.00    -0.313 C  
HETATM   24  O   UNL     1     -12.617  12.409  65.813  1.00  0.00    -0.532 OA 
HETATM   25  H   UNL     1     -10.959  10.961  62.939  1.00  0.00     0.000 HD 
HETATM   26  O   UNL     1     -11.433  11.596  63.462  1.00  0.00    -0.422 OA 
HETATM   27  H   UNL     1     -13.165  12.161  65.077  1.00  0.00     0.000 HD 
HETATM   28  C   UNL     1     -10.195  10.792  65.421  1.00  0.00    -0.276 C  
BRANCH  19  29
HETATM   29  C   UNL     1     -11.168  14.469  67.510  1.00  0.00    -0.321 C  
HETATM   30  O   UNL     1     -12.270  13.866  68.191  1.00  0.00    -0.476 OA 
HETATM   31  H   UNL     1     -12.683  14.511  68.753  1.00  0.00     0.000 HD 
ENDBRANCH  19  29
ENDBRANCH  16  17
ENDBRANCH  10  16
ENDBRANCH   3   4
TORSDOF 5
ENDMDL
MODEL       52
REMARK 921   NORMALIZED FREE ENERGY PREDICTED BY IDOCK:   -5.16 KCAL/MOL
REMARK 922        TOTAL FREE ENERGY PREDICTED BY IDOCK:   -8.25 KCAL/MOL
REMARK 923 INTER-LIGAND FREE ENERGY PREDICTED BY IDOCK:   -7.43 KCAL/MOL
REMARK 924 INTRA-LIGAND FREE ENERGY PREDICTED BY IDOCK:   -0.81 KCAL/MOL
REMARK 927      BINDING AFFINITY PREDICTED BY RF-SCORE:    0.00 PKD
ROOT
HETATM    1  O   UNL     1     -13.207   9.600  70.804  1.00  0.00    -0.574 OA 
HETATM    2  H   UNL     1     -14.122   9.727  71.028  1.00  0.00     0.000 HD 
HETATM    3  C   UNL     1     -12.662  10.821  70.305  1.00  0.00    -0.216 C  
ENDROOT
BRANCH   3   4
HETATM    4  C   UNL     1     -11.189  10.617  69.945  1.00  0.00    -0.308 C  
HETATM    5  O   UNL     1     -10.752   9.330  70.421  1.00  0.00    -0.218 OA 
HETATM    6  C   UNL     1      -9.716   8.894  69.538  1.00  0.00    -0.173 C  
HETATM    7  O   UNL     1      -9.734   7.462  69.504  1.00  0.00    -0.159 OA 
HETATM    8  H   UNL     1     -11.125   8.810  66.589  1.00  0.00     0.000 HD 
HETATM    9  C   UNL     1     -10.080   9.438  68.149  1.00  0.00    -0.181 C  
HETATM   10  C   UNL     1     -10.947  10.665  68.431  1.00  0.00    -0.251 C  
HETATM   11  O   UNL     1     -10.900   8.474  67.449  1.00  0.00    -0.209 OA 
HETATM   12  H   UNL     1      -9.045   7.173  68.917  1.00  0.00     0.000 HD 
BRANCH   6  13
HETATM   13  C   UNL     1      -8.356   9.373  70.068  1.00  0.00    -0.180 C  
HETATM   14  H   UNL     1      -7.456   9.389  71.807  1.00  0.00     0.000 HD 
HETATM   15  O   UNL     1      -8.297   9.093  71.479  1.00  0.00    -0.336 OA 
ENDBRANCH   6  13
BRANCH  10  16
HETATM   16  O   UNL     1     -10.271  11.866  68.029  1.00  0.00    -0.182 OA 
BRANCH  16  17
HETATM   17  C   UNL     1     -11.056  12.690  67.153  1.00  0.00    -0.280 C  
HETATM   18  O   UNL     1     -11.340  11.990  65.936  1.00  0.00    -0.330 OA 
HETATM   19  C   UNL     1     -12.170  12.756  65.044  1.00  0.00    -0.473 C  
HETATM   20  C   UNL     1     -11.453  14.046  64.623  1.00  0.00    -0.383 C  
HETATM   21  H   UNL     1      -9.724  15.571  67.980  1.00  0.00     0.000 HD 
HETATM   22  O   UNL     1     -10.171  14.748  68.137  1.00  0.00    -0.223 OA 
HETATM   23  C   UNL     1     -11.149  14.861  65.886  1.00  0.00    -0.338 C  
HETATM   24  O   UNL     1     -10.199  13.802  63.970  1.00  0.00    -0.652 OA 
HETATM   25  H   UNL     1     -10.269  16.566  66.307  1.00  0.00     0.000 HD 
HETATM   26  O   UNL     1     -10.458  16.061  65.525  1.00  0.00    -0.371 OA 
HETATM   27  H   UNL     1      -9.755  14.601  63.709  1.00  0.00     0.000 HD 
HETATM   28  C   UNL     1     -10.328  14.031  66.896  1.00  0.00    -0.269 C  
BRANCH  19  29
HETATM   29  C   UNL     1     -12.537  11.868  63.852  1.00  0.00    -0.340 C  
HETATM   30  O   UNL     1     -11.352  11.531  63.131  1.00  0.00    -0.790 OA 
HETATM   31  H   UNL     1     -11.579  10.980  62.391  1.00  0.00     0.000 HD 
ENDBRANCH  19  29
ENDBRANCH  16  17
ENDBRANCH  10  16
ENDBRANCH   3   4
TORSDOF 5
ENDMDL
MODEL       53
REMARK 921   NORMALIZED FREE ENERGY PREDICTED BY IDOCK:   -5.15 KCAL/MOL
REMARK 922        TOTAL FREE ENERGY PREDICTED BY IDOCK:   -8.24 KCAL/MOL
REMARK 923 INTER-LIGAND FREE ENERGY PREDICTED BY IDOCK:   -6.49 KCAL/MOL
REMARK 924 INTRA-LIGAND FREE ENERGY PREDICTED BY IDOCK:   -1.76 KCAL/MOL
REMARK 927      BINDING AFFINITY PREDICTED BY RF-SCORE:    0.00 PKD
ROOT
HETATM    1  O   UNL     1     -11.178   7.512  68.115  1.00  0.00    -0.437 OA 
HETATM    2  H   UNL     1     -11.461   6.621  67.940  1.00  0.00     0.000 HD 
HETATM    3  C   UNL     1      -9.912   7.743  67.498  1.00  0.00    -0.185 C  
ENDROOT
BRANCH   3   4
HETATM    4  C   UNL     1      -9.457   9.176  67.781  1.00  0.00    -0.140 C  
HETATM    5  O   UNL     1      -9.376   9.907  66.542  1.00  0.00    -0.153 OA 
HETATM    6  C   UNL     1      -9.638  11.277  66.855  1.00  0.00    -0.191 C  
HETATM    7  O   UNL     1     -10.238  11.888  65.707  1.00  0.00    -0.227 OA 
HETATM    8  H   UNL     1     -12.620  11.264  68.195  1.00  0.00     0.000 HD 
HETATM    9  C   UNL     1     -10.648  11.268  68.010  1.00  0.00    -0.195 C  
HETATM   10  C   UNL     1     -10.427   9.924  68.705  1.00  0.00    -0.213 C  
HETATM   11  O   UNL     1     -11.994  11.270  67.480  1.00  0.00    -0.612 OA 
HETATM   12  H   UNL     1     -10.412  12.798  65.915  1.00  0.00     0.000 HD 
BRANCH   6  13
HETATM   13  C   UNL     1      -8.316  11.991  67.177  1.00  0.00    -0.181 C  
HETATM   14  H   UNL     1      -7.750  13.405  68.408  1.00  0.00     0.000 HD 
HETATM   15  O   UNL     1      -8.567  12.963  68.210  1.00  0.00    -0.180 OA 
ENDBRANCH   6  13
BRANCH  10  16
HETATM   16  O   UNL     1      -9.881  10.117  70.019  1.00  0.00    -0.228 OA 
BRANCH  16  17
HETATM   17  C   UNL     1     -10.533   9.323  71.023  1.00  0.00    -0.314 C  
HETATM   18  O   UNL     1     -10.292   7.932  70.789  1.00  0.00    -0.201 OA 
HETATM   19  C   UNL     1     -10.882   7.095  71.800  1.00  0.00    -0.225 C  
HETATM   20  C   UNL     1     -12.408   7.257  71.803  1.00  0.00    -0.341 C  
HETATM   21  H   UNL     1     -13.162  11.242  71.435  1.00  0.00     0.000 HD 
HETATM   22  O   UNL     1     -12.234  11.039  71.413  1.00  0.00    -0.295 OA 
HETATM   23  C   UNL     1     -12.736   8.729  72.084  1.00  0.00    -0.400 C  
HETATM   24  O   UNL     1     -13.009   6.928  70.543  1.00  0.00    -0.493 OA 
HETATM   25  H   UNL     1     -14.356   9.826  72.243  1.00  0.00     0.000 HD 
HETATM   26  O   UNL     1     -14.154   8.915  72.069  1.00  0.00    -0.421 OA 
HETATM   27  H   UNL     1     -13.954   7.028  70.544  1.00  0.00     0.000 HD 
HETATM   28  C   UNL     1     -12.044   9.655  71.060  1.00  0.00    -0.337 C  
BRANCH  19  29
HETATM   29  C   UNL     1     -10.442   5.651  71.543  1.00  0.00    -0.239 C  
HETATM   30  O   UNL     1     -10.766   5.290  70.200  1.00  0.00    -0.276 OA 
HETATM   31  H   UNL     1     -10.493   4.394  70.040  1.00  0.00     0.000 HD 
ENDBRANCH  19  29
ENDBRANCH  16  17
ENDBRANCH  10  16
ENDBRANCH   3   4
TORSDOF 5
ENDMDL
MODEL       54
REMARK 921   NORMALIZED FREE ENERGY PREDICTED BY IDOCK:   -5.14 KCAL/MOL
REMARK 922        TOTAL FREE ENERGY PREDICTED BY IDOCK:   -8.23 KCAL/MOL
REMARK 923 INTER-LIGAND FREE ENERGY PREDICTED BY IDOCK:   -7.28 KCAL/MOL
REMARK 924 INTRA-LIGAND FREE ENERGY PREDICTED BY IDOCK:   -0.95 KCAL/MOL
REMARK 927      BINDING AFFINITY PREDICTED BY RF-SCORE:    0.00 PKD
ROOT
HETATM    1  O   UNL     1     -10.919  13.382  69.347  1.00  0.00    -0.414 OA 
HETATM    2  H   UNL     1     -11.224  14.261  69.540  1.00  0.00     0.000 HD 
HETATM    3  C   UNL     1      -9.747  13.449  68.537  1.00  0.00    -0.156 C  
ENDROOT
BRANCH   3   4
HETATM    4  C   UNL     1      -9.255  12.033  68.226  1.00  0.00    -0.192 C  
HETATM    5  O   UNL     1      -8.135  11.716  69.075  1.00  0.00    -0.056 OA 
HETATM    6  C   UNL     1      -8.156  10.300  69.271  1.00  0.00    -0.155 C  
HETATM    7  O   UNL     1      -7.581  10.022  70.554  1.00  0.00    -0.333 OA 
HETATM    8  H   UNL     1     -11.066   9.696  70.633  1.00  0.00     0.000 HD 
HETATM    9  C   UNL     1      -9.634   9.889  69.278  1.00  0.00    -0.205 C  
HETATM   10  C   UNL     1     -10.340  10.975  68.464  1.00  0.00    -0.190 C  
HETATM   11  O   UNL     1     -10.150   9.951  70.628  1.00  0.00    -0.240 OA 
HETATM   12  H   UNL     1      -7.595   9.081  70.684  1.00  0.00     0.000 HD 
BRANCH   6  13
HETATM   13  C   UNL     1      -7.315   9.619  68.180  1.00  0.00    -0.081 C  
HETATM   14  H   UNL     1      -6.745   7.788  67.788  1.00  0.00     0.000 HD 
HETATM   15  O   UNL     1      -7.265   8.208  68.463  1.00  0.00    -0.084 OA 
ENDBRANCH   6  13
BRANCH  10  16
HETATM   16  O   UNL     1     -10.848  10.435  67.235  1.00  0.00    -0.276 OA 
BRANCH  16  17
HETATM   17  C   UNL     1     -10.470  11.203  66.081  1.00  0.00    -0.253 C  
HETATM   18  O   UNL     1     -11.494  12.149  65.758  1.00  0.00    -0.347 OA 
HETATM   19  C   UNL     1     -11.139  12.980  64.638  1.00  0.00    -0.332 C  
HETATM   20  C   UNL     1     -10.950  12.125  63.378  1.00  0.00    -0.412 C  
HETATM   21  H   UNL     1      -8.851   8.824  64.506  1.00  0.00     0.000 HD 
HETATM   22  O   UNL     1      -9.044   9.404  65.233  1.00  0.00    -0.207 OA 
HETATM   23  C   UNL     1      -9.837  11.106  63.648  1.00  0.00    -0.345 C  
HETATM   24  O   UNL     1     -12.125  11.379  63.026  1.00  0.00    -0.934 OA 
HETATM   25  H   UNL     1      -8.966   9.647  62.664  1.00  0.00     0.000 HD 
HETATM   26  O   UNL     1      -9.656  10.279  62.496  1.00  0.00    -0.302 OA 
HETATM   27  H   UNL     1     -12.008  10.849  62.246  1.00  0.00     0.000 HD 
HETATM   28  C   UNL     1     -10.156  10.257  64.897  1.00  0.00    -0.276 C  
BRANCH  19  29
HETATM   29  C   UNL     1     -12.223  14.048  64.471  1.00  0.00    -0.434 C  
HETATM   30  O   UNL     1     -12.543  14.185  63.086  1.00  0.00    -1.058 OA 
HETATM   31  H   UNL     1     -13.215  14.848  62.982  1.00  0.00     0.000 HD 
ENDBRANCH  19  29
ENDBRANCH  16  17
ENDBRANCH  10  16
ENDBRANCH   3   4
TORSDOF 5
ENDMDL
MODEL       55
REMARK 921   NORMALIZED FREE ENERGY PREDICTED BY IDOCK:   -5.12 KCAL/MOL
REMARK 922        TOTAL FREE ENERGY PREDICTED BY IDOCK:   -8.20 KCAL/MOL
REMARK 923 INTER-LIGAND FREE ENERGY PREDICTED BY IDOCK:   -7.36 KCAL/MOL
REMARK 924 INTRA-LIGAND FREE ENERGY PREDICTED BY IDOCK:   -0.84 KCAL/MOL
REMARK 927      BINDING AFFINITY PREDICTED BY RF-SCORE:    0.00 PKD
ROOT
HETATM    1  O   UNL     1     -11.023  19.661  67.362  1.00  0.00    -0.448 OA 
HETATM    2  H   UNL     1     -11.866  20.089  67.264  1.00  0.00     0.000 HD 
HETATM    3  C   UNL     1     -10.456  19.421  66.074  1.00  0.00    -0.505 C  
ENDROOT
BRANCH   3   4
HETATM    4  C   UNL     1      -9.099  18.731  66.231  1.00  0.00    -0.242 C  
HETATM    5  O   UNL     1      -8.047  19.707  66.102  1.00  0.00    -0.331 OA 
HETATM    6  C   UNL     1      -6.952  19.238  66.893  1.00  0.00    -0.198 C  
HETATM    7  O   UNL     1      -6.222  20.379  67.361  1.00  0.00    -0.197 OA 
HETATM    8  H   UNL     1      -8.164  18.986  69.918  1.00  0.00     0.000 HD 
HETATM    9  C   UNL     1      -7.571  18.506  68.091  1.00  0.00    -0.274 C  
HETATM   10  C   UNL     1      -8.945  18.052  67.598  1.00  0.00    -0.251 C  
HETATM   11  O   UNL     1      -7.781  19.439  69.176  1.00  0.00    -0.348 OA 
HETATM   12  H   UNL     1      -5.495  20.067  67.886  1.00  0.00     0.000 HD 
BRANCH   6  13
HETATM   13  C   UNL     1      -6.030  18.367  66.026  1.00  0.00    -0.187 C  
HETATM   14  H   UNL     1      -5.626  18.223  64.115  1.00  0.00     0.000 HD 
HETATM   15  O   UNL     1      -6.196  18.762  64.651  1.00  0.00    -0.459 OA 
ENDBRANCH   6  13
BRANCH  10  16
HETATM   16  O   UNL     1      -9.000  16.621  67.500  1.00  0.00    -0.199 OA 
BRANCH  16  17
HETATM   17  C   UNL     1     -10.305  16.086  67.772  1.00  0.00    -0.279 C  
HETATM   18  O   UNL     1     -10.503  15.958  69.185  1.00  0.00    -0.206 OA 
HETATM   19  C   UNL     1     -11.819  15.474  69.512  1.00  0.00    -0.372 C  
HETATM   20  C   UNL     1     -12.029  14.068  68.934  1.00  0.00    -0.352 C  
HETATM   21  H   UNL     1     -10.506  14.115  65.158  1.00  0.00     0.000 HD 
HETATM   22  O   UNL     1     -10.393  14.942  65.611  1.00  0.00    -0.302 OA 
HETATM   23  C   UNL     1     -11.861  14.142  67.412  1.00  0.00    -0.413 C  
HETATM   24  O   UNL     1     -11.068  13.116  69.415  1.00  0.00    -0.411 OA 
HETATM   25  H   UNL     1     -11.925  12.885  65.905  1.00  0.00     0.000 HD 
HETATM   26  O   UNL     1     -12.029  12.839  66.848  1.00  0.00    -0.398 OA 
HETATM   27  H   UNL     1     -11.198  12.245  69.057  1.00  0.00     0.000 HD 
HETATM   28  C   UNL     1     -10.488  14.738  67.034  1.00  0.00    -0.270 C  
BRANCH  19  29
HETATM   29  C   UNL     1     -11.980  15.518  71.034  1.00  0.00    -0.381 C  
HETATM   30  O   UNL     1     -12.520  14.277  71.488  1.00  0.00    -0.334 OA 
HETATM   31  H   UNL     1     -12.620  14.304  72.432  1.00  0.00     0.000 HD 
ENDBRANCH  19  29
ENDBRANCH  16  17
ENDBRANCH  10  16
ENDBRANCH   3   4
TORSDOF 5
ENDMDL
MODEL       56
REMARK 921   NORMALIZED FREE ENERGY PREDICTED BY IDOCK:   -5.12 KCAL/MOL
REMARK 922        TOTAL FREE ENERGY PREDICTED BY IDOCK:   -8.19 KCAL/MOL
REMARK 923 INTER-LIGAND FREE ENERGY PREDICTED BY IDOCK:   -7.32 KCAL/MOL
REMARK 924 INTRA-LIGAND FREE ENERGY PREDICTED BY IDOCK:   -0.87 KCAL/MOL
REMARK 927      BINDING AFFINITY PREDICTED BY RF-SCORE:    0.00 PKD
ROOT
HETATM    1  O   UNL     1      -7.868  11.085  65.379  1.00  0.00    -0.359 OA 
HETATM    2  H   UNL     1      -7.401  10.368  65.793  1.00  0.00     0.000 HD 
HETATM    3  C   UNL     1      -9.201  11.142  65.884  1.00  0.00    -0.206 C  
ENDROOT
BRANCH   3   4
HETATM    4  C   UNL     1      -9.953  12.297  65.217  1.00  0.00    -0.230 C  
HETATM    5  O   UNL     1     -11.264  11.851  64.821  1.00  0.00    -0.308 OA 
HETATM    6  C   UNL     1     -12.119  12.996  64.867  1.00  0.00    -0.413 C  
HETATM    7  O   UNL     1     -13.446  12.546  65.168  1.00  0.00    -0.275 OA 
HETATM    8  H   UNL     1     -11.950  14.030  67.963  1.00  0.00     0.000 HD 
HETATM    9  C   UNL     1     -11.606  13.868  66.020  1.00  0.00    -0.349 C  
HETATM   10  C   UNL     1     -10.128  13.497  66.156  1.00  0.00    -0.304 C  
HETATM   11  O   UNL     1     -12.267  13.489  67.249  1.00  0.00    -0.351 OA 
HETATM   12  H   UNL     1     -14.014  13.307  65.199  1.00  0.00     0.000 HD 
BRANCH   6  13
HETATM   13  C   UNL     1     -12.118  13.692  63.498  1.00  0.00    -0.284 C  
HETATM   14  H   UNL     1     -12.539  15.487  62.837  1.00  0.00     0.000 HD 
HETATM   15  O   UNL     1     -12.539  15.057  63.684  1.00  0.00    -0.680 OA 
ENDBRANCH   6  13
BRANCH  10  16
HETATM   16  O   UNL     1      -9.292  14.603  65.784  1.00  0.00    -0.215 OA 
BRANCH  16  17
HETATM   17  C   UNL     1      -9.473  15.755  66.622  1.00  0.00    -0.257 C  
HETATM   18  O   UNL     1      -9.814  16.897  65.829  1.00  0.00    -0.514 OA 
HETATM   19  C   UNL     1     -10.057  18.068  66.629  1.00  0.00    -0.372 C  
HETATM   20  C   UNL     1      -8.789  18.461  67.400  1.00  0.00    -0.257 C  
HETATM   21  H   UNL     1      -7.190  15.011  68.858  1.00  0.00     0.000 HD 
HETATM   22  O   UNL     1      -7.970  14.864  68.336  1.00  0.00    -0.123 OA 
HETATM   23  C   UNL     1      -8.388  17.285  68.299  1.00  0.00    -0.242 C  
HETATM   24  O   UNL     1      -7.672  18.730  66.540  1.00  0.00    -0.237 OA 
HETATM   25  H   UNL     1      -6.945  16.886  69.569  1.00  0.00     0.000 HD 
HETATM   26  O   UNL     1      -7.193  17.615  69.013  1.00  0.00    -0.256 OA 
HETATM   27  H   UNL     1      -6.887  18.973  67.016  1.00  0.00     0.000 HD 
HETATM   28  C   UNL     1      -8.202  15.994  67.472  1.00  0.00    -0.152 C  
BRANCH  19  29
HETATM   29  C   UNL     1     -10.557  19.183  65.707  1.00  0.00    -0.341 C  
HETATM   30  O   UNL     1      -9.967  20.423  66.100  1.00  0.00    -0.593 OA 
HETATM   31  H   UNL     1     -10.277  21.114  65.528  1.00  0.00     0.000 HD 
ENDBRANCH  19  29
ENDBRANCH  16  17
ENDBRANCH  10  16
ENDBRANCH   3   4
TORSDOF 5
ENDMDL
MODEL       57
REMARK 921   NORMALIZED FREE ENERGY PREDICTED BY IDOCK:   -5.06 KCAL/MOL
REMARK 922        TOTAL FREE ENERGY PREDICTED BY IDOCK:   -8.12 KCAL/MOL
REMARK 923 INTER-LIGAND FREE ENERGY PREDICTED BY IDOCK:   -6.67 KCAL/MOL
REMARK 924 INTRA-LIGAND FREE ENERGY PREDICTED BY IDOCK:   -1.45 KCAL/MOL
REMARK 927      BINDING AFFINITY PREDICTED BY RF-SCORE:    0.00 PKD
ROOT
HETATM    1  O   UNL     1     -10.000  13.580  64.140  1.00  0.00    -0.766 OA 
HETATM    2  H   UNL     1     -10.290  13.484  63.240  1.00  0.00     0.000 HD 
HETATM    3  C   UNL     1     -11.006  14.249  64.899  1.00  0.00    -0.404 C  
ENDROOT
BRANCH   3   4
HETATM    4  C   UNL     1     -10.539  14.403  66.348  1.00  0.00    -0.297 C  
HETATM    5  O   UNL     1     -11.574  15.039  67.121  1.00  0.00    -0.342 OA 
HETATM    6  C   UNL     1     -11.437  14.562  68.462  1.00  0.00    -0.301 C  
HETATM    7  O   UNL     1     -12.735  14.572  69.071  1.00  0.00    -0.501 OA 
HETATM    8  H   UNL     1     -11.762  11.318  68.224  1.00  0.00     0.000 HD 
HETATM    9  C   UNL     1     -10.940  13.114  68.354  1.00  0.00    -0.262 C  
HETATM   10  C   UNL     1     -10.223  13.054  67.005  1.00  0.00    -0.245 C  
HETATM   11  O   UNL     1     -12.070  12.215  68.290  1.00  0.00    -0.407 OA 
HETATM   12  H   UNL     1     -12.644  14.255  69.962  1.00  0.00     0.000 HD 
BRANCH   6  13
HETATM   13  C   UNL     1     -10.502  15.496  69.245  1.00  0.00    -0.245 C  
HETATM   14  H   UNL     1     -10.667  16.644  70.823  1.00  0.00     0.000 HD 
HETATM   15  O   UNL     1     -11.245  16.066  70.339  1.00  0.00    -0.342 OA 
ENDBRANCH   6  13
BRANCH  10  16
HETATM   16  O   UNL     1      -8.812  12.858  67.189  1.00  0.00    -0.196 OA 
BRANCH  16  17
HETATM   17  C   UNL     1      -8.348  11.592  66.695  1.00  0.00    -0.154 C  
HETATM   18  O   UNL     1      -8.938  11.311  65.421  1.00  0.00    -0.181 OA 
HETATM   19  C   UNL     1      -8.463  10.074  64.858  1.00  0.00    -0.166 C  
HETATM   20  C   UNL     1      -8.846   8.895  65.762  1.00  0.00    -0.186 C  
HETATM   21  H   UNL     1      -8.115  10.070  69.592  1.00  0.00     0.000 HD 
HETATM   22  O   UNL     1      -7.934  10.752  68.956  1.00  0.00    -0.126 OA 
HETATM   23  C   UNL     1      -8.214   9.120  67.141  1.00  0.00    -0.113 C  
HETATM   24  O   UNL     1     -10.262   8.781  65.964  1.00  0.00    -0.412 OA 
HETATM   25  H   UNL     1      -8.184   8.185  68.868  1.00  0.00     0.000 HD 
HETATM   26  O   UNL     1      -8.575   8.045  68.013  1.00  0.00    -0.128 OA 
HETATM   27  H   UNL     1     -10.500   8.051  66.524  1.00  0.00     0.000 HD 
HETATM   28  C   UNL     1      -8.643  10.481  67.731  1.00  0.00    -0.118 C  
BRANCH  19  29
HETATM   29  C   UNL     1      -9.032   9.944  63.443  1.00  0.00    -0.256 C  
HETATM   30  O   UNL     1     -10.299  10.600  63.380  1.00  0.00    -0.518 OA 
HETATM   31  H   UNL     1     -10.652  10.519  62.502  1.00  0.00     0.000 HD 
ENDBRANCH  19  29
ENDBRANCH  16  17
ENDBRANCH  10  16
ENDBRANCH   3   4
TORSDOF 5
ENDMDL
MODEL       58
REMARK 921   NORMALIZED FREE ENERGY PREDICTED BY IDOCK:   -5.03 KCAL/MOL
REMARK 922        TOTAL FREE ENERGY PREDICTED BY IDOCK:   -8.09 KCAL/MOL
REMARK 923 INTER-LIGAND FREE ENERGY PREDICTED BY IDOCK:   -7.56 KCAL/MOL
REMARK 924 INTRA-LIGAND FREE ENERGY PREDICTED BY IDOCK:   -0.53 KCAL/MOL
REMARK 927      BINDING AFFINITY PREDICTED BY RF-SCORE:    0.00 PKD
ROOT
HETATM    1  O   UNL     1     -11.226  16.770  64.257  1.00  0.00    -1.334 OA 
HETATM    2  H   UNL     1     -11.897  16.245  63.837  1.00  0.00     0.000 HD 
HETATM    3  C   UNL     1     -10.818  16.143  65.473  1.00  0.00    -0.270 C  
ENDROOT
BRANCH   3   4
HETATM    4  C   UNL     1      -9.737  16.989  66.149  1.00  0.00    -0.261 C  
HETATM    5  O   UNL     1      -9.622  18.254  65.470  1.00  0.00    -0.189 OA 
HETATM    6  C   UNL     1      -9.187  19.206  66.444  1.00  0.00    -0.343 C  
HETATM    7  O   UNL     1      -9.700  20.490  66.068  1.00  0.00    -0.651 OA 
HETATM    8  H   UNL     1     -11.505  19.145  68.749  1.00  0.00     0.000 HD 
HETATM    9  C   UNL     1      -9.821  18.778  67.774  1.00  0.00    -0.333 C  
HETATM   10  C   UNL     1     -10.057  17.274  67.622  1.00  0.00    -0.313 C  
HETATM   11  O   UNL     1     -11.113  19.411  67.925  1.00  0.00    -0.234 OA 
HETATM   12  H   UNL     1      -9.412  21.123  66.716  1.00  0.00     0.000 HD 
BRANCH   6  13
HETATM   13  C   UNL     1      -7.652  19.258  66.462  1.00  0.00    -0.252 C  
HETATM   14  H   UNL     1      -6.242  19.500  65.125  1.00  0.00     0.000 HD 
HETATM   15  O   UNL     1      -7.191  19.468  65.114  1.00  0.00    -0.394 OA 
ENDBRANCH   6  13
BRANCH  10  16
HETATM   16  O   UNL     1      -9.208  16.536  68.513  1.00  0.00    -0.214 OA 
BRANCH  16  17
HETATM   17  C   UNL     1      -9.816  15.330  69.003  1.00  0.00    -0.230 C  
HETATM   18  O   UNL     1      -9.806  14.322  67.986  1.00  0.00    -0.213 OA 
HETATM   19  C   UNL     1     -10.358  13.074  68.445  1.00  0.00    -0.252 C  
HETATM   20  C   UNL     1     -11.831  13.255  68.835  1.00  0.00    -0.327 C  
HETATM   21  H   UNL     1     -12.070  16.744  70.921  1.00  0.00     0.000 HD 
HETATM   22  O   UNL     1     -11.192  16.561  70.609  1.00  0.00    -0.320 OA 
HETATM   23  C   UNL     1     -11.909  14.305  69.950  1.00  0.00    -0.322 C  
HETATM   24  O   UNL     1     -12.643  13.733  67.752  1.00  0.00    -0.297 OA 
HETATM   25  H   UNL     1     -13.324  15.162  71.008  1.00  0.00     0.000 HD 
HETATM   26  O   UNL     1     -13.276  14.511  70.318  1.00  0.00    -0.134 OA 
HETATM   27  H   UNL     1     -13.555  13.845  67.993  1.00  0.00     0.000 HD 
HETATM   28  C   UNL     1     -11.247  15.629  69.511  1.00  0.00    -0.313 C  
BRANCH  19  29
HETATM   29  C   UNL     1     -10.162  12.030  67.343  1.00  0.00    -0.200 C  
HETATM   30  O   UNL     1      -9.853  10.768  67.937  1.00  0.00    -0.163 OA 
HETATM   31  H   UNL     1      -9.731  10.120  67.254  1.00  0.00     0.000 HD 
ENDBRANCH  19  29
ENDBRANCH  16  17
ENDBRANCH  10  16
ENDBRANCH   3   4
TORSDOF 5
ENDMDL
MODEL       59
REMARK 921   NORMALIZED FREE ENERGY PREDICTED BY IDOCK:   -5.02 KCAL/MOL
REMARK 922        TOTAL FREE ENERGY PREDICTED BY IDOCK:   -8.06 KCAL/MOL
REMARK 923 INTER-LIGAND FREE ENERGY PREDICTED BY IDOCK:   -7.00 KCAL/MOL
REMARK 924 INTRA-LIGAND FREE ENERGY PREDICTED BY IDOCK:   -1.07 KCAL/MOL
REMARK 927      BINDING AFFINITY PREDICTED BY RF-SCORE:    0.00 PKD
ROOT
HETATM    1  O   UNL     1     -10.687  13.504  63.958  1.00  0.00    -0.555 OA 
HETATM    2  H   UNL     1     -10.850  12.885  63.255  1.00  0.00     0.000 HD 
HETATM    3  C   UNL     1     -11.583  13.248  65.039  1.00  0.00    -0.316 C  
ENDROOT
BRANCH   3   4
HETATM    4  C   UNL     1     -11.321  14.244  66.171  1.00  0.00    -0.342 C  
HETATM    5  O   UNL     1     -11.947  13.773  67.380  1.00  0.00    -0.379 OA 
HETATM    6  C   UNL     1     -11.166  14.272  68.468  1.00  0.00    -0.266 C  
HETATM    7  O   UNL     1     -11.278  13.345  69.555  1.00  0.00    -0.407 OA 
HETATM    8  H   UNL     1      -8.174  13.056  67.963  1.00  0.00     0.000 HD 
HETATM    9  C   UNL     1      -9.713  14.302  67.975  1.00  0.00    -0.223 C  
HETATM   10  C   UNL     1      -9.824  14.422  66.455  1.00  0.00    -0.295 C  
HETATM   11  O   UNL     1      -9.073  13.038  68.268  1.00  0.00    -0.197 OA 
HETATM   12  H   UNL     1     -10.758  13.676  70.279  1.00  0.00     0.000 HD 
BRANCH   6  13
HETATM   13  C   UNL     1     -11.713  15.638  68.908  1.00  0.00    -0.384 C  
HETATM   14  H   UNL     1     -11.346  16.891  70.368  1.00  0.00     0.000 HD 
HETATM   15  O   UNL     1     -11.008  16.047  70.095  1.00  0.00    -0.322 OA 
ENDBRANCH   6  13
BRANCH  10  16
HETATM   16  O   UNL     1      -9.337  15.698  66.011  1.00  0.00    -0.318 OA 
BRANCH  16  17
HETATM   17  C   UNL     1      -8.849  16.520  67.083  1.00  0.00    -0.195 C  
HETATM   18  O   UNL     1      -9.595  17.740  67.151  1.00  0.00    -0.263 OA 
HETATM   19  C   UNL     1      -9.178  18.578  68.244  1.00  0.00    -0.321 C  
HETATM   20  C   UNL     1      -7.712  18.996  68.067  1.00  0.00    -0.273 C  
HETATM   21  H   UNL     1      -5.687  15.678  66.853  1.00  0.00     0.000 HD 
HETATM   22  O   UNL     1      -6.618  15.523  66.961  1.00  0.00    -0.279 OA 
HETATM   23  C   UNL     1      -6.851  17.728  68.020  1.00  0.00    -0.191 C  
HETATM   24  O   UNL     1      -7.476  19.707  66.843  1.00  0.00    -0.225 OA 
HETATM   25  H   UNL     1      -4.947  17.301  67.801  1.00  0.00     0.000 HD 
HETATM   26  O   UNL     1      -5.480  18.087  67.831  1.00  0.00    -0.148 OA 
HETATM   27  H   UNL     1      -6.569  19.966  66.732  1.00  0.00     0.000 HD 
HETATM   28  C   UNL     1      -7.333  16.773  66.906  1.00  0.00    -0.222 C  
BRANCH  19  29
HETATM   29  C   UNL     1     -10.129  19.775  68.320  1.00  0.00    -0.458 C  
HETATM   30  O   UNL     1     -10.444  20.213  66.997  1.00  0.00    -0.418 OA 
HETATM   31  H   UNL     1     -11.034  20.956  67.044  1.00  0.00     0.000 HD 
ENDBRANCH  19  29
ENDBRANCH  16  17
ENDBRANCH  10  16
ENDBRANCH   3   4
TORSDOF 5
ENDMDL
MODEL       60
REMARK 921   NORMALIZED FREE ENERGY PREDICTED BY IDOCK:   -5.00 KCAL/MOL
REMARK 922        TOTAL FREE ENERGY PREDICTED BY IDOCK:   -8.04 KCAL/MOL
REMARK 923 INTER-LIGAND FREE ENERGY PREDICTED BY IDOCK:   -7.10 KCAL/MOL
REMARK 924 INTRA-LIGAND FREE ENERGY PREDICTED BY IDOCK:   -0.94 KCAL/MOL
REMARK 927      BINDING AFFINITY PREDICTED BY RF-SCORE:    0.00 PKD
ROOT
HETATM    1  O   UNL     1     -12.430  10.907  68.773  1.00  0.00    -0.767 OA 
HETATM    2  H   UNL     1     -12.823  11.772  68.748  1.00  0.00     0.000 HD 
HETATM    3  C   UNL     1     -11.252  10.892  67.968  1.00  0.00    -0.314 C  
ENDROOT
BRANCH   3   4
HETATM    4  C   UNL     1     -10.619   9.499  68.008  1.00  0.00    -0.230 C  
HETATM    5  O   UNL     1     -10.557   8.961  66.673  1.00  0.00    -0.216 OA 
HETATM    6  C   UNL     1      -9.428   8.084  66.636  1.00  0.00    -0.212 C  
HETATM    7  O   UNL     1      -8.914   8.079  65.299  1.00  0.00    -0.383 OA 
HETATM    8  H   UNL     1      -6.883   9.979  67.425  1.00  0.00     0.000 HD 
HETATM    9  C   UNL     1      -8.381   8.693  67.579  1.00  0.00    -0.120 C  
HETATM   10  C   UNL     1      -9.194   9.523  68.573  1.00  0.00    -0.131 C  
HETATM   11  O   UNL     1      -7.532   9.602  66.841  1.00  0.00    -0.091 OA 
HETATM   12  H   UNL     1      -8.164   7.497  65.274  1.00  0.00     0.000 HD 
BRANCH   6  13
HETATM   13  C   UNL     1      -9.871   6.663  67.016  1.00  0.00    -0.160 C  
HETATM   14  H   UNL     1     -11.571   5.693  67.076  1.00  0.00     0.000 HD 
HETATM   15  O   UNL     1     -11.297   6.572  66.841  1.00  0.00    -0.330 OA 
ENDBRANCH   6  13
BRANCH  10  16
HETATM   16  O   UNL     1      -9.123   8.950  69.888  1.00  0.00    -0.149 OA 
BRANCH  16  17
HETATM   17  C   UNL     1     -10.313   8.238  70.259  1.00  0.00    -0.209 C  
HETATM   18  O   UNL     1     -11.171   9.078  71.038  1.00  0.00    -0.257 OA 
HETATM   19  C   UNL     1     -12.405   8.426  71.392  1.00  0.00    -0.299 C  
HETATM   20  C   UNL     1     -12.126   7.195  72.264  1.00  0.00    -0.181 C  
HETATM   21  H   UNL     1      -8.943   5.277  70.597  1.00  0.00     0.000 HD 
HETATM   22  O   UNL     1      -9.174   6.076  70.139  1.00  0.00    -0.151 OA 
HETATM   23  C   UNL     1     -11.233   6.234  71.469  1.00  0.00    -0.290 C  
HETATM   24  O   UNL     1     -11.424   7.513  73.475  1.00  0.00    -0.608 OA 
HETATM   25  H   UNL     1     -10.384   4.490  71.776  1.00  0.00     0.000 HD 
HETATM   26  O   UNL     1     -10.937   5.085  72.268  1.00  0.00    -0.183 OA 
HETATM   27  H   UNL     1     -11.251   6.751  74.015  1.00  0.00     0.000 HD 
HETATM   28  C   UNL     1      -9.938   6.936  71.006  1.00  0.00    -0.188 C  
BRANCH  19  29
HETATM   29  C   UNL     1     -13.306   9.451  72.086  1.00  0.00    -0.468 C  
HETATM   30  O   UNL     1     -13.899   8.853  73.240  1.00  0.00    -1.163 OA 
HETATM   31  H   UNL     1     -14.458   9.488  73.671  1.00  0.00     0.000 HD 
ENDBRANCH  19  29
ENDBRANCH  16  17
ENDBRANCH  10  16
ENDBRANCH   3   4
TORSDOF 5
ENDMDL
MODEL       61
REMARK 921   NORMALIZED FREE ENERGY PREDICTED BY IDOCK:   -4.98 KCAL/MOL
REMARK 922        TOTAL FREE ENERGY PREDICTED BY IDOCK:   -8.02 KCAL/MOL
REMARK 923 INTER-LIGAND FREE ENERGY PREDICTED BY IDOCK:   -6.28 KCAL/MOL
REMARK 924 INTRA-LIGAND FREE ENERGY PREDICTED BY IDOCK:   -1.74 KCAL/MOL
REMARK 927      BINDING AFFINITY PREDICTED BY RF-SCORE:    0.00 PKD
ROOT
HETATM    1  O   UNL     1      -8.481  12.595  68.984  1.00  0.00    -0.331 OA 
HETATM    2  H   UNL     1      -8.017  12.744  69.799  1.00  0.00     0.000 HD 
HETATM    3  C   UNL     1      -7.613  11.959  68.047  1.00  0.00    -0.122 C  
ENDROOT
BRANCH   3   4
HETATM    4  C   UNL     1      -8.361  11.720  66.733  1.00  0.00    -0.165 C  
HETATM    5  O   UNL     1      -8.483  10.303  66.502  1.00  0.00    -0.123 OA 
HETATM    6  C   UNL     1      -9.682  10.112  65.747  1.00  0.00    -0.245 C  
HETATM    7  O   UNL     1     -10.209   8.820  66.071  1.00  0.00    -0.412 OA 
HETATM    8  H   UNL     1     -12.049  11.359  67.627  1.00  0.00     0.000 HD 
HETATM    9  C   UNL     1     -10.664  11.192  66.221  1.00  0.00    -0.240 C  
HETATM   10  C   UNL     1      -9.773  12.318  66.750  1.00  0.00    -0.213 C  
HETATM   11  O   UNL     1     -11.441  10.690  67.333  1.00  0.00    -0.436 OA 
HETATM   12  H   UNL     1     -11.006   8.693  65.570  1.00  0.00     0.000 HD 
BRANCH   6  13
HETATM   13  C   UNL     1      -9.358  10.167  64.247  1.00  0.00    -0.295 C  
HETATM   14  H   UNL     1     -10.168  10.991  62.666  1.00  0.00     0.000 HD 
HETATM   15  O   UNL     1     -10.369  10.958  63.594  1.00  0.00    -0.355 OA 
ENDBRANCH   6  13
BRANCH  10  16
HETATM   16  O   UNL     1      -9.879  13.481  65.916  1.00  0.00    -0.286 OA 
BRANCH  16  17
HETATM   17  C   UNL     1     -10.054  14.696  66.661  1.00  0.00    -0.273 C  
HETATM   18  O   UNL     1      -8.845  15.034  67.349  1.00  0.00    -0.173 OA 
HETATM   19  C   UNL     1      -8.953  16.275  68.071  1.00  0.00    -0.187 C  
HETATM   20  C   UNL     1     -10.033  16.169  69.156  1.00  0.00    -0.251 C  
HETATM   21  H   UNL     1     -13.201  14.243  67.470  1.00  0.00     0.000 HD 
HETATM   22  O   UNL     1     -12.464  14.330  66.877  1.00  0.00    -0.338 OA 
HETATM   23  C   UNL     1     -11.368  15.839  68.477  1.00  0.00    -0.374 C  
HETATM   24  O   UNL     1      -9.775  15.121  70.102  1.00  0.00    -0.476 OA 
HETATM   25  H   UNL     1     -13.217  15.505  69.048  1.00  0.00     0.000 HD 
HETATM   26  O   UNL     1     -12.390  15.710  69.469  1.00  0.00    -0.294 OA 
HETATM   27  H   UNL     1     -10.443  15.055  70.774  1.00  0.00     0.000 HD 
HETATM   28  C   UNL     1     -11.254  14.554  67.627  1.00  0.00    -0.322 C  
BRANCH  19  29
HETATM   29  C   UNL     1      -7.574  16.619  68.640  1.00  0.00    -0.214 C  
HETATM   30  O   UNL     1      -7.049  15.482  69.326  1.00  0.00    -0.156 OA 
HETATM   31  H   UNL     1      -6.194  15.695  69.680  1.00  0.00     0.000 HD 
ENDBRANCH  19  29
ENDBRANCH  16  17
ENDBRANCH  10  16
ENDBRANCH   3   4
TORSDOF 5
ENDMDL
MODEL       62
REMARK 921   NORMALIZED FREE ENERGY PREDICTED BY IDOCK:   -4.95 KCAL/MOL
REMARK 922        TOTAL FREE ENERGY PREDICTED BY IDOCK:   -7.98 KCAL/MOL
REMARK 923 INTER-LIGAND FREE ENERGY PREDICTED BY IDOCK:   -7.31 KCAL/MOL
REMARK 924 INTRA-LIGAND FREE ENERGY PREDICTED BY IDOCK:   -0.67 KCAL/MOL
REMARK 927      BINDING AFFINITY PREDICTED BY RF-SCORE:    0.00 PKD
ROOT
HETATM    1  O   UNL     1     -13.010  15.095  70.257  1.00  0.00    -0.610 OA 
HETATM    2  H   UNL     1     -12.919  15.409  71.150  1.00  0.00     0.000 HD 
HETATM    3  C   UNL     1     -12.013  14.110  69.991  1.00  0.00    -0.340 C  
ENDROOT
BRANCH   3   4
HETATM    4  C   UNL     1     -12.160  13.606  68.554  1.00  0.00    -0.286 C  
HETATM    5  O   UNL     1     -11.984  14.704  67.639  1.00  0.00    -0.362 OA 
HETATM    6  C   UNL     1     -11.451  14.153  66.432  1.00  0.00    -0.354 C  
HETATM    7  O   UNL     1     -10.645  15.158  65.804  1.00  0.00    -0.312 OA 
HETATM    8  H   UNL     1      -8.655  12.724  67.342  1.00  0.00     0.000 HD 
HETATM    9  C   UNL     1     -10.557  12.980  66.855  1.00  0.00    -0.254 C  
HETATM   10  C   UNL     1     -11.122  12.532  68.204  1.00  0.00    -0.243 C  
HETATM   11  O   UNL     1      -9.208  13.451  67.080  1.00  0.00    -0.221 OA 
HETATM   12  H   UNL     1     -10.290  14.792  65.002  1.00  0.00     0.000 HD 
BRANCH   6  13
HETATM   13  C   UNL     1     -12.602  13.765  65.493  1.00  0.00    -0.512 C  
HETATM   14  H   UNL     1     -13.009  12.244  64.328  1.00  0.00     0.000 HD 
HETATM   15  O   UNL     1     -12.298  12.484  64.910  1.00  0.00    -0.466 OA 
ENDBRANCH   6  13
BRANCH  10  16
HETATM   16  O   UNL     1     -11.708  11.226  68.099  1.00  0.00    -0.465 OA 
BRANCH  16  17
HETATM   17  C   UNL     1     -10.828  10.176  68.531  1.00  0.00    -0.237 C  
HETATM   18  O   UNL     1     -10.699   9.184  67.506  1.00  0.00    -0.273 OA 
HETATM   19  C   UNL     1      -9.785   8.135  67.871  1.00  0.00    -0.161 C  
HETATM   20  C   UNL     1     -10.297   7.387  69.109  1.00  0.00    -0.208 C  
HETATM   21  H   UNL     1     -11.653  10.216  71.706  1.00  0.00     0.000 HD 
HETATM   22  O   UNL     1     -11.340  10.585  70.889  1.00  0.00    -0.306 OA 
HETATM   23  C   UNL     1     -10.427   8.392  70.260  1.00  0.00    -0.218 C  
HETATM   24  O   UNL     1     -11.594   6.804  68.914  1.00  0.00    -0.574 OA 
HETATM   25  H   UNL     1     -11.008   8.350  72.135  1.00  0.00     0.000 HD 
HETATM   26  O   UNL     1     -10.927   7.727  71.423  1.00  0.00    -0.232 OA 
HETATM   27  H   UNL     1     -11.912   6.341  69.681  1.00  0.00     0.000 HD 
HETATM   28  C   UNL     1     -11.339   9.574  69.862  1.00  0.00    -0.126 C  
BRANCH  19  29
HETATM   29  C   UNL     1      -9.602   7.216  66.659  1.00  0.00    -0.170 C  
HETATM   30  O   UNL     1      -9.607   8.002  65.466  1.00  0.00    -0.378 OA 
HETATM   31  H   UNL     1      -9.495   7.432  64.714  1.00  0.00     0.000 HD 
ENDBRANCH  19  29
ENDBRANCH  16  17
ENDBRANCH  10  16
ENDBRANCH   3   4
TORSDOF 5
ENDMDL
MODEL       63
REMARK 921   NORMALIZED FREE ENERGY PREDICTED BY IDOCK:   -4.94 KCAL/MOL
REMARK 922        TOTAL FREE ENERGY PREDICTED BY IDOCK:   -7.97 KCAL/MOL
REMARK 923 INTER-LIGAND FREE ENERGY PREDICTED BY IDOCK:   -7.08 KCAL/MOL
REMARK 924 INTRA-LIGAND FREE ENERGY PREDICTED BY IDOCK:   -0.89 KCAL/MOL
REMARK 927      BINDING AFFINITY PREDICTED BY RF-SCORE:    0.00 PKD
ROOT
HETATM    1  O   UNL     1     -12.234  14.344  68.129  1.00  0.00    -0.563 OA 
HETATM    2  H   UNL     1     -12.607  14.547  68.979  1.00  0.00     0.000 HD 
HETATM    3  C   UNL     1     -11.749  13.002  68.126  1.00  0.00    -0.351 C  
ENDROOT
BRANCH   3   4
HETATM    4  C   UNL     1     -11.147  12.676  66.757  1.00  0.00    -0.277 C  
HETATM    5  O   UNL     1     -12.149  12.057  65.927  1.00  0.00    -0.546 OA 
HETATM    6  C   UNL     1     -11.828  12.394  64.575  1.00  0.00    -0.384 C  
HETATM    7  O   UNL     1     -13.049  12.434  63.827  1.00  0.00    -0.756 OA 
HETATM    8  H   UNL     1     -11.879  15.662  64.504  1.00  0.00     0.000 HD 
HETATM    9  C   UNL     1     -11.215  13.800  64.618  1.00  0.00    -0.378 C  
HETATM   10  C   UNL     1     -10.642  13.928  66.030  1.00  0.00    -0.293 C  
HETATM   11  O   UNL     1     -12.258  14.791  64.478  1.00  0.00    -0.473 OA 
HETATM   12  H   UNL     1     -12.836  12.658  62.928  1.00  0.00     0.000 HD 
BRANCH   6  13
HETATM   13  C   UNL     1     -10.904  11.318  63.984  1.00  0.00    -0.344 C  
HETATM   14  H   UNL     1      -9.230  11.312  62.970  1.00  0.00     0.000 HD 
HETATM   15  O   UNL     1      -9.800  11.977  63.336  1.00  0.00    -0.390 OA 
ENDBRANCH   6  13
BRANCH  10  16
HETATM   16  O   UNL     1      -9.208  13.990  65.991  1.00  0.00    -0.116 OA 
BRANCH  16  17
HETATM   17  C   UNL     1      -8.644  14.717  67.094  1.00  0.00    -0.223 C  
HETATM   18  O   UNL     1      -8.188  16.002  66.659  1.00  0.00    -0.239 OA 
HETATM   19  C   UNL     1      -7.660  16.792  67.741  1.00  0.00    -0.167 C  
HETATM   20  C   UNL     1      -6.434  16.103  68.355  1.00  0.00    -0.119 C  
HETATM   21  H   UNL     1      -7.351  12.148  68.672  1.00  0.00     0.000 HD 
HETATM   22  O   UNL     1      -8.045  12.656  68.271  1.00  0.00    -0.152 OA 
HETATM   23  C   UNL     1      -6.865  14.725  68.873  1.00  0.00    -0.105 C  
HETATM   24  O   UNL     1      -5.381  15.883  67.406  1.00  0.00    -0.265 OA 
HETATM   25  H   UNL     1      -6.001  13.196  69.751  1.00  0.00     0.000 HD 
HETATM   26  O   UNL     1      -5.734  14.050  69.431  1.00  0.00    -0.083 OA 
HETATM   27  H   UNL     1      -4.622  15.456  67.785  1.00  0.00     0.000 HD 
HETATM   28  C   UNL     1      -7.512  13.889  67.748  1.00  0.00    -0.167 C  
BRANCH  19  29
HETATM   29  C   UNL     1      -7.345  18.190  67.203  1.00  0.00    -0.200 C  
HETATM   30  O   UNL     1      -7.396  18.171  65.776  1.00  0.00    -0.484 OA 
HETATM   31  H   UNL     1      -7.200  19.038  65.442  1.00  0.00     0.000 HD 
ENDBRANCH  19  29
ENDBRANCH  16  17
ENDBRANCH  10  16
ENDBRANCH   3   4
TORSDOF 5
ENDMDL
MODEL       64
REMARK 921   NORMALIZED FREE ENERGY PREDICTED BY IDOCK:   -4.92 KCAL/MOL
REMARK 922        TOTAL FREE ENERGY PREDICTED BY IDOCK:   -7.94 KCAL/MOL
REMARK 923 INTER-LIGAND FREE ENERGY PREDICTED BY IDOCK:   -7.01 KCAL/MOL
REMARK 924 INTRA-LIGAND FREE ENERGY PREDICTED BY IDOCK:   -0.93 KCAL/MOL
REMARK 927      BINDING AFFINITY PREDICTED BY RF-SCORE:    0.00 PKD
ROOT
HETATM    1  O   UNL     1     -13.448  15.758  70.396  1.00  0.00    -0.755 OA 
HETATM    2  H   UNL     1     -13.768  15.850  71.286  1.00  0.00     0.000 HD 
HETATM    3  C   UNL     1     -12.361  14.833  70.371  1.00  0.00    -0.344 C  
ENDROOT
BRANCH   3   4
HETATM    4  C   UNL     1     -11.845  14.686  68.937  1.00  0.00    -0.309 C  
HETATM    5  O   UNL     1     -11.521  15.985  68.407  1.00  0.00    -0.369 OA 
HETATM    6  C   UNL     1     -10.473  15.791  67.455  1.00  0.00    -0.297 C  
HETATM    7  O   UNL     1      -9.675  16.981  67.426  1.00  0.00    -0.244 OA 
HETATM    8  H   UNL     1      -8.050  14.414  69.164  1.00  0.00     0.000 HD 
HETATM    9  C   UNL     1      -9.624  14.626  67.983  1.00  0.00    -0.212 C  
HETATM   10  C   UNL     1     -10.583  13.818  68.859  1.00  0.00    -0.205 C  
HETATM   11  O   UNL     1      -8.575  15.136  68.837  1.00  0.00    -0.176 OA 
HETATM   12  H   UNL     1      -8.978  16.852  66.793  1.00  0.00     0.000 HD 
BRANCH   6  13
HETATM   13  C   UNL     1     -11.080  15.553  66.064  1.00  0.00    -0.185 C  
HETATM   14  H   UNL     1     -10.722  16.195  64.249  1.00  0.00     0.000 HD 
HETATM   15  O   UNL     1     -10.346  16.342  65.109  1.00  0.00    -0.610 OA 
ENDBRANCH   6  13
BRANCH  10  16
HETATM   16  O   UNL     1     -10.844  12.534  68.272  1.00  0.00    -0.216 OA 
BRANCH  16  17
HETATM   17  C   UNL     1     -10.013  12.253  67.135  1.00  0.00    -0.205 C  
HETATM   18  O   UNL     1     -10.820  12.024  65.975  1.00  0.00    -0.268 OA 
HETATM   19  C   UNL     1     -10.030  11.789  64.795  1.00  0.00    -0.243 C  
HETATM   20  C   UNL     1      -9.179  10.523  64.966  1.00  0.00    -0.206 C  
HETATM   21  H   UNL     1      -7.642  10.646  68.735  1.00  0.00     0.000 HD 
HETATM   22  O   UNL     1      -8.213  11.382  68.545  1.00  0.00    -0.143 OA 
HETATM   23  C   UNL     1      -8.263  10.719  66.180  1.00  0.00    -0.163 C  
HETATM   24  O   UNL     1      -9.965   9.350  65.219  1.00  0.00    -0.434 OA 
HETATM   25  H   UNL     1      -6.906   9.664  67.130  1.00  0.00     0.000 HD 
HETATM   26  O   UNL     1      -7.473   9.543  66.377  1.00  0.00    -0.095 OA 
HETATM   27  H   UNL     1      -9.439   8.566  65.325  1.00  0.00     0.000 HD 
HETATM   28  C   UNL     1      -9.083  11.055  67.444  1.00  0.00    -0.141 C  
BRANCH  19  29
HETATM   29  C   UNL     1     -10.976  11.707  63.594  1.00  0.00    -0.431 C  
HETATM   30  O   UNL     1     -10.482  10.740  62.667  1.00  0.00    -0.760 OA 
HETATM   31  H   UNL     1     -11.068  10.689  61.922  1.00  0.00     0.000 HD 
ENDBRANCH  19  29
ENDBRANCH  16  17
ENDBRANCH  10  16
ENDBRANCH   3   4
TORSDOF 5
ENDMDL
MODEL       65
REMARK 921   NORMALIZED FREE ENERGY PREDICTED BY IDOCK:   -4.91 KCAL/MOL
REMARK 922        TOTAL FREE ENERGY PREDICTED BY IDOCK:   -7.93 KCAL/MOL
REMARK 923 INTER-LIGAND FREE ENERGY PREDICTED BY IDOCK:   -7.04 KCAL/MOL
REMARK 924 INTRA-LIGAND FREE ENERGY PREDICTED BY IDOCK:   -0.89 KCAL/MOL
REMARK 927      BINDING AFFINITY PREDICTED BY RF-SCORE:    0.00 PKD
ROOT
HETATM    1  O   UNL     1      -9.559   9.722  63.075  1.00  0.00    -0.535 OA 
HETATM    2  H   UNL     1      -9.274  10.142  62.271  1.00  0.00     0.000 HD 
HETATM    3  C   UNL     1      -9.933  10.715  64.028  1.00  0.00    -0.337 C  
ENDROOT
BRANCH   3   4
HETATM    4  C   UNL     1     -10.391  10.038  65.323  1.00  0.00     0.012 C  
HETATM    5  O   UNL     1      -9.555   8.896  65.588  1.00  0.00    -0.220 OA 
HETATM    6  C   UNL     1      -9.523   8.732  67.008  1.00  0.00    -0.169 C  
HETATM    7  O   UNL     1      -8.266   8.140  67.358  1.00  0.00    -0.119 OA 
HETATM    8  H   UNL     1      -8.316  11.551  68.140  1.00  0.00     0.000 HD 
HETATM    9  C   UNL     1      -9.602  10.143  67.605  1.00  0.00    -0.148 C  
HETATM   10  C   UNL     1     -10.305  10.977  66.533  1.00  0.00    -0.245 C  
HETATM   11  O   UNL     1      -8.268  10.677  67.770  1.00  0.00    -0.110 OA 
HETATM   12  H   UNL     1      -8.245   8.031  68.302  1.00  0.00     0.000 HD 
BRANCH   6  13
HETATM   13  C   UNL     1     -10.663   7.797  67.442  1.00  0.00    -0.230 C  
HETATM   14  H   UNL     1     -11.033   6.667  68.998  1.00  0.00     0.000 HD 
HETATM   15  O   UNL     1     -10.329   7.245  68.730  1.00  0.00    -0.191 OA 
ENDBRANCH   6  13
BRANCH  10  16
HETATM   16  O   UNL     1     -11.600  11.396  66.986  1.00  0.00    -0.510 OA 
BRANCH  16  17
HETATM   17  C   UNL     1     -11.778  12.821  66.949  1.00  0.00    -0.380 C  
HETATM   18  O   UNL     1     -11.774  13.286  65.595  1.00  0.00    -0.329 OA 
HETATM   19  C   UNL     1     -12.001  14.704  65.501  1.00  0.00    -0.256 C  
HETATM   20  C   UNL     1     -10.875  15.472  66.207  1.00  0.00    -0.283 C  
HETATM   21  H   UNL     1     -10.141  13.520  69.705  1.00  0.00     0.000 HD 
HETATM   22  O   UNL     1     -10.810  13.097  69.179  1.00  0.00    -0.200 OA 
HETATM   23  C   UNL     1     -10.847  15.042  67.679  1.00  0.00    -0.291 C  
HETATM   24  O   UNL     1      -9.578  15.190  65.664  1.00  0.00    -0.345 OA 
HETATM   25  H   UNL     1      -9.773  15.459  69.269  1.00  0.00     0.000 HD 
HETATM   26  O   UNL     1      -9.790  15.726  68.357  1.00  0.00    -0.203 OA 
HETATM   27  H   UNL     1      -8.880  15.665  66.100  1.00  0.00     0.000 HD 
HETATM   28  C   UNL     1     -10.688  13.511  67.805  1.00  0.00    -0.252 C  
BRANCH  19  29
HETATM   29  C   UNL     1     -12.129  15.071  64.020  1.00  0.00    -0.094 C  
HETATM   30  O   UNL     1     -11.659  16.406  63.822  1.00  0.00    -1.605 OA 
HETATM   31  H   UNL     1     -11.739  16.634  62.903  1.00  0.00     0.000 HD 
ENDBRANCH  19  29
ENDBRANCH  16  17
ENDBRANCH  10  16
ENDBRANCH   3   4
TORSDOF 5
ENDMDL
MODEL       66
REMARK 921   NORMALIZED FREE ENERGY PREDICTED BY IDOCK:   -4.91 KCAL/MOL
REMARK 922        TOTAL FREE ENERGY PREDICTED BY IDOCK:   -7.92 KCAL/MOL
REMARK 923 INTER-LIGAND FREE ENERGY PREDICTED BY IDOCK:   -7.42 KCAL/MOL
REMARK 924 INTRA-LIGAND FREE ENERGY PREDICTED BY IDOCK:   -0.50 KCAL/MOL
REMARK 927      BINDING AFFINITY PREDICTED BY RF-SCORE:    0.00 PKD
ROOT
HETATM    1  O   UNL     1     -10.559  19.643  67.105  1.00  0.00    -0.458 OA 
HETATM    2  H   UNL     1     -10.980  20.439  66.802  1.00  0.00     0.000 HD 
HETATM    3  C   UNL     1     -10.459  18.713  66.027  1.00  0.00    -0.414 C  
ENDROOT
BRANCH   3   4
HETATM    4  C   UNL     1      -9.781  17.431  66.516  1.00  0.00    -0.293 C  
HETATM    5  O   UNL     1      -9.504  17.541  67.925  1.00  0.00    -0.266 OA 
HETATM    6  C   UNL     1      -9.544  16.214  68.457  1.00  0.00    -0.215 C  
HETATM    7  O   UNL     1      -9.964  16.297  69.824  1.00  0.00    -0.195 OA 
HETATM    8  H   UNL     1     -12.555  15.141  67.775  1.00  0.00     0.000 HD 
HETATM    9  C   UNL     1     -10.606  15.459  67.646  1.00  0.00    -0.280 C  
HETATM   10  C   UNL     1     -10.659  16.191  66.304  1.00  0.00    -0.274 C  
HETATM   11  O   UNL     1     -11.898  15.608  68.277  1.00  0.00    -0.318 OA 
HETATM   12  H   UNL     1      -9.990  15.416  70.177  1.00  0.00     0.000 HD 
BRANCH   6  13
HETATM   13  C   UNL     1      -8.140  15.595  68.393  1.00  0.00    -0.137 C  
HETATM   14  H   UNL     1      -6.315  16.274  68.184  1.00  0.00     0.000 HD 
HETATM   15  O   UNL     1      -7.183  16.658  68.223  1.00  0.00    -0.159 OA 
ENDBRANCH   6  13
BRANCH  10  16
HETATM   16  O   UNL     1     -10.165  15.352  65.249  1.00  0.00    -0.360 OA 
BRANCH  16  17
HETATM   17  C   UNL     1     -10.672  14.009  65.312  1.00  0.00    -0.358 C  
HETATM   18  O   UNL     1      -9.598  13.068  65.206  1.00  0.00    -0.040 OA 
HETATM   19  C   UNL     1     -10.049  11.706  65.316  1.00  0.00    -0.264 C  
HETATM   20  C   UNL     1     -11.012  11.369  64.169  1.00  0.00    -0.341 C  
HETATM   21  H   UNL     1     -13.510  14.559  63.761  1.00  0.00     0.000 HD 
HETATM   22  O   UNL     1     -12.852  14.689  64.435  1.00  0.00    -0.578 OA 
HETATM   23  C   UNL     1     -12.208  12.326  64.246  1.00  0.00    -0.425 C  
HETATM   24  O   UNL     1     -10.421  11.542  62.872  1.00  0.00    -0.639 OA 
HETATM   25  H   UNL     1     -13.852  12.643  63.221  1.00  0.00     0.000 HD 
HETATM   26  O   UNL     1     -13.112  12.049  63.173  1.00  0.00    -0.624 OA 
HETATM   27  H   UNL     1     -11.016  11.334  62.162  1.00  0.00     0.000 HD 
HETATM   28  C   UNL     1     -11.742  13.798  64.214  1.00  0.00    -0.395 C  
BRANCH  19  29
HETATM   29  C   UNL     1      -8.819  10.795  65.342  1.00  0.00    -0.189 C  
HETATM   30  O   UNL     1      -7.909  11.258  66.341  1.00  0.00    -0.202 OA 
HETATM   31  H   UNL     1      -7.146  10.693  66.358  1.00  0.00     0.000 HD 
ENDBRANCH  19  29
ENDBRANCH  16  17
ENDBRANCH  10  16
ENDBRANCH   3   4
TORSDOF 5
ENDMDL
MODEL       67
REMARK 921   NORMALIZED FREE ENERGY PREDICTED BY IDOCK:   -4.90 KCAL/MOL
REMARK 922        TOTAL FREE ENERGY PREDICTED BY IDOCK:   -7.91 KCAL/MOL
REMARK 923 INTER-LIGAND FREE ENERGY PREDICTED BY IDOCK:   -6.63 KCAL/MOL
REMARK 924 INTRA-LIGAND FREE ENERGY PREDICTED BY IDOCK:   -1.28 KCAL/MOL
REMARK 927      BINDING AFFINITY PREDICTED BY RF-SCORE:    0.00 PKD
ROOT
HETATM    1  O   UNL     1      -8.045  10.129  67.511  1.00  0.00    -0.112 OA 
HETATM    2  H   UNL     1      -7.249   9.654  67.720  1.00  0.00     0.000 HD 
HETATM    3  C   UNL     1      -7.984  11.437  68.080  1.00  0.00    -0.127 C  
ENDROOT
BRANCH   3   4
HETATM    4  C   UNL     1      -9.266  12.203  67.745  1.00  0.00    -0.189 C  
HETATM    5  O   UNL     1      -9.036  13.047  66.601  1.00  0.00    -0.230 OA 
HETATM    6  C   UNL     1     -10.291  13.178  65.927  1.00  0.00    -0.290 C  
HETATM    7  O   UNL     1     -10.027  13.372  64.532  1.00  0.00    -0.630 OA 
HETATM    8  H   UNL     1     -11.142  10.115  65.165  1.00  0.00     0.000 HD 
HETATM    9  C   UNL     1     -11.024  11.844  66.123  1.00  0.00    -0.308 C  
HETATM   10  C   UNL     1     -10.434  11.266  67.410  1.00  0.00    -0.212 C  
HETATM   11  O   UNL     1     -10.688  10.941  65.044  1.00  0.00    -0.249 OA 
HETATM   12  H   UNL     1     -10.860  13.459  64.085  1.00  0.00     0.000 HD 
BRANCH   6  13
HETATM   13  C   UNL     1     -11.043  14.400  66.477  1.00  0.00    -0.331 C  
HETATM   14  H   UNL     1     -12.918  14.869  66.786  1.00  0.00     0.000 HD 
HETATM   15  O   UNL     1     -12.453  14.113  66.447  1.00  0.00    -0.461 OA 
ENDBRANCH   6  13
BRANCH  10  16
HETATM   16  O   UNL     1     -11.421  11.238  68.452  1.00  0.00    -0.257 OA 
BRANCH  16  17
HETATM   17  C   UNL     1     -11.040  10.422  69.570  1.00  0.00    -0.264 C  
HETATM   18  O   UNL     1     -10.498   9.178  69.115  1.00  0.00    -0.212 OA 
HETATM   19  C   UNL     1     -10.051   8.344  70.199  1.00  0.00    -0.191 C  
HETATM   20  C   UNL     1     -11.231   7.974  71.108  1.00  0.00    -0.261 C  
HETATM   21  H   UNL     1     -13.427  11.367  71.613  1.00  0.00     0.000 HD 
HETATM   22  O   UNL     1     -12.684  11.491  71.034  1.00  0.00    -0.371 OA 
HETATM   23  C   UNL     1     -11.839   9.270  71.659  1.00  0.00    -0.383 C  
HETATM   24  O   UNL     1     -12.279   7.282  70.414  1.00  0.00    -0.554 OA 
HETATM   25  H   UNL     1     -13.335   9.759  72.834  1.00  0.00     0.000 HD 
HETATM   26  O   UNL     1     -12.958   8.956  72.493  1.00  0.00    -0.418 OA 
HETATM   27  H   UNL     1     -13.010   7.054  70.976  1.00  0.00     0.000 HD 
HETATM   28  C   UNL     1     -12.250  10.219  70.513  1.00  0.00    -0.301 C  
BRANCH  19  29
HETATM   29  C   UNL     1      -9.357   7.116  69.604  1.00  0.00    -0.149 C  
HETATM   30  O   UNL     1      -9.122   7.334  68.212  1.00  0.00    -0.135 OA 
HETATM   31  H   UNL     1      -8.691   6.572  67.842  1.00  0.00     0.000 HD 
ENDBRANCH  19  29
ENDBRANCH  16  17
ENDBRANCH  10  16
ENDBRANCH   3   4
TORSDOF 5
ENDMDL
MODEL       68
REMARK 921   NORMALIZED FREE ENERGY PREDICTED BY IDOCK:   -4.89 KCAL/MOL
REMARK 922        TOTAL FREE ENERGY PREDICTED BY IDOCK:   -7.90 KCAL/MOL
REMARK 923 INTER-LIGAND FREE ENERGY PREDICTED BY IDOCK:   -6.62 KCAL/MOL
REMARK 924 INTRA-LIGAND FREE ENERGY PREDICTED BY IDOCK:   -1.27 KCAL/MOL
REMARK 927      BINDING AFFINITY PREDICTED BY RF-SCORE:    0.00 PKD
ROOT
HETATM    1  O   UNL     1     -11.881  13.695  69.338  1.00  0.00    -0.297 OA 
HETATM    2  H   UNL     1     -11.972  13.602  70.279  1.00  0.00     0.000 HD 
HETATM    3  C   UNL     1     -11.661  15.066  69.010  1.00  0.00    -0.325 C  
ENDROOT
BRANCH   3   4
HETATM    4  C   UNL     1     -11.515  15.215  67.494  1.00  0.00    -0.298 C  
HETATM    5  O   UNL     1     -10.727  16.385  67.200  1.00  0.00    -0.307 OA 
HETATM    6  C   UNL     1     -10.056  16.128  65.964  1.00  0.00    -0.351 C  
HETATM    7  O   UNL     1      -8.821  16.855  65.972  1.00  0.00    -0.464 OA 
HETATM    8  H   UNL     1      -8.281  13.441  66.529  1.00  0.00     0.000 HD 
HETATM    9  C   UNL     1      -9.758  14.623  65.942  1.00  0.00    -0.310 C  
HETATM   10  C   UNL     1     -10.819  14.007  66.854  1.00  0.00    -0.290 C  
HETATM   11  O   UNL     1      -8.466  14.373  66.543  1.00  0.00    -0.039 OA 
HETATM   12  H   UNL     1      -8.374  16.684  65.150  1.00  0.00     0.000 HD 
BRANCH   6  13
HETATM   13  C   UNL     1     -10.926  16.618  64.797  1.00  0.00    -0.109 C  
HETATM   14  H   UNL     1     -11.485  18.361  64.100  1.00  0.00     0.000 HD 
HETATM   15  O   UNL     1     -10.947  18.058  64.822  1.00  0.00    -0.706 OA 
ENDBRANCH   6  13
BRANCH  10  16
HETATM   16  O   UNL     1     -11.730  13.197  66.096  1.00  0.00    -0.345 OA 
BRANCH  16  17
HETATM   17  C   UNL     1     -11.460  11.790  66.204  1.00  0.00    -0.220 C  
HETATM   18  O   UNL     1     -11.044  11.467  67.535  1.00  0.00    -0.244 OA 
HETATM   19  C   UNL     1     -10.811  10.057  67.710  1.00  0.00    -0.282 C  
HETATM   20  C   UNL     1      -9.672   9.588  66.793  1.00  0.00    -0.197 C  
HETATM   21  H   UNL     1     -10.279  11.355  63.175  1.00  0.00     0.000 HD 
HETATM   22  O   UNL     1     -10.923  11.612  63.823  1.00  0.00    -0.366 OA 
HETATM   23  C   UNL     1     -10.072   9.878  65.341  1.00  0.00    -0.200 C  
HETATM   24  O   UNL     1      -8.438  10.279  67.034  1.00  0.00    -0.128 OA 
HETATM   25  H   UNL     1      -9.265   9.651  63.566  1.00  0.00     0.000 HD 
HETATM   26  O   UNL     1      -9.017   9.471  64.465  1.00  0.00    -0.214 OA 
HETATM   27  H   UNL     1      -7.733   9.989  66.467  1.00  0.00     0.000 HD 
HETATM   28  C   UNL     1     -10.409  11.372  65.148  1.00  0.00    -0.290 C  
BRANCH  19  29
HETATM   29  C   UNL     1     -10.522   9.800  69.191  1.00  0.00    -0.215 C  
HETATM   30  O   UNL     1     -10.812  10.980  69.941  1.00  0.00    -0.429 OA 
HETATM   31  H   UNL     1     -10.633  10.820  70.860  1.00  0.00     0.000 HD 
ENDBRANCH  19  29
ENDBRANCH  16  17
ENDBRANCH  10  16
ENDBRANCH   3   4
TORSDOF 5
ENDMDL
MODEL       69
REMARK 921   NORMALIZED FREE ENERGY PREDICTED BY IDOCK:   -4.87 KCAL/MOL
REMARK 922        TOTAL FREE ENERGY PREDICTED BY IDOCK:   -7.87 KCAL/MOL
REMARK 923 INTER-LIGAND FREE ENERGY PREDICTED BY IDOCK:   -6.90 KCAL/MOL
REMARK 924 INTRA-LIGAND FREE ENERGY PREDICTED BY IDOCK:   -0.97 KCAL/MOL
REMARK 927      BINDING AFFINITY PREDICTED BY RF-SCORE:    0.00 PKD
ROOT
HETATM    1  O   UNL     1     -11.524  11.923  69.889  1.00  0.00    -0.441 OA 
HETATM    2  H   UNL     1     -11.735  11.281  70.557  1.00  0.00     0.000 HD 
HETATM    3  C   UNL     1     -12.178  13.156  70.188  1.00  0.00    -0.290 C  
ENDROOT
BRANCH   3   4
HETATM    4  C   UNL     1     -11.838  14.191  69.112  1.00  0.00    -0.341 C  
HETATM    5  O   UNL     1     -11.022  15.230  69.687  1.00  0.00    -0.251 OA 
HETATM    6  C   UNL     1     -10.196  15.734  68.634  1.00  0.00    -0.221 C  
HETATM    7  O   UNL     1      -8.974  16.204  69.215  1.00  0.00    -0.246 OA 
HETATM    8  H   UNL     1      -8.503  13.137  67.597  1.00  0.00     0.000 HD 
HETATM    9  C   UNL     1      -9.894  14.540  67.717  1.00  0.00    -0.220 C  
HETATM   10  C   UNL     1     -11.063  13.579  67.939  1.00  0.00    -0.265 C  
HETATM   11  O   UNL     1      -8.690  13.876  68.164  1.00  0.00    -0.168 OA 
HETATM   12  H   UNL     1      -8.426  16.539  68.515  1.00  0.00     0.000 HD 
BRANCH   6  13
HETATM   13  C   UNL     1     -10.910  16.902  67.937  1.00  0.00    -0.310 C  
HETATM   14  H   UNL     1     -10.402  18.289  66.651  1.00  0.00     0.000 HD 
HETATM   15  O   UNL     1      -9.961  17.566  67.082  1.00  0.00    -0.292 OA 
ENDBRANCH   6  13
BRANCH  10  16
HETATM   16  O   UNL     1     -11.867  13.478  66.754  1.00  0.00    -0.364 OA 
BRANCH  16  17
HETATM   17  C   UNL     1     -11.612  12.283  65.999  1.00  0.00    -0.393 C  
HETATM   18  O   UNL     1     -10.878  11.343  66.792  1.00  0.00    -0.262 OA 
HETATM   19  C   UNL     1     -10.643  10.105  66.097  1.00  0.00    -0.028 C  
HETATM   20  C   UNL     1      -9.788  10.350  64.846  1.00  0.00    -0.334 C  
HETATM   21  H   UNL     1     -11.254  13.706  63.065  1.00  0.00     0.000 HD 
HETATM   22  O   UNL     1     -11.705  13.489  63.872  1.00  0.00    -0.408 OA 
HETATM   23  C   UNL     1     -10.537  11.329  63.934  1.00  0.00    -0.391 C  
HETATM   24  O   UNL     1      -8.516  10.945  65.144  1.00  0.00    -0.309 OA 
HETATM   25  H   UNL     1     -10.216  12.201  62.204  1.00  0.00     0.000 HD 
HETATM   26  O   UNL     1      -9.751  11.594  62.769  1.00  0.00    -0.321 OA 
HETATM   27  H   UNL     1      -7.987  11.097  64.370  1.00  0.00     0.000 HD 
HETATM   28  C   UNL     1     -10.876  12.635  64.684  1.00  0.00    -0.319 C  
BRANCH  19  29
HETATM   29  C   UNL     1      -9.992   9.123  67.075  1.00  0.00    -0.230 C  
HETATM   30  O   UNL     1     -11.011   8.426  67.794  1.00  0.00    -0.496 OA 
HETATM   31  H   UNL     1     -10.607   7.818  68.401  1.00  0.00     0.000 HD 
ENDBRANCH  19  29
ENDBRANCH  16  17
ENDBRANCH  10  16
ENDBRANCH   3   4
TORSDOF 5
ENDMDL
MODEL       70
REMARK 921   NORMALIZED FREE ENERGY PREDICTED BY IDOCK:   -4.87 KCAL/MOL
REMARK 922        TOTAL FREE ENERGY PREDICTED BY IDOCK:   -7.87 KCAL/MOL
REMARK 923 INTER-LIGAND FREE ENERGY PREDICTED BY IDOCK:   -6.24 KCAL/MOL
REMARK 924 INTRA-LIGAND FREE ENERGY PREDICTED BY IDOCK:   -1.63 KCAL/MOL
REMARK 927      BINDING AFFINITY PREDICTED BY RF-SCORE:    0.00 PKD
ROOT
HETATM    1  O   UNL     1     -11.539   9.615  68.824  1.00  0.00    -0.433 OA 
HETATM    2  H   UNL     1     -11.438   9.218  69.681  1.00  0.00     0.000 HD 
HETATM    3  C   UNL     1     -11.411  11.032  68.933  1.00  0.00    -0.296 C  
ENDROOT
BRANCH   3   4
HETATM    4  C   UNL     1     -11.575  11.671  67.552  1.00  0.00    -0.272 C  
HETATM    5  O   UNL     1     -11.979  13.045  67.704  1.00  0.00    -0.353 OA 
HETATM    6  C   UNL     1     -11.470  13.751  66.569  1.00  0.00    -0.348 C  
HETATM    7  O   UNL     1     -11.220  15.105  66.965  1.00  0.00    -0.335 OA 
HETATM    8  H   UNL     1      -8.235  13.297  66.699  1.00  0.00     0.000 HD 
HETATM    9  C   UNL     1     -10.140  13.076  66.206  1.00  0.00    -0.282 C  
HETATM   10  C   UNL     1     -10.272  11.650  66.743  1.00  0.00    -0.217 C  
HETATM   11  O   UNL     1      -9.058  13.715  66.923  1.00  0.00    -0.239 OA 
HETATM   12  H   UNL     1     -10.881  15.574  66.212  1.00  0.00     0.000 HD 
BRANCH   6  13
HETATM   13  C   UNL     1     -12.515  13.735  65.444  1.00  0.00    -0.500 C  
HETATM   14  H   UNL     1     -12.471  13.586  63.492  1.00  0.00     0.000 HD 
HETATM   15  O   UNL     1     -11.824  13.595  64.188  1.00  0.00    -0.413 OA 
ENDBRANCH   6  13
BRANCH  10  16
HETATM   16  O   UNL     1     -10.320  10.705  65.663  1.00  0.00    -0.255 OA 
BRANCH  16  17
HETATM   17  C   UNL     1      -9.577   9.506  65.928  1.00  0.00    -0.261 C  
HETATM   18  O   UNL     1     -10.405   8.546  66.593  1.00  0.00    -0.298 OA 
HETATM   19  C   UNL     1      -9.720   7.303  66.834  1.00  0.00    -0.194 C  
HETATM   20  C   UNL     1      -8.519   7.529  67.763  1.00  0.00    -0.118 C  
HETATM   21  H   UNL     1      -6.672  10.926  66.485  1.00  0.00     0.000 HD 
HETATM   22  O   UNL     1      -7.453  10.719  65.984  1.00  0.00    -0.149 OA 
HETATM   23  C   UNL     1      -7.571   8.529  67.091  1.00  0.00    -0.096 C  
HETATM   24  O   UNL     1      -8.889   8.091  69.031  1.00  0.00    -0.143 OA 
HETATM   25  H   UNL     1      -5.865   9.397  67.530  1.00  0.00     0.000 HD 
HETATM   26  O   UNL     1      -6.452   8.777  67.946  1.00  0.00    -0.056 OA 
HETATM   27  H   UNL     1      -8.146   8.231  69.606  1.00  0.00     0.000 HD 
HETATM   28  C   UNL     1      -8.306   9.842  66.745  1.00  0.00    -0.124 C  
BRANCH  19  29
HETATM   29  C   UNL     1     -10.729   6.303  67.405  1.00  0.00    -0.331 C  
HETATM   30  O   UNL     1     -11.509   6.943  68.415  1.00  0.00    -0.529 OA 
HETATM   31  H   UNL     1     -12.135   6.323  68.770  1.00  0.00     0.000 HD 
ENDBRANCH  19  29
ENDBRANCH  16  17
ENDBRANCH  10  16
ENDBRANCH   3   4
TORSDOF 5
ENDMDL
MODEL       71
REMARK 921   NORMALIZED FREE ENERGY PREDICTED BY IDOCK:   -4.85 KCAL/MOL
REMARK 922        TOTAL FREE ENERGY PREDICTED BY IDOCK:   -7.85 KCAL/MOL
REMARK 923 INTER-LIGAND FREE ENERGY PREDICTED BY IDOCK:   -6.72 KCAL/MOL
REMARK 924 INTRA-LIGAND FREE ENERGY PREDICTED BY IDOCK:   -1.12 KCAL/MOL
REMARK 927      BINDING AFFINITY PREDICTED BY RF-SCORE:    0.00 PKD
ROOT
HETATM    1  O   UNL     1      -8.213  12.800  69.003  1.00  0.00    -0.334 OA 
HETATM    2  H   UNL     1      -7.556  12.845  69.688  1.00  0.00     0.000 HD 
HETATM    3  C   UNL     1      -7.682  12.105  67.875  1.00  0.00    -0.134 C  
ENDROOT
BRANCH   3   4
HETATM    4  C   UNL     1      -8.740  12.033  66.772  1.00  0.00    -0.192 C  
HETATM    5  O   UNL     1      -8.440  10.934  65.890  1.00  0.00    -0.162 OA 
HETATM    6  C   UNL     1      -9.688  10.477  65.364  1.00  0.00    -0.257 C  
HETATM    7  O   UNL     1      -9.566   9.076  65.086  1.00  0.00    -0.452 OA 
HETATM    8  H   UNL     1     -11.433   9.628  67.995  1.00  0.00     0.000 HD 
HETATM    9  C   UNL     1     -10.724  10.683  66.477  1.00  0.00    -0.151 C  
HETATM   10  C   UNL     1     -10.151  11.815  67.331  1.00  0.00    -0.195 C  
HETATM   11  O   UNL     1     -10.791   9.500  67.306  1.00  0.00    -0.251 OA 
HETATM   12  H   UNL     1     -10.395   8.772  64.737  1.00  0.00     0.000 HD 
BRANCH   6  13
HETATM   13  C   UNL     1     -10.001  11.227  64.060  1.00  0.00    -0.312 C  
HETATM   14  H   UNL     1     -10.049  10.771  62.157  1.00  0.00     0.000 HD 
HETATM   15  O   UNL     1      -9.856  10.307  62.963  1.00  0.00    -0.249 OA 
ENDBRANCH   6  13
BRANCH  10  16
HETATM   16  O   UNL     1     -10.965  12.993  67.222  1.00  0.00    -0.255 OA 
BRANCH  16  17
HETATM   17  C   UNL     1     -10.295  14.084  66.570  1.00  0.00    -0.285 C  
HETATM   18  O   UNL     1      -9.644  14.915  67.536  1.00  0.00    -0.202 OA 
HETATM   19  C   UNL     1      -8.913  15.996  66.927  1.00  0.00    -0.227 C  
HETATM   20  C   UNL     1      -9.868  16.920  66.160  1.00  0.00    -0.297 C  
HETATM   21  H   UNL     1     -12.456  14.511  64.139  1.00  0.00     0.000 HD 
HETATM   22  O   UNL     1     -11.839  14.024  64.672  1.00  0.00    -0.376 OA 
HETATM   23  C   UNL     1     -10.577  16.092  65.081  1.00  0.00    -0.370 C  
HETATM   24  O   UNL     1     -10.891  17.485  66.993  1.00  0.00    -0.215 OA 
HETATM   25  H   UNL     1     -11.931  16.411  63.695  1.00  0.00     0.000 HD 
HETATM   26  O   UNL     1     -11.492  16.924  64.364  1.00  0.00    -1.052 OA 
HETATM   27  H   UNL     1     -11.483  18.057  66.518  1.00  0.00     0.000 HD 
HETATM   28  C   UNL     1     -11.300  14.877  65.701  1.00  0.00    -0.325 C  
BRANCH  19  29
HETATM   29  C   UNL     1      -8.138  16.727  68.026  1.00  0.00    -0.187 C  
HETATM   30  O   UNL     1      -8.311  18.136  67.868  1.00  0.00    -0.240 OA 
HETATM   31  H   UNL     1      -7.829  18.591  68.549  1.00  0.00     0.000 HD 
ENDBRANCH  19  29
ENDBRANCH  16  17
ENDBRANCH  10  16
ENDBRANCH   3   4
TORSDOF 5
ENDMDL
MODEL       72
REMARK 921   NORMALIZED FREE ENERGY PREDICTED BY IDOCK:   -4.84 KCAL/MOL
REMARK 922        TOTAL FREE ENERGY PREDICTED BY IDOCK:   -7.84 KCAL/MOL
REMARK 923 INTER-LIGAND FREE ENERGY PREDICTED BY IDOCK:   -7.10 KCAL/MOL
REMARK 924 INTRA-LIGAND FREE ENERGY PREDICTED BY IDOCK:   -0.73 KCAL/MOL
REMARK 927      BINDING AFFINITY PREDICTED BY RF-SCORE:    0.00 PKD
ROOT
HETATM    1  O   UNL     1     -14.369   8.784  72.931  1.00  0.00    -1.023 OA 
HETATM    2  H   UNL     1     -15.239   8.402  72.946  1.00  0.00     0.000 HD 
HETATM    3  C   UNL     1     -13.654   8.302  71.794  1.00  0.00    -0.361 C  
ENDROOT
BRANCH   3   4
HETATM    4  C   UNL     1     -12.252   8.917  71.769  1.00  0.00    -0.359 C  
HETATM    5  O   UNL     1     -11.313   7.950  71.262  1.00  0.00    -0.252 OA 
HETATM    6  C   UNL     1     -10.268   8.688  70.624  1.00  0.00    -0.198 C  
HETATM    7  O   UNL     1      -9.733   7.879  69.570  1.00  0.00    -0.170 OA 
HETATM    8  H   UNL     1     -11.779  10.418  68.297  1.00  0.00     0.000 HD 
HETATM    9  C   UNL     1     -10.930   9.934  70.019  1.00  0.00    -0.291 C  
HETATM   10  C   UNL     1     -12.178  10.160  70.875  1.00  0.00    -0.356 C  
HETATM   11  O   UNL     1     -11.369   9.646  68.672  1.00  0.00    -0.026 OA 
HETATM   12  H   UNL     1      -9.038   8.369  69.146  1.00  0.00     0.000 HD 
BRANCH   6  13
HETATM   13  C   UNL     1      -9.159   8.993  71.643  1.00  0.00    -0.108 C  
HETATM   14  H   UNL     1      -8.468   8.134  73.262  1.00  0.00     0.000 HD 
HETATM   15  O   UNL     1      -9.154   7.946  72.631  1.00  0.00    -0.157 OA 
ENDBRANCH   6  13
BRANCH  10  16
HETATM   16  O   UNL     1     -12.055  11.370  71.638  1.00  0.00     0.071 OA 
BRANCH  16  17
HETATM   17  C   UNL     1     -12.654  12.506  70.994  1.00  0.00    -0.256 C  
HETATM   18  O   UNL     1     -11.687  13.184  70.185  1.00  0.00    -0.272 OA 
HETATM   19  C   UNL     1     -12.251  14.302  69.476  1.00  0.00    -0.297 C  
HETATM   20  C   UNL     1     -12.773  15.352  70.466  1.00  0.00    -0.405 C  
HETATM   21  H   UNL     1     -14.716  13.320  73.412  1.00  0.00     0.000 HD 
HETATM   22  O   UNL     1     -14.329  12.746  72.761  1.00  0.00    -0.265 OA 
HETATM   23  C   UNL     1     -13.843  14.695  71.346  1.00  0.00    -0.403 C  
HETATM   24  O   UNL     1     -11.754  15.848  71.346  1.00  0.00    -0.394 OA 
HETATM   25  H   UNL     1     -14.994  15.239  72.842  1.00  0.00     0.000 HD 
HETATM   26  O   UNL     1     -14.331  15.647  72.296  1.00  0.00    -0.539 OA 
HETATM   27  H   UNL     1     -12.076  16.498  71.959  1.00  0.00     0.000 HD 
HETATM   28  C   UNL     1     -13.284  13.442  72.054  1.00  0.00    -0.438 C  
BRANCH  19  29
HETATM   29  C   UNL     1     -11.182  14.859  68.532  1.00  0.00    -0.279 C  
HETATM   30  O   UNL     1     -11.141  16.282  68.651  1.00  0.00    -0.324 OA 
HETATM   31  H   UNL     1     -10.478  16.628  68.066  1.00  0.00     0.000 HD 
ENDBRANCH  19  29
ENDBRANCH  16  17
ENDBRANCH  10  16
ENDBRANCH   3   4
TORSDOF 5
ENDMDL
MODEL       73
REMARK 921   NORMALIZED FREE ENERGY PREDICTED BY IDOCK:   -4.84 KCAL/MOL
REMARK 922        TOTAL FREE ENERGY PREDICTED BY IDOCK:   -7.83 KCAL/MOL
REMARK 923 INTER-LIGAND FREE ENERGY PREDICTED BY IDOCK:   -7.12 KCAL/MOL
REMARK 924 INTRA-LIGAND FREE ENERGY PREDICTED BY IDOCK:   -0.71 KCAL/MOL
REMARK 927      BINDING AFFINITY PREDICTED BY RF-SCORE:    0.00 PKD
ROOT
HETATM    1  O   UNL     1     -12.058  11.319  62.952  1.00  0.00    -0.879 OA 
HETATM    2  H   UNL     1     -12.698  11.025  62.314  1.00  0.00     0.000 HD 
HETATM    3  C   UNL     1     -12.564  12.458  63.647  1.00  0.00    -0.443 C  
ENDROOT
BRANCH   3   4
HETATM    4  C   UNL     1     -11.533  12.932  64.675  1.00  0.00    -0.327 C  
HETATM    5  O   UNL     1     -12.118  13.953  65.506  1.00  0.00    -0.363 OA 
HETATM    6  C   UNL     1     -11.471  13.869  66.777  1.00  0.00    -0.352 C  
HETATM    7  O   UNL     1     -12.400  14.306  67.777  1.00  0.00    -0.596 OA 
HETATM    8  H   UNL     1     -12.061  10.822  67.805  1.00  0.00     0.000 HD 
HETATM    9  C   UNL     1     -11.151  12.384  66.998  1.00  0.00    -0.278 C  
HETATM   10  C   UNL     1     -11.058  11.796  65.589  1.00  0.00    -0.285 C  
HETATM   11  O   UNL     1     -12.259  11.741  67.668  1.00  0.00    -0.534 OA 
HETATM   12  H   UNL     1     -11.969  14.249  68.623  1.00  0.00     0.000 HD 
BRANCH   6  13
HETATM   13  C   UNL     1     -10.242  14.790  66.789  1.00  0.00    -0.266 C  
HETATM   14  H   UNL     1      -9.939  16.724  66.821  1.00  0.00     0.000 HD 
HETATM   15  O   UNL     1     -10.699  16.154  66.814  1.00  0.00    -0.310 OA 
ENDBRANCH   6  13
BRANCH  10  16
HETATM   16  O   UNL     1      -9.711  11.394  65.297  1.00  0.00    -0.228 OA 
BRANCH  16  17
HETATM   17  C   UNL     1      -9.579   9.980  65.078  1.00  0.00    -0.297 C  
HETATM   18  O   UNL     1      -9.837   9.265  66.291  1.00  0.00    -0.251 OA 
HETATM   19  C   UNL     1      -9.769   7.838  66.112  1.00  0.00     0.014 C  
HETATM   20  C   UNL     1      -8.357   7.423  65.677  1.00  0.00    -0.140 C  
HETATM   21  H   UNL     1      -7.155  10.120  62.873  1.00  0.00     0.000 HD 
HETATM   22  O   UNL     1      -8.014  10.315  63.227  1.00  0.00    -0.153 OA 
HETATM   23  C   UNL     1      -8.030   8.133  64.358  1.00  0.00    -0.145 C  
HETATM   24  O   UNL     1      -7.345   7.805  66.620  1.00  0.00    -0.084 OA 
HETATM   25  H   UNL     1      -6.506   8.223  63.123  1.00  0.00     0.000 HD 
HETATM   26  O   UNL     1      -6.708   7.782  63.940  1.00  0.00    -0.060 OA 
HETATM   27  H   UNL     1      -6.471   7.548  66.351  1.00  0.00     0.000 HD 
HETATM   28  C   UNL     1      -8.178   9.663  64.502  1.00  0.00    -0.151 C  
BRANCH  19  29
HETATM   29  C   UNL     1     -10.206   7.170  67.418  1.00  0.00    -0.226 C  
HETATM   30  O   UNL     1     -11.510   6.613  67.251  1.00  0.00    -0.766 OA 
HETATM   31  H   UNL     1     -11.781   6.198  68.061  1.00  0.00     0.000 HD 
ENDBRANCH  19  29
ENDBRANCH  16  17
ENDBRANCH  10  16
ENDBRANCH   3   4
TORSDOF 5
ENDMDL
MODEL       74
REMARK 921   NORMALIZED FREE ENERGY PREDICTED BY IDOCK:   -4.83 KCAL/MOL
REMARK 922        TOTAL FREE ENERGY PREDICTED BY IDOCK:   -7.83 KCAL/MOL
REMARK 923 INTER-LIGAND FREE ENERGY PREDICTED BY IDOCK:   -7.01 KCAL/MOL
REMARK 924 INTRA-LIGAND FREE ENERGY PREDICTED BY IDOCK:   -0.81 KCAL/MOL
REMARK 927      BINDING AFFINITY PREDICTED BY RF-SCORE:    0.00 PKD
ROOT
HETATM    1  O   UNL     1     -12.772  15.363  69.416  1.00  0.00    -0.586 OA 
HETATM    2  H   UNL     1     -13.209  15.812  70.130  1.00  0.00     0.000 HD 
HETATM    3  C   UNL     1     -11.396  15.167  69.742  1.00  0.00    -0.285 C  
ENDROOT
BRANCH   3   4
HETATM    4  C   UNL     1     -10.693  14.444  68.591  1.00  0.00    -0.253 C  
HETATM    5  O   UNL     1     -11.214  13.106  68.476  1.00  0.00    -0.241 OA 
HETATM    6  C   UNL     1     -11.095  12.736  67.099  1.00  0.00    -0.277 C  
HETATM    7  O   UNL     1     -12.147  11.811  66.797  1.00  0.00    -0.547 OA 
HETATM    8  H   UNL     1     -12.841  14.982  65.488  1.00  0.00     0.000 HD 
HETATM    9  C   UNL     1     -11.305  14.023  66.290  1.00  0.00    -0.333 C  
HETATM   10  C   UNL     1     -10.904  15.148  67.245  1.00  0.00    -0.316 C  
HETATM   11  O   UNL     1     -12.711  14.185  65.989  1.00  0.00    -0.469 OA 
HETATM   12  H   UNL     1     -12.069  11.565  65.883  1.00  0.00     0.000 HD 
BRANCH   6  13
HETATM   13  C   UNL     1      -9.738  12.056  66.866  1.00  0.00    -0.203 C  
HETATM   14  H   UNL     1      -8.955  10.310  67.280  1.00  0.00     0.000 HD 
HETATM   15  O   UNL     1      -9.794  10.730  67.424  1.00  0.00    -0.172 OA 
ENDBRANCH   6  13
BRANCH  10  16
HETATM   16  O   UNL     1      -9.712  15.802  66.784  1.00  0.00    -0.225 OA 
BRANCH  16  17
HETATM   17  C   UNL     1      -9.292  16.879  67.636  1.00  0.00    -0.233 C  
HETATM   18  O   UNL     1      -9.713  18.135  67.093  1.00  0.00    -0.284 OA 
HETATM   19  C   UNL     1      -9.361  19.244  67.940  1.00  0.00    -0.316 C  
HETATM   20  C   UNL     1      -7.837  19.344  68.082  1.00  0.00    -0.308 C  
HETATM   21  H   UNL     1      -6.462  15.550  68.629  1.00  0.00     0.000 HD 
HETATM   22  O   UNL     1      -7.403  15.586  68.500  1.00  0.00    -0.114 OA 
HETATM   23  C   UNL     1      -7.323  18.034  68.693  1.00  0.00    -0.282 C  
HETATM   24  O   UNL     1      -7.166  19.510  66.824  1.00  0.00    -0.211 OA 
HETATM   25  H   UNL     1      -5.581  17.279  69.194  1.00  0.00     0.000 HD 
HETATM   26  O   UNL     1      -5.899  18.090  68.816  1.00  0.00    -0.184 OA 
HETATM   27  H   UNL     1      -6.222  19.571  66.912  1.00  0.00     0.000 HD 
HETATM   28  C   UNL     1      -7.760  16.820  67.846  1.00  0.00    -0.171 C  
BRANCH  19  29
HETATM   29  C   UNL     1      -9.984  20.513  67.350  1.00  0.00    -0.385 C  
HETATM   30  O   UNL     1      -9.961  20.432  65.924  1.00  0.00    -0.620 OA 
HETATM   31  H   UNL     1     -10.347  21.218  65.558  1.00  0.00     0.000 HD 
ENDBRANCH  19  29
ENDBRANCH  16  17
ENDBRANCH  10  16
ENDBRANCH   3   4
TORSDOF 5
ENDMDL
MODEL       75
REMARK 921   NORMALIZED FREE ENERGY PREDICTED BY IDOCK:   -4.83 KCAL/MOL
REMARK 922        TOTAL FREE ENERGY PREDICTED BY IDOCK:   -7.82 KCAL/MOL
REMARK 923 INTER-LIGAND FREE ENERGY PREDICTED BY IDOCK:   -6.34 KCAL/MOL
REMARK 924 INTRA-LIGAND FREE ENERGY PREDICTED BY IDOCK:   -1.48 KCAL/MOL
REMARK 927      BINDING AFFINITY PREDICTED BY RF-SCORE:    0.00 PKD
ROOT
HETATM    1  O   UNL     1     -11.569  10.268  68.406  1.00  0.00    -0.564 OA 
HETATM    2  H   UNL     1     -11.719  10.231  69.344  1.00  0.00     0.000 HD 
HETATM    3  C   UNL     1     -11.606  11.625  67.968  1.00  0.00    -0.313 C  
ENDROOT
BRANCH   3   4
HETATM    4  C   UNL     1     -11.365  11.685  66.458  1.00  0.00    -0.263 C  
HETATM    5  O   UNL     1     -12.292  12.611  65.860  1.00  0.00    -0.593 OA 
HETATM    6  C   UNL     1     -11.646  13.149  64.704  1.00  0.00    -0.345 C  
HETATM    7  O   UNL     1     -12.149  14.474  64.492  1.00  0.00    -0.455 OA 
HETATM    8  H   UNL     1      -8.925  14.550  65.853  1.00  0.00     0.000 HD 
HETATM    9  C   UNL     1     -10.151  13.224  65.042  1.00  0.00    -0.227 C  
HETATM   10  C   UNL     1      -9.945  12.151  66.113  1.00  0.00    -0.233 C  
HETATM   11  O   UNL     1      -9.851  14.504  65.643  1.00  0.00    -0.327 OA 
HETATM   12  H   UNL     1     -11.720  14.832  63.723  1.00  0.00     0.000 HD 
BRANCH   6  13
HETATM   13  C   UNL     1     -11.976  12.280  63.481  1.00  0.00    -0.533 C  
HETATM   14  H   UNL     1     -13.601  11.516  62.701  1.00  0.00     0.000 HD 
HETATM   15  O   UNL     1     -13.397  12.054  63.457  1.00  0.00    -0.649 OA 
ENDBRANCH   6  13
BRANCH  10  16
HETATM   16  O   UNL     1      -9.132  11.081  65.607  1.00  0.00    -0.198 OA 
BRANCH  16  17
HETATM   17  C   UNL     1      -8.351  10.436  66.624  1.00  0.00    -0.127 C  
HETATM   18  O   UNL     1      -9.102   9.379  67.231  1.00  0.00    -0.132 OA 
HETATM   19  C   UNL     1      -8.343   8.665  68.224  1.00  0.00    -0.127 C  
HETATM   20  C   UNL     1      -7.949   9.605  69.371  1.00  0.00    -0.111 C  
HETATM   21  H   UNL     1      -6.730  13.094  67.659  1.00  0.00     0.000 HD 
HETATM   22  O   UNL     1      -7.025  12.453  67.022  1.00  0.00    -0.115 OA 
HETATM   23  C   UNL     1      -7.109  10.749  68.790  1.00  0.00    -0.079 C  
HETATM   24  O   UNL     1      -9.081  10.205  70.018  1.00  0.00    -0.377 OA 
HETATM   25  H   UNL     1      -6.226  12.364  69.475  1.00  0.00     0.000 HD 
HETATM   26  O   UNL     1      -6.746  11.655  69.835  1.00  0.00    -0.087 OA 
HETATM   27  H   UNL     1      -8.837  10.787  70.728  1.00  0.00     0.000 HD 
HETATM   28  C   UNL     1      -7.871  11.478  67.662  1.00  0.00    -0.125 C  
BRANCH  19  29
HETATM   29  C   UNL     1      -9.177   7.472  68.698  1.00  0.00    -0.144 C  
HETATM   30  O   UNL     1     -10.405   7.944  69.253  1.00  0.00    -0.213 OA 
HETATM   31  H   UNL     1     -10.922   7.203  69.547  1.00  0.00     0.000 HD 
ENDBRANCH  19  29
ENDBRANCH  16  17
ENDBRANCH  10  16
ENDBRANCH   3   4
TORSDOF 5
ENDMDL
MODEL       76
REMARK 921   NORMALIZED FREE ENERGY PREDICTED BY IDOCK:   -4.78 KCAL/MOL
REMARK 922        TOTAL FREE ENERGY PREDICTED BY IDOCK:   -7.76 KCAL/MOL
REMARK 923 INTER-LIGAND FREE ENERGY PREDICTED BY IDOCK:   -7.21 KCAL/MOL
REMARK 924 INTRA-LIGAND FREE ENERGY PREDICTED BY IDOCK:   -0.55 KCAL/MOL
REMARK 927      BINDING AFFINITY PREDICTED BY RF-SCORE:    0.00 PKD
ROOT
HETATM    1  O   UNL     1      -6.244  15.280  67.313  1.00  0.00    -0.321 OA 
HETATM    2  H   UNL     1      -5.378  14.995  67.579  1.00  0.00     0.000 HD 
HETATM    3  C   UNL     1      -7.071  15.440  68.465  1.00  0.00    -0.114 C  
ENDROOT
BRANCH   3   4
HETATM    4  C   UNL     1      -8.467  15.899  68.036  1.00  0.00    -0.162 C  
HETATM    5  O   UNL     1      -9.141  16.499  69.158  1.00  0.00    -0.254 OA 
HETATM    6  C   UNL     1     -10.043  17.471  68.624  1.00  0.00    -0.361 C  
HETATM    7  O   UNL     1     -10.198  18.513  69.596  1.00  0.00    -0.236 OA 
HETATM    8  H   UNL     1      -8.137  19.541  66.960  1.00  0.00     0.000 HD 
HETATM    9  C   UNL     1      -9.365  18.043  67.372  1.00  0.00    -0.254 C  
HETATM   10  C   UNL     1      -8.417  16.936  66.907  1.00  0.00    -0.214 C  
HETATM   11  O   UNL     1      -8.557  19.186  67.735  1.00  0.00    -0.289 OA 
HETATM   12  H   UNL     1     -10.797  19.159  69.241  1.00  0.00     0.000 HD 
BRANCH   6  13
HETATM   13  C   UNL     1     -11.407  16.815  68.361  1.00  0.00    -0.068 C  
HETATM   14  H   UNL     1     -12.374  15.263  69.060  1.00  0.00     0.000 HD 
HETATM   15  O   UNL     1     -11.531  15.669  69.223  1.00  0.00    -0.312 OA 
ENDBRANCH   6  13
BRANCH  10  16
HETATM   16  O   UNL     1      -8.853  16.392  65.652  1.00  0.00    -0.406 OA 
BRANCH  16  17
HETATM   17  C   UNL     1      -9.932  15.454  65.787  1.00  0.00    -0.362 C  
HETATM   18  O   UNL     1      -9.420  14.121  65.893  1.00  0.00    -0.219 OA 
HETATM   19  C   UNL     1     -10.462  13.146  66.083  1.00  0.00    -0.281 C  
HETATM   20  C   UNL     1     -11.407  13.133  64.874  1.00  0.00    -0.309 C  
HETATM   21  H   UNL     1     -12.094  17.023  63.883  1.00  0.00     0.000 HD 
HETATM   22  O   UNL     1     -11.490  16.928  64.610  1.00  0.00    -0.724 OA 
HETATM   23  C   UNL     1     -12.018  14.532  64.724  1.00  0.00    -0.442 C  
HETATM   24  O   UNL     1     -10.735  12.836  63.641  1.00  0.00    -0.463 OA 
HETATM   25  H   UNL     1     -13.264  15.422  63.496  1.00  0.00     0.000 HD 
HETATM   26  O   UNL     1     -12.886  14.555  63.589  1.00  0.00    -0.632 OA 
HETATM   27  H   UNL     1     -11.320  12.827  62.893  1.00  0.00     0.000 HD 
HETATM   28  C   UNL     1     -10.916  15.607  64.603  1.00  0.00    -0.325 C  
BRANCH  19  29
HETATM   29  C   UNL     1      -9.805  11.786  66.336  1.00  0.00    -0.214 C  
HETATM   30  O   UNL     1     -10.475  10.788  65.565  1.00  0.00    -0.252 OA 
HETATM   31  H   UNL     1     -10.068   9.944  65.721  1.00  0.00     0.000 HD 
ENDBRANCH  19  29
ENDBRANCH  16  17
ENDBRANCH  10  16
ENDBRANCH   3   4
TORSDOF 5
ENDMDL
MODEL       77
REMARK 921   NORMALIZED FREE ENERGY PREDICTED BY IDOCK:   -4.78 KCAL/MOL
REMARK 922        TOTAL FREE ENERGY PREDICTED BY IDOCK:   -7.76 KCAL/MOL
REMARK 923 INTER-LIGAND FREE ENERGY PREDICTED BY IDOCK:   -6.28 KCAL/MOL
REMARK 924 INTRA-LIGAND FREE ENERGY PREDICTED BY IDOCK:   -1.47 KCAL/MOL
REMARK 927      BINDING AFFINITY PREDICTED BY RF-SCORE:    0.00 PKD
ROOT
HETATM    1  O   UNL     1     -10.111   8.763  65.606  1.00  0.00    -0.370 OA 
HETATM    2  H   UNL     1     -10.156   8.158  64.875  1.00  0.00     0.000 HD 
HETATM    3  C   UNL     1      -9.188   9.809  65.307  1.00  0.00    -0.238 C  
ENDROOT
BRANCH   3   4
HETATM    4  C   UNL     1      -9.115  10.783  66.485  1.00  0.00    -0.165 C  
HETATM    5  O   UNL     1      -9.718  12.037  66.109  1.00  0.00    -0.229 OA 
HETATM    6  C   UNL     1     -10.245  12.614  67.306  1.00  0.00    -0.224 C  
HETATM    7  O   UNL     1     -11.379  13.415  66.949  1.00  0.00    -0.302 OA 
HETATM    8  H   UNL     1     -12.376  10.400  68.422  1.00  0.00     0.000 HD 
HETATM    9  C   UNL     1     -10.709  11.441  68.179  1.00  0.00    -0.202 C  
HETATM   10  C   UNL     1      -9.855  10.258  67.721  1.00  0.00    -0.169 C  
HETATM   11  O   UNL     1     -12.089  11.126  67.880  1.00  0.00    -0.627 OA 
HETATM   12  H   UNL     1     -11.730  13.798  67.744  1.00  0.00     0.000 HD 
BRANCH   6  13
HETATM   13  C   UNL     1      -9.179  13.506  67.958  1.00  0.00    -0.209 C  
HETATM   14  H   UNL     1      -8.829  15.431  68.055  1.00  0.00     0.000 HD 
HETATM   15  O   UNL     1      -9.488  14.879  67.652  1.00  0.00    -0.197 OA 
ENDBRANCH   6  13
BRANCH  10  16
HETATM   16  O   UNL     1      -8.952   9.853  68.761  1.00  0.00    -0.130 OA 
BRANCH  16  17
HETATM   17  C   UNL     1      -9.121   8.482  69.154  1.00  0.00    -0.146 C  
HETATM   18  O   UNL     1      -9.906   7.782  68.184  1.00  0.00    -0.157 OA 
HETATM   19  C   UNL     1     -10.061   6.387  68.506  1.00  0.00    -0.154 C  
HETATM   20  C   UNL     1     -10.807   6.228  69.837  1.00  0.00    -0.335 C  
HETATM   21  H   UNL     1      -9.243   8.985  72.393  1.00  0.00     0.000 HD 
HETATM   22  O   UNL     1      -8.861   9.029  71.525  1.00  0.00    -0.289 OA 
HETATM   23  C   UNL     1      -9.996   6.932  70.932  1.00  0.00    -0.189 C  
HETATM   24  O   UNL     1     -12.108   6.832  69.827  1.00  0.00    -0.648 OA 
HETATM   25  H   UNL     1     -10.178   7.256  72.860  1.00  0.00     0.000 HD 
HETATM   26  O   UNL     1     -10.681   6.819  72.183  1.00  0.00    -0.213 OA 
HETATM   27  H   UNL     1     -12.570   6.733  70.651  1.00  0.00     0.000 HD 
HETATM   28  C   UNL     1      -9.744   8.411  70.569  1.00  0.00    -0.173 C  
BRANCH  19  29
HETATM   29  C   UNL     1     -10.779   5.704  67.340  1.00  0.00    -0.198 C  
HETATM   30  O   UNL     1     -11.650   6.642  66.706  1.00  0.00    -0.718 OA 
HETATM   31  H   UNL     1     -12.096   6.217  65.982  1.00  0.00     0.000 HD 
ENDBRANCH  19  29
ENDBRANCH  16  17
ENDBRANCH  10  16
ENDBRANCH   3   4
TORSDOF 5
ENDMDL
MODEL       78
REMARK 921   NORMALIZED FREE ENERGY PREDICTED BY IDOCK:   -4.78 KCAL/MOL
REMARK 922        TOTAL FREE ENERGY PREDICTED BY IDOCK:   -7.76 KCAL/MOL
REMARK 923 INTER-LIGAND FREE ENERGY PREDICTED BY IDOCK:   -7.06 KCAL/MOL
REMARK 924 INTRA-LIGAND FREE ENERGY PREDICTED BY IDOCK:   -0.70 KCAL/MOL
REMARK 927      BINDING AFFINITY PREDICTED BY RF-SCORE:    0.00 PKD
ROOT
HETATM    1  O   UNL     1     -12.745  14.722  69.972  1.00  0.00    -0.535 OA 
HETATM    2  H   UNL     1     -12.607  14.901  70.895  1.00  0.00     0.000 HD 
HETATM    3  C   UNL     1     -11.879  13.667  69.554  1.00  0.00    -0.337 C  
ENDROOT
BRANCH   3   4
HETATM    4  C   UNL     1     -12.100  13.379  68.067  1.00  0.00    -0.248 C  
HETATM    5  O   UNL     1     -11.909  14.590  67.310  1.00  0.00    -0.394 OA 
HETATM    6  C   UNL     1     -11.445  14.196  66.017  1.00  0.00    -0.342 C  
HETATM    7  O   UNL     1     -10.618  15.248  65.503  1.00  0.00    -0.319 OA 
HETATM    8  H   UNL     1      -8.684  12.543  66.596  1.00  0.00     0.000 HD 
HETATM    9  C   UNL     1     -10.590  12.940  66.231  1.00  0.00    -0.266 C  
HETATM   10  C   UNL     1     -11.125  12.327  67.526  1.00  0.00    -0.275 C  
HETATM   11  O   UNL     1      -9.214  13.321  66.464  1.00  0.00    -0.240 OA 
HETATM   12  H   UNL     1     -10.309  14.987  64.644  1.00  0.00     0.000 HD 
BRANCH   6  13
HETATM   13  C   UNL     1     -12.646  13.992  65.081  1.00  0.00    -0.428 C  
HETATM   14  H   UNL     1     -13.240  14.751  63.376  1.00  0.00     0.000 HD 
HETATM   15  O   UNL     1     -12.497  14.877  63.955  1.00  0.00    -0.806 OA 
ENDBRANCH   6  13
BRANCH  10  16
HETATM   16  O   UNL     1     -11.773  11.073  67.263  1.00  0.00    -0.504 OA 
BRANCH  16  17
HETATM   17  C   UNL     1     -11.210   9.980  68.005  1.00  0.00    -0.122 C  
HETATM   18  O   UNL     1     -11.365  10.203  69.411  1.00  0.00    -0.226 OA 
HETATM   19  C   UNL     1     -10.863   9.109  70.199  1.00  0.00    -0.240 C  
HETATM   20  C   UNL     1      -9.356   8.934  69.970  1.00  0.00    -0.174 C  
HETATM   21  H   UNL     1      -8.728   9.319  65.965  1.00  0.00     0.000 HD 
HETATM   22  O   UNL     1      -9.638   9.442  66.209  1.00  0.00    -0.193 OA 
HETATM   23  C   UNL     1      -9.124   8.657  68.480  1.00  0.00    -0.138 C  
HETATM   24  O   UNL     1      -8.599  10.108  70.300  1.00  0.00    -0.330 OA 
HETATM   25  H   UNL     1      -7.579   8.342  67.310  1.00  0.00     0.000 HD 
HETATM   26  O   UNL     1      -7.722   8.513  68.233  1.00  0.00    -0.099 OA 
HETATM   27  H   UNL     1      -7.666  10.000  70.159  1.00  0.00     0.000 HD 
HETATM   28  C   UNL     1      -9.728   9.778  67.608  1.00  0.00    -0.156 C  
BRANCH  19  29
HETATM   29  C   UNL     1     -11.212   9.376  71.666  1.00  0.00    -0.361 C  
HETATM   30  O   UNL     1     -10.706   8.312  72.473  1.00  0.00    -0.322 OA 
HETATM   31  H   UNL     1     -10.922   8.477  73.383  1.00  0.00     0.000 HD 
ENDBRANCH  19  29
ENDBRANCH  16  17
ENDBRANCH  10  16
ENDBRANCH   3   4
TORSDOF 5
ENDMDL
MODEL       79
REMARK 921   NORMALIZED FREE ENERGY PREDICTED BY IDOCK:   -4.77 KCAL/MOL
REMARK 922        TOTAL FREE ENERGY PREDICTED BY IDOCK:   -7.75 KCAL/MOL
REMARK 923 INTER-LIGAND FREE ENERGY PREDICTED BY IDOCK:   -6.09 KCAL/MOL
REMARK 924 INTRA-LIGAND FREE ENERGY PREDICTED BY IDOCK:   -1.66 KCAL/MOL
REMARK 927      BINDING AFFINITY PREDICTED BY RF-SCORE:    0.00 PKD
ROOT
HETATM    1  O   UNL     1      -8.485  11.735  68.988  1.00  0.00    -0.367 OA 
HETATM    2  H   UNL     1      -7.817  12.410  68.940  1.00  0.00     0.000 HD 
HETATM    3  C   UNL     1      -7.912  10.470  68.657  1.00  0.00    -0.124 C  
ENDROOT
BRANCH   3   4
HETATM    4  C   UNL     1      -8.987   9.384  68.734  1.00  0.00    -0.132 C  
HETATM    5  O   UNL     1      -8.461   8.236  69.429  1.00  0.00    -0.120 OA 
HETATM    6  C   UNL     1      -9.570   7.599  70.067  1.00  0.00    -0.164 C  
HETATM    7  O   UNL     1      -9.087   6.949  71.250  1.00  0.00    -0.148 OA 
HETATM    8  H   UNL     1     -10.816   9.888  72.040  1.00  0.00     0.000 HD 
HETATM    9  C   UNL     1     -10.539   8.721  70.466  1.00  0.00    -0.215 C  
HETATM   10  C   UNL     1     -10.239   9.855  69.484  1.00  0.00    -0.225 C  
HETATM   11  O   UNL     1     -10.216   9.194  71.793  1.00  0.00    -0.338 OA 
HETATM   12  H   UNL     1      -9.824   6.526  71.674  1.00  0.00     0.000 HD 
BRANCH   6  13
HETATM   13  C   UNL     1     -10.172   6.549  69.121  1.00  0.00    -0.180 C  
HETATM   14  H   UNL     1     -11.890   5.621  68.968  1.00  0.00     0.000 HD 
HETATM   15  O   UNL     1     -11.518   6.271  69.553  1.00  0.00    -0.428 OA 
ENDBRANCH   6  13
BRANCH  10  16
HETATM   16  O   UNL     1     -11.351  10.068  68.602  1.00  0.00    -0.172 OA 
BRANCH  16  17
HETATM   17  C   UNL     1     -11.725  11.450  68.488  1.00  0.00    -0.318 C  
HETATM   18  O   UNL     1     -10.834  12.132  67.599  1.00  0.00    -0.218 OA 
HETATM   19  C   UNL     1     -11.198  13.512  67.410  1.00  0.00    -0.295 C  
HETATM   20  C   UNL     1     -11.119  14.272  68.740  1.00  0.00    -0.256 C  
HETATM   21  H   UNL     1     -12.781  11.856  71.567  1.00  0.00     0.000 HD 
HETATM   22  O   UNL     1     -12.757  11.454  70.706  1.00  0.00    -0.314 OA 
HETATM   23  C   UNL     1     -12.081  13.607  69.733  1.00  0.00    -0.334 C  
HETATM   24  O   UNL     1      -9.813  14.231  69.333  1.00  0.00    -0.416 OA 
HETATM   25  H   UNL     1     -12.607  13.869  71.606  1.00  0.00     0.000 HD 
HETATM   26  O   UNL     1     -12.012  14.281  70.992  1.00  0.00    -0.330 OA 
HETATM   27  H   UNL     1      -9.764  14.701  70.157  1.00  0.00     0.000 HD 
HETATM   28  C   UNL     1     -11.763  12.104  69.890  1.00  0.00    -0.287 C  
BRANCH  19  29
HETATM   29  C   UNL     1     -10.283  14.105  66.335  1.00  0.00    -0.290 C  
HETATM   30  O   UNL     1      -8.952  13.624  66.530  1.00  0.00    -0.419 OA 
HETATM   31  H   UNL     1      -8.384  13.992  65.863  1.00  0.00     0.000 HD 
ENDBRANCH  19  29
ENDBRANCH  16  17
ENDBRANCH  10  16
ENDBRANCH   3   4
TORSDOF 5
ENDMDL
MODEL       80
REMARK 921   NORMALIZED FREE ENERGY PREDICTED BY IDOCK:   -4.77 KCAL/MOL
REMARK 922        TOTAL FREE ENERGY PREDICTED BY IDOCK:   -7.75 KCAL/MOL
REMARK 923 INTER-LIGAND FREE ENERGY PREDICTED BY IDOCK:   -6.88 KCAL/MOL
REMARK 924 INTRA-LIGAND FREE ENERGY PREDICTED BY IDOCK:   -0.87 KCAL/MOL
REMARK 927      BINDING AFFINITY PREDICTED BY RF-SCORE:    0.00 PKD
ROOT
HETATM    1  O   UNL     1     -11.394   6.902  67.556  1.00  0.00    -0.597 OA 
HETATM    2  H   UNL     1     -11.758   6.270  66.947  1.00  0.00     0.000 HD 
HETATM    3  C   UNL     1     -10.607   7.856  66.844  1.00  0.00    -0.263 C  
ENDROOT
BRANCH   3   4
HETATM    4  C   UNL     1     -10.020   8.873  67.826  1.00  0.00    -0.192 C  
HETATM    5  O   UNL     1      -8.635   8.560  68.071  1.00  0.00    -0.132 OA 
HETATM    6  C   UNL     1      -7.981   9.796  68.370  1.00  0.00    -0.089 C  
HETATM    7  O   UNL     1      -6.616   9.688  67.948  1.00  0.00    -0.061 OA 
HETATM    8  H   UNL     1      -8.474  11.652  65.724  1.00  0.00     0.000 HD 
HETATM    9  C   UNL     1      -8.688  10.869  67.530  1.00  0.00    -0.130 C  
HETATM   10  C   UNL     1     -10.090  10.308  67.288  1.00  0.00    -0.203 C  
HETATM   11  O   UNL     1      -8.037  10.987  66.244  1.00  0.00    -0.162 OA 
HETATM   12  H   UNL     1      -6.182  10.509  68.146  1.00  0.00     0.000 HD 
BRANCH   6  13
HETATM   13  C   UNL     1      -8.027  10.047  69.884  1.00  0.00    -0.171 C  
HETATM   14  H   UNL     1      -6.703  10.344  71.296  1.00  0.00     0.000 HD 
HETATM   15  O   UNL     1      -6.675  10.189  70.360  1.00  0.00    -0.130 OA 
ENDBRANCH   6  13
BRANCH  10  16
HETATM   16  O   UNL     1     -11.075  11.095  67.974  1.00  0.00    -0.232 OA 
BRANCH  16  17
HETATM   17  C   UNL     1     -11.696  12.080  67.134  1.00  0.00    -0.273 C  
HETATM   18  O   UNL     1     -11.670  11.654  65.767  1.00  0.00    -0.309 OA 
HETATM   19  C   UNL     1     -12.328  12.585  64.889  1.00  0.00    -0.470 C  
HETATM   20  C   UNL     1     -11.609  13.940  64.914  1.00  0.00    -0.359 C  
HETATM   21  H   UNL     1     -10.736  14.730  68.813  1.00  0.00     0.000 HD 
HETATM   22  O   UNL     1     -11.160  13.889  68.693  1.00  0.00    -0.244 OA 
HETATM   23  C   UNL     1     -11.631  14.471  66.353  1.00  0.00    -0.364 C  
HETATM   24  O   UNL     1     -10.232  13.852  64.522  1.00  0.00    -0.616 OA 
HETATM   25  H   UNL     1     -10.960  16.054  67.302  1.00  0.00     0.000 HD 
HETATM   26  O   UNL     1     -10.947  15.726  66.410  1.00  0.00    -0.273 OA 
HETATM   27  H   UNL     1      -9.786  14.691  64.537  1.00  0.00     0.000 HD 
HETATM   28  C   UNL     1     -11.005  13.452  67.328  1.00  0.00    -0.272 C  
BRANCH  19  29
HETATM   29  C   UNL     1     -12.378  11.968  63.489  1.00  0.00    -0.551 C  
HETATM   30  O   UNL     1     -11.104  11.404  63.174  1.00  0.00    -0.783 OA 
HETATM   31  H   UNL     1     -11.135  11.022  62.306  1.00  0.00     0.000 HD 
ENDBRANCH  19  29
ENDBRANCH  16  17
ENDBRANCH  10  16
ENDBRANCH   3   4
TORSDOF 5
ENDMDL
MODEL       81
REMARK 921   NORMALIZED FREE ENERGY PREDICTED BY IDOCK:   -4.77 KCAL/MOL
REMARK 922        TOTAL FREE ENERGY PREDICTED BY IDOCK:   -7.74 KCAL/MOL
REMARK 923 INTER-LIGAND FREE ENERGY PREDICTED BY IDOCK:   -6.53 KCAL/MOL
REMARK 924 INTRA-LIGAND FREE ENERGY PREDICTED BY IDOCK:   -1.21 KCAL/MOL
REMARK 927      BINDING AFFINITY PREDICTED BY RF-SCORE:    0.00 PKD
ROOT
HETATM    1  O   UNL     1      -8.839   7.357  69.507  1.00  0.00    -0.137 OA 
HETATM    2  H   UNL     1      -8.192   6.870  69.010  1.00  0.00     0.000 HD 
HETATM    3  C   UNL     1     -10.128   6.777  69.315  1.00  0.00    -0.168 C  
ENDROOT
BRANCH   3   4
HETATM    4  C   UNL     1     -11.170   7.562  70.116  1.00  0.00    -0.196 C  
HETATM    5  O   UNL     1     -12.260   6.690  70.470  1.00  0.00    -0.364 OA 
HETATM    6  C   UNL     1     -12.799   7.185  71.698  1.00  0.00    -0.379 C  
HETATM    7  O   UNL     1     -13.346   6.075  72.422  1.00  0.00    -0.344 OA 
HETATM    8  H   UNL     1     -10.293   7.098  73.796  1.00  0.00     0.000 HD 
HETATM    9  C   UNL     1     -11.616   7.767  72.483  1.00  0.00    -0.367 C  
HETATM   10  C   UNL     1     -10.591   8.143  71.412  1.00  0.00    -0.220 C  
HETATM   11  O   UNL     1     -11.026   6.737  73.310  1.00  0.00    -0.273 OA 
HETATM   12  H   UNL     1     -13.704   6.404  73.238  1.00  0.00     0.000 HD 
BRANCH   6  13
HETATM   13  C   UNL     1     -13.917   8.195  71.397  1.00  0.00    -0.279 C  
HETATM   14  H   UNL     1     -14.989   9.453  72.447  1.00  0.00     0.000 HD 
HETATM   15  O   UNL     1     -14.298   8.829  72.633  1.00  0.00    -0.585 OA 
ENDBRANCH   6  13
BRANCH  10  16
HETATM   16  O   UNL     1     -10.431   9.568  71.343  1.00  0.00    -0.317 OA 
BRANCH  16  17
HETATM   17  C   UNL     1     -10.722  10.106  70.044  1.00  0.00    -0.305 C  
HETATM   18  O   UNL     1      -9.520  10.227  69.275  1.00  0.00    -0.198 OA 
HETATM   19  C   UNL     1      -9.766  10.714  67.944  1.00  0.00    -0.161 C  
HETATM   20  C   UNL     1     -10.369  12.124  67.995  1.00  0.00    -0.205 C  
HETATM   21  H   UNL     1     -13.169  12.094  70.952  1.00  0.00     0.000 HD 
HETATM   22  O   UNL     1     -12.716  11.264  70.865  1.00  0.00    -0.347 OA 
HETATM   23  C   UNL     1     -11.684  12.058  68.781  1.00  0.00    -0.321 C  
HETATM   24  O   UNL     1      -9.525  13.070  68.669  1.00  0.00    -0.380 OA 
HETATM   25  H   UNL     1     -13.072  13.325  69.353  1.00  0.00     0.000 HD 
HETATM   26  O   UNL     1     -12.257  13.366  68.865  1.00  0.00    -0.294 OA 
HETATM   27  H   UNL     1      -9.898  13.943  68.702  1.00  0.00     0.000 HD 
HETATM   28  C   UNL     1     -11.460  11.460  70.186  1.00  0.00    -0.214 C  
BRANCH  19  29
HETATM   29  C   UNL     1      -8.450  10.661  67.164  1.00  0.00    -0.128 C  
HETATM   30  O   UNL     1      -8.405  11.749  66.239  1.00  0.00    -0.351 OA 
HETATM   31  H   UNL     1      -7.588  11.717  65.755  1.00  0.00     0.000 HD 
ENDBRANCH  19  29
ENDBRANCH  16  17
ENDBRANCH  10  16
ENDBRANCH   3   4
TORSDOF 5
ENDMDL
MODEL       82
REMARK 921   NORMALIZED FREE ENERGY PREDICTED BY IDOCK:   -4.77 KCAL/MOL
REMARK 922        TOTAL FREE ENERGY PREDICTED BY IDOCK:   -7.74 KCAL/MOL
REMARK 923 INTER-LIGAND FREE ENERGY PREDICTED BY IDOCK:   -7.39 KCAL/MOL
REMARK 924 INTRA-LIGAND FREE ENERGY PREDICTED BY IDOCK:   -0.35 KCAL/MOL
REMARK 927      BINDING AFFINITY PREDICTED BY RF-SCORE:    0.00 PKD
ROOT
HETATM    1  O   UNL     1     -11.860  16.405  63.781  1.00  0.00    -1.455 OA 
HETATM    2  H   UNL     1     -12.521  16.750  63.192  1.00  0.00     0.000 HD 
HETATM    3  C   UNL     1     -12.369  15.252  64.450  1.00  0.00    -0.158 C  
ENDROOT
BRANCH   3   4
HETATM    4  C   UNL     1     -11.303  14.697  65.399  1.00  0.00    -0.344 C  
HETATM    5  O   UNL     1     -10.390  15.750  65.763  1.00  0.00    -0.322 OA 
HETATM    6  C   UNL     1      -9.901  15.436  67.070  1.00  0.00    -0.232 C  
HETATM    7  O   UNL     1      -9.592  16.666  67.736  1.00  0.00    -0.232 OA 
HETATM    8  H   UNL     1     -12.578  15.293  68.941  1.00  0.00     0.000 HD 
HETATM    9  C   UNL     1     -11.055  14.739  67.803  1.00  0.00    -0.299 C  
HETATM   10  C   UNL     1     -11.909  14.132  66.689  1.00  0.00    -0.424 C  
HETATM   11  O   UNL     1     -11.863  15.724  68.487  1.00  0.00    -0.363 OA 
HETATM   12  H   UNL     1      -9.268  16.457  68.604  1.00  0.00     0.000 HD 
BRANCH   6  13
HETATM   13  C   UNL     1      -8.625  14.589  66.950  1.00  0.00    -0.179 C  
HETATM   14  H   UNL     1      -7.344  13.799  68.202  1.00  0.00     0.000 HD 
HETATM   15  O   UNL     1      -8.133  14.322  68.276  1.00  0.00    -0.127 OA 
ENDBRANCH   6  13
BRANCH  10  16
HETATM   16  O   UNL     1     -11.853  12.698  66.731  1.00  0.00    -0.388 OA 
BRANCH  16  17
HETATM   17  C   UNL     1     -10.596  12.169  66.281  1.00  0.00    -0.250 C  
HETATM   18  O   UNL     1     -10.744  11.575  64.987  1.00  0.00    -0.285 OA 
HETATM   19  C   UNL     1      -9.498  11.075  64.467  1.00  0.00    -0.233 C  
HETATM   20  C   UNL     1      -8.949   9.965  65.373  1.00  0.00    -0.184 C  
HETATM   21  H   UNL     1      -9.461  11.228  69.211  1.00  0.00     0.000 HD 
HETATM   22  O   UNL     1      -9.802  11.843  68.572  1.00  0.00    -0.208 OA 
HETATM   23  C   UNL     1      -8.736  10.549  66.775  1.00  0.00    -0.132 C  
HETATM   24  O   UNL     1      -9.852   8.859  65.514  1.00  0.00    -0.458 OA 
HETATM   25  H   UNL     1      -8.114   9.890  68.518  1.00  0.00     0.000 HD 
HETATM   26  O   UNL     1      -8.246   9.529  67.649  1.00  0.00    -0.119 OA 
HETATM   27  H   UNL     1      -9.512   8.171  66.075  1.00  0.00     0.000 HD 
HETATM   28  C   UNL     1     -10.041  11.168  67.322  1.00  0.00    -0.188 C  
BRANCH  19  29
HETATM   29  C   UNL     1      -9.734  10.602  63.030  1.00  0.00    -0.323 C  
HETATM   30  O   UNL     1      -9.176   9.298  62.864  1.00  0.00    -0.484 OA 
HETATM   31  H   UNL     1      -9.322   9.005  61.972  1.00  0.00     0.000 HD 
ENDBRANCH  19  29
ENDBRANCH  16  17
ENDBRANCH  10  16
ENDBRANCH   3   4
TORSDOF 5
ENDMDL
MODEL       83
REMARK 921   NORMALIZED FREE ENERGY PREDICTED BY IDOCK:   -4.75 KCAL/MOL
REMARK 922        TOTAL FREE ENERGY PREDICTED BY IDOCK:   -7.72 KCAL/MOL
REMARK 923 INTER-LIGAND FREE ENERGY PREDICTED BY IDOCK:   -7.09 KCAL/MOL
REMARK 924 INTRA-LIGAND FREE ENERGY PREDICTED BY IDOCK:   -0.63 KCAL/MOL
REMARK 927      BINDING AFFINITY PREDICTED BY RF-SCORE:    0.00 PKD
ROOT
HETATM    1  O   UNL     1     -13.128  12.494  64.877  1.00  0.00    -0.833 OA 
HETATM    2  H   UNL     1     -13.197  12.303  63.948  1.00  0.00     0.000 HD 
HETATM    3  C   UNL     1     -12.156  13.517  65.085  1.00  0.00    -0.404 C  
ENDROOT
BRANCH   3   4
HETATM    4  C   UNL     1     -12.045  13.825  66.580  1.00  0.00    -0.429 C  
HETATM    5  O   UNL     1     -12.232  12.612  67.335  1.00  0.00    -0.406 OA 
HETATM    6  C   UNL     1     -11.482  12.759  68.543  1.00  0.00    -0.309 C  
HETATM    7  O   UNL     1     -11.061  11.457  68.965  1.00  0.00    -0.210 OA 
HETATM    8  H   UNL     1      -8.405  13.243  67.549  1.00  0.00     0.000 HD 
HETATM    9  C   UNL     1     -10.248  13.597  68.181  1.00  0.00    -0.247 C  
HETATM   10  C   UNL     1     -10.677  14.406  66.956  1.00  0.00    -0.285 C  
HETATM   11  O   UNL     1      -9.169  12.725  67.773  1.00  0.00    -0.183 OA 
HETATM   12  H   UNL     1     -10.562  11.555  69.767  1.00  0.00     0.000 HD 
BRANCH   6  13
HETATM   13  C   UNL     1     -12.373  13.382  69.627  1.00  0.00    -0.131 C  
HETATM   14  H   UNL     1     -12.181  14.814  70.949  1.00  0.00     0.000 HD 
HETATM   15  O   UNL     1     -11.629  14.429  70.278  1.00  0.00    -0.273 OA 
ENDBRANCH   6  13
BRANCH  10  16
HETATM   16  O   UNL     1     -10.751  15.804  67.273  1.00  0.00    -0.310 OA 
BRANCH  16  17
HETATM   17  C   UNL     1      -9.549  16.521  66.952  1.00  0.00    -0.243 C  
HETATM   18  O   UNL     1      -8.616  16.435  68.034  1.00  0.00    -0.180 OA 
HETATM   19  C   UNL     1      -7.372  17.095  67.739  1.00  0.00    -0.169 C  
HETATM   20  C   UNL     1      -7.605  18.595  67.510  1.00  0.00    -0.228 C  
HETATM   21  H   UNL     1     -10.946  18.921  65.205  1.00  0.00     0.000 HD 
HETATM   22  O   UNL     1     -10.737  18.022  65.426  1.00  0.00    -0.632 OA 
HETATM   23  C   UNL     1      -8.576  18.758  66.335  1.00  0.00    -0.284 C  
HETATM   24  O   UNL     1      -8.202  19.248  68.640  1.00  0.00    -0.356 OA 
HETATM   25  H   UNL     1      -9.432  20.248  65.386  1.00  0.00     0.000 HD 
HETATM   26  O   UNL     1      -8.830  20.148  66.113  1.00  0.00    -0.300 OA 
HETATM   27  H   UNL     1      -8.346  20.176  68.499  1.00  0.00     0.000 HD 
HETATM   28  C   UNL     1      -9.889  17.987  66.591  1.00  0.00    -0.352 C  
BRANCH  19  29
HETATM   29  C   UNL     1      -6.398  16.817  68.888  1.00  0.00    -0.172 C  
HETATM   30  O   UNL     1      -5.231  17.624  68.725  1.00  0.00    -0.151 OA 
HETATM   31  H   UNL     1      -4.627  17.451  69.437  1.00  0.00     0.000 HD 
ENDBRANCH  19  29
ENDBRANCH  16  17
ENDBRANCH  10  16
ENDBRANCH   3   4
TORSDOF 5
ENDMDL
MODEL       84
REMARK 921   NORMALIZED FREE ENERGY PREDICTED BY IDOCK:   -4.75 KCAL/MOL
REMARK 922        TOTAL FREE ENERGY PREDICTED BY IDOCK:   -7.71 KCAL/MOL
REMARK 923 INTER-LIGAND FREE ENERGY PREDICTED BY IDOCK:   -6.84 KCAL/MOL
REMARK 924 INTRA-LIGAND FREE ENERGY PREDICTED BY IDOCK:   -0.88 KCAL/MOL
REMARK 927      BINDING AFFINITY PREDICTED BY RF-SCORE:    0.00 PKD
ROOT
HETATM    1  O   UNL     1     -12.049  10.953  67.878  1.00  0.00    -0.736 OA 
HETATM    2  H   UNL     1     -12.997  10.954  67.945  1.00  0.00     0.000 HD 
HETATM    3  C   UNL     1     -11.479  11.173  69.168  1.00  0.00    -0.298 C  
ENDROOT
BRANCH   3   4
HETATM    4  C   UNL     1      -9.952  11.172  69.060  1.00  0.00    -0.137 C  
HETATM    5  O   UNL     1      -9.457   9.834  69.258  1.00  0.00    -0.172 OA 
HETATM    6  C   UNL     1      -8.243   9.730  68.511  1.00  0.00    -0.106 C  
HETATM    7  O   UNL     1      -8.091   8.365  68.101  1.00  0.00    -0.117 OA 
HETATM    8  H   UNL     1      -9.112  10.380  65.427  1.00  0.00     0.000 HD 
HETATM    9  C   UNL     1      -8.426  10.614  67.270  1.00  0.00    -0.126 C  
HETATM   10  C   UNL     1      -9.464  11.656  67.689  1.00  0.00    -0.177 C  
HETATM   11  O   UNL     1      -8.999   9.833  66.196  1.00  0.00    -0.143 OA 
HETATM   12  H   UNL     1      -7.284   8.296  67.604  1.00  0.00     0.000 HD 
BRANCH   6  13
HETATM   13  C   UNL     1      -7.057  10.128  69.402  1.00  0.00    -0.085 C  
HETATM   14  H   UNL     1      -6.626   9.989  71.307  1.00  0.00     0.000 HD 
HETATM   15  O   UNL     1      -7.359   9.743  70.756  1.00  0.00    -0.285 OA 
ENDBRANCH   6  13
BRANCH  10  16
HETATM   16  O   UNL     1      -8.872  12.962  67.755  1.00  0.00    -0.167 OA 
BRANCH  16  17
HETATM   17  C   UNL     1      -9.818  14.022  67.550  1.00  0.00    -0.236 C  
HETATM   18  O   UNL     1     -10.190  14.095  66.169  1.00  0.00    -0.286 OA 
HETATM   19  C   UNL     1     -11.179  15.110  65.920  1.00  0.00    -0.280 C  
HETATM   20  C   UNL     1     -10.621  16.496  66.272  1.00  0.00    -0.223 C  
HETATM   21  H   UNL     1      -8.627  16.091  69.800  1.00  0.00     0.000 HD 
HETATM   22  O   UNL     1      -8.986  15.270  69.483  1.00  0.00    -0.242 OA 
HETATM   23  C   UNL     1     -10.232  16.495  67.756  1.00  0.00    -0.278 C  
HETATM   24  O   UNL     1      -9.439  16.830  65.530  1.00  0.00    -0.490 OA 
HETATM   25  H   UNL     1      -9.445  17.769  69.026  1.00  0.00     0.000 HD 
HETATM   26  O   UNL     1      -9.686  17.770  68.108  1.00  0.00    -0.286 OA 
HETATM   27  H   UNL     1      -9.093  17.687  65.748  1.00  0.00     0.000 HD 
HETATM   28  C   UNL     1      -9.234  15.359  68.066  1.00  0.00    -0.184 C  
BRANCH  19  29
HETATM   29  C   UNL     1     -11.615  15.004  64.456  1.00  0.00    -0.343 C  
HETATM   30  O   UNL     1     -11.698  16.313  63.891  1.00  0.00    -1.441 OA 
HETATM   31  H   UNL     1     -11.969  16.248  62.983  1.00  0.00     0.000 HD 
ENDBRANCH  19  29
ENDBRANCH  16  17
ENDBRANCH  10  16
ENDBRANCH   3   4
TORSDOF 5
ENDMDL
MODEL       85
REMARK 921   NORMALIZED FREE ENERGY PREDICTED BY IDOCK:   -4.74 KCAL/MOL
REMARK 922        TOTAL FREE ENERGY PREDICTED BY IDOCK:   -7.71 KCAL/MOL
REMARK 923 INTER-LIGAND FREE ENERGY PREDICTED BY IDOCK:   -6.89 KCAL/MOL
REMARK 924 INTRA-LIGAND FREE ENERGY PREDICTED BY IDOCK:   -0.82 KCAL/MOL
REMARK 927      BINDING AFFINITY PREDICTED BY RF-SCORE:    0.00 PKD
ROOT
HETATM    1  O   UNL     1      -9.886  12.720  63.309  1.00  0.00    -0.541 OA 
HETATM    2  H   UNL     1      -9.876  13.166  62.470  1.00  0.00     0.000 HD 
HETATM    3  C   UNL     1     -11.217  12.695  63.823  1.00  0.00    -0.463 C  
ENDROOT
BRANCH   3   4
HETATM    4  C   UNL     1     -11.233  11.978  65.175  1.00  0.00    -0.315 C  
HETATM    5  O   UNL     1     -10.303  10.878  65.146  1.00  0.00    -0.279 OA 
HETATM    6  C   UNL     1      -9.839  10.697  66.486  1.00  0.00    -0.204 C  
HETATM    7  O   UNL     1      -8.508  10.169  66.427  1.00  0.00    -0.128 OA 
HETATM    8  H   UNL     1      -8.483  13.563  67.285  1.00  0.00     0.000 HD 
HETATM    9  C   UNL     1      -9.801  12.095  67.119  1.00  0.00    -0.197 C  
HETATM   10  C   UNL     1     -10.832  12.903  66.330  1.00  0.00    -0.275 C  
HETATM   11  O   UNL     1      -8.506  12.697  66.893  1.00  0.00    -0.184 OA 
HETATM   12  H   UNL     1      -8.199  10.049  67.317  1.00  0.00     0.000 HD 
BRANCH   6  13
HETATM   13  C   UNL     1     -10.750   9.697  67.213  1.00  0.00    -0.214 C  
HETATM   14  H   UNL     1     -11.663   9.635  68.944  1.00  0.00     0.000 HD 
HETATM   15  O   UNL     1     -11.100  10.254  68.494  1.00  0.00    -0.248 OA 
ENDBRANCH   6  13
BRANCH  10  16
HETATM   16  O   UNL     1     -11.951  13.246  67.162  1.00  0.00    -0.368 OA 
BRANCH  16  17
HETATM   17  C   UNL     1     -11.880  14.584  67.679  1.00  0.00    -0.364 C  
HETATM   18  O   UNL     1     -10.877  15.332  66.984  1.00  0.00    -0.312 OA 
HETATM   19  C   UNL     1     -10.803  16.698  67.431  1.00  0.00    -0.186 C  
HETATM   20  C   UNL     1     -10.410  16.754  68.913  1.00  0.00    -0.317 C  
HETATM   21  H   UNL     1     -12.567  13.864  70.805  1.00  0.00     0.000 HD 
HETATM   22  O   UNL     1     -12.722  13.886  69.868  1.00  0.00    -0.212 OA 
HETATM   23  C   UNL     1     -11.469  15.995  69.721  1.00  0.00    -0.318 C  
HETATM   24  O   UNL     1      -9.148  16.126  69.183  1.00  0.00    -0.243 OA 
HETATM   25  H   UNL     1     -11.772  15.540  71.607  1.00  0.00     0.000 HD 
HETATM   26  O   UNL     1     -11.116  16.011  71.107  1.00  0.00    -0.296 OA 
HETATM   27  H   UNL     1      -8.905  16.160  70.100  1.00  0.00     0.000 HD 
HETATM   28  C   UNL     1     -11.627  14.548  69.205  1.00  0.00    -0.302 C  
BRANCH  19  29
HETATM   29  C   UNL     1      -9.815  17.444  66.529  1.00  0.00    -0.304 C  
HETATM   30  O   UNL     1     -10.515  17.986  65.408  1.00  0.00    -0.621 OA 
HETATM   31  H   UNL     1      -9.903  18.448  64.848  1.00  0.00     0.000 HD 
ENDBRANCH  19  29
ENDBRANCH  16  17
ENDBRANCH  10  16
ENDBRANCH   3   4
TORSDOF 5
ENDMDL
MODEL       86
REMARK 921   NORMALIZED FREE ENERGY PREDICTED BY IDOCK:   -4.74 KCAL/MOL
REMARK 922        TOTAL FREE ENERGY PREDICTED BY IDOCK:   -7.71 KCAL/MOL
REMARK 923 INTER-LIGAND FREE ENERGY PREDICTED BY IDOCK:   -6.81 KCAL/MOL
REMARK 924 INTRA-LIGAND FREE ENERGY PREDICTED BY IDOCK:   -0.91 KCAL/MOL
REMARK 927      BINDING AFFINITY PREDICTED BY RF-SCORE:    0.00 PKD
ROOT
HETATM    1  O   UNL     1      -7.455  11.413  69.770  1.00  0.00    -0.352 OA 
HETATM    2  H   UNL     1      -6.905  12.140  70.039  1.00  0.00     0.000 HD 
HETATM    3  C   UNL     1      -7.805  11.562  68.394  1.00  0.00    -0.136 C  
ENDROOT
BRANCH   3   4
HETATM    4  C   UNL     1      -8.692  10.393  67.960  1.00  0.00    -0.123 C  
HETATM    5  O   UNL     1      -8.727   9.403  69.007  1.00  0.00    -0.129 OA 
HETATM    6  C   UNL     1      -9.993   8.746  68.908  1.00  0.00    -0.192 C  
HETATM    7  O   UNL     1     -10.367   8.306  70.219  1.00  0.00    -0.201 OA 
HETATM    8  H   UNL     1     -12.195  11.135  69.268  1.00  0.00     0.000 HD 
HETATM    9  C   UNL     1     -10.991   9.807  68.426  1.00  0.00    -0.152 C  
HETATM   10  C   UNL     1     -10.135  10.830  67.677  1.00  0.00    -0.176 C  
HETATM   11  O   UNL     1     -11.577  10.478  69.566  1.00  0.00    -0.255 OA 
HETATM   12  H   UNL     1     -11.208   7.869  70.154  1.00  0.00     0.000 HD 
BRANCH   6  13
HETATM   13  C   UNL     1      -9.867   7.528  67.980  1.00  0.00    -0.151 C  
HETATM   14  H   UNL     1     -10.837   5.844  67.739  1.00  0.00     0.000 HD 
HETATM   15  O   UNL     1     -10.915   6.597  68.312  1.00  0.00    -0.262 OA 
ENDBRANCH   6  13
BRANCH  10  16
HETATM   16  O   UNL     1     -10.440  10.815  66.275  1.00  0.00    -0.250 OA 
BRANCH  16  17
HETATM   17  C   UNL     1     -10.568  12.129  65.711  1.00  0.00    -0.260 C  
HETATM   18  O   UNL     1     -11.003  13.058  66.710  1.00  0.00    -0.268 OA 
HETATM   19  C   UNL     1     -11.096  14.403  66.207  1.00  0.00    -0.331 C  
HETATM   20  C   UNL     1     -12.141  14.480  65.086  1.00  0.00    -0.363 C  
HETATM   21  H   UNL     1     -11.572  11.211  62.726  1.00  0.00     0.000 HD 
HETATM   22  O   UNL     1     -10.984  11.234  63.472  1.00  0.00    -0.381 OA 
HETATM   23  C   UNL     1     -11.714  13.528  63.962  1.00  0.00    -0.395 C  
HETATM   24  O   UNL     1     -13.449  14.069  65.509  1.00  0.00    -0.705 OA 
HETATM   25  H   UNL     1     -12.420  12.972  62.215  1.00  0.00     0.000 HD 
HETATM   26  O   UNL     1     -12.684  13.563  62.911  1.00  0.00    -0.569 OA 
HETATM   27  H   UNL     1     -14.096  14.117  64.815  1.00  0.00     0.000 HD 
HETATM   28  C   UNL     1     -11.525  12.092  64.496  1.00  0.00    -0.319 C  
BRANCH  19  29
HETATM   29  C   UNL     1     -11.418  15.332  67.380  1.00  0.00    -0.241 C  
HETATM   30  O   UNL     1     -12.359  14.693  68.245  1.00  0.00    -0.594 OA 
HETATM   31  H   UNL     1     -12.559  15.269  68.973  1.00  0.00     0.000 HD 
ENDBRANCH  19  29
ENDBRANCH  16  17
ENDBRANCH  10  16
ENDBRANCH   3   4
TORSDOF 5
ENDMDL
MODEL       87
REMARK 921   NORMALIZED FREE ENERGY PREDICTED BY IDOCK:   -4.74 KCAL/MOL
REMARK 922        TOTAL FREE ENERGY PREDICTED BY IDOCK:   -7.71 KCAL/MOL
REMARK 923 INTER-LIGAND FREE ENERGY PREDICTED BY IDOCK:   -7.01 KCAL/MOL
REMARK 924 INTRA-LIGAND FREE ENERGY PREDICTED BY IDOCK:   -0.70 KCAL/MOL
REMARK 927      BINDING AFFINITY PREDICTED BY RF-SCORE:    0.00 PKD
ROOT
HETATM    1  O   UNL     1     -10.695  15.189  69.377  1.00  0.00    -0.243 OA 
HETATM    2  H   UNL     1     -11.250  14.624  69.904  1.00  0.00     0.000 HD 
HETATM    3  C   UNL     1     -11.508  16.061  68.593  1.00  0.00    -0.377 C  
ENDROOT
BRANCH   3   4
HETATM    4  C   UNL     1     -10.615  16.970  67.745  1.00  0.00    -0.350 C  
HETATM    5  O   UNL     1     -10.401  18.215  68.438  1.00  0.00    -0.374 OA 
HETATM    6  C   UNL     1      -9.122  18.701  68.025  1.00  0.00    -0.305 C  
HETATM    7  O   UNL     1      -8.571  19.469  69.102  1.00  0.00    -0.293 OA 
HETATM    8  H   UNL     1      -7.028  16.335  68.869  1.00  0.00     0.000 HD 
HETATM    9  C   UNL     1      -8.248  17.461  67.789  1.00  0.00    -0.216 C  
HETATM   10  C   UNL     1      -9.243  16.344  67.467  1.00  0.00    -0.198 C  
HETATM   11  O   UNL     1      -7.570  17.103  69.015  1.00  0.00    -0.244 OA 
HETATM   12  H   UNL     1      -7.720  19.791  68.828  1.00  0.00     0.000 HD 
BRANCH   6  13
HETATM   13  C   UNL     1      -9.289  19.601  66.792  1.00  0.00    -0.364 C  
HETATM   14  H   UNL     1      -8.462  19.721  65.021  1.00  0.00     0.000 HD 
HETATM   15  O   UNL     1      -8.359  19.164  65.783  1.00  0.00    -0.431 OA 
ENDBRANCH   6  13
BRANCH  10  16
HETATM   16  O   UNL     1      -9.106  15.923  66.102  1.00  0.00    -0.310 OA 
BRANCH  16  17
HETATM   17  C   UNL     1      -9.417  14.535  65.906  1.00  0.00    -0.184 C  
HETATM   18  O   UNL     1     -10.809  14.376  65.609  1.00  0.00    -0.296 OA 
HETATM   19  C   UNL     1     -11.162  13.004  65.352  1.00  0.00    -0.289 C  
HETATM   20  C   UNL     1     -10.902  12.145  66.596  1.00  0.00    -0.268 C  
HETATM   21  H   UNL     1      -7.302  13.315  68.096  1.00  0.00     0.000 HD 
HETATM   22  O   UNL     1      -7.564  13.817  67.334  1.00  0.00    -0.173 OA 
HETATM   23  C   UNL     1      -9.413  12.245  66.949  1.00  0.00    -0.217 C  
HETATM   24  O   UNL     1     -11.636  12.588  67.747  1.00  0.00    -0.303 OA 
HETATM   25  H   UNL     1      -8.223  11.534  68.340  1.00  0.00     0.000 HD 
HETATM   26  O   UNL     1      -9.146  11.471  68.121  1.00  0.00    -0.167 OA 
HETATM   27  H   UNL     1     -11.475  12.056  68.518  1.00  0.00     0.000 HD 
HETATM   28  C   UNL     1      -8.990  13.717  67.148  1.00  0.00    -0.231 C  
BRANCH  19  29
HETATM   29  C   UNL     1     -12.624  12.963  64.900  1.00  0.00    -0.458 C  
HETATM   30  O   UNL     1     -12.682  12.625  63.514  1.00  0.00    -0.719 OA 
HETATM   31  H   UNL     1     -13.589  12.599  63.233  1.00  0.00     0.000 HD 
ENDBRANCH  19  29
ENDBRANCH  16  17
ENDBRANCH  10  16
ENDBRANCH   3   4
TORSDOF 5
ENDMDL
MODEL       88
REMARK 921   NORMALIZED FREE ENERGY PREDICTED BY IDOCK:   -4.74 KCAL/MOL
REMARK 922        TOTAL FREE ENERGY PREDICTED BY IDOCK:   -7.71 KCAL/MOL
REMARK 923 INTER-LIGAND FREE ENERGY PREDICTED BY IDOCK:   -6.68 KCAL/MOL
REMARK 924 INTRA-LIGAND FREE ENERGY PREDICTED BY IDOCK:   -1.02 KCAL/MOL
REMARK 927      BINDING AFFINITY PREDICTED BY RF-SCORE:    0.00 PKD
ROOT
HETATM    1  O   UNL     1     -12.047  11.023  68.122  1.00  0.00    -0.743 OA 
HETATM    2  H   UNL     1     -12.268  10.642  68.964  1.00  0.00     0.000 HD 
HETATM    3  C   UNL     1     -11.842  12.427  68.271  1.00  0.00    -0.309 C  
ENDROOT
BRANCH   3   4
HETATM    4  C   UNL     1     -11.487  13.041  66.914  1.00  0.00    -0.339 C  
HETATM    5  O   UNL     1     -11.842  14.437  66.912  1.00  0.00    -0.392 OA 
HETATM    6  C   UNL     1     -10.936  15.089  66.018  1.00  0.00    -0.334 C  
HETATM    7  O   UNL     1     -10.763  16.438  66.469  1.00  0.00    -0.270 OA 
HETATM    8  H   UNL     1      -7.971  14.477  67.252  1.00  0.00     0.000 HD 
HETATM    9  C   UNL     1      -9.602  14.340  66.136  1.00  0.00    -0.275 C  
HETATM   10  C   UNL     1      -9.989  12.936  66.602  1.00  0.00    -0.251 C  
HETATM   11  O   UNL     1      -8.798  14.940  67.178  1.00  0.00    -0.191 OA 
HETATM   12  H   UNL     1     -10.161  16.872  65.875  1.00  0.00     0.000 HD 
BRANCH   6  13
HETATM   13  C   UNL     1     -11.532  15.100  64.602  1.00  0.00    -0.362 C  
HETATM   14  H   UNL     1     -11.805  16.446  63.206  1.00  0.00     0.000 HD 
HETATM   15  O   UNL     1     -11.437  16.439  64.081  1.00  0.00    -0.951 OA 
ENDBRANCH   6  13
BRANCH  10  16
HETATM   16  O   UNL     1      -9.717  11.970  65.575  1.00  0.00    -0.238 OA 
BRANCH  16  17
HETATM   17  C   UNL     1      -9.121  10.763  66.078  1.00  0.00    -0.185 C  
HETATM   18  O   UNL     1     -10.138   9.842  66.487  1.00  0.00    -0.222 OA 
HETATM   19  C   UNL     1      -9.592   8.594  66.951  1.00  0.00    -0.194 C  
HETATM   20  C   UNL     1      -8.717   8.823  68.191  1.00  0.00    -0.134 C  
HETATM   21  H   UNL     1      -6.474  12.139  67.443  1.00  0.00     0.000 HD 
HETATM   22  O   UNL     1      -7.076  11.933  66.737  1.00  0.00    -0.107 OA 
HETATM   23  C   UNL     1      -7.582   9.781  67.809  1.00  0.00    -0.090 C  
HETATM   24  O   UNL     1      -9.431   9.431  69.277  1.00  0.00    -0.154 OA 
HETATM   25  H   UNL     1      -6.060  10.626  68.717  1.00  0.00     0.000 HD 
HETATM   26  O   UNL     1      -6.762  10.032  68.954  1.00  0.00    -0.052 OA 
HETATM   27  H   UNL     1      -8.890   9.573  70.044  1.00  0.00     0.000 HD 
HETATM   28  C   UNL     1      -8.142  11.098  67.229  1.00  0.00    -0.137 C  
BRANCH  19  29
HETATM   29  C   UNL     1     -10.754   7.633  67.218  1.00  0.00    -0.274 C  
HETATM   30  O   UNL     1     -10.615   6.480  66.386  1.00  0.00    -0.480 OA 
HETATM   31  H   UNL     1     -11.336   5.884  66.551  1.00  0.00     0.000 HD 
ENDBRANCH  19  29
ENDBRANCH  16  17
ENDBRANCH  10  16
ENDBRANCH   3   4
TORSDOF 5
ENDMDL
MODEL       89
REMARK 921   NORMALIZED FREE ENERGY PREDICTED BY IDOCK:   -4.72 KCAL/MOL
REMARK 922        TOTAL FREE ENERGY PREDICTED BY IDOCK:   -7.69 KCAL/MOL
REMARK 923 INTER-LIGAND FREE ENERGY PREDICTED BY IDOCK:   -6.65 KCAL/MOL
REMARK 924 INTRA-LIGAND FREE ENERGY PREDICTED BY IDOCK:   -1.04 KCAL/MOL
REMARK 927      BINDING AFFINITY PREDICTED BY RF-SCORE:    0.00 PKD
ROOT
HETATM    1  O   UNL     1     -10.034   8.163  66.098  1.00  0.00    -0.463 OA 
HETATM    2  H   UNL     1      -9.703   7.601  65.407  1.00  0.00     0.000 HD 
HETATM    3  C   UNL     1     -10.223   7.399  67.289  1.00  0.00    -0.260 C  
ENDROOT
BRANCH   3   4
HETATM    4  C   UNL     1     -10.756   8.304  68.402  1.00  0.00    -0.019 C  
HETATM    5  O   UNL     1     -10.251   7.851  69.672  1.00  0.00    -0.197 OA 
HETATM    6  C   UNL     1     -10.164   9.003  70.515  1.00  0.00    -0.219 C  
HETATM    7  O   UNL     1      -9.098   8.790  71.448  1.00  0.00    -0.201 OA 
HETATM    8  H   UNL     1      -8.147  11.032  68.934  1.00  0.00     0.000 HD 
HETATM    9  C   UNL     1      -9.806  10.179  69.597  1.00  0.00    -0.225 C  
HETATM   10  C   UNL     1     -10.327   9.765  68.219  1.00  0.00    -0.198 C  
HETATM   11  O   UNL     1      -8.369  10.304  69.502  1.00  0.00    -0.164 OA 
HETATM   12  H   UNL     1      -9.040   9.556  72.008  1.00  0.00     0.000 HD 
BRANCH   6  13
HETATM   13  C   UNL     1     -11.483   9.178  71.282  1.00  0.00    -0.335 C  
HETATM   14  H   UNL     1     -12.729  10.653  71.612  1.00  0.00     0.000 HD 
HETATM   15  O   UNL     1     -11.913  10.544  71.137  1.00  0.00    -0.352 OA 
ENDBRANCH   6  13
BRANCH  10  16
HETATM   16  O   UNL     1     -11.420  10.605  67.818  1.00  0.00    -0.460 OA 
BRANCH  16  17
HETATM   17  C   UNL     1     -10.996  11.878  67.306  1.00  0.00    -0.268 C  
HETATM   18  O   UNL     1     -11.607  12.939  68.048  1.00  0.00    -0.298 OA 
HETATM   19  C   UNL     1     -11.173  14.238  67.607  1.00  0.00    -0.304 C  
HETATM   20  C   UNL     1     -11.578  14.468  66.145  1.00  0.00    -0.365 C  
HETATM   21  H   UNL     1     -10.771  11.009  64.151  1.00  0.00     0.000 HD 
HETATM   22  O   UNL     1     -10.579  10.953  65.080  1.00  0.00    -0.286 OA 
HETATM   23  C   UNL     1     -10.925  13.377  65.287  1.00  0.00    -0.295 C  
HETATM   24  O   UNL     1     -12.994  14.373  65.934  1.00  0.00    -0.432 OA 
HETATM   25  H   UNL     1     -10.900  12.876  63.388  1.00  0.00     0.000 HD 
HETATM   26  O   UNL     1     -11.305  13.552  63.919  1.00  0.00    -0.333 OA 
HETATM   27  H   UNL     1     -13.245  14.515  65.029  1.00  0.00     0.000 HD 
HETATM   28  C   UNL     1     -11.309  11.970  65.793  1.00  0.00    -0.331 C  
BRANCH  19  29
HETATM   29  C   UNL     1     -11.761  15.287  68.555  1.00  0.00    -0.332 C  
HETATM   30  O   UNL     1     -11.370  16.590  68.119  1.00  0.00    -0.308 OA 
HETATM   31  H   UNL     1     -11.735  17.241  68.707  1.00  0.00     0.000 HD 
ENDBRANCH  19  29
ENDBRANCH  16  17
ENDBRANCH  10  16
ENDBRANCH   3   4
TORSDOF 5
ENDMDL
MODEL       90
REMARK 921   NORMALIZED FREE ENERGY PREDICTED BY IDOCK:   -4.72 KCAL/MOL
REMARK 922        TOTAL FREE ENERGY PREDICTED BY IDOCK:   -7.68 KCAL/MOL
REMARK 923 INTER-LIGAND FREE ENERGY PREDICTED BY IDOCK:   -6.56 KCAL/MOL
REMARK 924 INTRA-LIGAND FREE ENERGY PREDICTED BY IDOCK:   -1.12 KCAL/MOL
REMARK 927      BINDING AFFINITY PREDICTED BY RF-SCORE:    0.00 PKD
ROOT
HETATM    1  O   UNL     1      -8.285  12.411  67.514  1.00  0.00    -0.152 OA 
HETATM    2  H   UNL     1      -7.591  13.041  67.356  1.00  0.00     0.000 HD 
HETATM    3  C   UNL     1      -8.223  11.374  66.535  1.00  0.00    -0.152 C  
ENDROOT
BRANCH   3   4
HETATM    4  C   UNL     1      -9.340  10.359  66.790  1.00  0.00    -0.156 C  
HETATM    5  O   UNL     1      -8.767   9.118  67.244  1.00  0.00    -0.117 OA 
HETATM    6  C   UNL     1      -9.743   8.498  68.084  1.00  0.00    -0.155 C  
HETATM    7  O   UNL     1      -9.051   7.707  69.058  1.00  0.00    -0.144 OA 
HETATM    8  H   UNL     1     -10.274  10.665  70.473  1.00  0.00     0.000 HD 
HETATM    9  C   UNL     1     -10.485   9.638  68.794  1.00  0.00    -0.215 C  
HETATM   10  C   UNL     1     -10.330  10.839  67.859  1.00  0.00    -0.185 C  
HETATM   11  O   UNL     1      -9.814   9.959  70.034  1.00  0.00    -0.241 OA 
HETATM   12  H   UNL     1      -9.699   7.294  69.617  1.00  0.00     0.000 HD 
BRANCH   6  13
HETATM   13  C   UNL     1     -10.644   7.586  67.237  1.00  0.00    -0.324 C  
HETATM   14  H   UNL     1     -11.757   6.011  67.574  1.00  0.00     0.000 HD 
HETATM   15  O   UNL     1     -11.200   6.575  68.098  1.00  0.00    -0.275 OA 
ENDBRANCH   6  13
BRANCH  10  16
HETATM   16  O   UNL     1     -11.597  11.210  67.296  1.00  0.00    -0.514 OA 
BRANCH  16  17
HETATM   17  C   UNL     1     -11.794  12.631  67.235  1.00  0.00    -0.328 C  
HETATM   18  O   UNL     1     -11.054  13.187  66.142  1.00  0.00    -0.278 OA 
HETATM   19  C   UNL     1     -11.260  14.605  66.006  1.00  0.00    -0.342 C  
HETATM   20  C   UNL     1     -10.764  15.339  67.259  1.00  0.00    -0.311 C  
HETATM   21  H   UNL     1     -12.022  13.164  70.464  1.00  0.00     0.000 HD 
HETATM   22  O   UNL     1     -12.258  12.768  69.633  1.00  0.00    -0.234 OA 
HETATM   23  C   UNL     1     -11.544  14.810  68.468  1.00  0.00    -0.321 C  
HETATM   24  O   UNL     1      -9.372  15.112  67.527  1.00  0.00    -0.194 OA 
HETATM   25  H   UNL     1     -11.569  15.132  70.405  1.00  0.00     0.000 HD 
HETATM   26  O   UNL     1     -11.085  15.461  69.656  1.00  0.00    -0.238 OA 
HETATM   27  H   UNL     1      -9.065  15.566  68.303  1.00  0.00     0.000 HD 
HETATM   28  C   UNL     1     -11.408  13.277  68.588  1.00  0.00    -0.288 C  
BRANCH  19  29
HETATM   29  C   UNL     1     -10.554  15.071  64.730  1.00  0.00    -0.291 C  
HETATM   30  O   UNL     1     -11.181  16.261  64.250  1.00  0.00    -1.101 OA 
HETATM   31  H   UNL     1     -10.743  16.550  63.458  1.00  0.00     0.000 HD 
ENDBRANCH  19  29
ENDBRANCH  16  17
ENDBRANCH  10  16
ENDBRANCH   3   4
TORSDOF 5
ENDMDL
MODEL       91
REMARK 921   NORMALIZED FREE ENERGY PREDICTED BY IDOCK:   -4.69 KCAL/MOL
REMARK 922        TOTAL FREE ENERGY PREDICTED BY IDOCK:   -7.64 KCAL/MOL
REMARK 923 INTER-LIGAND FREE ENERGY PREDICTED BY IDOCK:   -6.64 KCAL/MOL
REMARK 924 INTRA-LIGAND FREE ENERGY PREDICTED BY IDOCK:   -1.01 KCAL/MOL
REMARK 927      BINDING AFFINITY PREDICTED BY RF-SCORE:    0.00 PKD
ROOT
HETATM    1  O   UNL     1      -9.327   7.091  69.087  1.00  0.00    -0.142 OA 
HETATM    2  H   UNL     1      -8.791   6.507  68.563  1.00  0.00     0.000 HD 
HETATM    3  C   UNL     1     -10.663   6.592  69.144  1.00  0.00    -0.264 C  
ENDROOT
BRANCH   3   4
HETATM    4  C   UNL     1     -11.526   7.533  69.988  1.00  0.00    -0.029 C  
HETATM    5  O   UNL     1     -11.661   6.998  71.318  1.00  0.00    -0.272 OA 
HETATM    6  C   UNL     1     -11.827   8.114  72.196  1.00  0.00    -0.359 C  
HETATM    7  O   UNL     1     -11.288   7.757  73.475  1.00  0.00    -0.547 OA 
HETATM    8  H   UNL     1      -9.136   9.918  71.757  1.00  0.00     0.000 HD 
HETATM    9  C   UNL     1     -10.996   9.257  71.598  1.00  0.00    -0.363 C  
HETATM   10  C   UNL     1     -10.917   8.936  70.105  1.00  0.00    -0.227 C  
HETATM   11  O   UNL     1      -9.651   9.210  72.127  1.00  0.00    -0.276 OA 
HETATM   12  H   UNL     1     -11.399   8.498  74.058  1.00  0.00     0.000 HD 
BRANCH   6  13
HETATM   13  C   UNL     1     -13.323   8.431  72.345  1.00  0.00    -0.209 C  
HETATM   14  H   UNL     1     -14.418  10.054  72.354  1.00  0.00     0.000 HD 
HETATM   15  O   UNL     1     -13.493   9.858  72.261  1.00  0.00    -0.430 OA 
ENDBRANCH   6  13
BRANCH  10  16
HETATM   16  O   UNL     1     -11.644   9.908  69.339  1.00  0.00    -0.098 OA 
BRANCH  16  17
HETATM   17  C   UNL     1     -11.208  11.255  69.577  1.00  0.00    -0.272 C  
HETATM   18  O   UNL     1     -12.282  12.036  70.113  1.00  0.00    -0.287 OA 
HETATM   19  C   UNL     1     -11.881  13.384  70.419  1.00  0.00    -0.208 C  
HETATM   20  C   UNL     1     -11.436  14.111  69.143  1.00  0.00    -0.296 C  
HETATM   21  H   UNL     1      -9.142  11.484  67.040  1.00  0.00     0.000 HD 
HETATM   22  O   UNL     1      -9.491  11.110  67.840  1.00  0.00    -0.167 OA 
HETATM   23  C   UNL     1     -10.259  13.339  68.534  1.00  0.00    -0.220 C  
HETATM   24  O   UNL     1     -12.463  14.165  68.142  1.00  0.00    -0.541 OA 
HETATM   25  H   UNL     1      -9.110  13.503  66.950  1.00  0.00     0.000 HD 
HETATM   26  O   UNL     1      -9.838  13.982  67.327  1.00  0.00    -0.235 OA 
HETATM   27  H   UNL     1     -12.188  14.615  67.351  1.00  0.00     0.000 HD 
HETATM   28  C   UNL     1     -10.640  11.865  68.273  1.00  0.00    -0.213 C  
BRANCH  19  29
HETATM   29  C   UNL     1     -13.048  14.083  71.121  1.00  0.00    -0.303 C  
HETATM   30  O   UNL     1     -13.313  15.328  70.472  1.00  0.00    -0.679 OA 
HETATM   31  H   UNL     1     -14.037  15.762  70.908  1.00  0.00     0.000 HD 
ENDBRANCH  19  29
ENDBRANCH  16  17
ENDBRANCH  10  16
ENDBRANCH   3   4
TORSDOF 5
ENDMDL
MODEL       92
REMARK 921   NORMALIZED FREE ENERGY PREDICTED BY IDOCK:   -4.65 KCAL/MOL
REMARK 922        TOTAL FREE ENERGY PREDICTED BY IDOCK:   -7.59 KCAL/MOL
REMARK 923 INTER-LIGAND FREE ENERGY PREDICTED BY IDOCK:   -6.53 KCAL/MOL
REMARK 924 INTRA-LIGAND FREE ENERGY PREDICTED BY IDOCK:   -1.06 KCAL/MOL
REMARK 927      BINDING AFFINITY PREDICTED BY RF-SCORE:    0.00 PKD
ROOT
HETATM    1  O   UNL     1      -8.510   7.067  69.190  1.00  0.00    -0.127 OA 
HETATM    2  H   UNL     1      -7.998   6.415  68.725  1.00  0.00     0.000 HD 
HETATM    3  C   UNL     1      -9.886   6.940  68.831  1.00  0.00    -0.147 C  
ENDROOT
BRANCH   3   4
HETATM    4  C   UNL     1     -10.711   7.989  69.580  1.00  0.00    -0.207 C  
HETATM    5  O   UNL     1     -11.564   7.334  70.538  1.00  0.00    -0.292 OA 
HETATM    6  C   UNL     1     -11.760   8.257  71.613  1.00  0.00    -0.292 C  
HETATM    7  O   UNL     1     -11.966   7.502  72.813  1.00  0.00    -0.558 OA 
HETATM    8  H   UNL     1      -8.749   8.879  72.725  1.00  0.00     0.000 HD 
HETATM    9  C   UNL     1     -10.455   9.055  71.735  1.00  0.00    -0.348 C  
HETATM   10  C   UNL     1      -9.830   8.988  70.341  1.00  0.00    -0.202 C  
HETATM   11  O   UNL     1      -9.557   8.385  72.649  1.00  0.00    -0.277 OA 
HETATM   12  H   UNL     1     -12.095   8.115  73.528  1.00  0.00     0.000 HD 
BRANCH   6  13
HETATM   13  C   UNL     1     -13.003   9.114  71.333  1.00  0.00    -0.307 C  
HETATM   14  H   UNL     1     -13.477  11.004  71.533  1.00  0.00     0.000 HD 
HETATM   15  O   UNL     1     -12.708  10.473  71.706  1.00  0.00    -0.420 OA 
ENDBRANCH   6  13
BRANCH  10  16
HETATM   16  O   UNL     1      -9.827  10.285  69.725  1.00  0.00    -0.224 OA 
BRANCH  16  17
HETATM   17  C   UNL     1     -10.043  10.237  68.306  1.00  0.00    -0.154 C  
HETATM   18  O   UNL     1      -8.794  10.308  67.611  1.00  0.00    -0.122 OA 
HETATM   19  C   UNL     1      -8.953  10.211  66.184  1.00  0.00    -0.150 C  
HETATM   20  C   UNL     1      -9.787  11.387  65.659  1.00  0.00    -0.235 C  
HETATM   21  H   UNL     1     -12.884  11.877  68.257  1.00  0.00     0.000 HD 
HETATM   22  O   UNL     1     -12.290  11.183  68.518  1.00  0.00    -0.561 OA 
HETATM   23  C   UNL     1     -11.159  11.348  66.344  1.00  0.00    -0.240 C  
HETATM   24  O   UNL     1      -9.206  12.664  65.959  1.00  0.00    -0.419 OA 
HETATM   25  H   UNL     1     -12.801  12.425  66.314  1.00  0.00     0.000 HD 
HETATM   26  O   UNL     1     -11.951  12.449  65.890  1.00  0.00    -0.516 OA 
HETATM   27  H   UNL     1      -9.722  13.393  65.634  1.00  0.00     0.000 HD 
HETATM   28  C   UNL     1     -11.011  11.367  67.880  1.00  0.00    -0.240 C  
BRANCH  19  29
HETATM   29  C   UNL     1      -7.560  10.145  65.551  1.00  0.00    -0.146 C  
HETATM   30  O   UNL     1      -6.785  11.258  65.996  1.00  0.00    -0.349 OA 
HETATM   31  H   UNL     1      -5.921  11.218  65.603  1.00  0.00     0.000 HD 
ENDBRANCH  19  29
ENDBRANCH  16  17
ENDBRANCH  10  16
ENDBRANCH   3   4
TORSDOF 5
ENDMDL
MODEL       93
REMARK 921   NORMALIZED FREE ENERGY PREDICTED BY IDOCK:   -4.63 KCAL/MOL
REMARK 922        TOTAL FREE ENERGY PREDICTED BY IDOCK:   -7.57 KCAL/MOL
REMARK 923 INTER-LIGAND FREE ENERGY PREDICTED BY IDOCK:   -6.45 KCAL/MOL
REMARK 924 INTRA-LIGAND FREE ENERGY PREDICTED BY IDOCK:   -1.12 KCAL/MOL
REMARK 927      BINDING AFFINITY PREDICTED BY RF-SCORE:    0.00 PKD
ROOT
HETATM    1  O   UNL     1      -9.839  12.158  64.586  1.00  0.00    -0.398 OA 
HETATM    2  H   UNL     1      -9.654  12.232  63.657  1.00  0.00     0.000 HD 
HETATM    3  C   UNL     1     -10.283  10.835  64.883  1.00  0.00    -0.320 C  
ENDROOT
BRANCH   3   4
HETATM    4  C   UNL     1     -10.582  10.716  66.379  1.00  0.00    -0.175 C  
HETATM    5  O   UNL     1      -9.818   9.629  66.936  1.00  0.00    -0.178 OA 
HETATM    6  C   UNL     1      -9.570   9.960  68.305  1.00  0.00    -0.140 C  
HETATM    7  O   UNL     1      -8.330   9.354  68.690  1.00  0.00    -0.114 OA 
HETATM    8  H   UNL     1      -7.950  12.797  68.188  1.00  0.00     0.000 HD 
HETATM    9  C   UNL     1      -9.425  11.487  68.357  1.00  0.00    -0.195 C  
HETATM   10  C   UNL     1     -10.217  11.991  67.149  1.00  0.00    -0.202 C  
HETATM   11  O   UNL     1      -8.040  11.852  68.155  1.00  0.00    -0.138 OA 
HETATM   12  H   UNL     1      -8.166   9.574  69.599  1.00  0.00     0.000 HD 
BRANCH   6  13
HETATM   13  C   UNL     1     -10.702   9.402  69.181  1.00  0.00    -0.197 C  
HETATM   14  H   UNL     1     -11.373   9.742  70.989  1.00  0.00     0.000 HD 
HETATM   15  O   UNL     1     -10.673  10.087  70.447  1.00  0.00    -0.287 OA 
ENDBRANCH   6  13
BRANCH  10  16
HETATM   16  O   UNL     1     -11.379  12.719  67.573  1.00  0.00    -0.276 OA 
BRANCH  16  17
HETATM   17  C   UNL     1     -11.282  13.200  68.923  1.00  0.00    -0.277 C  
HETATM   18  O   UNL     1     -12.401  12.747  69.692  1.00  0.00    -0.154 OA 
HETATM   19  C   UNL     1     -12.324  13.161  71.069  1.00  0.00    -0.265 C  
HETATM   20  C   UNL     1     -12.345  14.692  71.168  1.00  0.00    -0.335 C  
HETATM   21  H   UNL     1      -9.881  16.087  68.240  1.00  0.00     0.000 HD 
HETATM   22  O   UNL     1      -9.957  15.140  68.239  1.00  0.00    -0.217 OA 
HETATM   23  C   UNL     1     -11.145  15.241  70.387  1.00  0.00    -0.298 C  
HETATM   24  O   UNL     1     -13.522  15.275  70.591  1.00  0.00    -0.690 OA 
HETATM   25  H   UNL     1     -10.409  17.011  69.959  1.00  0.00     0.000 HD 
HETATM   26  O   UNL     1     -11.152  16.671  70.443  1.00  0.00    -0.283 OA 
HETATM   27  H   UNL     1     -13.535  16.223  70.651  1.00  0.00     0.000 HD 
HETATM   28  C   UNL     1     -11.160  14.743  68.926  1.00  0.00    -0.252 C  
BRANCH  19  29
HETATM   29  C   UNL     1     -13.478  12.503  71.831  1.00  0.00    -0.296 C  
HETATM   30  O   UNL     1     -14.148  13.490  72.617  1.00  0.00    -0.762 OA 
HETATM   31  H   UNL     1     -14.864  13.083  73.090  1.00  0.00     0.000 HD 
ENDBRANCH  19  29
ENDBRANCH  16  17
ENDBRANCH  10  16
ENDBRANCH   3   4
TORSDOF 5
ENDMDL
MODEL       94
REMARK 921   NORMALIZED FREE ENERGY PREDICTED BY IDOCK:   -4.62 KCAL/MOL
REMARK 922        TOTAL FREE ENERGY PREDICTED BY IDOCK:   -7.55 KCAL/MOL
REMARK 923 INTER-LIGAND FREE ENERGY PREDICTED BY IDOCK:   -6.62 KCAL/MOL
REMARK 924 INTRA-LIGAND FREE ENERGY PREDICTED BY IDOCK:   -0.94 KCAL/MOL
REMARK 927      BINDING AFFINITY PREDICTED BY RF-SCORE:    0.00 PKD
ROOT
HETATM    1  O   UNL     1     -13.091  12.630  64.890  1.00  0.00    -0.850 OA 
HETATM    2  H   UNL     1     -13.787  12.918  64.310  1.00  0.00     0.000 HD 
HETATM    3  C   UNL     1     -12.660  13.723  65.700  1.00  0.00    -0.509 C  
ENDROOT
BRANCH   3   4
HETATM    4  C   UNL     1     -11.540  13.259  66.634  1.00  0.00    -0.365 C  
HETATM    5  O   UNL     1     -10.649  14.359  66.899  1.00  0.00    -0.274 OA 
HETATM    6  C   UNL     1     -10.098  14.138  68.200  1.00  0.00    -0.239 C  
HETATM    7  O   UNL     1      -9.805  15.415  68.779  1.00  0.00    -0.196 OA 
HETATM    8  H   UNL     1     -12.692  14.024  70.186  1.00  0.00     0.000 HD 
HETATM    9  C   UNL     1     -11.198  13.451  69.020  1.00  0.00    -0.275 C  
HETATM   10  C   UNL     1     -12.075  12.753  67.979  1.00  0.00    -0.121 C  
HETATM   11  O   UNL     1     -12.011  14.450  69.678  1.00  0.00    -0.298 OA 
HETATM   12  H   UNL     1      -9.439  15.269  69.644  1.00  0.00     0.000 HD 
BRANCH   6  13
HETATM   13  C   UNL     1      -8.800  13.326  68.076  1.00  0.00    -0.190 C  
HETATM   14  H   UNL     1      -7.094  13.544  67.140  1.00  0.00     0.000 HD 
HETATM   15  O   UNL     1      -7.896  14.046  67.217  1.00  0.00    -0.179 OA 
ENDBRANCH   6  13
BRANCH  10  16
HETATM   16  O   UNL     1     -11.969  11.326  68.103  1.00  0.00    -0.610 OA 
BRANCH  16  17
HETATM   17  C   UNL     1     -11.176  10.915  69.227  1.00  0.00    -0.265 C  
HETATM   18  O   UNL     1     -10.045  10.157  68.786  1.00  0.00    -0.171 OA 
HETATM   19  C   UNL     1      -9.189   9.764  69.874  1.00  0.00    -0.234 C  
HETATM   20  C   UNL     1      -9.947   8.850  70.845  1.00  0.00    -0.242 C  
HETATM   21  H   UNL     1     -13.645  10.481  71.344  1.00  0.00     0.000 HD 
HETATM   22  O   UNL     1     -13.107  10.967  70.730  1.00  0.00    -0.272 OA 
HETATM   23  C   UNL     1     -11.160   9.618  71.383  1.00  0.00    -0.326 C  
HETATM   24  O   UNL     1     -10.449   7.660  70.219  1.00  0.00    -0.214 OA 
HETATM   25  H   UNL     1     -12.652   9.256  72.608  1.00  0.00     0.000 HD 
HETATM   26  O   UNL     1     -11.900   8.780  72.275  1.00  0.00    -0.360 OA 
HETATM   27  H   UNL     1     -10.919   7.094  70.820  1.00  0.00     0.000 HD 
HETATM   28  C   UNL     1     -12.052  10.123  70.229  1.00  0.00    -0.204 C  
BRANCH  19  29
HETATM   29  C   UNL     1      -7.942   9.098  69.286  1.00  0.00    -0.097 C  
HETATM   30  O   UNL     1      -8.287   8.445  68.064  1.00  0.00    -0.125 OA 
HETATM   31  H   UNL     1      -7.514   8.031  67.699  1.00  0.00     0.000 HD 
ENDBRANCH  19  29
ENDBRANCH  16  17
ENDBRANCH  10  16
ENDBRANCH   3   4
TORSDOF 5
ENDMDL
MODEL       95
REMARK 921   NORMALIZED FREE ENERGY PREDICTED BY IDOCK:   -4.56 KCAL/MOL
REMARK 922        TOTAL FREE ENERGY PREDICTED BY IDOCK:   -7.48 KCAL/MOL
REMARK 923 INTER-LIGAND FREE ENERGY PREDICTED BY IDOCK:   -5.67 KCAL/MOL
REMARK 924 INTRA-LIGAND FREE ENERGY PREDICTED BY IDOCK:   -1.80 KCAL/MOL
REMARK 927      BINDING AFFINITY PREDICTED BY RF-SCORE:    0.00 PKD
ROOT
HETATM    1  O   UNL     1      -8.489  13.428  68.952  1.00  0.00    -0.360 OA 
HETATM    2  H   UNL     1      -7.952  14.175  69.192  1.00  0.00     0.000 HD 
HETATM    3  C   UNL     1      -7.806  12.641  67.977  1.00  0.00    -0.149 C  
ENDROOT
BRANCH   3   4
HETATM    4  C   UNL     1      -8.670  11.439  67.589  1.00  0.00    -0.136 C  
HETATM    5  O   UNL     1      -7.894  10.232  67.707  1.00  0.00    -0.100 OA 
HETATM    6  C   UNL     1      -8.812   9.182  68.021  1.00  0.00    -0.129 C  
HETATM    7  O   UNL     1      -8.114   8.199  68.795  1.00  0.00    -0.116 OA 
HETATM    8  H   UNL     1     -10.226  10.128  70.813  1.00  0.00     0.000 HD 
HETATM    9  C   UNL     1      -9.912   9.817  68.883  1.00  0.00    -0.176 C  
HETATM   10  C   UNL     1      -9.904  11.295  68.489  1.00  0.00    -0.197 C  
HETATM   11  O   UNL     1      -9.545   9.735  70.279  1.00  0.00    -0.249 OA 
HETATM   12  H   UNL     1      -8.724   7.501  69.004  1.00  0.00     0.000 HD 
BRANCH   6  13
HETATM   13  C   UNL     1      -9.320   8.538  66.722  1.00  0.00    -0.182 C  
HETATM   14  H   UNL     1     -11.026   7.815  66.088  1.00  0.00     0.000 HD 
HETATM   15  O   UNL     1     -10.712   8.213  66.892  1.00  0.00    -0.309 OA 
ENDBRANCH   6  13
BRANCH  10  16
HETATM   16  O   UNL     1     -11.117  11.643  67.805  1.00  0.00    -0.217 OA 
BRANCH  16  17
HETATM   17  C   UNL     1     -11.745  12.822  68.332  1.00  0.00    -0.339 C  
HETATM   18  O   UNL     1     -11.001  13.988  67.960  1.00  0.00    -0.242 OA 
HETATM   19  C   UNL     1     -11.619  15.203  68.421  1.00  0.00    -0.337 C  
HETATM   20  C   UNL     1     -11.681  15.221  69.954  1.00  0.00    -0.323 C  
HETATM   21  H   UNL     1     -12.849  11.499  71.123  1.00  0.00     0.000 HD 
HETATM   22  O   UNL     1     -12.753  11.577  70.181  1.00  0.00    -0.107 OA 
HETATM   23  C   UNL     1     -12.498  14.009  70.418  1.00  0.00    -0.350 C  
HETATM   24  O   UNL     1     -10.389  15.115  70.569  1.00  0.00    -0.508 OA 
HETATM   25  H   UNL     1     -13.058  13.236  72.134  1.00  0.00     0.000 HD 
HETATM   26  O   UNL     1     -12.553  13.988  71.847  1.00  0.00    -0.317 OA 
HETATM   27  H   UNL     1     -10.427  15.126  71.518  1.00  0.00     0.000 HD 
HETATM   28  C   UNL     1     -11.902  12.696  69.866  1.00  0.00    -0.294 C  
BRANCH  19  29
HETATM   29  C   UNL     1     -10.835  16.386  67.847  1.00  0.00    -0.328 C  
HETATM   30  O   UNL     1      -9.436  16.154  68.019  1.00  0.00    -0.209 OA 
HETATM   31  H   UNL     1      -8.949  16.888  67.663  1.00  0.00     0.000 HD 
ENDBRANCH  19  29
ENDBRANCH  16  17
ENDBRANCH  10  16
ENDBRANCH   3   4
TORSDOF 5
ENDMDL
MODEL       96
REMARK 921   NORMALIZED FREE ENERGY PREDICTED BY IDOCK:   -4.56 KCAL/MOL
REMARK 922        TOTAL FREE ENERGY PREDICTED BY IDOCK:   -7.47 KCAL/MOL
REMARK 923 INTER-LIGAND FREE ENERGY PREDICTED BY IDOCK:   -6.98 KCAL/MOL
REMARK 924 INTRA-LIGAND FREE ENERGY PREDICTED BY IDOCK:   -0.49 KCAL/MOL
REMARK 927      BINDING AFFINITY PREDICTED BY RF-SCORE:    0.00 PKD
ROOT
HETATM    1  O   UNL     1      -7.123  21.067  65.735  1.00  0.00    -0.494 OA 
HETATM    2  H   UNL     1      -7.305  21.623  64.987  1.00  0.00     0.000 HD 
HETATM    3  C   UNL     1      -7.551  19.734  65.457  1.00  0.00    -0.099 C  
ENDROOT
BRANCH   3   4
HETATM    4  C   UNL     1      -7.258  18.838  66.663  1.00  0.00    -0.217 C  
HETATM    5  O   UNL     1      -6.578  19.604  67.676  1.00  0.00    -0.219 OA 
HETATM    6  C   UNL     1      -6.930  19.024  68.934  1.00  0.00    -0.323 C  
HETATM    7  O   UNL     1      -6.895  20.058  69.925  1.00  0.00    -0.309 OA 
HETATM    8  H   UNL     1     -10.189  19.247  69.065  1.00  0.00     0.000 HD 
HETATM    9  C   UNL     1      -8.371  18.515  68.785  1.00  0.00    -0.246 C  
HETATM   10  C   UNL     1      -8.536  18.263  67.285  1.00  0.00    -0.254 C  
HETATM   11  O   UNL     1      -9.297  19.561  69.157  1.00  0.00    -0.349 OA 
HETATM   12  H   UNL     1      -7.129  19.673  70.761  1.00  0.00     0.000 HD 
BRANCH   6  13
HETATM   13  C   UNL     1      -5.910  17.935  69.301  1.00  0.00    -0.221 C  
HETATM   14  H   UNL     1      -5.996  16.042  69.795  1.00  0.00     0.000 HD 
HETATM   15  O   UNL     1      -6.627  16.715  69.568  1.00  0.00    -0.220 OA 
ENDBRANCH   6  13
BRANCH  10  16
HETATM   16  O   UNL     1      -8.683  16.860  67.021  1.00  0.00    -0.195 OA 
BRANCH  16  17
HETATM   17  C   UNL     1     -10.040  16.403  67.137  1.00  0.00    -0.271 C  
HETATM   18  O   UNL     1     -10.362  16.147  68.508  1.00  0.00    -0.236 OA 
HETATM   19  C   UNL     1     -11.730  15.735  68.683  1.00  0.00    -0.344 C  
HETATM   20  C   UNL     1     -11.988  14.416  67.942  1.00  0.00    -0.313 C  
HETATM   21  H   UNL     1     -10.161  14.731  64.317  1.00  0.00     0.000 HD 
HETATM   22  O   UNL     1     -10.029  15.496  64.864  1.00  0.00    -0.311 OA 
HETATM   23  C   UNL     1     -11.692  14.633  66.453  1.00  0.00    -0.322 C  
HETATM   24  O   UNL     1     -11.139  13.348  68.387  1.00  0.00    -0.249 OA 
HETATM   25  H   UNL     1     -11.718  13.545  64.819  1.00  0.00     0.000 HD 
HETATM   26  O   UNL     1     -11.902  13.410  65.741  1.00  0.00    -0.342 OA 
HETATM   27  H   UNL     1     -11.299  12.531  67.929  1.00  0.00     0.000 HD 
HETATM   28  C   UNL     1     -10.254  15.155  66.246  1.00  0.00    -0.288 C  
BRANCH  19  29
HETATM   29  C   UNL     1     -12.012  15.636  70.184  1.00  0.00    -0.367 C  
HETATM   30  O   UNL     1     -13.422  15.555  70.396  1.00  0.00    -0.791 OA 
HETATM   31  H   UNL     1     -13.597  15.494  71.327  1.00  0.00     0.000 HD 
ENDBRANCH  19  29
ENDBRANCH  16  17
ENDBRANCH  10  16
ENDBRANCH   3   4
TORSDOF 5
ENDMDL
MODEL       97
REMARK 921   NORMALIZED FREE ENERGY PREDICTED BY IDOCK:   -4.55 KCAL/MOL
REMARK 922        TOTAL FREE ENERGY PREDICTED BY IDOCK:   -7.47 KCAL/MOL
REMARK 923 INTER-LIGAND FREE ENERGY PREDICTED BY IDOCK:   -5.97 KCAL/MOL
REMARK 924 INTRA-LIGAND FREE ENERGY PREDICTED BY IDOCK:   -1.50 KCAL/MOL
REMARK 927      BINDING AFFINITY PREDICTED BY RF-SCORE:    0.00 PKD
ROOT
HETATM    1  O   UNL     1     -11.586   6.479  68.599  1.00  0.00    -0.560 OA 
HETATM    2  H   UNL     1     -12.271   5.835  68.739  1.00  0.00     0.000 HD 
HETATM    3  C   UNL     1     -10.551   5.912  67.799  1.00  0.00    -0.259 C  
ENDROOT
BRANCH   3   4
HETATM    4  C   UNL     1      -9.448   6.949  67.575  1.00  0.00    -0.128 C  
HETATM    5  O   UNL     1      -9.197   7.086  66.163  1.00  0.00    -0.152 OA 
HETATM    6  C   UNL     1      -8.747   8.427  65.953  1.00  0.00    -0.169 C  
HETATM    7  O   UNL     1      -9.138   8.825  64.633  1.00  0.00    -0.429 OA 
HETATM    8  H   UNL     1     -11.190  10.300  67.055  1.00  0.00     0.000 HD 
HETATM    9  C   UNL     1      -9.486   9.293  66.982  1.00  0.00    -0.159 C  
HETATM   10  C   UNL     1      -9.828   8.331  68.121  1.00  0.00    -0.172 C  
HETATM   11  O   UNL     1     -10.732   9.763  66.418  1.00  0.00    -0.089 OA 
HETATM   12  H   UNL     1      -8.839   9.716  64.494  1.00  0.00     0.000 HD 
BRANCH   6  13
HETATM   13  C   UNL     1      -7.216   8.478  66.067  1.00  0.00    -0.077 C  
HETATM   14  H   UNL     1      -5.906   9.732  66.805  1.00  0.00     0.000 HD 
HETATM   15  O   UNL     1      -6.853   9.700  66.735  1.00  0.00    -0.081 OA 
ENDBRANCH   6  13
BRANCH  10  16
HETATM   16  O   UNL     1      -9.090   8.667  69.306  1.00  0.00    -0.147 OA 
BRANCH  16  17
HETATM   17  C   UNL     1      -9.909   8.720  70.485  1.00  0.00    -0.188 C  
HETATM   18  O   UNL     1     -10.198   7.397  70.948  1.00  0.00    -0.193 OA 
HETATM   19  C   UNL     1     -10.974   7.397  72.160  1.00  0.00    -0.245 C  
HETATM   20  C   UNL     1     -12.337   8.059  71.921  1.00  0.00    -0.323 C  
HETATM   21  H   UNL     1     -11.644  11.383  69.671  1.00  0.00     0.000 HD 
HETATM   22  O   UNL     1     -10.854  10.885  69.848  1.00  0.00    -0.235 OA 
HETATM   23  C   UNL     1     -12.097   9.499  71.451  1.00  0.00    -0.378 C  
HETATM   24  O   UNL     1     -13.104   7.408  70.898  1.00  0.00    -0.594 OA 
HETATM   25  H   UNL     1     -13.204  11.027  70.905  1.00  0.00     0.000 HD 
HETATM   26  O   UNL     1     -13.353  10.135  71.197  1.00  0.00    -0.376 OA 
HETATM   27  H   UNL     1     -13.948   7.818  70.749  1.00  0.00     0.000 HD 
HETATM   28  C   UNL     1     -11.196   9.530  70.198  1.00  0.00    -0.234 C  
BRANCH  19  29
HETATM   29  C   UNL     1     -11.096   5.952  72.650  1.00  0.00    -0.280 C  
HETATM   30  O   UNL     1     -12.474   5.641  72.865  1.00  0.00    -0.503 OA 
HETATM   31  H   UNL     1     -12.551   4.744  73.169  1.00  0.00     0.000 HD 
ENDBRANCH  19  29
ENDBRANCH  16  17
ENDBRANCH  10  16
ENDBRANCH   3   4
TORSDOF 5
ENDMDL
MODEL       98
REMARK 921   NORMALIZED FREE ENERGY PREDICTED BY IDOCK:   -4.53 KCAL/MOL
REMARK 922        TOTAL FREE ENERGY PREDICTED BY IDOCK:   -7.44 KCAL/MOL
REMARK 923 INTER-LIGAND FREE ENERGY PREDICTED BY IDOCK:   -6.63 KCAL/MOL
REMARK 924 INTRA-LIGAND FREE ENERGY PREDICTED BY IDOCK:   -0.81 KCAL/MOL
REMARK 927      BINDING AFFINITY PREDICTED BY RF-SCORE:    0.00 PKD
ROOT
HETATM    1  O   UNL     1     -11.034  19.726  67.588  1.00  0.00    -0.333 OA 
HETATM    2  H   UNL     1     -11.948  19.741  67.847  1.00  0.00     0.000 HD 
HETATM    3  C   UNL     1     -10.892  18.989  66.374  1.00  0.00    -0.190 C  
ENDROOT
BRANCH   3   4
HETATM    4  C   UNL     1      -9.420  18.964  65.957  1.00  0.00    -0.081 C  
HETATM    5  O   UNL     1      -8.849  20.275  66.133  1.00  0.00    -0.236 OA 
HETATM    6  C   UNL     1      -7.460  20.085  66.411  1.00  0.00    -0.288 C  
HETATM    7  O   UNL     1      -7.020  21.172  67.235  1.00  0.00    -0.413 OA 
HETATM    8  H   UNL     1      -7.403  18.240  69.110  1.00  0.00     0.000 HD 
HETATM    9  C   UNL     1      -7.357  18.775  67.204  1.00  0.00    -0.213 C  
HETATM   10  C   UNL     1      -8.594  17.976  66.791  1.00  0.00    -0.255 C  
HETATM   11  O   UNL     1      -7.467  19.052  68.619  1.00  0.00    -0.301 OA 
HETATM   12  H   UNL     1      -6.097  21.045  67.421  1.00  0.00     0.000 HD 
BRANCH   6  13
HETATM   13  C   UNL     1      -6.667  20.092  65.096  1.00  0.00    -0.296 C  
HETATM   14  H   UNL     1      -5.043  19.223  64.432  1.00  0.00     0.000 HD 
HETATM   15  O   UNL     1      -5.533  19.218  65.246  1.00  0.00    -0.155 OA 
ENDBRANCH   6  13
BRANCH  10  16
HETATM   16  O   UNL     1      -8.218  16.814  66.037  1.00  0.00    -0.423 OA 
BRANCH  16  17
HETATM   17  C   UNL     1      -9.005  15.656  66.355  1.00  0.00    -0.326 C  
HETATM   18  O   UNL     1     -10.189  15.624  65.551  1.00  0.00    -0.343 OA 
HETATM   19  C   UNL     1     -10.988  14.452  65.796  1.00  0.00    -0.314 C  
HETATM   20  C   UNL     1     -11.474  14.433  67.251  1.00  0.00    -0.359 C  
HETATM   21  H   UNL     1      -8.307  15.541  69.559  1.00  0.00     0.000 HD 
HETATM   22  O   UNL     1      -8.109  15.552  68.630  1.00  0.00    -0.142 OA 
HETATM   23  C   UNL     1     -10.247  14.432  68.170  1.00  0.00    -0.232 C  
HETATM   24  O   UNL     1     -12.255  15.587  67.596  1.00  0.00    -0.136 OA 
HETATM   25  H   UNL     1      -9.910  14.438  70.105  1.00  0.00     0.000 HD 
HETATM   26  O   UNL     1     -10.671  14.438  69.536  1.00  0.00    -0.206 OA 
HETATM   27  H   UNL     1     -12.556  15.575  68.497  1.00  0.00     0.000 HD 
HETATM   28  C   UNL     1      -9.329  15.637  67.869  1.00  0.00    -0.195 C  
BRANCH  19  29
HETATM   29  C   UNL     1     -12.139  14.438  64.787  1.00  0.00    -0.452 C  
HETATM   30  O   UNL     1     -13.112  13.474  65.193  1.00  0.00    -0.737 OA 
HETATM   31  H   UNL     1     -13.826  13.465  64.567  1.00  0.00     0.000 HD 
ENDBRANCH  19  29
ENDBRANCH  16  17
ENDBRANCH  10  16
ENDBRANCH   3   4
TORSDOF 5
ENDMDL
MODEL       99
REMARK 921   NORMALIZED FREE ENERGY PREDICTED BY IDOCK:   -4.53 KCAL/MOL
REMARK 922        TOTAL FREE ENERGY PREDICTED BY IDOCK:   -7.44 KCAL/MOL
REMARK 923 INTER-LIGAND FREE ENERGY PREDICTED BY IDOCK:   -6.14 KCAL/MOL
REMARK 924 INTRA-LIGAND FREE ENERGY PREDICTED BY IDOCK:   -1.30 KCAL/MOL
REMARK 927      BINDING AFFINITY PREDICTED BY RF-SCORE:    0.00 PKD
ROOT
HETATM    1  O   UNL     1     -10.499  12.631  69.158  1.00  0.00    -0.430 OA 
HETATM    2  H   UNL     1     -10.531  12.382  70.074  1.00  0.00     0.000 HD 
HETATM    3  C   UNL     1     -11.825  12.842  68.672  1.00  0.00    -0.304 C  
ENDROOT
BRANCH   3   4
HETATM    4  C   UNL     1     -11.774  13.242  67.196  1.00  0.00    -0.376 C  
HETATM    5  O   UNL     1     -11.941  14.668  67.080  1.00  0.00    -0.382 OA 
HETATM    6  C   UNL     1     -11.235  15.070  65.903  1.00  0.00    -0.313 C  
HETATM    7  O   UNL     1     -10.781  16.415  66.096  1.00  0.00    -0.273 OA 
HETATM    8  H   UNL     1      -8.148  14.133  66.430  1.00  0.00     0.000 HD 
HETATM    9  C   UNL     1     -10.022  14.137  65.791  1.00  0.00    -0.309 C  
HETATM   10  C   UNL     1     -10.441  12.869  66.537  1.00  0.00    -0.265 C  
HETATM   11  O   UNL     1      -8.899  14.711  66.500  1.00  0.00    -0.238 OA 
HETATM   12  H   UNL     1     -10.312  16.682  65.314  1.00  0.00     0.000 HD 
BRANCH   6  13
HETATM   13  C   UNL     1     -12.183  15.022  64.695  1.00  0.00    -0.278 C  
HETATM   14  H   UNL     1     -12.574  16.190  63.173  1.00  0.00     0.000 HD 
HETATM   15  O   UNL     1     -11.987  16.219  63.919  1.00  0.00    -1.003 OA 
ENDBRANCH   6  13
BRANCH  10  16
HETATM   16  O   UNL     1     -10.576  11.768  65.626  1.00  0.00    -0.252 OA 
BRANCH  16  17
HETATM   17  C   UNL     1      -9.681  10.683  65.914  1.00  0.00    -0.223 C  
HETATM   18  O   UNL     1      -9.134  10.827  67.230  1.00  0.00    -0.143 OA 
HETATM   19  C   UNL     1      -8.268   9.734  67.587  1.00  0.00    -0.114 C  
HETATM   20  C   UNL     1      -7.062   9.679  66.640  1.00  0.00    -0.086 C  
HETATM   21  H   UNL     1      -8.496  10.298  62.879  1.00  0.00     0.000 HD 
HETATM   22  O   UNL     1      -9.172  10.345  63.545  1.00  0.00    -0.230 OA 
HETATM   23  C   UNL     1      -7.580   9.491  65.209  1.00  0.00    -0.111 C  
HETATM   24  O   UNL     1      -6.286  10.886  66.649  1.00  0.00    -0.091 OA 
HETATM   25  H   UNL     1      -6.798   9.342  63.414  1.00  0.00     0.000 HD 
HETATM   26  O   UNL     1      -6.476   9.458  64.301  1.00  0.00    -0.084 OA 
HETATM   27  H   UNL     1      -5.539  10.852  66.063  1.00  0.00     0.000 HD 
HETATM   28  C   UNL     1      -8.578  10.606  64.831  1.00  0.00    -0.141 C  
BRANCH  19  29
HETATM   29  C   UNL     1      -7.862   9.906  69.053  1.00  0.00    -0.095 C  
HETATM   30  O   UNL     1      -8.936  10.512  69.774  1.00  0.00    -0.400 OA 
HETATM   31  H   UNL     1      -8.684  10.618  70.683  1.00  0.00     0.000 HD 
ENDBRANCH  19  29
ENDBRANCH  16  17
ENDBRANCH  10  16
ENDBRANCH   3   4
TORSDOF 5
ENDMDL
MODEL      100
REMARK 921   NORMALIZED FREE ENERGY PREDICTED BY IDOCK:   -4.52 KCAL/MOL
REMARK 922        TOTAL FREE ENERGY PREDICTED BY IDOCK:   -7.43 KCAL/MOL
REMARK 923 INTER-LIGAND FREE ENERGY PREDICTED BY IDOCK:   -6.59 KCAL/MOL
REMARK 924 INTRA-LIGAND FREE ENERGY PREDICTED BY IDOCK:   -0.84 KCAL/MOL
REMARK 927      BINDING AFFINITY PREDICTED BY RF-SCORE:    0.00 PKD
ROOT
HETATM    1  O   UNL     1     -10.229  13.713  64.037  1.00  0.00    -0.701 OA 
HETATM    2  H   UNL     1     -10.512  14.595  63.823  1.00  0.00     0.000 HD 
HETATM    3  C   UNL     1     -10.982  13.223  65.145  1.00  0.00    -0.299 C  
ENDROOT
BRANCH   3   4
HETATM    4  C   UNL     1     -10.525  11.803  65.489  1.00  0.00    -0.267 C  
HETATM    5  O   UNL     1      -9.266  11.534  64.842  1.00  0.00    -0.132 OA 
HETATM    6  C   UNL     1      -8.572  10.595  65.667  1.00  0.00    -0.182 C  
HETATM    7  O   UNL     1      -7.166  10.812  65.498  1.00  0.00    -0.310 OA 
HETATM    8  H   UNL     1      -8.282  12.092  68.559  1.00  0.00     0.000 HD 
HETATM    9  C   UNL     1      -8.965  10.923  67.114  1.00  0.00    -0.138 C  
HETATM   10  C   UNL     1     -10.330  11.604  66.997  1.00  0.00    -0.217 C  
HETATM   11  O   UNL     1      -8.039  11.889  67.663  1.00  0.00    -0.131 OA 
HETATM   12  H   UNL     1      -6.704  10.188  66.046  1.00  0.00     0.000 HD 
BRANCH   6  13
HETATM   13  C   UNL     1      -8.922   9.167  65.224  1.00  0.00    -0.198 C  
HETATM   14  H   UNL     1      -9.037   8.217  63.516  1.00  0.00     0.000 HD 
HETATM   15  O   UNL     1      -8.821   9.100  63.790  1.00  0.00    -0.181 OA 
ENDBRANCH   6  13
BRANCH  10  16
HETATM   16  O   UNL     1     -11.356  10.781  67.572  1.00  0.00    -0.408 OA 
BRANCH  16  17
HETATM   17  C   UNL     1     -11.106  10.443  68.945  1.00  0.00    -0.247 C  
HETATM   18  O   UNL     1     -11.043   9.021  69.102  1.00  0.00    -0.074 OA 
HETATM   19  C   UNL     1     -10.741   8.632  70.455  1.00  0.00    -0.224 C  
HETATM   20  C   UNL     1     -11.849   9.105  71.405  1.00  0.00    -0.345 C  
HETATM   21  H   UNL     1     -12.795  12.908  70.299  1.00  0.00     0.000 HD 
HETATM   22  O   UNL     1     -12.132  12.517  69.743  1.00  0.00    -0.287 OA 
HETATM   23  C   UNL     1     -11.948  10.632  71.309  1.00  0.00    -0.245 C  
HETATM   24  O   UNL     1     -13.141   8.581  71.065  1.00  0.00    -0.506 OA 
HETATM   25  H   UNL     1     -13.051  12.046  72.108  1.00  0.00     0.000 HD 
HETATM   26  O   UNL     1     -12.991  11.100  72.169  1.00  0.00    -0.399 OA 
HETATM   27  H   UNL     1     -13.828   8.873  71.653  1.00  0.00     0.000 HD 
HETATM   28  C   UNL     1     -12.187  11.081  69.851  1.00  0.00    -0.336 C  
BRANCH  19  29
HETATM   29  C   UNL     1     -10.546   7.114  70.483  1.00  0.00    -0.225 C  
HETATM   30  O   UNL     1     -11.587   6.489  69.730  1.00  0.00    -0.537 OA 
HETATM   31  H   UNL     1     -11.466   5.547  69.747  1.00  0.00     0.000 HD 
ENDBRANCH  19  29
ENDBRANCH  16  17
ENDBRANCH  10  16
ENDBRANCH   3   4
TORSDOF 5
ENDMDL
MODEL      101
REMARK 921   NORMALIZED FREE ENERGY PREDICTED BY IDOCK:   -4.50 KCAL/MOL
REMARK 922        TOTAL FREE ENERGY PREDICTED BY IDOCK:   -7.40 KCAL/MOL
REMARK 923 INTER-LIGAND FREE ENERGY PREDICTED BY IDOCK:   -6.48 KCAL/MOL
REMARK 924 INTRA-LIGAND FREE ENERGY PREDICTED BY IDOCK:   -0.92 KCAL/MOL
REMARK 927      BINDING AFFINITY PREDICTED BY RF-SCORE:    0.00 PKD
ROOT
HETATM    1  O   UNL     1     -12.227  13.854  63.339  1.00  0.00    -1.003 OA 
HETATM    2  H   UNL     1     -13.036  13.506  62.983  1.00  0.00     0.000 HD 
HETATM    3  C   UNL     1     -12.259  13.777  64.764  1.00  0.00    -0.406 C  
ENDROOT
BRANCH   3   4
HETATM    4  C   UNL     1     -10.956  14.338  65.338  1.00  0.00    -0.333 C  
HETATM    5  O   UNL     1     -10.954  15.773  65.210  1.00  0.00    -0.364 OA 
HETATM    6  C   UNL     1     -10.163  16.281  66.287  1.00  0.00    -0.327 C  
HETATM    7  O   UNL     1     -10.660  17.580  66.628  1.00  0.00    -0.295 OA 
HETATM    8  H   UNL     1     -11.649  15.192  68.988  1.00  0.00     0.000 HD 
HETATM    9  C   UNL     1     -10.386  15.327  67.469  1.00  0.00    -0.244 C  
HETATM   10  C   UNL     1     -10.780  13.998  66.823  1.00  0.00    -0.285 C  
HETATM   11  O   UNL     1     -11.511  15.782  68.256  1.00  0.00    -0.361 OA 
HETATM   12  H   UNL     1     -10.135  17.918  67.344  1.00  0.00     0.000 HD 
BRANCH   6  13
HETATM   13  C   UNL     1      -8.699  16.399  65.838  1.00  0.00    -0.099 C  
HETATM   14  H   UNL     1      -6.962  16.517  66.734  1.00  0.00     0.000 HD 
HETATM   15  O   UNL     1      -7.867  16.443  67.012  1.00  0.00    -0.169 OA 
ENDBRANCH   6  13
BRANCH  10  16
HETATM   16  O   UNL     1      -9.760  13.010  67.035  1.00  0.00    -0.223 OA 
BRANCH  16  17
HETATM   17  C   UNL     1     -10.275  11.671  67.097  1.00  0.00    -0.213 C  
HETATM   18  O   UNL     1     -10.301  11.212  68.452  1.00  0.00    -0.172 OA 
HETATM   19  C   UNL     1     -10.859   9.891  68.573  1.00  0.00    -0.217 C  
HETATM   20  C   UNL     1      -9.999   8.876  67.808  1.00  0.00    -0.192 C  
HETATM   21  H   UNL     1      -9.029  10.611  64.253  1.00  0.00     0.000 HD 
HETATM   22  O   UNL     1      -9.541  11.181  64.814  1.00  0.00    -0.224 OA 
HETATM   23  C   UNL     1      -9.957   9.295  66.333  1.00  0.00    -0.286 C  
HETATM   24  O   UNL     1      -8.641   8.832  68.269  1.00  0.00    -0.132 OA 
HETATM   25  H   UNL     1      -9.116   8.638  64.685  1.00  0.00     0.000 HD 
HETATM   26  O   UNL     1      -9.142   8.378  65.598  1.00  0.00    -0.172 OA 
HETATM   27  H   UNL     1      -8.108   8.205  67.795  1.00  0.00     0.000 HD 
HETATM   28  C   UNL     1      -9.440  10.742  66.183  1.00  0.00    -0.187 C  
BRANCH  19  29
HETATM   29  C   UNL     1     -10.982   9.557  70.063  1.00  0.00    -0.251 C  
HETATM   30  O   UNL     1      -9.749   9.861  70.718  1.00  0.00    -0.325 OA 
HETATM   31  H   UNL     1      -9.825   9.654  71.642  1.00  0.00     0.000 HD 
ENDBRANCH  19  29
ENDBRANCH  16  17
ENDBRANCH  10  16
ENDBRANCH   3   4
TORSDOF 5
ENDMDL
MODEL      102
REMARK 921   NORMALIZED FREE ENERGY PREDICTED BY IDOCK:   -4.50 KCAL/MOL
REMARK 922        TOTAL FREE ENERGY PREDICTED BY IDOCK:   -7.40 KCAL/MOL
REMARK 923 INTER-LIGAND FREE ENERGY PREDICTED BY IDOCK:   -6.04 KCAL/MOL
REMARK 924 INTRA-LIGAND FREE ENERGY PREDICTED BY IDOCK:   -1.36 KCAL/MOL
REMARK 927      BINDING AFFINITY PREDICTED BY RF-SCORE:    0.00 PKD
ROOT
HETATM    1  O   UNL     1     -12.530  10.768  68.623  1.00  0.00    -0.793 OA 
HETATM    2  H   UNL     1     -13.388  11.094  68.374  1.00  0.00     0.000 HD 
HETATM    3  C   UNL     1     -12.421  10.743  70.045  1.00  0.00    -0.248 C  
ENDROOT
BRANCH   3   4
HETATM    4  C   UNL     1     -11.039  10.219  70.445  1.00  0.00    -0.319 C  
HETATM    5  O   UNL     1     -11.182   8.954  71.120  1.00  0.00    -0.249 OA 
HETATM    6  C   UNL     1      -9.988   8.213  70.860  1.00  0.00    -0.187 C  
HETATM    7  O   UNL     1     -10.319   6.819  70.875  1.00  0.00    -0.198 OA 
HETATM    8  H   UNL     1      -9.857   7.972  67.602  1.00  0.00     0.000 HD 
HETATM    9  C   UNL     1      -9.535   8.610  69.448  1.00  0.00    -0.161 C  
HETATM   10  C   UNL     1     -10.124  10.005  69.233  1.00  0.00    -0.213 C  
HETATM   11  O   UNL     1     -10.138   7.726  68.476  1.00  0.00    -0.187 OA 
HETATM   12  H   UNL     1      -9.526   6.326  70.702  1.00  0.00     0.000 HD 
BRANCH   6  13
HETATM   13  C   UNL     1      -8.955   8.501  71.960  1.00  0.00    -0.231 C  
HETATM   14  H   UNL     1      -7.027   8.834  72.021  1.00  0.00     0.000 HD 
HETATM   15  O   UNL     1      -7.665   8.656  71.340  1.00  0.00    -0.105 OA 
ENDBRANCH   6  13
BRANCH  10  16
HETATM   16  O   UNL     1      -9.082  10.990  69.162  1.00  0.00    -0.114 OA 
BRANCH  16  17
HETATM   17  C   UNL     1      -9.316  11.988  68.156  1.00  0.00    -0.199 C  
HETATM   18  O   UNL     1     -10.359  12.876  68.572  1.00  0.00    -0.243 OA 
HETATM   19  C   UNL     1     -10.596  13.928  67.619  1.00  0.00    -0.245 C  
HETATM   20  C   UNL     1     -11.061  13.340  66.281  1.00  0.00    -0.290 C  
HETATM   21  H   UNL     1      -8.704  10.103  65.542  1.00  0.00     0.000 HD 
HETATM   22  O   UNL     1      -8.509  10.519  66.373  1.00  0.00    -0.134 OA 
HETATM   23  C   UNL     1      -9.968  12.399  65.761  1.00  0.00    -0.254 C  
HETATM   24  O   UNL     1     -12.262  12.562  66.397  1.00  0.00    -0.584 OA 
HETATM   25  H   UNL     1      -9.707  11.234  64.202  1.00  0.00     0.000 HD 
HETATM   26  O   UNL     1     -10.385  11.818  64.523  1.00  0.00    -0.263 OA 
HETATM   27  H   UNL     1     -12.550  12.198  65.568  1.00  0.00     0.000 HD 
HETATM   28  C   UNL     1      -9.635  11.309  66.802  1.00  0.00    -0.193 C  
BRANCH  19  29
HETATM   29  C   UNL     1     -11.613  14.900  68.223  1.00  0.00    -0.334 C  
HETATM   30  O   UNL     1     -11.967  14.460  69.535  1.00  0.00    -0.297 OA 
HETATM   31  H   UNL     1     -12.598  15.062  69.910  1.00  0.00     0.000 HD 
ENDBRANCH  19  29
ENDBRANCH  16  17
ENDBRANCH  10  16
ENDBRANCH   3   4
TORSDOF 5
ENDMDL
MODEL      103
REMARK 921   NORMALIZED FREE ENERGY PREDICTED BY IDOCK:   -4.48 KCAL/MOL
REMARK 922        TOTAL FREE ENERGY PREDICTED BY IDOCK:   -7.37 KCAL/MOL
REMARK 923 INTER-LIGAND FREE ENERGY PREDICTED BY IDOCK:   -6.20 KCAL/MOL
REMARK 924 INTRA-LIGAND FREE ENERGY PREDICTED BY IDOCK:   -1.17 KCAL/MOL
REMARK 927      BINDING AFFINITY PREDICTED BY RF-SCORE:    0.00 PKD
ROOT
HETATM    1  O   UNL     1      -9.267   6.639  69.058  1.00  0.00    -0.133 OA 
HETATM    2  H   UNL     1      -8.776   5.958  68.613  1.00  0.00     0.000 HD 
HETATM    3  C   UNL     1     -10.605   6.196  69.283  1.00  0.00    -0.285 C  
ENDROOT
BRANCH   3   4
HETATM    4  C   UNL     1     -11.396   7.292  70.000  1.00  0.00    -0.166 C  
HETATM    5  O   UNL     1     -11.703   6.865  71.341  1.00  0.00    -0.280 OA 
HETATM    6  C   UNL     1     -11.784   8.047  72.141  1.00  0.00    -0.344 C  
HETATM    7  O   UNL     1     -11.398   7.704  73.478  1.00  0.00    -0.604 OA 
HETATM    8  H   UNL     1      -8.849   9.453  71.837  1.00  0.00     0.000 HD 
HETATM    9  C   UNL     1     -10.763   9.031  71.556  1.00  0.00    -0.351 C  
HETATM   10  C   UNL     1     -10.614   8.608  70.094  1.00  0.00    -0.225 C  
HETATM   11  O   UNL     1      -9.481   8.843  72.199  1.00  0.00    -0.327 OA 
HETATM   12  H   UNL     1     -11.452   8.490  74.010  1.00  0.00     0.000 HD 
BRANCH   6  13
HETATM   13  C   UNL     1     -13.230   8.564  72.147  1.00  0.00    -0.352 C  
HETATM   14  H   UNL     1     -14.093  10.317  72.013  1.00  0.00     0.000 HD 
HETATM   15  O   UNL     1     -13.199   9.997  72.009  1.00  0.00    -0.433 OA 
ENDBRANCH   6  13
BRANCH  10  16
HETATM   16  O   UNL     1     -11.142   9.616  69.219  1.00  0.00    -0.208 OA 
BRANCH  16  17
HETATM   17  C   UNL     1     -10.166  10.138  68.304  1.00  0.00    -0.166 C  
HETATM   18  O   UNL     1     -10.060  11.559  68.449  1.00  0.00    -0.192 OA 
HETATM   19  C   UNL     1      -9.055  12.125  67.589  1.00  0.00    -0.181 C  
HETATM   20  C   UNL     1      -9.415  11.884  66.117  1.00  0.00    -0.231 C  
HETATM   21  H   UNL     1     -10.725   8.037  65.847  1.00  0.00     0.000 HD 
HETATM   22  O   UNL     1     -10.505   8.291  66.736  1.00  0.00    -0.318 OA 
HETATM   23  C   UNL     1      -9.512  10.371  65.886  1.00  0.00    -0.189 C  
HETATM   24  O   UNL     1     -10.685  12.445  65.752  1.00  0.00    -0.255 OA 
HETATM   25  H   UNL     1      -9.931   9.180  64.382  1.00  0.00     0.000 HD 
HETATM   26  O   UNL     1      -9.871  10.117  64.525  1.00  0.00    -0.324 OA 
HETATM   27  H   UNL     1     -10.909  12.296  64.841  1.00  0.00     0.000 HD 
HETATM   28  C   UNL     1     -10.525   9.726  66.856  1.00  0.00    -0.211 C  
BRANCH  19  29
HETATM   29  C   UNL     1      -8.917  13.611  67.928  1.00  0.00    -0.195 C  
HETATM   30  O   UNL     1     -10.211  14.215  67.943  1.00  0.00    -0.229 OA 
HETATM   31  H   UNL     1     -10.126  15.138  68.153  1.00  0.00     0.000 HD 
ENDBRANCH  19  29
ENDBRANCH  16  17
ENDBRANCH  10  16
ENDBRANCH   3   4
TORSDOF 5
ENDMDL
MODEL      104
REMARK 921   NORMALIZED FREE ENERGY PREDICTED BY IDOCK:   -4.47 KCAL/MOL
REMARK 922        TOTAL FREE ENERGY PREDICTED BY IDOCK:   -7.35 KCAL/MOL
REMARK 923 INTER-LIGAND FREE ENERGY PREDICTED BY IDOCK:   -6.03 KCAL/MOL
REMARK 924 INTRA-LIGAND FREE ENERGY PREDICTED BY IDOCK:   -1.32 KCAL/MOL
REMARK 927      BINDING AFFINITY PREDICTED BY RF-SCORE:    0.00 PKD
ROOT
HETATM    1  O   UNL     1     -11.015   7.496  67.878  1.00  0.00    -0.467 OA 
HETATM    2  H   UNL     1     -10.810   7.205  66.997  1.00  0.00     0.000 HD 
HETATM    3  C   UNL     1     -10.402   6.624  68.826  1.00  0.00    -0.194 C  
ENDROOT
BRANCH   3   4
HETATM    4  C   UNL     1     -10.732   7.093  70.245  1.00  0.00    -0.238 C  
HETATM    5  O   UNL     1      -9.789   6.522  71.172  1.00  0.00    -0.181 OA 
HETATM    6  C   UNL     1      -9.669   7.444  72.258  1.00  0.00    -0.155 C  
HETATM    7  O   UNL     1      -8.349   7.319  72.802  1.00  0.00    -0.104 OA 
HETATM    8  H   UNL     1      -8.649  10.224  70.872  1.00  0.00     0.000 HD 
HETATM    9  C   UNL     1      -9.836   8.844  71.652  1.00  0.00    -0.317 C  
HETATM   10  C   UNL     1     -10.663   8.619  70.385  1.00  0.00    -0.224 C  
HETATM   11  O   UNL     1      -8.546   9.357  71.247  1.00  0.00    -0.299 OA 
HETATM   12  H   UNL     1      -8.269   7.932  73.523  1.00  0.00     0.000 HD 
BRANCH   6  13
HETATM   13  C   UNL     1     -10.700   7.097  73.342  1.00  0.00    -0.368 C  
HETATM   14  H   UNL     1     -10.742   5.931  74.915  1.00  0.00     0.000 HD 
HETATM   15  O   UNL     1     -10.104   6.146  74.245  1.00  0.00    -0.249 OA 
ENDBRANCH   6  13
BRANCH  10  16
HETATM   16  O   UNL     1     -11.964   9.210  70.518  1.00  0.00    -0.186 OA 
BRANCH  16  17
HETATM   17  C   UNL     1     -12.135  10.387  69.712  1.00  0.00    -0.138 C  
HETATM   18  O   UNL     1     -11.204  10.383  68.624  1.00  0.00    -0.256 OA 
HETATM   19  C   UNL     1     -11.370  11.518  67.755  1.00  0.00    -0.296 C  
HETATM   20  C   UNL     1     -11.105  12.820  68.523  1.00  0.00    -0.266 C  
HETATM   21  H   UNL     1     -12.945  12.443  72.137  1.00  0.00     0.000 HD 
HETATM   22  O   UNL     1     -13.029  11.666  71.597  1.00  0.00    -0.432 OA 
HETATM   23  C   UNL     1     -12.098  12.902  69.689  1.00  0.00    -0.226 C  
HETATM   24  O   UNL     1      -9.788  12.879  69.090  1.00  0.00    -0.379 OA 
HETATM   25  H   UNL     1     -12.473  14.148  71.160  1.00  0.00     0.000 HD 
HETATM   26  O   UNL     1     -11.859  14.098  70.437  1.00  0.00    -0.297 OA 
HETATM   27  H   UNL     1      -9.624  13.685  69.565  1.00  0.00     0.000 HD 
HETATM   28  C   UNL     1     -11.997  11.653  70.591  1.00  0.00    -0.257 C  
BRANCH  19  29
HETATM   29  C   UNL     1     -10.439  11.340  66.553  1.00  0.00    -0.253 C  
HETATM   30  O   UNL     1      -9.977  12.621  66.120  1.00  0.00    -0.252 OA 
HETATM   31  H   UNL     1      -9.400  12.511  65.374  1.00  0.00     0.000 HD 
ENDBRANCH  19  29
ENDBRANCH  16  17
ENDBRANCH  10  16
ENDBRANCH   3   4
TORSDOF 5
ENDMDL
MODEL      105
REMARK 921   NORMALIZED FREE ENERGY PREDICTED BY IDOCK:   -4.46 KCAL/MOL
REMARK 922        TOTAL FREE ENERGY PREDICTED BY IDOCK:   -7.35 KCAL/MOL
REMARK 923 INTER-LIGAND FREE ENERGY PREDICTED BY IDOCK:   -6.38 KCAL/MOL
REMARK 924 INTRA-LIGAND FREE ENERGY PREDICTED BY IDOCK:   -0.97 KCAL/MOL
REMARK 927      BINDING AFFINITY PREDICTED BY RF-SCORE:    0.00 PKD
ROOT
HETATM    1  O   UNL     1     -10.012   6.563  65.965  1.00  0.00    -0.403 OA 
HETATM    2  H   UNL     1     -10.438   6.054  65.285  1.00  0.00     0.000 HD 
HETATM    3  C   UNL     1     -10.951   6.863  66.997  1.00  0.00    -0.334 C  
ENDROOT
BRANCH   3   4
HETATM    4  C   UNL     1     -10.266   7.684  68.092  1.00  0.00    -0.196 C  
HETATM    5  O   UNL     1      -9.533   6.803  68.965  1.00  0.00    -0.135 OA 
HETATM    6  C   UNL     1      -8.431   7.556  69.477  1.00  0.00    -0.132 C  
HETATM    7  O   UNL     1      -7.356   6.646  69.742  1.00  0.00    -0.081 OA 
HETATM    8  H   UNL     1      -6.762   8.487  66.825  1.00  0.00     0.000 HD 
HETATM    9  C   UNL     1      -8.013   8.521  68.359  1.00  0.00    -0.118 C  
HETATM   10  C   UNL     1      -9.279   8.709  67.520  1.00  0.00    -0.133 C  
HETATM   11  O   UNL     1      -7.021   7.890  67.517  1.00  0.00    -0.071 OA 
HETATM   12  H   UNL     1      -6.624   7.146  70.082  1.00  0.00     0.000 HD 
BRANCH   6  13
HETATM   13  C   UNL     1      -8.845   8.246  70.786  1.00  0.00    -0.148 C  
HETATM   14  H   UNL     1      -8.229   9.799  71.808  1.00  0.00     0.000 HD 
HETATM   15  O   UNL     1      -7.973   9.373  70.998  1.00  0.00    -0.303 OA 
ENDBRANCH   6  13
BRANCH  10  16
HETATM   16  O   UNL     1      -9.767  10.054  67.635  1.00  0.00    -0.153 OA 
BRANCH  16  17
HETATM   17  C   UNL     1     -10.529  10.478  66.494  1.00  0.00    -0.212 C  
HETATM   18  O   UNL     1      -9.705  10.488  65.324  1.00  0.00    -0.227 OA 
HETATM   19  C   UNL     1     -10.438  10.856  64.141  1.00  0.00    -0.327 C  
HETATM   20  C   UNL     1     -10.985  12.283  64.275  1.00  0.00    -0.343 C  
HETATM   21  H   UNL     1     -12.465  12.618  68.054  1.00  0.00     0.000 HD 
HETATM   22  O   UNL     1     -12.074  11.769  67.885  1.00  0.00    -0.592 OA 
HETATM   23  C   UNL     1     -11.907  12.333  65.499  1.00  0.00    -0.359 C  
HETATM   24  O   UNL     1      -9.955  13.260  64.487  1.00  0.00    -0.616 OA 
HETATM   25  H   UNL     1     -12.984  13.691  66.422  1.00  0.00     0.000 HD 
HETATM   26  O   UNL     1     -12.414  13.660  65.663  1.00  0.00    -0.457 OA 
HETATM   27  H   UNL     1     -10.293  14.144  64.570  1.00  0.00     0.000 HD 
HETATM   28  C   UNL     1     -11.166  11.861  66.769  1.00  0.00    -0.327 C  
BRANCH  19  29
HETATM   29  C   UNL     1      -9.511  10.689  62.933  1.00  0.00    -0.343 C  
HETATM   30  O   UNL     1      -8.237  11.262  63.231  1.00  0.00    -0.370 OA 
HETATM   31  H   UNL     1      -7.663  11.159  62.482  1.00  0.00     0.000 HD 
ENDBRANCH  19  29
ENDBRANCH  16  17
ENDBRANCH  10  16
ENDBRANCH   3   4
TORSDOF 5
ENDMDL
MODEL      106
REMARK 921   NORMALIZED FREE ENERGY PREDICTED BY IDOCK:   -4.45 KCAL/MOL
REMARK 922        TOTAL FREE ENERGY PREDICTED BY IDOCK:   -7.34 KCAL/MOL
REMARK 923 INTER-LIGAND FREE ENERGY PREDICTED BY IDOCK:   -6.23 KCAL/MOL
REMARK 924 INTRA-LIGAND FREE ENERGY PREDICTED BY IDOCK:   -1.11 KCAL/MOL
REMARK 927      BINDING AFFINITY PREDICTED BY RF-SCORE:    0.00 PKD
ROOT
HETATM    1  O   UNL     1      -7.719   8.618  71.123  1.00  0.00    -0.091 OA 
HETATM    2  H   UNL     1      -6.890   8.885  71.503  1.00  0.00     0.000 HD 
HETATM    3  C   UNL     1      -8.744   8.683  72.113  1.00  0.00    -0.147 C  
ENDROOT
BRANCH   3   4
HETATM    4  C   UNL     1     -10.079   8.252  71.499  1.00  0.00    -0.208 C  
HETATM    5  O   UNL     1     -11.028   7.989  72.551  1.00  0.00    -0.309 OA 
HETATM    6  C   UNL     1     -12.323   8.273  72.016  1.00  0.00    -0.349 C  
HETATM    7  O   UNL     1     -13.165   8.699  73.094  1.00  0.00    -0.826 OA 
HETATM    8  H   UNL     1     -12.176  11.413  71.117  1.00  0.00     0.000 HD 
HETATM    9  C   UNL     1     -12.135   9.435  71.031  1.00  0.00    -0.298 C  
HETATM   10  C   UNL     1     -10.675   9.331  70.586  1.00  0.00    -0.269 C  
HETATM   11  O   UNL     1     -12.292  10.693  71.726  1.00  0.00    -0.302 OA 
HETATM   12  H   UNL     1     -14.025   8.888  72.739  1.00  0.00     0.000 HD 
BRANCH   6  13
HETATM   13  C   UNL     1     -12.909   7.000  71.387  1.00  0.00    -0.356 C  
HETATM   14  H   UNL     1     -14.704   6.347  70.956  1.00  0.00     0.000 HD 
HETATM   15  O   UNL     1     -14.342   7.135  71.344  1.00  0.00    -0.388 OA 
ENDBRANCH   6  13
BRANCH  10  16
HETATM   16  O   UNL     1     -10.593   8.972  69.199  1.00  0.00    -0.227 OA 
BRANCH  16  17
HETATM   17  C   UNL     1     -10.076  10.026  68.372  1.00  0.00    -0.165 C  
HETATM   18  O   UNL     1     -11.128  10.613  67.599  1.00  0.00    -0.294 OA 
HETATM   19  C   UNL     1     -10.669  11.712  66.791  1.00  0.00    -0.260 C  
HETATM   20  C   UNL     1      -9.628  11.226  65.774  1.00  0.00    -0.227 C  
HETATM   21  H   UNL     1      -7.147   8.681  67.761  1.00  0.00     0.000 HD 
HETATM   22  O   UNL     1      -7.849   9.013  68.307  1.00  0.00    -0.098 OA 
HETATM   23  C   UNL     1      -8.452  10.613  66.543  1.00  0.00    -0.144 C  
HETATM   24  O   UNL     1     -10.133  10.207  64.898  1.00  0.00    -0.330 OA 
HETATM   25  H   UNL     1      -6.746   9.750  66.093  1.00  0.00     0.000 HD 
HETATM   26  O   UNL     1      -7.474  10.130  65.617  1.00  0.00    -0.130 OA 
HETATM   27  H   UNL     1      -9.488   9.906  64.268  1.00  0.00     0.000 HD 
HETATM   28  C   UNL     1      -8.931   9.485  67.481  1.00  0.00    -0.124 C  
BRANCH  19  29
HETATM   29  C   UNL     1     -11.887  12.360  66.128  1.00  0.00    -0.376 C  
HETATM   30  O   UNL     1     -11.635  12.521  64.731  1.00  0.00    -0.314 OA 
HETATM   31  H   UNL     1     -12.390  12.924  64.319  1.00  0.00     0.000 HD 
ENDBRANCH  19  29
ENDBRANCH  16  17
ENDBRANCH  10  16
ENDBRANCH   3   4
TORSDOF 5
ENDMDL
MODEL      107
REMARK 921   NORMALIZED FREE ENERGY PREDICTED BY IDOCK:   -4.45 KCAL/MOL
REMARK 922        TOTAL FREE ENERGY PREDICTED BY IDOCK:   -7.33 KCAL/MOL
REMARK 923 INTER-LIGAND FREE ENERGY PREDICTED BY IDOCK:   -6.66 KCAL/MOL
REMARK 924 INTRA-LIGAND FREE ENERGY PREDICTED BY IDOCK:   -0.67 KCAL/MOL
REMARK 927      BINDING AFFINITY PREDICTED BY RF-SCORE:    0.00 PKD
ROOT
HETATM    1  O   UNL     1     -11.007  12.873  63.583  1.00  0.00    -0.510 OA 
HETATM    2  H   UNL     1     -11.108  13.109  62.668  1.00  0.00     0.000 HD 
HETATM    3  C   UNL     1     -11.732  13.794  64.397  1.00  0.00    -0.408 C  
ENDROOT
BRANCH   3   4
HETATM    4  C   UNL     1     -11.569  13.413  65.871  1.00  0.00    -0.342 C  
HETATM    5  O   UNL     1     -11.709  11.987  66.017  1.00  0.00    -0.460 OA 
HETATM    6  C   UNL     1     -10.915  11.610  67.145  1.00  0.00    -0.280 C  
HETATM    7  O   UNL     1     -10.459  10.267  66.936  1.00  0.00    -0.231 OA 
HETATM    8  H   UNL     1      -7.886  12.576  66.383  1.00  0.00     0.000 HD 
HETATM    9  C   UNL     1      -9.709  12.558  67.157  1.00  0.00    -0.205 C  
HETATM   10  C   UNL     1     -10.197  13.811  66.427  1.00  0.00    -0.292 C  
HETATM   11  O   UNL     1      -8.633  11.988  66.376  1.00  0.00    -0.145 OA 
HETATM   12  H   UNL     1      -9.931  10.017  67.685  1.00  0.00     0.000 HD 
BRANCH   6  13
HETATM   13  C   UNL     1     -11.774  11.662  68.417  1.00  0.00    -0.307 C  
HETATM   14  H   UNL     1     -11.636  10.942  70.233  1.00  0.00     0.000 HD 
HETATM   15  O   UNL     1     -11.105  10.910  69.446  1.00  0.00    -0.223 OA 
ENDBRANCH   6  13
BRANCH  10  16
HETATM   16  O   UNL     1     -10.280  14.923  67.332  1.00  0.00    -0.233 OA 
BRANCH  16  17
HETATM   17  C   UNL     1      -9.221  15.877  67.154  1.00  0.00    -0.209 C  
HETATM   18  O   UNL     1      -8.509  16.062  68.382  1.00  0.00    -0.168 OA 
HETATM   19  C   UNL     1      -7.402  16.972  68.242  1.00  0.00    -0.203 C  
HETATM   20  C   UNL     1      -7.905  18.364  67.840  1.00  0.00    -0.256 C  
HETATM   21  H   UNL     1     -10.751  17.802  64.982  1.00  0.00     0.000 HD 
HETATM   22  O   UNL     1     -10.399  16.986  65.318  1.00  0.00    -0.626 OA 
HETATM   23  C   UNL     1      -8.653  18.241  66.507  1.00  0.00    -0.266 C  
HETATM   24  O   UNL     1      -8.827  18.923  68.787  1.00  0.00    -0.339 OA 
HETATM   25  H   UNL     1      -9.618  19.446  65.293  1.00  0.00     0.000 HD 
HETATM   26  O   UNL     1      -9.154  19.523  66.118  1.00  0.00    -0.360 OA 
HETATM   27  H   UNL     1      -9.139  19.785  68.538  1.00  0.00     0.000 HD 
HETATM   28  C   UNL     1      -9.795  17.206  66.607  1.00  0.00    -0.289 C  
BRANCH  19  29
HETATM   29  C   UNL     1      -6.623  16.982  69.559  1.00  0.00    -0.194 C  
HETATM   30  O   UNL     1      -5.662  15.925  69.548  1.00  0.00    -0.117 OA 
HETATM   31  H   UNL     1      -5.178  15.932  70.366  1.00  0.00     0.000 HD 
ENDBRANCH  19  29
ENDBRANCH  16  17
ENDBRANCH  10  16
ENDBRANCH   3   4
TORSDOF 5
ENDMDL
MODEL      108
REMARK 921   NORMALIZED FREE ENERGY PREDICTED BY IDOCK:   -4.45 KCAL/MOL
REMARK 922        TOTAL FREE ENERGY PREDICTED BY IDOCK:   -7.33 KCAL/MOL
REMARK 923 INTER-LIGAND FREE ENERGY PREDICTED BY IDOCK:   -5.75 KCAL/MOL
REMARK 924 INTRA-LIGAND FREE ENERGY PREDICTED BY IDOCK:   -1.59 KCAL/MOL
REMARK 927      BINDING AFFINITY PREDICTED BY RF-SCORE:    0.00 PKD
ROOT
HETATM    1  O   UNL     1     -12.408   7.010  69.995  1.00  0.00    -0.553 OA 
HETATM    2  H   UNL     1     -13.131   7.216  69.414  1.00  0.00     0.000 HD 
HETATM    3  C   UNL     1     -12.871   6.982  71.345  1.00  0.00    -0.356 C  
ENDROOT
BRANCH   3   4
HETATM    4  C   UNL     1     -11.706   6.649  72.280  1.00  0.00    -0.269 C  
HETATM    5  O   UNL     1     -11.900   5.336  72.839  1.00  0.00    -0.271 OA 
HETATM    6  C   UNL     1     -10.598   4.803  73.097  1.00  0.00    -0.217 C  
HETATM    7  O   UNL     1     -10.671   3.377  72.978  1.00  0.00    -0.172 OA 
HETATM    8  H   UNL     1      -9.115   4.800  70.184  1.00  0.00     0.000 HD 
HETATM    9  C   UNL     1      -9.682   5.357  71.997  1.00  0.00    -0.161 C  
HETATM   10  C   UNL     1     -10.355   6.657  71.554  1.00  0.00    -0.209 C  
HETATM   11  O   UNL     1      -9.682   4.457  70.865  1.00  0.00    -0.170 OA 
HETATM   12  H   UNL     1      -9.806   3.023  73.149  1.00  0.00     0.000 HD 
BRANCH   6  13
HETATM   13  C   UNL     1     -10.167   5.171  74.525  1.00  0.00    -0.274 C  
HETATM   14  H   UNL     1      -8.463   5.491  75.436  1.00  0.00     0.000 HD 
HETATM   15  O   UNL     1      -8.730   5.264  74.553  1.00  0.00    -0.108 OA 
ENDBRANCH   6  13
BRANCH  10  16
HETATM   16  O   UNL     1      -9.553   7.791  71.917  1.00  0.00    -0.156 OA 
BRANCH  16  17
HETATM   17  C   UNL     1      -9.419   8.750  70.856  1.00  0.00    -0.216 C  
HETATM   18  O   UNL     1     -10.645   9.469  70.680  1.00  0.00    -0.262 OA 
HETATM   19  C   UNL     1     -10.547  10.481  69.662  1.00  0.00    -0.242 C  
HETATM   20  C   UNL     1     -10.243   9.840  68.301  1.00  0.00    -0.183 C  
HETATM   21  H   UNL     1      -7.400   6.998  68.955  1.00  0.00     0.000 HD 
HETATM   22  O   UNL     1      -7.677   7.433  69.753  1.00  0.00    -0.098 OA 
HETATM   23  C   UNL     1      -8.917   9.077  68.413  1.00  0.00    -0.133 C  
HETATM   24  O   UNL     1     -11.238   8.890  67.894  1.00  0.00    -0.450 OA 
HETATM   25  H   UNL     1      -7.798   7.977  67.233  1.00  0.00     0.000 HD 
HETATM   26  O   UNL     1      -8.619   8.449  67.163  1.00  0.00    -0.121 OA 
HETATM   27  H   UNL     1     -11.050   8.492  67.052  1.00  0.00     0.000 HD 
HETATM   28  C   UNL     1      -8.969   8.041  69.556  1.00  0.00    -0.148 C  
BRANCH  19  29
HETATM   29  C   UNL     1     -11.850  11.285  69.658  1.00  0.00    -0.360 C  
HETATM   30  O   UNL     1     -12.959  10.388  69.584  1.00  0.00    -0.616 OA 
HETATM   31  H   UNL     1     -13.767  10.886  69.581  1.00  0.00     0.000 HD 
ENDBRANCH  19  29
ENDBRANCH  16  17
ENDBRANCH  10  16
ENDBRANCH   3   4
TORSDOF 5
ENDMDL
MODEL      109
REMARK 921   NORMALIZED FREE ENERGY PREDICTED BY IDOCK:   -4.45 KCAL/MOL
REMARK 922        TOTAL FREE ENERGY PREDICTED BY IDOCK:   -7.33 KCAL/MOL
REMARK 923 INTER-LIGAND FREE ENERGY PREDICTED BY IDOCK:   -5.84 KCAL/MOL
REMARK 924 INTRA-LIGAND FREE ENERGY PREDICTED BY IDOCK:   -1.49 KCAL/MOL
REMARK 927      BINDING AFFINITY PREDICTED BY RF-SCORE:    0.00 PKD
ROOT
HETATM    1  O   UNL     1     -11.824  13.080  68.096  1.00  0.00    -0.334 OA 
HETATM    2  H   UNL     1     -12.595  12.535  68.206  1.00  0.00     0.000 HD 
HETATM    3  C   UNL     1     -12.054  14.033  67.060  1.00  0.00    -0.420 C  
ENDROOT
BRANCH   3   4
HETATM    4  C   UNL     1     -10.812  14.909  66.882  1.00  0.00    -0.319 C  
HETATM    5  O   UNL     1     -11.096  16.244  67.345  1.00  0.00    -0.232 OA 
HETATM    6  C   UNL     1      -9.858  16.790  67.808  1.00  0.00    -0.257 C  
HETATM    7  O   UNL     1     -10.150  17.732  68.848  1.00  0.00    -0.360 OA 
HETATM    8  H   UNL     1      -8.883  14.747  70.166  1.00  0.00     0.000 HD 
HETATM    9  C   UNL     1      -9.064  15.616  68.396  1.00  0.00    -0.190 C  
HETATM   10  C   UNL     1      -9.609  14.382  67.675  1.00  0.00    -0.214 C  
HETATM   11  O   UNL     1      -9.375  15.474  69.802  1.00  0.00    -0.274 OA 
HETATM   12  H   UNL     1      -9.328  18.095  69.155  1.00  0.00     0.000 HD 
BRANCH   6  13
HETATM   13  C   UNL     1      -9.153  17.514  66.651  1.00  0.00    -0.269 C  
HETATM   14  H   UNL     1      -9.716  18.635  65.147  1.00  0.00     0.000 HD 
HETATM   15  O   UNL     1     -10.152  18.187  65.863  1.00  0.00    -0.546 OA 
ENDBRANCH   6  13
BRANCH  10  16
HETATM   16  O   UNL     1      -8.606  13.811  66.821  1.00  0.00    -0.160 OA 
BRANCH  16  17
HETATM   17  C   UNL     1      -8.303  12.444  67.142  1.00  0.00    -0.181 C  
HETATM   18  O   UNL     1      -9.499  11.656  67.133  1.00  0.00    -0.174 OA 
HETATM   19  C   UNL     1      -9.241  10.265  67.398  1.00  0.00    -0.141 C  
HETATM   20  C   UNL     1      -8.641  10.092  68.800  1.00  0.00    -0.133 C  
HETATM   21  H   UNL     1      -5.868  13.039  69.258  1.00  0.00     0.000 HD 
HETATM   22  O   UNL     1      -6.319  13.084  68.423  1.00  0.00    -0.070 OA 
HETATM   23  C   UNL     1      -7.333  10.890  68.866  1.00  0.00    -0.111 C  
HETATM   24  O   UNL     1      -9.491  10.596  69.840  1.00  0.00    -0.383 OA 
HETATM   25  H   UNL     1      -5.952  11.260  70.213  1.00  0.00     0.000 HD 
HETATM   26  O   UNL     1      -6.762  10.765  70.172  1.00  0.00    -0.156 OA 
HETATM   27  H   UNL     1      -9.120  10.489  70.708  1.00  0.00     0.000 HD 
HETATM   28  C   UNL     1      -7.569  12.372  68.503  1.00  0.00    -0.122 C  
BRANCH  19  29
HETATM   29  C   UNL     1     -10.550   9.493  67.216  1.00  0.00    -0.248 C  
HETATM   30  O   UNL     1     -11.528   9.998  68.126  1.00  0.00    -0.541 OA 
HETATM   31  H   UNL     1     -12.340   9.519  68.014  1.00  0.00     0.000 HD 
ENDBRANCH  19  29
ENDBRANCH  16  17
ENDBRANCH  10  16
ENDBRANCH   3   4
TORSDOF 5
ENDMDL
MODEL      110
REMARK 921   NORMALIZED FREE ENERGY PREDICTED BY IDOCK:   -4.44 KCAL/MOL
REMARK 922        TOTAL FREE ENERGY PREDICTED BY IDOCK:   -7.32 KCAL/MOL
REMARK 923 INTER-LIGAND FREE ENERGY PREDICTED BY IDOCK:   -6.07 KCAL/MOL
REMARK 924 INTRA-LIGAND FREE ENERGY PREDICTED BY IDOCK:   -1.25 KCAL/MOL
REMARK 927      BINDING AFFINITY PREDICTED BY RF-SCORE:    0.00 PKD
ROOT
HETATM    1  O   UNL     1     -10.048   9.991  64.148  1.00  0.00    -0.458 OA 
HETATM    2  H   UNL     1     -10.272   9.384  63.452  1.00  0.00     0.000 HD 
HETATM    3  C   UNL     1     -10.613  11.271  63.869  1.00  0.00    -0.391 C  
ENDROOT
BRANCH   3   4
HETATM    4  C   UNL     1     -10.252  12.248  64.991  1.00  0.00    -0.285 C  
HETATM    5  O   UNL     1     -11.231  13.304  65.041  1.00  0.00    -0.294 OA 
HETATM    6  C   UNL     1     -11.289  13.746  66.400  1.00  0.00    -0.317 C  
HETATM    7  O   UNL     1     -12.614  14.230  66.651  1.00  0.00    -0.555 OA 
HETATM    8  H   UNL     1     -12.126  11.081  68.099  1.00  0.00     0.000 HD 
HETATM    9  C   UNL     1     -11.031  12.505  67.265  1.00  0.00    -0.261 C  
HETATM   10  C   UNL     1     -10.222  11.569  66.366  1.00  0.00    -0.224 C  
HETATM   11  O   UNL     1     -12.285  11.849  67.563  1.00  0.00    -0.510 OA 
HETATM   12  H   UNL     1     -12.653  14.523  67.554  1.00  0.00     0.000 HD 
BRANCH   6  13
HETATM   13  C   UNL     1     -10.283  14.886  66.612  1.00  0.00    -0.261 C  
HETATM   14  H   UNL     1      -9.454  16.254  65.482  1.00  0.00     0.000 HD 
HETATM   15  O   UNL     1     -10.077  15.549  65.350  1.00  0.00    -0.356 OA 
ENDBRANCH   6  13
BRANCH  10  16
HETATM   16  O   UNL     1      -8.884  11.419  66.866  1.00  0.00    -0.162 OA 
BRANCH  16  17
HETATM   17  C   UNL     1      -8.632  10.119  67.421  1.00  0.00    -0.122 C  
HETATM   18  O   UNL     1      -9.689   9.217  67.074  1.00  0.00    -0.163 OA 
HETATM   19  C   UNL     1      -9.456   7.884  67.564  1.00  0.00    -0.145 C  
HETATM   20  C   UNL     1      -9.398   7.883  69.097  1.00  0.00    -0.154 C  
HETATM   21  H   UNL     1      -7.177  11.118  70.187  1.00  0.00     0.000 HD 
HETATM   22  O   UNL     1      -7.295  11.051  69.247  1.00  0.00    -0.116 OA 
HETATM   23  C   UNL     1      -8.258   8.809  69.537  1.00  0.00    -0.111 C  
HETATM   24  O   UNL     1     -10.599   8.380  69.704  1.00  0.00    -0.224 OA 
HETATM   25  H   UNL     1      -7.489   9.420  71.238  1.00  0.00     0.000 HD 
HETATM   26  O   UNL     1      -8.195   8.846  70.965  1.00  0.00    -0.150 OA 
HETATM   27  H   UNL     1     -10.563   8.380  70.654  1.00  0.00     0.000 HD 
HETATM   28  C   UNL     1      -8.440  10.227  68.953  1.00  0.00    -0.138 C  
BRANCH  19  29
HETATM   29  C   UNL     1     -10.557   6.973  67.013  1.00  0.00    -0.341 C  
HETATM   30  O   UNL     1     -11.114   6.207  68.082  1.00  0.00    -0.332 OA 
HETATM   31  H   UNL     1     -11.797   5.641  67.740  1.00  0.00     0.000 HD 
ENDBRANCH  19  29
ENDBRANCH  16  17
ENDBRANCH  10  16
ENDBRANCH   3   4
TORSDOF 5
ENDMDL
MODEL      111
REMARK 921   NORMALIZED FREE ENERGY PREDICTED BY IDOCK:   -4.44 KCAL/MOL
REMARK 922        TOTAL FREE ENERGY PREDICTED BY IDOCK:   -7.32 KCAL/MOL
REMARK 923 INTER-LIGAND FREE ENERGY PREDICTED BY IDOCK:   -6.44 KCAL/MOL
REMARK 924 INTRA-LIGAND FREE ENERGY PREDICTED BY IDOCK:   -0.88 KCAL/MOL
REMARK 927      BINDING AFFINITY PREDICTED BY RF-SCORE:    0.00 PKD
ROOT
HETATM    1  O   UNL     1      -7.145  13.344  66.926  1.00  0.00    -0.359 OA 
HETATM    2  H   UNL     1      -6.212  13.219  66.799  1.00  0.00     0.000 HD 
HETATM    3  C   UNL     1      -7.386  14.647  67.457  1.00  0.00    -0.197 C  
ENDROOT
BRANCH   3   4
HETATM    4  C   UNL     1      -8.890  14.848  67.662  1.00  0.00    -0.181 C  
HETATM    5  O   UNL     1      -9.138  16.197  68.102  1.00  0.00    -0.186 OA 
HETATM    6  C   UNL     1     -10.441  16.549  67.631  1.00  0.00    -0.305 C  
HETATM    7  O   UNL     1     -10.466  17.965  67.412  1.00  0.00    -0.369 OA 
HETATM    8  H   UNL     1     -10.263  16.223  64.383  1.00  0.00     0.000 HD 
HETATM    9  C   UNL     1     -10.623  15.827  66.289  1.00  0.00    -0.310 C  
HETATM   10  C   UNL     1      -9.689  14.619  66.373  1.00  0.00    -0.295 C  
HETATM   11  O   UNL     1     -10.151  16.671  65.214  1.00  0.00    -0.575 OA 
HETATM   12  H   UNL     1     -11.332  18.200  67.100  1.00  0.00     0.000 HD 
BRANCH   6  13
HETATM   13  C   UNL     1     -11.487  16.182  68.695  1.00  0.00    -0.340 C  
HETATM   14  H   UNL     1     -11.614  16.323  70.644  1.00  0.00     0.000 HD 
HETATM   15  O   UNL     1     -10.968  16.551  69.986  1.00  0.00    -0.350 OA 
ENDBRANCH   6  13
BRANCH  10  16
HETATM   16  O   UNL     1     -10.443  13.398  66.414  1.00  0.00    -0.278 OA 
BRANCH  16  17
HETATM   17  C   UNL     1     -10.202  12.624  67.600  1.00  0.00    -0.217 C  
HETATM   18  O   UNL     1      -9.387  11.488  67.293  1.00  0.00    -0.164 OA 
HETATM   19  C   UNL     1      -9.072  10.707  68.460  1.00  0.00    -0.159 C  
HETATM   20  C   UNL     1     -10.355  10.141  69.085  1.00  0.00    -0.219 C  
HETATM   21  H   UNL     1     -13.102  13.148  69.040  1.00  0.00     0.000 HD 
HETATM   22  O   UNL     1     -12.276  13.397  68.642  1.00  0.00    -0.298 OA 
HETATM   23  C   UNL     1     -11.263  11.316  69.469  1.00  0.00    -0.272 C  
HETATM   24  O   UNL     1     -11.102   9.314  68.181  1.00  0.00    -0.492 OA 
HETATM   25  H   UNL     1     -13.041  11.545  70.270  1.00  0.00     0.000 HD 
HETATM   26  O   UNL     1     -12.479  10.817  70.033  1.00  0.00    -0.325 OA 
HETATM   27  H   UNL     1     -11.896   8.964  68.567  1.00  0.00     0.000 HD 
HETATM   28  C   UNL     1     -11.547  12.218  68.248  1.00  0.00    -0.331 C  
BRANCH  19  29
HETATM   29  C   UNL     1      -8.082   9.613  68.052  1.00  0.00    -0.105 C  
HETATM   30  O   UNL     1      -8.517   9.013  66.831  1.00  0.00    -0.117 OA 
HETATM   31  H   UNL     1      -7.903   8.335  66.577  1.00  0.00     0.000 HD 
ENDBRANCH  19  29
ENDBRANCH  16  17
ENDBRANCH  10  16
ENDBRANCH   3   4
TORSDOF 5
ENDMDL
MODEL      112
REMARK 921   NORMALIZED FREE ENERGY PREDICTED BY IDOCK:   -4.43 KCAL/MOL
REMARK 922        TOTAL FREE ENERGY PREDICTED BY IDOCK:   -7.30 KCAL/MOL
REMARK 923 INTER-LIGAND FREE ENERGY PREDICTED BY IDOCK:   -6.55 KCAL/MOL
REMARK 924 INTRA-LIGAND FREE ENERGY PREDICTED BY IDOCK:   -0.75 KCAL/MOL
REMARK 927      BINDING AFFINITY PREDICTED BY RF-SCORE:    0.00 PKD
ROOT
HETATM    1  O   UNL     1      -9.646  10.405  64.757  1.00  0.00    -0.241 OA 
HETATM    2  H   UNL     1      -9.275   9.926  64.025  1.00  0.00     0.000 HD 
HETATM    3  C   UNL     1     -10.026   9.489  65.784  1.00  0.00    -0.245 C  
ENDROOT
BRANCH   3   4
HETATM    4  C   UNL     1     -10.624  10.260  66.964  1.00  0.00    -0.239 C  
HETATM    5  O   UNL     1     -10.342   9.556  68.189  1.00  0.00    -0.188 OA 
HETATM    6  C   UNL     1     -10.269  10.542  69.221  1.00  0.00    -0.225 C  
HETATM    7  O   UNL     1      -9.365  10.066  70.226  1.00  0.00    -0.377 OA 
HETATM    8  H   UNL     1      -7.879  12.560  68.270  1.00  0.00     0.000 HD 
HETATM    9  C   UNL     1      -9.684  11.803  68.570  1.00  0.00    -0.178 C  
HETATM   10  C   UNL     1     -10.045  11.674  67.089  1.00  0.00    -0.204 C  
HETATM   11  O   UNL     1      -8.242  11.779  68.673  1.00  0.00    -0.147 OA 
HETATM   12  H   UNL     1      -9.316  10.722  70.912  1.00  0.00     0.000 HD 
BRANCH   6  13
HETATM   13  C   UNL     1     -11.660  10.739  69.842  1.00  0.00    -0.331 C  
HETATM   14  H   UNL     1     -12.711  12.266  70.475  1.00  0.00     0.000 HD 
HETATM   15  O   UNL     1     -11.851  12.144  70.090  1.00  0.00    -0.333 OA 
ENDBRANCH   6  13
BRANCH  10  16
HETATM   16  O   UNL     1     -10.992  12.683  66.710  1.00  0.00    -0.249 OA 
BRANCH  16  17
HETATM   17  C   UNL     1     -10.386  13.813  66.063  1.00  0.00    -0.308 C  
HETATM   18  O   UNL     1      -9.679  14.612  67.018  1.00  0.00    -0.232 OA 
HETATM   19  C   UNL     1      -9.008  15.730  66.410  1.00  0.00    -0.331 C  
HETATM   20  C   UNL     1     -10.028  16.671  65.755  1.00  0.00    -0.243 C  
HETATM   21  H   UNL     1     -12.720  14.312  63.813  1.00  0.00     0.000 HD 
HETATM   22  O   UNL     1     -12.060  13.813  64.278  1.00  0.00    -0.426 OA 
HETATM   23  C   UNL     1     -10.800  15.881  64.691  1.00  0.00    -0.211 C  
HETATM   24  O   UNL     1     -10.997  17.181  66.683  1.00  0.00    -0.031 OA 
HETATM   25  H   UNL     1     -12.254  16.240  63.421  1.00  0.00     0.000 HD 
HETATM   26  O   UNL     1     -11.776  16.729  64.080  1.00  0.00    -1.120 OA 
HETATM   27  H   UNL     1     -11.629  17.764  66.278  1.00  0.00     0.000 HD 
HETATM   28  C   UNL     1     -11.461  14.628  65.304  1.00  0.00    -0.361 C  
BRANCH  19  29
HETATM   29  C   UNL     1      -8.167  16.425  67.483  1.00  0.00    -0.150 C  
HETATM   30  O   UNL     1      -7.430  17.494  66.888  1.00  0.00    -0.178 OA 
HETATM   31  H   UNL     1      -6.907  17.925  67.553  1.00  0.00     0.000 HD 
ENDBRANCH  19  29
ENDBRANCH  16  17
ENDBRANCH  10  16
ENDBRANCH   3   4
TORSDOF 5
ENDMDL
MODEL      113
REMARK 921   NORMALIZED FREE ENERGY PREDICTED BY IDOCK:   -4.35 KCAL/MOL
REMARK 922        TOTAL FREE ENERGY PREDICTED BY IDOCK:   -7.21 KCAL/MOL
REMARK 923 INTER-LIGAND FREE ENERGY PREDICTED BY IDOCK:   -6.49 KCAL/MOL
REMARK 924 INTRA-LIGAND FREE ENERGY PREDICTED BY IDOCK:   -0.72 KCAL/MOL
REMARK 927      BINDING AFFINITY PREDICTED BY RF-SCORE:    0.00 PKD
ROOT
HETATM    1  O   UNL     1     -10.556   5.380  69.881  1.00  0.00    -0.307 OA 
HETATM    2  H   UNL     1     -10.135   4.726  69.334  1.00  0.00     0.000 HD 
HETATM    3  C   UNL     1     -10.916   6.509  69.085  1.00  0.00    -0.323 C  
ENDROOT
BRANCH   3   4
HETATM    4  C   UNL     1     -11.593   7.563  69.966  1.00  0.00     0.051 C  
HETATM    5  O   UNL     1     -11.930   6.979  71.239  1.00  0.00    -0.307 OA 
HETATM    6  C   UNL     1     -11.891   8.038  72.199  1.00  0.00    -0.349 C  
HETATM    7  O   UNL     1     -11.531   7.475  73.466  1.00  0.00    -0.608 OA 
HETATM    8  H   UNL     1      -8.836   9.190  72.035  1.00  0.00     0.000 HD 
HETATM    9  C   UNL     1     -10.784   8.995  71.737  1.00  0.00    -0.367 C  
HETATM   10  C   UNL     1     -10.686   8.772  70.227  1.00  0.00    -0.227 C  
HETATM   11  O   UNL     1      -9.522   8.597  72.321  1.00  0.00    -0.283 OA 
HETATM   12  H   UNL     1     -11.505   8.178  74.104  1.00  0.00     0.000 HD 
BRANCH   6  13
HETATM   13  C   UNL     1     -13.281   8.684  72.307  1.00  0.00    -0.372 C  
HETATM   14  H   UNL     1     -15.121   8.120  71.946  1.00  0.00     0.000 HD 
HETATM   15  O   UNL     1     -14.262   7.720  71.879  1.00  0.00    -0.388 OA 
ENDBRANCH   6  13
BRANCH  10  16
HETATM   16  O   UNL     1     -11.121   9.939  69.514  1.00  0.00    -0.233 OA 
BRANCH  16  17
HETATM   17  C   UNL     1     -10.140  10.434  68.589  1.00  0.00    -0.176 C  
HETATM   18  O   UNL     1      -8.884  10.617  69.250  1.00  0.00    -0.153 OA 
HETATM   19  C   UNL     1      -7.851  11.063  68.352  1.00  0.00    -0.127 C  
HETATM   20  C   UNL     1      -8.213  12.433  67.762  1.00  0.00    -0.163 C  
HETATM   21  H   UNL     1     -12.162  12.276  66.778  1.00  0.00     0.000 HD 
HETATM   22  O   UNL     1     -11.851  11.475  67.183  1.00  0.00    -0.595 OA 
HETATM   23  C   UNL     1      -9.542  12.297  67.008  1.00  0.00    -0.208 C  
HETATM   24  O   UNL     1      -8.403  13.443  68.764  1.00  0.00    -0.335 OA 
HETATM   25  H   UNL     1     -10.739  13.482  65.999  1.00  0.00     0.000 HD 
HETATM   26  O   UNL     1      -9.916  13.566  66.466  1.00  0.00    -0.272 OA 
HETATM   27  H   UNL     1      -8.627  14.291  68.399  1.00  0.00     0.000 HD 
HETATM   28  C   UNL     1     -10.647  11.739  67.930  1.00  0.00    -0.201 C  
BRANCH  19  29
HETATM   29  C   UNL     1      -6.526  11.081  69.118  1.00  0.00    -0.066 C  
HETATM   30  O   UNL     1      -6.790  11.178  70.518  1.00  0.00    -0.483 OA 
HETATM   31  H   UNL     1      -5.968  11.190  70.994  1.00  0.00     0.000 HD 
ENDBRANCH  19  29
ENDBRANCH  16  17
ENDBRANCH  10  16
ENDBRANCH   3   4
TORSDOF 5
ENDMDL
MODEL      114
REMARK 921   NORMALIZED FREE ENERGY PREDICTED BY IDOCK:   -4.35 KCAL/MOL
REMARK 922        TOTAL FREE ENERGY PREDICTED BY IDOCK:   -7.20 KCAL/MOL
REMARK 923 INTER-LIGAND FREE ENERGY PREDICTED BY IDOCK:   -6.31 KCAL/MOL
REMARK 924 INTRA-LIGAND FREE ENERGY PREDICTED BY IDOCK:   -0.89 KCAL/MOL
REMARK 927      BINDING AFFINITY PREDICTED BY RF-SCORE:    0.00 PKD
ROOT
HETATM    1  O   UNL     1      -8.301  12.896  68.793  1.00  0.00    -0.345 OA 
HETATM    2  H   UNL     1      -7.499  12.907  69.301  1.00  0.00     0.000 HD 
HETATM    3  C   UNL     1      -7.999  12.621  67.426  1.00  0.00    -0.177 C  
ENDROOT
BRANCH   3   4
HETATM    4  C   UNL     1      -9.292  12.602  66.607  1.00  0.00    -0.236 C  
HETATM    5  O   UNL     1      -9.116  11.764  65.449  1.00  0.00    -0.089 OA 
HETATM    6  C   UNL     1     -10.402  11.227  65.130  1.00  0.00    -0.295 C  
HETATM    7  O   UNL     1     -10.208   9.949  64.513  1.00  0.00    -0.378 OA 
HETATM    8  H   UNL     1     -11.309   9.603  67.818  1.00  0.00     0.000 HD 
HETATM    9  C   UNL     1     -11.132  11.039  66.467  1.00  0.00    -0.106 C  
HETATM   10  C   UNL     1     -10.480  12.055  67.408  1.00  0.00    -0.216 C  
HETATM   11  O   UNL     1     -10.857   9.719  66.990  1.00  0.00    -0.203 OA 
HETATM   12  H   UNL     1     -11.063   9.592  64.302  1.00  0.00     0.000 HD 
BRANCH   6  13
HETATM   13  C   UNL     1     -11.118  12.163  64.145  1.00  0.00    -0.364 C  
HETATM   14  H   UNL     1     -12.945  12.350  63.464  1.00  0.00     0.000 HD 
HETATM   15  O   UNL     1     -12.502  11.772  64.074  1.00  0.00    -0.318 OA 
ENDBRANCH   6  13
BRANCH  10  16
HETATM   16  O   UNL     1     -11.414  13.085  67.764  1.00  0.00    -0.277 OA 
BRANCH  16  17
HETATM   17  C   UNL     1     -11.351  13.448  69.152  1.00  0.00    -0.280 C  
HETATM   18  O   UNL     1     -12.494  12.943  69.850  1.00  0.00    -0.128 OA 
HETATM   19  C   UNL     1     -12.451  13.236  71.259  1.00  0.00    -0.258 C  
HETATM   20  C   UNL     1     -12.463  14.754  71.487  1.00  0.00    -0.339 C  
HETATM   21  H   UNL     1      -9.910  16.369  68.757  1.00  0.00     0.000 HD 
HETATM   22  O   UNL     1      -9.993  15.426  68.672  1.00  0.00    -0.200 OA 
HETATM   23  C   UNL     1     -11.238  15.356  70.789  1.00  0.00    -0.346 C  
HETATM   24  O   UNL     1     -13.620  15.396  70.931  1.00  0.00    -0.669 OA 
HETATM   25  H   UNL     1     -10.477  17.148  70.533  1.00  0.00     0.000 HD 
HETATM   26  O   UNL     1     -11.236  16.775  70.966  1.00  0.00    -0.087 OA 
HETATM   27  H   UNL     1     -13.627  16.335  71.072  1.00  0.00     0.000 HD 
HETATM   28  C   UNL     1     -11.217  14.984  69.291  1.00  0.00    -0.286 C  
BRANCH  19  29
HETATM   29  C   UNL     1     -13.630  12.528  71.931  1.00  0.00    -0.180 C  
HETATM   30  O   UNL     1     -13.211  11.240  72.386  1.00  0.00    -0.536 OA 
HETATM   31  H   UNL     1     -13.942  10.800  72.803  1.00  0.00     0.000 HD 
ENDBRANCH  19  29
ENDBRANCH  16  17
ENDBRANCH  10  16
ENDBRANCH   3   4
TORSDOF 5
ENDMDL
MODEL      115
REMARK 921   NORMALIZED FREE ENERGY PREDICTED BY IDOCK:   -4.33 KCAL/MOL
REMARK 922        TOTAL FREE ENERGY PREDICTED BY IDOCK:   -7.18 KCAL/MOL
REMARK 923 INTER-LIGAND FREE ENERGY PREDICTED BY IDOCK:   -5.81 KCAL/MOL
REMARK 924 INTRA-LIGAND FREE ENERGY PREDICTED BY IDOCK:   -1.36 KCAL/MOL
REMARK 927      BINDING AFFINITY PREDICTED BY RF-SCORE:    0.00 PKD
ROOT
HETATM    1  O   UNL     1     -12.596   7.178  70.447  1.00  0.00    -0.612 OA 
HETATM    2  H   UNL     1     -13.482   7.336  70.751  1.00  0.00     0.000 HD 
HETATM    3  C   UNL     1     -11.852   6.513  71.468  1.00  0.00    -0.333 C  
ENDROOT
BRANCH   3   4
HETATM    4  C   UNL     1     -10.424   6.258  70.979  1.00  0.00    -0.225 C  
HETATM    5  O   UNL     1     -10.321   4.910  70.481  1.00  0.00    -0.239 OA 
HETATM    6  C   UNL     1      -9.311   4.921  69.470  1.00  0.00    -0.130 C  
HETATM    7  O   UNL     1      -9.626   3.898  68.517  1.00  0.00    -0.160 OA 
HETATM    8  H   UNL     1     -10.382   7.075  67.256  1.00  0.00     0.000 HD 
HETATM    9  C   UNL     1      -9.402   6.293  68.788  1.00  0.00    -0.124 C  
HETATM   10  C   UNL     1     -10.017   7.209  69.847  1.00  0.00    -0.182 C  
HETATM   11  O   UNL     1     -10.326   6.225  67.678  1.00  0.00    -0.148 OA 
HETATM   12  H   UNL     1      -8.954   3.906  67.845  1.00  0.00     0.000 HD 
BRANCH   6  13
HETATM   13  C   UNL     1      -7.945   4.620  70.106  1.00  0.00    -0.064 C  
HETATM   14  H   UNL     1      -7.313   3.589  71.646  1.00  0.00     0.000 HD 
HETATM   15  O   UNL     1      -8.157   3.775  71.253  1.00  0.00    -0.062 OA 
ENDBRANCH   6  13
BRANCH  10  16
HETATM   16  O   UNL     1      -9.065   8.191  70.282  1.00  0.00    -0.148 OA 
BRANCH  16  17
HETATM   17  C   UNL     1      -9.583   9.530  70.259  1.00  0.00    -0.265 C  
HETATM   18  O   UNL     1     -10.949   9.541  70.690  1.00  0.00    -0.255 OA 
HETATM   19  C   UNL     1     -11.500  10.869  70.734  1.00  0.00    -0.019 C  
HETATM   20  C   UNL     1     -11.503  11.492  69.332  1.00  0.00    -0.309 C  
HETATM   21  H   UNL     1      -7.912  10.583  67.640  1.00  0.00     0.000 HD 
HETATM   22  O   UNL     1      -8.016  10.211  68.507  1.00  0.00    -0.098 OA 
HETATM   23  C   UNL     1     -10.057  11.541  68.823  1.00  0.00    -0.179 C  
HETATM   24  O   UNL     1     -12.256  10.727  68.380  1.00  0.00    -0.832 OA 
HETATM   25  H   UNL     1      -9.137  12.127  67.190  1.00  0.00     0.000 HD 
HETATM   26  O   UNL     1     -10.032  12.097  67.506  1.00  0.00    -0.194 OA 
HETATM   27  H   UNL     1     -12.258  11.112  67.512  1.00  0.00     0.000 HD 
HETATM   28  C   UNL     1      -9.415  10.137  68.845  1.00  0.00    -0.182 C  
BRANCH  19  29
HETATM   29  C   UNL     1     -12.900  10.786  71.347  1.00  0.00    -0.452 C  
HETATM   30  O   UNL     1     -13.641   9.753  70.696  1.00  0.00    -0.600 OA 
HETATM   31  H   UNL     1     -14.510   9.701  71.076  1.00  0.00     0.000 HD 
ENDBRANCH  19  29
ENDBRANCH  16  17
ENDBRANCH  10  16
ENDBRANCH   3   4
TORSDOF 5
ENDMDL
MODEL      116
REMARK 921   NORMALIZED FREE ENERGY PREDICTED BY IDOCK:   -4.32 KCAL/MOL
REMARK 922        TOTAL FREE ENERGY PREDICTED BY IDOCK:   -7.17 KCAL/MOL
REMARK 923 INTER-LIGAND FREE ENERGY PREDICTED BY IDOCK:   -6.12 KCAL/MOL
REMARK 924 INTRA-LIGAND FREE ENERGY PREDICTED BY IDOCK:   -1.05 KCAL/MOL
REMARK 927      BINDING AFFINITY PREDICTED BY RF-SCORE:    0.00 PKD
ROOT
HETATM    1  O   UNL     1     -11.612  12.750  64.635  1.00  0.00    -0.312 OA 
HETATM    2  H   UNL     1     -12.347  13.147  64.182  1.00  0.00     0.000 HD 
HETATM    3  C   UNL     1     -12.006  12.378  65.955  1.00  0.00    -0.367 C  
ENDROOT
BRANCH   3   4
HETATM    4  C   UNL     1     -10.821  11.738  66.683  1.00  0.00    -0.276 C  
HETATM    5  O   UNL     1     -10.895  10.305  66.554  1.00  0.00    -0.123 OA 
HETATM    6  C   UNL     1      -9.552   9.819  66.597  1.00  0.00    -0.187 C  
HETATM    7  O   UNL     1      -9.491   8.615  65.823  1.00  0.00    -0.376 OA 
HETATM    8  H   UNL     1      -8.056  11.300  64.096  1.00  0.00     0.000 HD 
HETATM    9  C   UNL     1      -8.684  10.895  65.929  1.00  0.00    -0.183 C  
HETATM   10  C   UNL     1      -9.472  12.193  66.112  1.00  0.00    -0.224 C  
HETATM   11  O   UNL     1      -8.593  10.634  64.510  1.00  0.00    -0.172 OA 
HETATM   12  H   UNL     1      -8.598   8.292  65.851  1.00  0.00     0.000 HD 
BRANCH   6  13
HETATM   13  C   UNL     1      -9.165   9.507  68.051  1.00  0.00    -0.129 C  
HETATM   14  H   UNL     1     -10.042   8.661  69.584  1.00  0.00     0.000 HD 
HETATM   15  O   UNL     1     -10.281   8.854  68.685  1.00  0.00    -0.190 OA 
ENDBRANCH   6  13
BRANCH  10  16
HETATM   16  O   UNL     1      -8.781  13.084  67.001  1.00  0.00    -0.210 OA 
BRANCH  16  17
HETATM   17  C   UNL     1      -9.445  14.346  67.164  1.00  0.00    -0.222 C  
HETATM   18  O   UNL     1      -9.838  14.868  65.890  1.00  0.00    -0.295 OA 
HETATM   19  C   UNL     1     -10.556  16.111  66.004  1.00  0.00    -0.295 C  
HETATM   20  C   UNL     1      -9.662  17.187  66.635  1.00  0.00    -0.276 C  
HETATM   21  H   UNL     1      -7.700  15.410  69.730  1.00  0.00     0.000 HD 
HETATM   22  O   UNL     1      -8.261  14.809  69.255  1.00  0.00    -0.142 OA 
HETATM   23  C   UNL     1      -9.231  16.701  68.024  1.00  0.00    -0.223 C  
HETATM   24  O   UNL     1      -8.463  17.429  65.886  1.00  0.00    -0.530 OA 
HETATM   25  H   UNL     1      -8.109  17.374  69.488  1.00  0.00     0.000 HD 
HETATM   26  O   UNL     1      -8.376  17.676  68.628  1.00  0.00    -0.286 OA 
HETATM   27  H   UNL     1      -7.909  18.095  66.276  1.00  0.00     0.000 HD 
HETATM   28  C   UNL     1      -8.532  15.327  67.938  1.00  0.00    -0.148 C  
BRANCH  19  29
HETATM   29  C   UNL     1     -11.059  16.502  64.612  1.00  0.00    -0.123 C  
HETATM   30  O   UNL     1     -11.775  15.405  64.042  1.00  0.00    -0.831 OA 
HETATM   31  H   UNL     1     -12.086  15.647  63.178  1.00  0.00     0.000 HD 
ENDBRANCH  19  29
ENDBRANCH  16  17
ENDBRANCH  10  16
ENDBRANCH   3   4
TORSDOF 5
ENDMDL
MODEL      117
REMARK 921   NORMALIZED FREE ENERGY PREDICTED BY IDOCK:   -4.32 KCAL/MOL
REMARK 922        TOTAL FREE ENERGY PREDICTED BY IDOCK:   -7.16 KCAL/MOL
REMARK 923 INTER-LIGAND FREE ENERGY PREDICTED BY IDOCK:   -6.56 KCAL/MOL
REMARK 924 INTRA-LIGAND FREE ENERGY PREDICTED BY IDOCK:   -0.61 KCAL/MOL
REMARK 927      BINDING AFFINITY PREDICTED BY RF-SCORE:    0.00 PKD
ROOT
HETATM    1  O   UNL     1     -11.998  12.029  67.342  1.00  0.00    -0.583 OA 
HETATM    2  H   UNL     1     -12.301  11.831  68.220  1.00  0.00     0.000 HD 
HETATM    3  C   UNL     1     -10.665  11.547  67.174  1.00  0.00    -0.254 C  
ENDROOT
BRANCH   3   4
HETATM    4  C   UNL     1     -10.177  11.867  65.759  1.00  0.00    -0.242 C  
HETATM    5  O   UNL     1     -10.884  11.045  64.811  1.00  0.00    -0.276 OA 
HETATM    6  C   UNL     1     -10.945  11.787  63.590  1.00  0.00    -0.439 C  
HETATM    7  O   UNL     1     -12.137  11.399  62.895  1.00  0.00    -0.919 OA 
HETATM    8  H   UNL     1     -12.510  14.547  64.379  1.00  0.00     0.000 HD 
HETATM    9  C   UNL     1     -11.052  13.264  63.991  1.00  0.00    -0.311 C  
HETATM   10  C   UNL     1     -10.414  13.334  65.379  1.00  0.00    -0.297 C  
HETATM   11  O   UNL     1     -12.444  13.632  64.131  1.00  0.00    -0.635 OA 
HETATM   12  H   UNL     1     -12.178  11.892  62.084  1.00  0.00     0.000 HD 
BRANCH   6  13
HETATM   13  C   UNL     1      -9.721  11.453  62.725  1.00  0.00    -0.219 C  
HETATM   14  H   UNL     1      -8.637   9.858  62.385  1.00  0.00     0.000 HD 
HETATM   15  O   UNL     1      -9.394  10.065  62.920  1.00  0.00    -0.284 OA 
ENDBRANCH   6  13
BRANCH  10  16
HETATM   16  O   UNL     1      -9.192  14.086  65.338  1.00  0.00     0.283 OA 
BRANCH  16  17
HETATM   17  C   UNL     1      -9.039  14.977  66.454  1.00  0.00    -0.277 C  
HETATM   18  O   UNL     1      -8.278  14.347  67.490  1.00  0.00    -0.161 OA 
HETATM   19  C   UNL     1      -8.052  15.219  68.612  1.00  0.00    -0.156 C  
HETATM   20  C   UNL     1      -9.387  15.614  69.259  1.00  0.00    -0.267 C  
HETATM   21  H   UNL     1     -11.957  16.456  66.214  1.00  0.00     0.000 HD 
HETATM   22  O   UNL     1     -11.104  16.170  65.909  1.00  0.00    -0.133 OA 
HETATM   23  C   UNL     1     -10.241  16.327  68.203  1.00  0.00    -0.258 C  
HETATM   24  O   UNL     1     -10.144  14.484  69.716  1.00  0.00    -0.426 OA 
HETATM   25  H   UNL     1     -12.032  17.128  68.119  1.00  0.00     0.000 HD 
HETATM   26  O   UNL     1     -11.503  16.687  68.773  1.00  0.00    -0.238 OA 
HETATM   27  H   UNL     1     -10.970  14.728  70.115  1.00  0.00     0.000 HD 
HETATM   28  C   UNL     1     -10.428  15.442  66.952  1.00  0.00    -0.295 C  
BRANCH  19  29
HETATM   29  C   UNL     1      -7.110  14.509  69.588  1.00  0.00    -0.090 C  
HETATM   30  O   UNL     1      -5.980  14.007  68.873  1.00  0.00    -0.079 OA 
HETATM   31  H   UNL     1      -5.395  13.566  69.478  1.00  0.00     0.000 HD 
ENDBRANCH  19  29
ENDBRANCH  16  17
ENDBRANCH  10  16
ENDBRANCH   3   4
TORSDOF 5
ENDMDL
MODEL      118
REMARK 921   NORMALIZED FREE ENERGY PREDICTED BY IDOCK:   -4.29 KCAL/MOL
REMARK 922        TOTAL FREE ENERGY PREDICTED BY IDOCK:   -7.12 KCAL/MOL
REMARK 923 INTER-LIGAND FREE ENERGY PREDICTED BY IDOCK:   -6.44 KCAL/MOL
REMARK 924 INTRA-LIGAND FREE ENERGY PREDICTED BY IDOCK:   -0.69 KCAL/MOL
REMARK 927      BINDING AFFINITY PREDICTED BY RF-SCORE:    0.00 PKD
ROOT
HETATM    1  O   UNL     1     -12.469  14.067  63.036  1.00  0.00    -1.101 OA 
HETATM    2  H   UNL     1     -13.314  13.970  62.612  1.00  0.00     0.000 HD 
HETATM    3  C   UNL     1     -12.648  14.145  64.449  1.00  0.00    -0.164 C  
ENDROOT
BRANCH   3   4
HETATM    4  C   UNL     1     -11.287  14.303  65.131  1.00  0.00    -0.345 C  
HETATM    5  O   UNL     1     -11.114  15.671  65.548  1.00  0.00    -0.303 OA 
HETATM    6  C   UNL     1     -10.267  15.646  66.699  1.00  0.00    -0.279 C  
HETATM    7  O   UNL     1     -10.606  16.769  67.523  1.00  0.00    -0.323 OA 
HETATM    8  H   UNL     1     -11.869  13.791  68.863  1.00  0.00     0.000 HD 
HETATM    9  C   UNL     1     -10.600  14.349  67.449  1.00  0.00    -0.270 C  
HETATM   10  C   UNL     1     -11.150  13.412  66.372  1.00  0.00    -0.299 C  
HETATM   11  O   UNL     1     -11.663  14.595  68.399  1.00  0.00    -0.304 OA 
HETATM   12  H   UNL     1     -10.044  16.752  68.289  1.00  0.00     0.000 HD 
BRANCH   6  13
HETATM   13  C   UNL     1      -8.800  15.764  66.260  1.00  0.00    -0.343 C  
HETATM   14  H   UNL     1      -7.682  17.163  65.467  1.00  0.00     0.000 HD 
HETATM   15  O   UNL     1      -8.590  17.090  65.739  1.00  0.00    -0.517 OA 
ENDBRANCH   6  13
BRANCH  10  16
HETATM   16  O   UNL     1     -10.254  12.312  66.153  1.00  0.00    -0.230 OA 
BRANCH  16  17
HETATM   17  C   UNL     1      -9.537  11.924  67.335  1.00  0.00    -0.174 C  
HETATM   18  O   UNL     1      -8.135  11.836  67.058  1.00  0.00    -0.158 OA 
HETATM   19  C   UNL     1      -7.365  11.501  68.227  1.00  0.00    -0.091 C  
HETATM   20  C   UNL     1      -7.771  10.118  68.754  1.00  0.00    -0.088 C  
HETATM   21  H   UNL     1     -11.837   9.953  68.594  1.00  0.00     0.000 HD 
HETATM   22  O   UNL     1     -11.487  10.769  68.256  1.00  0.00    -0.299 OA 
HETATM   23  C   UNL     1      -9.264  10.155  69.103  1.00  0.00    -0.197 C  
HETATM   24  O   UNL     1      -7.593   9.074  67.786  1.00  0.00    -0.091 OA 
HETATM   25  H   UNL     1     -10.601   8.892  69.791  1.00  0.00     0.000 HD 
HETATM   26  O   UNL     1      -9.677   8.869  69.576  1.00  0.00    -0.168 OA 
HETATM   27  H   UNL     1      -7.845   8.218  68.111  1.00  0.00     0.000 HD 
HETATM   28  C   UNL     1     -10.106  10.594  67.886  1.00  0.00    -0.168 C  
BRANCH  19  29
HETATM   29  C   UNL     1      -5.880  11.581  67.861  1.00  0.00    -0.045 C  
HETATM   30  O   UNL     1      -5.726  12.376  66.684  1.00  0.00    -0.481 OA 
HETATM   31  H   UNL     1      -4.805  12.425  66.457  1.00  0.00     0.000 HD 
ENDBRANCH  19  29
ENDBRANCH  16  17
ENDBRANCH  10  16
ENDBRANCH   3   4
TORSDOF 5
ENDMDL
MODEL      119
REMARK 921   NORMALIZED FREE ENERGY PREDICTED BY IDOCK:   -4.28 KCAL/MOL
REMARK 922        TOTAL FREE ENERGY PREDICTED BY IDOCK:   -7.12 KCAL/MOL
REMARK 923 INTER-LIGAND FREE ENERGY PREDICTED BY IDOCK:   -6.31 KCAL/MOL
REMARK 924 INTRA-LIGAND FREE ENERGY PREDICTED BY IDOCK:   -0.81 KCAL/MOL
REMARK 927      BINDING AFFINITY PREDICTED BY RF-SCORE:    0.00 PKD
ROOT
HETATM    1  O   UNL     1     -11.795  14.700  70.016  1.00  0.00    -0.272 OA 
HETATM    2  H   UNL     1     -11.701  14.788  70.957  1.00  0.00     0.000 HD 
HETATM    3  C   UNL     1     -11.859  13.318  69.667  1.00  0.00    -0.327 C  
ENDROOT
BRANCH   3   4
HETATM    4  C   UNL     1     -12.009  13.177  68.150  1.00  0.00    -0.294 C  
HETATM    5  O   UNL     1     -12.073  14.486  67.551  1.00  0.00    -0.366 OA 
HETATM    6  C   UNL     1     -11.532  14.361  66.234  1.00  0.00    -0.359 C  
HETATM    7  O   UNL     1     -10.943  15.617  65.876  1.00  0.00    -0.308 OA 
HETATM    8  H   UNL     1      -8.488  13.259  66.692  1.00  0.00     0.000 HD 
HETATM    9  C   UNL     1     -10.433  13.293  66.321  1.00  0.00    -0.287 C  
HETATM   10  C   UNL     1     -10.832  12.426  67.516  1.00  0.00    -0.236 C  
HETATM   11  O   UNL     1      -9.169  13.920  66.638  1.00  0.00    -0.264 OA 
HETATM   12  H   UNL     1     -10.582  15.535  65.001  1.00  0.00     0.000 HD 
BRANCH   6  13
HETATM   13  C   UNL     1     -12.659  14.029  65.245  1.00  0.00    -0.470 C  
HETATM   14  H   UNL     1     -12.928  14.209  63.313  1.00  0.00     0.000 HD 
HETATM   15  O   UNL     1     -12.231  14.413  63.925  1.00  0.00    -0.595 OA 
ENDBRANCH   6  13
BRANCH  10  16
HETATM   16  O   UNL     1     -11.201  11.108  67.084  1.00  0.00    -0.298 OA 
BRANCH  16  17
HETATM   17  C   UNL     1     -10.083  10.211  66.992  1.00  0.00    -0.223 C  
HETATM   18  O   UNL     1      -9.935   9.739  65.648  1.00  0.00    -0.301 OA 
HETATM   19  C   UNL     1      -8.795   8.875  65.492  1.00  0.00    -0.197 C  
HETATM   20  C   UNL     1      -8.956   7.619  66.357  1.00  0.00    -0.167 C  
HETATM   21  H   UNL     1     -10.386   8.856  69.964  1.00  0.00     0.000 HD 
HETATM   22  O   UNL     1     -10.282   9.568  69.344  1.00  0.00    -0.186 OA 
HETATM   23  C   UNL     1      -9.087   8.055  67.822  1.00  0.00    -0.131 C  
HETATM   24  O   UNL     1     -10.135   6.865  66.038  1.00  0.00    -0.392 OA 
HETATM   25  H   UNL     1      -9.344   7.173  69.557  1.00  0.00     0.000 HD 
HETATM   26  O   UNL     1      -9.262   6.902  68.650  1.00  0.00    -0.132 OA 
HETATM   27  H   UNL     1     -10.235   6.087  66.574  1.00  0.00     0.000 HD 
HETATM   28  C   UNL     1     -10.254   9.049  68.000  1.00  0.00    -0.212 C  
BRANCH  19  29
HETATM   29  C   UNL     1      -8.639   8.553  64.003  1.00  0.00     0.054 C  
HETATM   30  O   UNL     1      -8.333   7.166  63.850  1.00  0.00    -0.350 OA 
HETATM   31  H   UNL     1      -8.236   6.965  62.927  1.00  0.00     0.000 HD 
ENDBRANCH  19  29
ENDBRANCH  16  17
ENDBRANCH  10  16
ENDBRANCH   3   4
TORSDOF 5
ENDMDL
MODEL      120
REMARK 921   NORMALIZED FREE ENERGY PREDICTED BY IDOCK:   -4.28 KCAL/MOL
REMARK 922        TOTAL FREE ENERGY PREDICTED BY IDOCK:   -7.12 KCAL/MOL
REMARK 923 INTER-LIGAND FREE ENERGY PREDICTED BY IDOCK:   -6.52 KCAL/MOL
REMARK 924 INTRA-LIGAND FREE ENERGY PREDICTED BY IDOCK:   -0.60 KCAL/MOL
REMARK 927      BINDING AFFINITY PREDICTED BY RF-SCORE:    0.00 PKD
ROOT
HETATM    1  O   UNL     1      -6.749  20.768  65.342  1.00  0.00    -0.435 OA 
HETATM    2  H   UNL     1      -6.944  21.238  64.539  1.00  0.00     0.000 HD 
HETATM    3  C   UNL     1      -7.203  19.420  65.230  1.00  0.00     0.094 C  
ENDROOT
BRANCH   3   4
HETATM    4  C   UNL     1      -6.890  18.663  66.524  1.00  0.00    -0.206 C  
HETATM    5  O   UNL     1      -6.876  19.587  67.629  1.00  0.00    -0.225 OA 
HETATM    6  C   UNL     1      -7.269  18.847  68.787  1.00  0.00    -0.318 C  
HETATM    7  O   UNL     1      -7.923  19.750  69.688  1.00  0.00     0.006 OA 
HETATM    8  H   UNL     1     -10.240  17.692  68.061  1.00  0.00     0.000 HD 
HETATM    9  C   UNL     1      -8.278  17.797  68.304  1.00  0.00    -0.285 C  
HETATM   10  C   UNL     1      -7.929  17.578  66.830  1.00  0.00    -0.226 C  
HETATM   11  O   UNL     1      -9.615  18.343  68.360  1.00  0.00    -0.313 OA 
HETATM   12  H   UNL     1      -8.184  19.259  70.458  1.00  0.00     0.000 HD 
BRANCH   6  13
HETATM   13  C   UNL     1      -6.024  18.262  69.470  1.00  0.00    -0.252 C  
HETATM   14  H   UNL     1      -5.515  16.519  70.203  1.00  0.00     0.000 HD 
HETATM   15  O   UNL     1      -6.285  16.881  69.781  1.00  0.00    -0.229 OA 
ENDBRANCH   6  13
BRANCH  10  16
HETATM   16  O   UNL     1      -7.409  16.256  66.624  1.00  0.00    -0.226 OA 
BRANCH  16  17
HETATM   17  C   UNL     1      -8.435  15.263  66.469  1.00  0.00    -0.167 C  
HETATM   18  O   UNL     1      -9.515  15.785  65.687  1.00  0.00    -0.316 OA 
HETATM   19  C   UNL     1     -10.548  14.809  65.458  1.00  0.00    -0.359 C  
HETATM   20  C   UNL     1     -11.173  14.372  66.789  1.00  0.00    -0.337 C  
HETATM   21  H   UNL     1      -8.099  13.848  69.409  1.00  0.00     0.000 HD 
HETATM   22  O   UNL     1      -7.810  14.151  68.556  1.00  0.00    -0.130 OA 
HETATM   23  C   UNL     1     -10.068  13.770  67.666  1.00  0.00    -0.242 C  
HETATM   24  O   UNL     1     -11.743  15.463  67.526  1.00  0.00    -0.241 OA 
HETATM   25  H   UNL     1      -9.933  13.002  69.468  1.00  0.00     0.000 HD 
HETATM   26  O   UNL     1     -10.618  13.374  68.925  1.00  0.00    -0.229 OA 
HETATM   27  H   UNL     1     -12.130  15.193  68.351  1.00  0.00     0.000 HD 
HETATM   28  C   UNL     1      -8.907  14.770  67.858  1.00  0.00    -0.167 C  
BRANCH  19  29
HETATM   29  C   UNL     1     -11.573  15.414  64.494  1.00  0.00    -0.296 C  
HETATM   30  O   UNL     1     -11.169  16.739  64.145  1.00  0.00    -1.415 OA 
HETATM   31  H   UNL     1     -11.805  17.114  63.548  1.00  0.00     0.000 HD 
ENDBRANCH  19  29
ENDBRANCH  16  17
ENDBRANCH  10  16
ENDBRANCH   3   4
TORSDOF 5
ENDMDL
MODEL      121
REMARK 921   NORMALIZED FREE ENERGY PREDICTED BY IDOCK:   -4.28 KCAL/MOL
REMARK 922        TOTAL FREE ENERGY PREDICTED BY IDOCK:   -7.11 KCAL/MOL
REMARK 923 INTER-LIGAND FREE ENERGY PREDICTED BY IDOCK:   -6.31 KCAL/MOL
REMARK 924 INTRA-LIGAND FREE ENERGY PREDICTED BY IDOCK:   -0.80 KCAL/MOL
REMARK 927      BINDING AFFINITY PREDICTED BY RF-SCORE:    0.00 PKD
ROOT
HETATM    1  O   UNL     1      -7.386   8.926  72.245  1.00  0.00    -0.328 OA 
HETATM    2  H   UNL     1      -6.629   9.462  72.453  1.00  0.00     0.000 HD 
HETATM    3  C   UNL     1      -7.863   9.258  70.941  1.00  0.00    -0.113 C  
ENDROOT
BRANCH   3   4
HETATM    4  C   UNL     1      -9.082   8.396  70.606  1.00  0.00    -0.156 C  
HETATM    5  O   UNL     1      -9.555   7.746  71.802  1.00  0.00    -0.156 OA 
HETATM    6  C   UNL     1     -10.963   7.558  71.638  1.00  0.00    -0.232 C  
HETATM    7  O   UNL     1     -11.568   7.586  72.937  1.00  0.00    -0.546 OA 
HETATM    8  H   UNL     1     -12.155  10.570  71.204  1.00  0.00     0.000 HD 
HETATM    9  C   UNL     1     -11.464   8.755  70.820  1.00  0.00    -0.270 C  
HETATM   10  C   UNL     1     -10.239   9.222  70.031  1.00  0.00    -0.215 C  
HETATM   11  O   UNL     1     -11.845   9.829  71.711  1.00  0.00    -0.383 OA 
HETATM   12  H   UNL     1     -12.503   7.461  72.828  1.00  0.00     0.000 HD 
BRANCH   6  13
HETATM   13  C   UNL     1     -11.224   6.192  70.986  1.00  0.00    -0.296 C  
HETATM   14  H   UNL     1     -12.066   5.566  69.332  1.00  0.00     0.000 HD 
HETATM   15  O   UNL     1     -11.904   6.411  69.735  1.00  0.00    -0.357 OA 
ENDBRANCH   6  13
BRANCH  10  16
HETATM   16  O   UNL     1     -10.424   8.990  68.626  1.00  0.00    -0.213 OA 
BRANCH  16  17
HETATM   17  C   UNL     1     -10.109  10.135  67.819  1.00  0.00    -0.180 C  
HETATM   18  O   UNL     1     -10.763  11.300  68.333  1.00  0.00    -0.182 OA 
HETATM   19  C   UNL     1     -10.436  12.487  67.588  1.00  0.00    -0.217 C  
HETATM   20  C   UNL     1     -10.911  12.352  66.135  1.00  0.00    -0.286 C  
HETATM   21  H   UNL     1      -9.946   8.583  64.933  1.00  0.00     0.000 HD 
HETATM   22  O   UNL     1      -9.716   8.752  65.839  1.00  0.00    -0.237 OA 
HETATM   23  C   UNL     1     -10.218  11.134  65.512  1.00  0.00    -0.263 C  
HETATM   24  O   UNL     1     -12.325  12.130  66.026  1.00  0.00    -0.550 OA 
HETATM   25  H   UNL     1     -10.232  10.215  63.777  1.00  0.00     0.000 HD 
HETATM   26  O   UNL     1     -10.662  10.970  64.162  1.00  0.00    -0.378 OA 
HETATM   27  H   UNL     1     -12.620  12.046  65.127  1.00  0.00     0.000 HD 
HETATM   28  C   UNL     1     -10.486   9.861  66.343  1.00  0.00    -0.127 C  
BRANCH  19  29
HETATM   29  C   UNL     1     -11.058  13.689  68.304  1.00  0.00    -0.256 C  
HETATM   30  O   UNL     1     -11.689  14.537  67.344  1.00  0.00    -0.372 OA 
HETATM   31  H   UNL     1     -12.074  15.283  67.788  1.00  0.00     0.000 HD 
ENDBRANCH  19  29
ENDBRANCH  16  17
ENDBRANCH  10  16
ENDBRANCH   3   4
TORSDOF 5
ENDMDL
MODEL      122
REMARK 921   NORMALIZED FREE ENERGY PREDICTED BY IDOCK:   -4.28 KCAL/MOL
REMARK 922        TOTAL FREE ENERGY PREDICTED BY IDOCK:   -7.11 KCAL/MOL
REMARK 923 INTER-LIGAND FREE ENERGY PREDICTED BY IDOCK:   -6.08 KCAL/MOL
REMARK 924 INTRA-LIGAND FREE ENERGY PREDICTED BY IDOCK:   -1.03 KCAL/MOL
REMARK 927      BINDING AFFINITY PREDICTED BY RF-SCORE:    0.00 PKD
ROOT
HETATM    1  O   UNL     1     -14.100   8.733  70.867  1.00  0.00    -0.599 OA 
HETATM    2  H   UNL     1     -14.980   9.045  70.692  1.00  0.00     0.000 HD 
HETATM    3  C   UNL     1     -13.272   9.829  71.256  1.00  0.00    -0.373 C  
ENDROOT
BRANCH   3   4
HETATM    4  C   UNL     1     -11.854   9.327  71.537  1.00  0.00    -0.374 C  
HETATM    5  O   UNL     1     -11.867   8.482  72.704  1.00  0.00    -0.369 OA 
HETATM    6  C   UNL     1     -10.804   7.540  72.540  1.00  0.00    -0.299 C  
HETATM    7  O   UNL     1     -11.170   6.335  73.224  1.00  0.00    -0.450 OA 
HETATM    8  H   UNL     1     -11.510   5.973  69.759  1.00  0.00     0.000 HD 
HETATM    9  C   UNL     1     -10.708   7.258  71.035  1.00  0.00    -0.231 C  
HETATM   10  C   UNL     1     -11.283   8.511  70.371  1.00  0.00    -0.211 C  
HETATM   11  O   UNL     1     -11.569   6.147  70.692  1.00  0.00    -0.321 OA 
HETATM   12  H   UNL     1     -10.464   5.709  73.115  1.00  0.00     0.000 HD 
BRANCH   6  13
HETATM   13  C   UNL     1      -9.517   8.105  73.161  1.00  0.00    -0.246 C  
HETATM   14  H   UNL     1      -7.625   8.157  72.660  1.00  0.00     0.000 HD 
HETATM   15  O   UNL     1      -8.420   7.808  72.276  1.00  0.00    -0.112 OA 
ENDBRANCH   6  13
BRANCH  10  16
HETATM   16  O   UNL     1     -10.258   9.223  69.662  1.00  0.00    -0.190 OA 
BRANCH  16  17
HETATM   17  C   UNL     1     -10.348   9.071  68.237  1.00  0.00    -0.209 C  
HETATM   18  O   UNL     1      -9.156   8.463  67.727  1.00  0.00    -0.135 OA 
HETATM   19  C   UNL     1      -9.218   8.241  66.307  1.00  0.00    -0.203 C  
HETATM   20  C   UNL     1      -9.352   9.576  65.563  1.00  0.00    -0.255 C  
HETATM   21  H   UNL     1     -12.068  11.798  67.631  1.00  0.00     0.000 HD 
HETATM   22  O   UNL     1     -11.895  10.956  68.036  1.00  0.00    -0.585 OA 
HETATM   23  C   UNL     1     -10.635  10.268  66.042  1.00  0.00    -0.040 C  
HETATM   24  O   UNL     1      -8.267  10.477  65.829  1.00  0.00    -0.152 OA 
HETATM   25  H   UNL     1     -11.568  11.957  65.679  1.00  0.00     0.000 HD 
HETATM   26  O   UNL     1     -10.774  11.529  65.382  1.00  0.00    -0.280 OA 
HETATM   27  H   UNL     1      -8.350  11.305  65.369  1.00  0.00     0.000 HD 
HETATM   28  C   UNL     1     -10.630  10.442  67.576  1.00  0.00    -0.262 C  
BRANCH  19  29
HETATM   29  C   UNL     1      -7.971   7.455  65.890  1.00  0.00    -0.118 C  
HETATM   30  O   UNL     1      -6.822   8.025  66.519  1.00  0.00    -0.064 OA 
HETATM   31  H   UNL     1      -6.048   7.538  66.261  1.00  0.00     0.000 HD 
ENDBRANCH  19  29
ENDBRANCH  16  17
ENDBRANCH  10  16
ENDBRANCH   3   4
TORSDOF 5
ENDMDL
MODEL      123
REMARK 921   NORMALIZED FREE ENERGY PREDICTED BY IDOCK:   -4.28 KCAL/MOL
REMARK 922        TOTAL FREE ENERGY PREDICTED BY IDOCK:   -7.11 KCAL/MOL
REMARK 923 INTER-LIGAND FREE ENERGY PREDICTED BY IDOCK:   -6.39 KCAL/MOL
REMARK 924 INTRA-LIGAND FREE ENERGY PREDICTED BY IDOCK:   -0.72 KCAL/MOL
REMARK 927      BINDING AFFINITY PREDICTED BY RF-SCORE:    0.00 PKD
ROOT
HETATM    1  O   UNL     1     -11.074  16.337  64.124  1.00  0.00    -1.187 OA 
HETATM    2  H   UNL     1     -11.273  16.563  63.223  1.00  0.00     0.000 HD 
HETATM    3  C   UNL     1     -11.934  15.283  64.554  1.00  0.00    -0.271 C  
ENDROOT
BRANCH   3   4
HETATM    4  C   UNL     1     -11.614  14.918  66.006  1.00  0.00    -0.226 C  
HETATM    5  O   UNL     1     -12.342  13.731  66.374  1.00  0.00    -0.439 OA 
HETATM    6  C   UNL     1     -11.560  13.061  67.366  1.00  0.00    -0.356 C  
HETATM    7  O   UNL     1     -11.822  11.656  67.263  1.00  0.00    -0.609 OA 
HETATM    8  H   UNL     1      -8.701  12.461  65.897  1.00  0.00     0.000 HD 
HETATM    9  C   UNL     1     -10.092  13.329  67.008  1.00  0.00    -0.242 C  
HETATM   10  C   UNL     1     -10.121  14.640  66.220  1.00  0.00    -0.294 C  
HETATM   11  O   UNL     1      -9.610  12.295  66.119  1.00  0.00    -0.242 OA 
HETATM   12  H   UNL     1     -11.302  11.211  67.921  1.00  0.00     0.000 HD 
BRANCH   6  13
HETATM   13  C   UNL     1     -11.970  13.553  68.762  1.00  0.00    -0.339 C  
HETATM   14  H   UNL     1     -11.029  14.089  70.393  1.00  0.00     0.000 HD 
HETATM   15  O   UNL     1     -10.775  13.785  69.530  1.00  0.00    -0.063 OA 
ENDBRANCH   6  13
BRANCH  10  16
HETATM   16  O   UNL     1      -9.475  15.689  66.958  1.00  0.00    -0.216 OA 
BRANCH  16  17
HETATM   17  C   UNL     1      -8.048  15.699  66.795  1.00  0.00    -0.244 C  
HETATM   18  O   UNL     1      -7.427  14.903  67.810  1.00  0.00    -0.130 OA 
HETATM   19  C   UNL     1      -5.997  14.838  67.658  1.00  0.00    -0.038 C  
HETATM   20  C   UNL     1      -5.383  16.238  67.794  1.00  0.00    -0.132 C  
HETATM   21  H   UNL     1      -7.774  18.775  65.689  1.00  0.00     0.000 HD 
HETATM   22  O   UNL     1      -8.094  17.881  65.688  1.00  0.00    -0.514 OA 
HETATM   23  C   UNL     1      -5.986  17.137  66.707  1.00  0.00    -0.200 C  
HETATM   24  O   UNL     1      -5.672  16.857  69.056  1.00  0.00    -0.140 OA 
HETATM   25  H   UNL     1      -5.821  19.013  66.152  1.00  0.00     0.000 HD 
HETATM   26  O   UNL     1      -5.447  18.456  66.825  1.00  0.00    -0.136 OA 
HETATM   27  H   UNL     1      -5.292  17.723  69.141  1.00  0.00     0.000 HD 
HETATM   28  C   UNL     1      -7.527  17.156  66.797  1.00  0.00    -0.228 C  
BRANCH  19  29
HETATM   29  C   UNL     1      -5.451  13.850  68.691  1.00  0.00    -0.087 C  
HETATM   30  O   UNL     1      -5.810  12.521  68.311  1.00  0.00    -0.055 OA 
HETATM   31  H   UNL     1      -5.471  11.907  68.952  1.00  0.00     0.000 HD 
ENDBRANCH  19  29
ENDBRANCH  16  17
ENDBRANCH  10  16
ENDBRANCH   3   4
TORSDOF 5
ENDMDL
MODEL      124
REMARK 921   NORMALIZED FREE ENERGY PREDICTED BY IDOCK:   -4.25 KCAL/MOL
REMARK 922        TOTAL FREE ENERGY PREDICTED BY IDOCK:   -7.08 KCAL/MOL
REMARK 923 INTER-LIGAND FREE ENERGY PREDICTED BY IDOCK:   -5.82 KCAL/MOL
REMARK 924 INTRA-LIGAND FREE ENERGY PREDICTED BY IDOCK:   -1.26 KCAL/MOL
REMARK 927      BINDING AFFINITY PREDICTED BY RF-SCORE:    0.00 PKD
ROOT
HETATM    1  O   UNL     1      -7.827  12.003  66.616  1.00  0.00    -0.349 OA 
HETATM    2  H   UNL     1      -7.060  12.054  66.057  1.00  0.00     0.000 HD 
HETATM    3  C   UNL     1      -8.198  13.313  67.040  1.00  0.00    -0.045 C  
ENDROOT
BRANCH   3   4
HETATM    4  C   UNL     1      -9.432  13.231  67.942  1.00  0.00    -0.214 C  
HETATM    5  O   UNL     1     -10.360  14.273  67.583  1.00  0.00    -0.245 OA 
HETATM    6  C   UNL     1     -11.667  13.784  67.895  1.00  0.00    -0.360 C  
HETATM    7  O   UNL     1     -12.595  14.392  66.988  1.00  0.00    -0.538 OA 
HETATM    8  H   UNL     1     -11.977  11.060  66.115  1.00  0.00     0.000 HD 
HETATM    9  C   UNL     1     -11.631  12.271  67.642  1.00  0.00    -0.354 C  
HETATM   10  C   UNL     1     -10.160  11.887  67.812  1.00  0.00    -0.191 C  
HETATM   11  O   UNL     1     -12.000  11.997  66.271  1.00  0.00    -0.596 OA 
HETATM   12  H   UNL     1     -13.464  14.068  67.195  1.00  0.00     0.000 HD 
BRANCH   6  13
HETATM   13  C   UNL     1     -12.032  14.177  69.334  1.00  0.00    -0.337 C  
HETATM   14  H   UNL     1     -11.879  15.795  70.427  1.00  0.00     0.000 HD 
HETATM   15  O   UNL     1     -11.654  15.552  69.537  1.00  0.00    -0.302 OA 
ENDBRANCH   6  13
BRANCH  10  16
HETATM   16  O   UNL     1      -9.983  11.061  68.972  1.00  0.00    -0.205 OA 
BRANCH  16  17
HETATM   17  C   UNL     1      -9.463   9.758  68.664  1.00  0.00    -0.151 C  
HETATM   18  O   UNL     1     -10.445   8.754  68.938  1.00  0.00    -0.215 OA 
HETATM   19  C   UNL     1      -9.989   7.432  68.595  1.00  0.00    -0.169 C  
HETATM   20  C   UNL     1      -8.765   7.055  69.439  1.00  0.00    -0.133 C  
HETATM   21  H   UNL     1      -6.351  10.334  69.528  1.00  0.00     0.000 HD 
HETATM   22  O   UNL     1      -7.157  10.483  69.048  1.00  0.00    -0.066 OA 
HETATM   23  C   UNL     1      -7.657   8.080  69.165  1.00  0.00    -0.097 C  
HETATM   24  O   UNL     1      -9.025   7.088  70.850  1.00  0.00    -0.150 OA 
HETATM   25  H   UNL     1      -5.822   8.401  69.788  1.00  0.00     0.000 HD 
HETATM   26  O   UNL     1      -6.508   7.766  69.958  1.00  0.00    -0.033 OA 
HETATM   27  H   UNL     1      -8.266   6.854  71.373  1.00  0.00     0.000 HD 
HETATM   28  C   UNL     1      -8.149   9.516  69.446  1.00  0.00    -0.116 C  
BRANCH  19  29
HETATM   29  C   UNL     1     -11.157   6.460  68.781  1.00  0.00    -0.326 C  
HETATM   30  O   UNL     1     -11.948   6.878  69.894  1.00  0.00    -0.627 OA 
HETATM   31  H   UNL     1     -12.673   6.275  70.010  1.00  0.00     0.000 HD 
ENDBRANCH  19  29
ENDBRANCH  16  17
ENDBRANCH  10  16
ENDBRANCH   3   4
TORSDOF 5
ENDMDL
MODEL      125
REMARK 921   NORMALIZED FREE ENERGY PREDICTED BY IDOCK:   -4.23 KCAL/MOL
REMARK 922        TOTAL FREE ENERGY PREDICTED BY IDOCK:   -7.05 KCAL/MOL
REMARK 923 INTER-LIGAND FREE ENERGY PREDICTED BY IDOCK:   -6.21 KCAL/MOL
REMARK 924 INTRA-LIGAND FREE ENERGY PREDICTED BY IDOCK:   -0.84 KCAL/MOL
REMARK 927      BINDING AFFINITY PREDICTED BY RF-SCORE:    0.00 PKD
ROOT
HETATM    1  O   UNL     1     -11.120   7.122  70.988  1.00  0.00    -0.247 OA 
HETATM    2  H   UNL     1     -11.840   7.043  71.603  1.00  0.00     0.000 HD 
HETATM    3  C   UNL     1     -11.092   8.443  70.449  1.00  0.00    -0.231 C  
ENDROOT
BRANCH   3   4
HETATM    4  C   UNL     1      -9.933   8.569  69.458  1.00  0.00    -0.193 C  
HETATM    5  O   UNL     1      -9.231   7.314  69.378  1.00  0.00    -0.149 OA 
HETATM    6  C   UNL     1      -8.679   7.234  68.061  1.00  0.00    -0.127 C  
HETATM    7  O   UNL     1      -8.602   5.851  67.696  1.00  0.00    -0.105 OA 
HETATM    8  H   UNL     1     -11.264   7.439  66.070  1.00  0.00     0.000 HD 
HETATM    9  C   UNL     1      -9.675   7.947  67.136  1.00  0.00    -0.191 C  
HETATM   10  C   UNL     1     -10.410   8.932  68.046  1.00  0.00    -0.219 C  
HETATM   11  O   UNL     1     -10.648   6.997  66.643  1.00  0.00    -0.239 OA 
HETATM   12  H   UNL     1      -8.236   5.798  66.821  1.00  0.00     0.000 HD 
BRANCH   6  13
HETATM   13  C   UNL     1      -7.268   7.840  68.059  1.00  0.00    -0.087 C  
HETATM   14  H   UNL     1      -6.271   9.068  66.904  1.00  0.00     0.000 HD 
HETATM   15  O   UNL     1      -7.144   8.694  66.906  1.00  0.00    -0.073 OA 
ENDBRANCH   6  13
BRANCH  10  16
HETATM   16  O   UNL     1     -10.084  10.285  67.696  1.00  0.00    -0.175 OA 
BRANCH  16  17
HETATM   17  C   UNL     1     -10.831  10.773  66.571  1.00  0.00    -0.130 C  
HETATM   18  O   UNL     1     -10.041  10.697  65.379  1.00  0.00    -0.264 OA 
HETATM   19  C   UNL     1     -10.764  11.126  64.212  1.00  0.00    -0.333 C  
HETATM   20  C   UNL     1     -11.169  12.600  64.348  1.00  0.00    -0.346 C  
HETATM   21  H   UNL     1     -12.514  13.098  68.159  1.00  0.00     0.000 HD 
HETATM   22  O   UNL     1     -12.210  12.214  67.988  1.00  0.00    -0.419 OA 
HETATM   23  C   UNL     1     -12.051  12.745  65.594  1.00  0.00    -0.459 C  
HETATM   24  O   UNL     1     -10.047  13.476  64.525  1.00  0.00    -0.610 OA 
HETATM   25  H   UNL     1     -12.971  14.205  66.531  1.00  0.00     0.000 HD 
HETATM   26  O   UNL     1     -12.425  14.115  65.759  1.00  0.00    -0.466 OA 
HETATM   27  H   UNL     1     -10.297  14.388  64.610  1.00  0.00     0.000 HD 
HETATM   28  C   UNL     1     -11.327  12.212  66.849  1.00  0.00    -0.343 C  
BRANCH  19  29
HETATM   29  C   UNL     1      -9.890  10.864  62.983  1.00  0.00    -0.321 C  
HETATM   30  O   UNL     1      -8.685  11.624  63.090  1.00  0.00    -0.486 OA 
HETATM   31  H   UNL     1      -8.142  11.462  62.328  1.00  0.00     0.000 HD 
ENDBRANCH  19  29
ENDBRANCH  16  17
ENDBRANCH  10  16
ENDBRANCH   3   4
TORSDOF 5
ENDMDL
MODEL      126
REMARK 921   NORMALIZED FREE ENERGY PREDICTED BY IDOCK:   -4.21 KCAL/MOL
REMARK 922        TOTAL FREE ENERGY PREDICTED BY IDOCK:   -7.03 KCAL/MOL
REMARK 923 INTER-LIGAND FREE ENERGY PREDICTED BY IDOCK:   -6.44 KCAL/MOL
REMARK 924 INTRA-LIGAND FREE ENERGY PREDICTED BY IDOCK:   -0.59 KCAL/MOL
REMARK 927      BINDING AFFINITY PREDICTED BY RF-SCORE:    0.00 PKD
ROOT
HETATM    1  O   UNL     1     -10.959   8.813  68.592  1.00  0.00    -0.441 OA 
HETATM    2  H   UNL     1     -11.760   8.703  69.092  1.00  0.00     0.000 HD 
HETATM    3  C   UNL     1     -10.987  10.068  67.914  1.00  0.00    -0.252 C  
ENDROOT
BRANCH   3   4
HETATM    4  C   UNL     1      -9.697  10.245  67.109  1.00  0.00    -0.173 C  
HETATM    5  O   UNL     1      -9.415   9.034  66.382  1.00  0.00    -0.187 OA 
HETATM    6  C   UNL     1      -8.704   9.418  65.203  1.00  0.00    -0.181 C  
HETATM    7  O   UNL     1      -8.998   8.463  64.177  1.00  0.00    -0.358 OA 
HETATM    8  H   UNL     1     -10.729  11.459  63.646  1.00  0.00     0.000 HD 
HETATM    9  C   UNL     1      -9.261  10.788  64.794  1.00  0.00    -0.214 C  
HETATM   10  C   UNL     1      -9.796  11.390  66.094  1.00  0.00    -0.222 C  
HETATM   11  O   UNL     1     -10.383  10.610  63.900  1.00  0.00    -0.318 OA 
HETATM   12  H   UNL     1      -8.526   8.718  63.393  1.00  0.00     0.000 HD 
BRANCH   6  13
HETATM   13  C   UNL     1      -7.194   9.408  65.488  1.00  0.00    -0.088 C  
HETATM   14  H   UNL     1      -5.662   8.344  64.893  1.00  0.00     0.000 HD 
HETATM   15  O   UNL     1      -6.595   8.351  64.716  1.00  0.00    -0.066 OA 
ENDBRANCH   6  13
BRANCH  10  16
HETATM   16  O   UNL     1      -9.014  12.529  66.484  1.00  0.00    -0.207 OA 
BRANCH  16  17
HETATM   17  C   UNL     1      -9.804  13.708  66.707  1.00  0.00    -0.271 C  
HETATM   18  O   UNL     1     -10.250  14.248  65.458  1.00  0.00    -0.322 OA 
HETATM   19  C   UNL     1     -11.092  15.403  65.630  1.00  0.00    -0.271 C  
HETATM   20  C   UNL     1     -10.312  16.533  66.317  1.00  0.00    -0.320 C  
HETATM   21  H   UNL     1      -8.174  14.818  69.328  1.00  0.00     0.000 HD 
HETATM   22  O   UNL     1      -8.670  14.186  68.822  1.00  0.00    -0.154 OA 
HETATM   23  C   UNL     1      -9.832  16.027  67.682  1.00  0.00    -0.235 C  
HETATM   24  O   UNL     1      -9.145  16.934  65.584  1.00  0.00    -0.499 OA 
HETATM   25  H   UNL     1      -8.783  16.739  69.181  1.00  0.00     0.000 HD 
HETATM   26  O   UNL     1      -9.081  17.053  68.336  1.00  0.00    -0.240 OA 
HETATM   27  H   UNL     1      -8.662  17.633  66.009  1.00  0.00     0.000 HD 
HETATM   28  C   UNL     1      -8.995  14.738  67.531  1.00  0.00    -0.187 C  
BRANCH  19  29
HETATM   29  C   UNL     1     -11.634  15.809  64.257  1.00  0.00    -0.191 C  
HETATM   30  O   UNL     1     -12.492  14.778  63.765  1.00  0.00    -1.045 OA 
HETATM   31  H   UNL     1     -12.828  15.029  62.913  1.00  0.00     0.000 HD 
ENDBRANCH  19  29
ENDBRANCH  16  17
ENDBRANCH  10  16
ENDBRANCH   3   4
TORSDOF 5
ENDMDL
MODEL      127
REMARK 921   NORMALIZED FREE ENERGY PREDICTED BY IDOCK:   -4.20 KCAL/MOL
REMARK 922        TOTAL FREE ENERGY PREDICTED BY IDOCK:   -7.01 KCAL/MOL
REMARK 923 INTER-LIGAND FREE ENERGY PREDICTED BY IDOCK:   -6.08 KCAL/MOL
REMARK 924 INTRA-LIGAND FREE ENERGY PREDICTED BY IDOCK:   -0.92 KCAL/MOL
REMARK 927      BINDING AFFINITY PREDICTED BY RF-SCORE:    0.00 PKD
ROOT
HETATM    1  O   UNL     1      -7.164  15.294  69.347  1.00  0.00    -0.169 OA 
HETATM    2  H   UNL     1      -6.295  15.094  69.674  1.00  0.00     0.000 HD 
HETATM    3  C   UNL     1      -7.303  16.704  69.184  1.00  0.00    -0.217 C  
ENDROOT
BRANCH   3   4
HETATM    4  C   UNL     1      -8.704  17.026  68.659  1.00  0.00    -0.261 C  
HETATM    5  O   UNL     1      -8.638  18.170  67.786  1.00  0.00    -0.248 OA 
HETATM    6  C   UNL     1      -9.697  18.023  66.835  1.00  0.00    -0.314 C  
HETATM    7  O   UNL     1      -9.292  18.662  65.619  1.00  0.00    -0.307 OA 
HETATM    8  H   UNL     1      -9.079  15.179  65.345  1.00  0.00     0.000 HD 
HETATM    9  C   UNL     1      -9.845  16.515  66.589  1.00  0.00    -0.268 C  
HETATM   10  C   UNL     1      -9.309  15.862  67.865  1.00  0.00    -0.207 C  
HETATM   11  O   UNL     1      -8.986  16.112  65.498  1.00  0.00    -0.304 OA 
HETATM   12  H   UNL     1      -9.995  18.564  64.987  1.00  0.00     0.000 HD 
BRANCH   6  13
HETATM   13  C   UNL     1     -10.965  18.705  67.370  1.00  0.00    -0.179 C  
HETATM   14  H   UNL     1     -11.525  20.549  67.717  1.00  0.00     0.000 HD 
HETATM   15  O   UNL     1     -10.741  20.127  67.386  1.00  0.00    -0.285 OA 
ENDBRANCH   6  13
BRANCH  10  16
HETATM   16  O   UNL     1     -10.368  15.210  68.582  1.00  0.00    -0.221 OA 
BRANCH  16  17
HETATM   17  C   UNL     1     -10.259  13.777  68.570  1.00  0.00    -0.235 C  
HETATM   18  O   UNL     1      -9.805  13.326  67.289  1.00  0.00    -0.225 OA 
HETATM   19  C   UNL     1      -9.630  11.898  67.242  1.00  0.00    -0.177 C  
HETATM   20  C   UNL     1     -10.969  11.188  67.481  1.00  0.00    -0.275 C  
HETATM   21  H   UNL     1     -12.801  13.146  70.546  1.00  0.00     0.000 HD 
HETATM   22  O   UNL     1     -11.969  13.536  70.304  1.00  0.00    -0.327 OA 
HETATM   23  C   UNL     1     -11.497  11.606  68.859  1.00  0.00    -0.287 C  
HETATM   24  O   UNL     1     -11.973  11.548  66.521  1.00  0.00    -0.386 OA 
HETATM   25  H   UNL     1     -13.085  11.236  69.953  1.00  0.00     0.000 HD 
HETATM   26  O   UNL     1     -12.758  10.976  69.099  1.00  0.00    -0.277 OA 
HETATM   27  H   UNL     1     -12.803  11.109  66.669  1.00  0.00     0.000 HD 
HETATM   28  C   UNL     1     -11.614  13.142  68.964  1.00  0.00    -0.312 C  
BRANCH  19  29
HETATM   29  C   UNL     1      -9.002  11.538  65.893  1.00  0.00    -0.147 C  
HETATM   30  O   UNL     1      -9.430  12.477  64.906  1.00  0.00    -0.456 OA 
HETATM   31  H   UNL     1      -9.041  12.254  64.069  1.00  0.00     0.000 HD 
ENDBRANCH  19  29
ENDBRANCH  16  17
ENDBRANCH  10  16
ENDBRANCH   3   4
TORSDOF 5
ENDMDL
MODEL      128
REMARK 921   NORMALIZED FREE ENERGY PREDICTED BY IDOCK:   -4.19 KCAL/MOL
REMARK 922        TOTAL FREE ENERGY PREDICTED BY IDOCK:   -6.99 KCAL/MOL
REMARK 923 INTER-LIGAND FREE ENERGY PREDICTED BY IDOCK:   -6.15 KCAL/MOL
REMARK 924 INTRA-LIGAND FREE ENERGY PREDICTED BY IDOCK:   -0.84 KCAL/MOL
REMARK 927      BINDING AFFINITY PREDICTED BY RF-SCORE:    0.00 PKD
ROOT
HETATM    1  O   UNL     1     -11.957  16.543  71.194  1.00  0.00    -0.550 OA 
HETATM    2  H   UNL     1     -12.436  16.462  72.011  1.00  0.00     0.000 HD 
HETATM    3  C   UNL     1     -12.404  15.547  70.275  1.00  0.00    -0.396 C  
ENDROOT
BRANCH   3   4
HETATM    4  C   UNL     1     -11.632  15.679  68.960  1.00  0.00    -0.386 C  
HETATM    5  O   UNL     1     -11.111  17.016  68.841  1.00  0.00    -0.221 OA 
HETATM    6  C   UNL     1      -9.915  16.923  68.062  1.00  0.00    -0.279 C  
HETATM    7  O   UNL     1      -9.037  17.978  68.472  1.00  0.00    -0.283 OA 
HETATM    8  H   UNL     1      -7.987  14.893  69.749  1.00  0.00     0.000 HD 
HETATM    9  C   UNL     1      -9.280  15.571  68.412  1.00  0.00    -0.191 C  
HETATM   10  C   UNL     1     -10.451  14.704  68.878  1.00  0.00    -0.248 C  
HETATM   11  O   UNL     1      -8.381  15.730  69.532  1.00  0.00    -0.242 OA 
HETATM   12  H   UNL     1      -8.242  17.916  67.955  1.00  0.00     0.000 HD 
BRANCH   6  13
HETATM   13  C   UNL     1     -10.257  17.096  66.575  1.00  0.00    -0.322 C  
HETATM   14  H   UNL     1      -9.261  17.546  64.950  1.00  0.00     0.000 HD 
HETATM   15  O   UNL     1      -9.049  17.439  65.870  1.00  0.00    -0.515 OA 
ENDBRANCH   6  13
BRANCH  10  16
HETATM   16  O   UNL     1     -10.693  13.637  67.948  1.00  0.00    -0.240 OA 
BRANCH  16  17
HETATM   17  C   UNL     1      -9.935  12.452  68.239  1.00  0.00    -0.224 C  
HETATM   18  O   UNL     1      -9.152  12.073  67.103  1.00  0.00    -0.174 OA 
HETATM   19  C   UNL     1      -8.333  10.918  67.362  1.00  0.00    -0.117 C  
HETATM   20  C   UNL     1      -9.212   9.702  67.684  1.00  0.00    -0.130 C  
HETATM   21  H   UNL     1     -12.145  11.010  70.189  1.00  0.00     0.000 HD 
HETATM   22  O   UNL     1     -11.562  11.706  69.908  1.00  0.00    -0.296 OA 
HETATM   23  C   UNL     1     -10.058  10.033  68.920  1.00  0.00    -0.190 C  
HETATM   24  O   UNL     1     -10.126   9.375  66.627  1.00  0.00    -0.235 OA 
HETATM   25  H   UNL     1     -11.431   9.130  69.995  1.00  0.00     0.000 HD 
HETATM   26  O   UNL     1     -10.907   8.924  69.230  1.00  0.00    -0.197 OA 
HETATM   27  H   UNL     1     -10.671   8.623  66.826  1.00  0.00     0.000 HD 
HETATM   28  C   UNL     1     -10.884  11.318  68.697  1.00  0.00    -0.204 C  
BRANCH  19  29
HETATM   29  C   UNL     1      -7.430  10.689  66.147  1.00  0.00    -0.138 C  
HETATM   30  O   UNL     1      -8.162  10.974  64.953  1.00  0.00    -0.373 OA 
HETATM   31  H   UNL     1      -7.603  10.831  64.199  1.00  0.00     0.000 HD 
ENDBRANCH  19  29
ENDBRANCH  16  17
ENDBRANCH  10  16
ENDBRANCH   3   4
TORSDOF 5
ENDMDL
MODEL      129
REMARK 921   NORMALIZED FREE ENERGY PREDICTED BY IDOCK:   -4.17 KCAL/MOL
REMARK 922        TOTAL FREE ENERGY PREDICTED BY IDOCK:   -6.98 KCAL/MOL
REMARK 923 INTER-LIGAND FREE ENERGY PREDICTED BY IDOCK:   -6.09 KCAL/MOL
REMARK 924 INTRA-LIGAND FREE ENERGY PREDICTED BY IDOCK:   -0.89 KCAL/MOL
REMARK 927      BINDING AFFINITY PREDICTED BY RF-SCORE:    0.00 PKD
ROOT
HETATM    1  O   UNL     1     -11.499   6.421  66.413  1.00  0.00    -0.552 OA 
HETATM    2  H   UNL     1     -12.294   5.905  66.337  1.00  0.00     0.000 HD 
HETATM    3  C   UNL     1     -11.026   6.376  67.759  1.00  0.00    -0.332 C  
ENDROOT
BRANCH   3   4
HETATM    4  C   UNL     1      -9.746   7.206  67.881  1.00  0.00    -0.138 C  
HETATM    5  O   UNL     1      -8.605   6.327  67.922  1.00  0.00    -0.116 OA 
HETATM    6  C   UNL     1      -7.509   7.050  67.357  1.00  0.00    -0.097 C  
HETATM    7  O   UNL     1      -6.620   6.104  66.750  1.00  0.00    -0.054 OA 
HETATM    8  H   UNL     1      -8.491   7.809  64.332  1.00  0.00     0.000 HD 
HETATM    9  C   UNL     1      -8.106   7.953  66.269  1.00  0.00    -0.110 C  
HETATM   10  C   UNL     1      -9.558   8.165  66.699  1.00  0.00    -0.229 C  
HETATM   11  O   UNL     1      -8.122   7.249  65.006  1.00  0.00    -0.125 OA 
HETATM   12  H   UNL     1      -5.892   6.584  66.374  1.00  0.00     0.000 HD 
BRANCH   6  13
HETATM   13  C   UNL     1      -6.765   7.805  68.468  1.00  0.00    -0.058 C  
HETATM   14  H   UNL     1      -5.625   9.395  68.563  1.00  0.00     0.000 HD 
HETATM   15  O   UNL     1      -6.085   8.928  67.876  1.00  0.00    -0.049 OA 
ENDBRANCH   6  13
BRANCH  10  16
HETATM   16  O   UNL     1      -9.781   9.534  67.071  1.00  0.00    -0.159 OA 
BRANCH  16  17
HETATM   17  C   UNL     1     -10.509  10.277  66.080  1.00  0.00    -0.130 C  
HETATM   18  O   UNL     1      -9.682  10.522  64.938  1.00  0.00    -0.248 OA 
HETATM   19  C   UNL     1     -10.383  11.220  63.893  1.00  0.00    -0.381 C  
HETATM   20  C   UNL     1     -10.832  12.602  64.383  1.00  0.00    -0.356 C  
HETATM   21  H   UNL     1     -12.302  12.088  68.146  1.00  0.00     0.000 HD 
HETATM   22  O   UNL     1     -11.968  11.283  67.767  1.00  0.00    -0.637 OA 
HETATM   23  C   UNL     1     -11.754  12.408  65.594  1.00  0.00    -0.414 C  
HETATM   24  O   UNL     1      -9.740  13.426  64.817  1.00  0.00    -0.582 OA 
HETATM   25  H   UNL     1     -12.741  13.563  66.837  1.00  0.00     0.000 HD 
HETATM   26  O   UNL     1     -12.171  13.684  66.087  1.00  0.00    -0.417 OA 
HETATM   27  H   UNL     1     -10.018  14.282  65.121  1.00  0.00     0.000 HD 
HETATM   28  C   UNL     1     -11.052  11.588  66.698  1.00  0.00    -0.295 C  
BRANCH  19  29
HETATM   29  C   UNL     1      -9.465  11.296  62.669  1.00  0.00    -0.244 C  
HETATM   30  O   UNL     1      -8.103  11.280  63.099  1.00  0.00    -0.365 OA 
HETATM   31  H   UNL     1      -7.533  11.328  62.340  1.00  0.00     0.000 HD 
ENDBRANCH  19  29
ENDBRANCH  16  17
ENDBRANCH  10  16
ENDBRANCH   3   4
TORSDOF 5
ENDMDL
MODEL      130
REMARK 921   NORMALIZED FREE ENERGY PREDICTED BY IDOCK:   -4.17 KCAL/MOL
REMARK 922        TOTAL FREE ENERGY PREDICTED BY IDOCK:   -6.97 KCAL/MOL
REMARK 923 INTER-LIGAND FREE ENERGY PREDICTED BY IDOCK:   -6.04 KCAL/MOL
REMARK 924 INTRA-LIGAND FREE ENERGY PREDICTED BY IDOCK:   -0.93 KCAL/MOL
REMARK 927      BINDING AFFINITY PREDICTED BY RF-SCORE:    0.00 PKD
ROOT
HETATM    1  O   UNL     1      -9.855  13.447  64.184  1.00  0.00    -0.735 OA 
HETATM    2  H   UNL     1     -10.076  14.155  63.590  1.00  0.00     0.000 HD 
HETATM    3  C   UNL     1     -10.921  13.251  65.112  1.00  0.00    -0.299 C  
ENDROOT
BRANCH   3   4
HETATM    4  C   UNL     1     -10.565  12.112  66.070  1.00  0.00    -0.257 C  
HETATM    5  O   UNL     1     -10.647  10.854  65.372  1.00  0.00    -0.246 OA 
HETATM    6  C   UNL     1      -9.708   9.975  65.997  1.00  0.00    -0.240 C  
HETATM    7  O   UNL     1      -9.246   9.046  65.009  1.00  0.00    -0.405 OA 
HETATM    8  H   UNL     1      -6.826  11.485  65.679  1.00  0.00     0.000 HD 
HETATM    9  C   UNL     1      -8.536  10.854  66.453  1.00  0.00    -0.163 C  
HETATM   10  C   UNL     1      -9.145  12.246  66.633  1.00  0.00    -0.203 C  
HETATM   11  O   UNL     1      -7.552  10.941  65.397  1.00  0.00    -0.026 OA 
HETATM   12  H   UNL     1      -8.622   8.462  65.424  1.00  0.00     0.000 HD 
BRANCH   6  13
HETATM   13  C   UNL     1     -10.402   9.207  67.131  1.00  0.00    -0.267 C  
HETATM   14  H   UNL     1     -10.898   7.342  67.463  1.00  0.00     0.000 HD 
HETATM   15  O   UNL     1     -10.469   7.817  66.761  1.00  0.00    -0.321 OA 
ENDBRANCH   6  13
BRANCH  10  16
HETATM   16  O   UNL     1      -9.144  12.624  68.018  1.00  0.00    -0.194 OA 
BRANCH  16  17
HETATM   17  C   UNL     1      -8.812  14.005  68.226  1.00  0.00    -0.184 C  
HETATM   18  O   UNL     1      -9.958  14.831  67.996  1.00  0.00    -0.214 OA 
HETATM   19  C   UNL     1      -9.690  16.223  68.243  1.00  0.00    -0.222 C  
HETATM   20  C   UNL     1      -8.609  16.737  67.283  1.00  0.00    -0.192 C  
HETATM   21  H   UNL     1      -5.726  13.866  67.123  1.00  0.00     0.000 HD 
HETATM   22  O   UNL     1      -6.459  13.622  67.676  1.00  0.00    -0.161 OA 
HETATM   23  C   UNL     1      -7.336  15.910  67.503  1.00  0.00    -0.171 C  
HETATM   24  O   UNL     1      -8.971  16.589  65.902  1.00  0.00    -0.461 OA 
HETATM   25  H   UNL     1      -5.529  15.840  66.738  1.00  0.00     0.000 HD 
HETATM   26  O   UNL     1      -6.317  16.353  66.602  1.00  0.00    -0.291 OA 
HETATM   27  H   UNL     1      -8.302  16.906  65.307  1.00  0.00     0.000 HD 
HETATM   28  C   UNL     1      -7.618  14.403  67.325  1.00  0.00    -0.108 C  
BRANCH  19  29
HETATM   29  C   UNL     1     -11.007  16.994  68.118  1.00  0.00    -0.263 C  
HETATM   30  O   UNL     1     -10.754  18.270  67.528  1.00  0.00    -0.419 OA 
HETATM   31  H   UNL     1     -11.571  18.748  67.450  1.00  0.00     0.000 HD 
ENDBRANCH  19  29
ENDBRANCH  16  17
ENDBRANCH  10  16
ENDBRANCH   3   4
TORSDOF 5
ENDMDL
MODEL      131
REMARK 921   NORMALIZED FREE ENERGY PREDICTED BY IDOCK:   -4.16 KCAL/MOL
REMARK 922        TOTAL FREE ENERGY PREDICTED BY IDOCK:   -6.95 KCAL/MOL
REMARK 923 INTER-LIGAND FREE ENERGY PREDICTED BY IDOCK:   -6.43 KCAL/MOL
REMARK 924 INTRA-LIGAND FREE ENERGY PREDICTED BY IDOCK:   -0.52 KCAL/MOL
REMARK 927      BINDING AFFINITY PREDICTED BY RF-SCORE:    0.00 PKD
ROOT
HETATM    1  O   UNL     1     -11.103  18.228  64.787  1.00  0.00    -0.542 OA 
HETATM    2  H   UNL     1     -11.829  18.032  64.206  1.00  0.00     0.000 HD 
HETATM    3  C   UNL     1     -10.903  17.139  65.687  1.00  0.00    -0.049 C  
ENDROOT
BRANCH   3   4
HETATM    4  C   UNL     1      -9.733  17.453  66.622  1.00  0.00    -0.290 C  
HETATM    5  O   UNL     1      -9.081  18.662  66.186  1.00  0.00    -0.454 OA 
HETATM    6  C   UNL     1      -8.525  19.273  67.353  1.00  0.00    -0.288 C  
HETATM    7  O   UNL     1      -8.501  20.690  67.142  1.00  0.00    -0.485 OA 
HETATM    8  H   UNL     1     -11.086  19.783  69.319  1.00  0.00     0.000 HD 
HETATM    9  C   UNL     1      -9.485  18.950  68.505  1.00  0.00    -0.366 C  
HETATM   10  C   UNL     1     -10.186  17.661  68.073  1.00  0.00    -0.362 C  
HETATM   11  O   UNL     1     -10.492  19.983  68.605  1.00  0.00    -0.399 OA 
HETATM   12  H   UNL     1      -8.131  21.097  67.917  1.00  0.00     0.000 HD 
BRANCH   6  13
HETATM   13  C   UNL     1      -7.090  18.766  67.563  1.00  0.00    -0.207 C  
HETATM   14  H   UNL     1      -5.836  18.692  69.065  1.00  0.00     0.000 HD 
HETATM   15  O   UNL     1      -6.723  19.005  68.935  1.00  0.00    -0.268 OA 
ENDBRANCH   6  13
BRANCH  10  16
HETATM   16  O   UNL     1      -9.804  16.568  68.921  1.00  0.00    -0.239 OA 
BRANCH  16  17
HETATM   17  C   UNL     1      -9.045  15.559  68.235  1.00  0.00    -0.186 C  
HETATM   18  O   UNL     1      -9.923  14.617  67.610  1.00  0.00    -0.225 OA 
HETATM   19  C   UNL     1      -9.211  13.614  66.864  1.00  0.00    -0.250 C  
HETATM   20  C   UNL     1      -8.316  12.789  67.800  1.00  0.00    -0.177 C  
HETATM   21  H   UNL     1      -6.527  15.428  70.334  1.00  0.00     0.000 HD 
HETATM   22  O   UNL     1      -7.129  15.846  69.730  1.00  0.00    -0.167 OA 
HETATM   23  C   UNL     1      -7.324  13.740  68.480  1.00  0.00    -0.117 C  
HETATM   24  O   UNL     1      -9.051  12.134  68.844  1.00  0.00    -0.385 OA 
HETATM   25  H   UNL     1      -5.877  13.590  69.799  1.00  0.00     0.000 HD 
HETATM   26  O   UNL     1      -6.491  13.001  69.377  1.00  0.00    -0.109 OA 
HETATM   27  H   UNL     1      -8.497  11.624  69.424  1.00  0.00     0.000 HD 
HETATM   28  C   UNL     1      -8.064  14.876  69.218  1.00  0.00    -0.135 C  
BRANCH  19  29
HETATM   29  C   UNL     1     -10.235  12.755  66.117  1.00  0.00    -0.275 C  
HETATM   30  O   UNL     1      -9.790  12.548  64.776  1.00  0.00    -0.458 OA 
HETATM   31  H   UNL     1     -10.425  12.016  64.312  1.00  0.00     0.000 HD 
ENDBRANCH  19  29
ENDBRANCH  16  17
ENDBRANCH  10  16
ENDBRANCH   3   4
TORSDOF 5
ENDMDL
MODEL      132
REMARK 921   NORMALIZED FREE ENERGY PREDICTED BY IDOCK:   -4.12 KCAL/MOL
REMARK 922        TOTAL FREE ENERGY PREDICTED BY IDOCK:   -6.90 KCAL/MOL
REMARK 923 INTER-LIGAND FREE ENERGY PREDICTED BY IDOCK:   -5.87 KCAL/MOL
REMARK 924 INTRA-LIGAND FREE ENERGY PREDICTED BY IDOCK:   -1.03 KCAL/MOL
REMARK 927      BINDING AFFINITY PREDICTED BY RF-SCORE:    0.00 PKD
ROOT
HETATM    1  O   UNL     1     -11.127  17.029  68.494  1.00  0.00    -0.300 OA 
HETATM    2  H   UNL     1     -11.337  17.617  69.210  1.00  0.00     0.000 HD 
HETATM    3  C   UNL     1     -11.755  15.766  68.711  1.00  0.00    -0.378 C  
ENDROOT
BRANCH   3   4
HETATM    4  C   UNL     1     -11.415  14.819  67.558  1.00  0.00    -0.354 C  
HETATM    5  O   UNL     1     -11.790  15.430  66.309  1.00  0.00     0.080 OA 
HETATM    6  C   UNL     1     -10.898  14.916  65.316  1.00  0.00    -0.386 C  
HETATM    7  O   UNL     1     -10.741  15.915  64.301  1.00  0.00    -0.769 OA 
HETATM    8  H   UNL     1      -7.919  15.759  66.366  1.00  0.00     0.000 HD 
HETATM    9  C   UNL     1      -9.553  14.695  66.021  1.00  0.00    -0.290 C  
HETATM   10  C   UNL     1      -9.918  14.494  67.493  1.00  0.00    -0.224 C  
HETATM   11  O   UNL     1      -8.752  15.895  65.929  1.00  0.00    -0.283 OA 
HETATM   12  H   UNL     1     -10.149  15.574  63.642  1.00  0.00     0.000 HD 
BRANCH   6  13
HETATM   13  C   UNL     1     -11.501  13.649  64.692  1.00  0.00    -0.365 C  
HETATM   14  H   UNL     1     -13.132  13.214  63.699  1.00  0.00     0.000 HD 
HETATM   15  O   UNL     1     -12.759  13.998  64.085  1.00  0.00    -0.662 OA 
ENDBRANCH   6  13
BRANCH  10  16
HETATM   16  O   UNL     1      -9.637  13.147  67.904  1.00  0.00    -0.204 OA 
BRANCH  16  17
HETATM   17  C   UNL     1      -8.753  12.456  67.008  1.00  0.00    -0.207 C  
HETATM   18  O   UNL     1      -9.428  11.348  66.401  1.00  0.00    -0.193 OA 
HETATM   19  C   UNL     1      -8.599  10.653  65.453  1.00  0.00    -0.179 C  
HETATM   20  C   UNL     1      -7.372  10.056  66.156  1.00  0.00    -0.109 C  
HETATM   21  H   UNL     1      -5.989  12.904  68.717  1.00  0.00     0.000 HD 
HETATM   22  O   UNL     1      -6.773  13.174  68.254  1.00  0.00    -0.081 OA 
HETATM   23  C   UNL     1      -6.582  11.201  66.803  1.00  0.00    -0.133 C  
HETATM   24  O   UNL     1      -7.717   9.140  67.206  1.00  0.00    -0.094 OA 
HETATM   25  H   UNL     1      -4.955  11.380  67.887  1.00  0.00     0.000 HD 
HETATM   26  O   UNL     1      -5.443  10.670  67.486  1.00  0.00    -0.043 OA 
HETATM   27  H   UNL     1      -6.958   8.771  67.641  1.00  0.00     0.000 HD 
HETATM   28  C   UNL     1      -7.475  12.016  67.763  1.00  0.00    -0.121 C  
BRANCH  19  29
HETATM   29  C   UNL     1      -9.455   9.592  64.756  1.00  0.00    -0.188 C  
HETATM   30  O   UNL     1      -8.775   8.336  64.793  1.00  0.00    -0.386 OA 
HETATM   31  H   UNL     1      -9.305   7.678  64.360  1.00  0.00     0.000 HD 
ENDBRANCH  19  29
ENDBRANCH  16  17
ENDBRANCH  10  16
ENDBRANCH   3   4
TORSDOF 5
ENDMDL
MODEL      133
REMARK 921   NORMALIZED FREE ENERGY PREDICTED BY IDOCK:   -4.11 KCAL/MOL
REMARK 922        TOTAL FREE ENERGY PREDICTED BY IDOCK:   -6.89 KCAL/MOL
REMARK 923 INTER-LIGAND FREE ENERGY PREDICTED BY IDOCK:   -6.18 KCAL/MOL
REMARK 924 INTRA-LIGAND FREE ENERGY PREDICTED BY IDOCK:   -0.70 KCAL/MOL
REMARK 927      BINDING AFFINITY PREDICTED BY RF-SCORE:    0.00 PKD
ROOT
HETATM    1  O   UNL     1     -11.273  10.269  70.953  1.00  0.00    -0.336 OA 
HETATM    2  H   UNL     1     -11.923   9.657  71.279  1.00  0.00     0.000 HD 
HETATM    3  C   UNL     1     -11.536  10.560  69.581  1.00  0.00    -0.271 C  
ENDROOT
BRANCH   3   4
HETATM    4  C   UNL     1     -10.490  11.546  69.055  1.00  0.00    -0.145 C  
HETATM    5  O   UNL     1      -9.257  10.845  68.799  1.00  0.00    -0.179 OA 
HETATM    6  C   UNL     1      -8.600  11.545  67.739  1.00  0.00    -0.138 C  
HETATM    7  O   UNL     1      -7.813  10.599  67.005  1.00  0.00    -0.111 OA 
HETATM    8  H   UNL     1     -10.718  11.455  65.251  1.00  0.00     0.000 HD 
HETATM    9  C   UNL     1      -9.710  12.091  66.832  1.00  0.00    -0.203 C  
HETATM   10  C   UNL     1     -10.928  12.219  67.749  1.00  0.00    -0.232 C  
HETATM   11  O   UNL     1     -10.031  11.117  65.813  1.00  0.00    -0.224 OA 
HETATM   12  H   UNL     1      -7.376  11.063  66.301  1.00  0.00     0.000 HD 
BRANCH   6  13
HETATM   13  C   UNL     1      -7.678  12.622  68.330  1.00  0.00    -0.133 C  
HETATM   14  H   UNL     1      -6.054  13.550  67.750  1.00  0.00     0.000 HD 
HETATM   15  O   UNL     1      -6.624  12.884  67.384  1.00  0.00    -0.161 OA 
ENDBRANCH   6  13
BRANCH  10  16
HETATM   16  O   UNL     1     -11.274  13.599  67.941  1.00  0.00    -0.255 OA 
BRANCH  16  17
HETATM   17  C   UNL     1     -10.464  14.497  67.167  1.00  0.00    -0.267 C  
HETATM   18  O   UNL     1      -9.789  15.422  68.028  1.00  0.00    -0.214 OA 
HETATM   19  C   UNL     1      -8.921  16.312  67.303  1.00  0.00    -0.195 C  
HETATM   20  C   UNL     1      -9.734  17.172  66.327  1.00  0.00    -0.278 C  
HETATM   21  H   UNL     1     -12.432  14.692  64.550  1.00  0.00     0.000 HD 
HETATM   22  O   UNL     1     -11.897  14.251  65.200  1.00  0.00    -0.353 OA 
HETATM   23  C   UNL     1     -10.460  16.238  65.351  1.00  0.00    -0.343 C  
HETATM   24  O   UNL     1     -10.741  17.960  66.979  1.00  0.00    -0.319 OA 
HETATM   25  H   UNL     1     -11.696  16.434  63.838  1.00  0.00     0.000 HD 
HETATM   26  O   UNL     1     -11.246  17.013  64.442  1.00  0.00    -1.167 OA 
HETATM   27  H   UNL     1     -11.245  18.493  66.374  1.00  0.00     0.000 HD 
HETATM   28  C   UNL     1     -11.335  15.217  66.109  1.00  0.00    -0.220 C  
BRANCH  19  29
HETATM   29  C   UNL     1      -8.139  17.150  68.319  1.00  0.00    -0.239 C  
HETATM   30  O   UNL     1      -7.402  16.281  69.181  1.00  0.00    -0.201 OA 
HETATM   31  H   UNL     1      -6.917  16.800  69.811  1.00  0.00     0.000 HD 
ENDBRANCH  19  29
ENDBRANCH  16  17
ENDBRANCH  10  16
ENDBRANCH   3   4
TORSDOF 5
ENDMDL
MODEL      134
REMARK 921   NORMALIZED FREE ENERGY PREDICTED BY IDOCK:   -4.09 KCAL/MOL
REMARK 922        TOTAL FREE ENERGY PREDICTED BY IDOCK:   -6.87 KCAL/MOL
REMARK 923 INTER-LIGAND FREE ENERGY PREDICTED BY IDOCK:   -5.89 KCAL/MOL
REMARK 924 INTRA-LIGAND FREE ENERGY PREDICTED BY IDOCK:   -0.98 KCAL/MOL
REMARK 927      BINDING AFFINITY PREDICTED BY RF-SCORE:    0.00 PKD
ROOT
HETATM    1  O   UNL     1      -7.955  11.384  69.574  1.00  0.00    -0.355 OA 
HETATM    2  H   UNL     1      -7.246  11.816  70.036  1.00  0.00     0.000 HD 
HETATM    3  C   UNL     1      -7.467  10.842  68.347  1.00  0.00    -0.098 C  
ENDROOT
BRANCH   3   4
HETATM    4  C   UNL     1      -8.609  10.146  67.603  1.00  0.00    -0.118 C  
HETATM    5  O   UNL     1      -8.977   8.944  68.305  1.00  0.00    -0.137 OA 
HETATM    6  C   UNL     1     -10.365   8.723  68.043  1.00  0.00    -0.220 C  
HETATM    7  O   UNL     1     -10.926   8.040  69.170  1.00  0.00    -0.420 OA 
HETATM    8  H   UNL     1     -11.854  11.415  69.150  1.00  0.00     0.000 HD 
HETATM    9  C   UNL     1     -11.005  10.113  67.923  1.00  0.00    -0.277 C  
HETATM   10  C   UNL     1      -9.858  11.030  67.496  1.00  0.00    -0.169 C  
HETATM   11  O   UNL     1     -11.457  10.554  69.224  1.00  0.00    -0.253 OA 
HETATM   12  H   UNL     1     -11.849   7.893  68.996  1.00  0.00     0.000 HD 
BRANCH   6  13
HETATM   13  C   UNL     1     -10.517   7.846  66.791  1.00  0.00    -0.247 C  
HETATM   14  H   UNL     1     -11.276   6.085  66.396  1.00  0.00     0.000 HD 
HETATM   15  O   UNL     1     -11.183   6.627  67.170  1.00  0.00    -0.392 OA 
ENDBRANCH   6  13
BRANCH  10  16
HETATM   16  O   UNL     1     -10.067  11.512  66.160  1.00  0.00    -0.215 OA 
BRANCH  16  17
HETATM   17  C   UNL     1      -9.607  12.859  65.968  1.00  0.00    -0.165 C  
HETATM   18  O   UNL     1      -9.313  13.468  67.230  1.00  0.00    -0.216 OA 
HETATM   19  C   UNL     1      -8.797  14.804  67.089  1.00  0.00    -0.216 C  
HETATM   20  C   UNL     1      -9.842  15.711  66.425  1.00  0.00    -0.274 C  
HETATM   21  H   UNL     1     -11.472  13.574  63.366  1.00  0.00     0.000 HD 
HETATM   22  O   UNL     1     -10.829  13.079  63.860  1.00  0.00    -0.395 OA 
HETATM   23  C   UNL     1     -10.179  15.129  65.046  1.00  0.00    -0.297 C  
HETATM   24  O   UNL     1     -11.072  15.781  67.161  1.00  0.00    -0.286 OA 
HETATM   25  H   UNL     1     -11.378  15.583  63.559  1.00  0.00     0.000 HD 
HETATM   26  O   UNL     1     -11.170  15.943  64.413  1.00  0.00    -0.450 OA 
HETATM   27  H   UNL     1     -11.719  16.342  66.750  1.00  0.00     0.000 HD 
HETATM   28  C   UNL     1     -10.656  13.666  65.164  1.00  0.00    -0.361 C  
BRANCH  19  29
HETATM   29  C   UNL     1      -8.375  15.303  68.473  1.00  0.00    -0.152 C  
HETATM   30  O   UNL     1      -7.513  14.340  69.080  1.00  0.00    -0.180 OA 
HETATM   31  H   UNL     1      -7.251  14.649  69.939  1.00  0.00     0.000 HD 
ENDBRANCH  19  29
ENDBRANCH  16  17
ENDBRANCH  10  16
ENDBRANCH   3   4
TORSDOF 5
ENDMDL
MODEL      135
REMARK 921   NORMALIZED FREE ENERGY PREDICTED BY IDOCK:   -4.09 KCAL/MOL
REMARK 922        TOTAL FREE ENERGY PREDICTED BY IDOCK:   -6.87 KCAL/MOL
REMARK 923 INTER-LIGAND FREE ENERGY PREDICTED BY IDOCK:   -6.49 KCAL/MOL
REMARK 924 INTRA-LIGAND FREE ENERGY PREDICTED BY IDOCK:   -0.38 KCAL/MOL
REMARK 927      BINDING AFFINITY PREDICTED BY RF-SCORE:    0.00 PKD
ROOT
HETATM    1  O   UNL     1     -13.125  14.236  72.053  1.00  0.00    -0.330 OA 
HETATM    2  H   UNL     1     -13.955  14.476  72.447  1.00  0.00     0.000 HD 
HETATM    3  C   UNL     1     -13.337  13.233  71.061  1.00  0.00     0.110 C  
ENDROOT
BRANCH   3   4
HETATM    4  C   UNL     1     -11.999  12.846  70.426  1.00  0.00    -0.249 C  
HETATM    5  O   UNL     1     -11.974  11.426  70.186  1.00  0.00    -0.324 OA 
HETATM    6  C   UNL     1     -11.126  11.215  69.055  1.00  0.00    -0.242 C  
HETATM    7  O   UNL     1     -11.582  10.040  68.372  1.00  0.00    -0.546 OA 
HETATM    8  H   UNL     1     -12.512  12.942  66.650  1.00  0.00     0.000 HD 
HETATM    9  C   UNL     1     -11.315  12.435  68.144  1.00  0.00    -0.291 C  
HETATM   10  C   UNL     1     -11.763  13.553  69.086  1.00  0.00    -0.327 C  
HETATM   11  O   UNL     1     -12.395  12.187  67.215  1.00  0.00    -0.354 OA 
HETATM   12  H   UNL     1     -11.019   9.900  67.620  1.00  0.00     0.000 HD 
BRANCH   6  13
HETATM   13  C   UNL     1      -9.682  10.997  69.530  1.00  0.00     0.212 C  
HETATM   14  H   UNL     1      -8.356   9.565  69.376  1.00  0.00     0.000 HD 
HETATM   15  O   UNL     1      -9.249   9.699  69.082  1.00  0.00    -0.153 OA 
ENDBRANCH   6  13
BRANCH  10  16
HETATM   16  O   UNL     1     -10.755  14.571  69.181  1.00  0.00    -0.248 OA 
BRANCH  16  17
HETATM   17  C   UNL     1     -10.968  15.663  68.273  1.00  0.00    -0.315 C  
HETATM   18  O   UNL     1     -10.850  15.214  66.919  1.00  0.00    -0.307 OA 
HETATM   19  C   UNL     1     -11.107  16.263  65.968  1.00  0.00     0.114 C  
HETATM   20  C   UNL     1     -10.075  17.388  66.123  1.00  0.00    -0.300 C  
HETATM   21  H   UNL     1      -9.618  18.013  70.121  1.00  0.00     0.000 HD 
HETATM   22  O   UNL     1     -10.222  17.307  69.925  1.00  0.00     0.076 OA 
HETATM   23  C   UNL     1     -10.173  17.938  67.551  1.00  0.00    -0.363 C  
HETATM   24  O   UNL     1      -8.724  16.938  65.940  1.00  0.00    -0.516 OA 
HETATM   25  H   UNL     1      -9.265  19.315  68.616  1.00  0.00     0.000 HD 
HETATM   26  O   UNL     1      -9.204  18.975  67.732  1.00  0.00    -0.290 OA 
HETATM   27  H   UNL     1      -8.085  17.634  66.036  1.00  0.00     0.000 HD 
HETATM   28  C   UNL     1      -9.983  16.814  68.592  1.00  0.00    -0.276 C  
BRANCH  19  29
HETATM   29  C   UNL     1     -11.106  15.648  64.566  1.00  0.00    -0.286 C  
HETATM   30  O   UNL     1     -12.212  16.164  63.823  1.00  0.00    -1.281 OA 
HETATM   31  H   UNL     1     -12.211  15.783  62.953  1.00  0.00     0.000 HD 
ENDBRANCH  19  29
ENDBRANCH  16  17
ENDBRANCH  10  16
ENDBRANCH   3   4
TORSDOF 5
ENDMDL
MODEL      136
REMARK 921   NORMALIZED FREE ENERGY PREDICTED BY IDOCK:   -4.07 KCAL/MOL
REMARK 922        TOTAL FREE ENERGY PREDICTED BY IDOCK:   -6.84 KCAL/MOL
REMARK 923 INTER-LIGAND FREE ENERGY PREDICTED BY IDOCK:   -5.91 KCAL/MOL
REMARK 924 INTRA-LIGAND FREE ENERGY PREDICTED BY IDOCK:   -0.93 KCAL/MOL
REMARK 927      BINDING AFFINITY PREDICTED BY RF-SCORE:    0.00 PKD
ROOT
HETATM    1  O   UNL     1      -6.436   7.449  69.472  1.00  0.00    -0.035 OA 
HETATM    2  H   UNL     1      -6.100   6.873  70.149  1.00  0.00     0.000 HD 
HETATM    3  C   UNL     1      -7.863   7.416  69.479  1.00  0.00    -0.121 C  
ENDROOT
BRANCH   3   4
HETATM    4  C   UNL     1      -8.404   8.343  68.388  1.00  0.00    -0.131 C  
HETATM    5  O   UNL     1      -8.002   7.849  67.096  1.00  0.00    -0.113 OA 
HETATM    6  C   UNL     1      -9.012   8.256  66.169  1.00  0.00    -0.181 C  
HETATM    7  O   UNL     1      -9.062   7.286  65.115  1.00  0.00    -0.320 OA 
HETATM    8  H   UNL     1     -11.766   6.910  67.306  1.00  0.00     0.000 HD 
HETATM    9  C   UNL     1     -10.338   8.232  66.941  1.00  0.00    -0.320 C  
HETATM   10  C   UNL     1      -9.935   8.429  68.404  1.00  0.00    -0.187 C  
HETATM   11  O   UNL     1     -10.945   6.925  66.827  1.00  0.00    -0.329 OA 
HETATM   12  H   UNL     1      -9.733   7.555  64.499  1.00  0.00     0.000 HD 
BRANCH   6  13
HETATM   13  C   UNL     1      -8.647   9.626  65.580  1.00  0.00    -0.136 C  
HETATM   14  H   UNL     1      -9.618  11.273  65.153  1.00  0.00     0.000 HD 
HETATM   15  O   UNL     1      -9.843  10.425  65.517  1.00  0.00    -0.232 OA 
ENDBRANCH   6  13
BRANCH  10  16
HETATM   16  O   UNL     1     -10.401   9.697  68.891  1.00  0.00    -0.189 OA 
BRANCH  16  17
HETATM   17  C   UNL     1     -10.998   9.616  70.194  1.00  0.00    -0.275 C  
HETATM   18  O   UNL     1     -11.492   8.294  70.433  1.00  0.00    -0.232 OA 
HETATM   19  C   UNL     1     -12.054   8.147  71.749  1.00  0.00    -0.315 C  
HETATM   20  C   UNL     1     -13.262   9.078  71.920  1.00  0.00    -0.405 C  
HETATM   21  H   UNL     1     -12.220  12.659  70.286  1.00  0.00     0.000 HD 
HETATM   22  O   UNL     1     -11.539  12.003  70.201  1.00  0.00    -0.261 OA 
HETATM   23  C   UNL     1     -12.792  10.522  71.708  1.00  0.00    -0.454 C  
HETATM   24  O   UNL     1     -14.300   8.831  70.960  1.00  0.00    -0.598 OA 
HETATM   25  H   UNL     1     -13.612  12.306  71.707  1.00  0.00     0.000 HD 
HETATM   26  O   UNL     1     -13.904  11.411  71.839  1.00  0.00     0.050 OA 
HETATM   27  H   UNL     1     -15.048   9.407  71.065  1.00  0.00     0.000 HD 
HETATM   28  C   UNL     1     -12.108  10.686  70.334  1.00  0.00    -0.341 C  
BRANCH  19  29
HETATM   29  C   UNL     1     -12.410   6.672  71.956  1.00  0.00    -0.272 C  
HETATM   30  O   UNL     1     -13.785   6.566  72.329  1.00  0.00    -0.509 OA 
HETATM   31  H   UNL     1     -14.006   5.651  72.457  1.00  0.00     0.000 HD 
ENDBRANCH  19  29
ENDBRANCH  16  17
ENDBRANCH  10  16
ENDBRANCH   3   4
TORSDOF 5
ENDMDL
MODEL      137
REMARK 921   NORMALIZED FREE ENERGY PREDICTED BY IDOCK:   -4.07 KCAL/MOL
REMARK 922        TOTAL FREE ENERGY PREDICTED BY IDOCK:   -6.84 KCAL/MOL
REMARK 923 INTER-LIGAND FREE ENERGY PREDICTED BY IDOCK:   -5.89 KCAL/MOL
REMARK 924 INTRA-LIGAND FREE ENERGY PREDICTED BY IDOCK:   -0.95 KCAL/MOL
REMARK 927      BINDING AFFINITY PREDICTED BY RF-SCORE:    0.00 PKD
ROOT
HETATM    1  O   UNL     1     -11.646   9.965  68.351  1.00  0.00    -0.518 OA 
HETATM    2  H   UNL     1     -12.302   9.542  68.894  1.00  0.00     0.000 HD 
HETATM    3  C   UNL     1     -10.465   9.165  68.315  1.00  0.00    -0.208 C  
ENDROOT
BRANCH   3   4
HETATM    4  C   UNL     1      -9.409   9.847  67.442  1.00  0.00    -0.137 C  
HETATM    5  O   UNL     1      -9.082   8.993  66.329  1.00  0.00    -0.155 OA 
HETATM    6  C   UNL     1      -8.694   9.850  65.253  1.00  0.00    -0.160 C  
HETATM    7  O   UNL     1      -9.025   9.195  64.023  1.00  0.00    -0.406 OA 
HETATM    8  H   UNL     1     -11.297  11.760  64.739  1.00  0.00     0.000 HD 
HETATM    9  C   UNL     1      -9.540  11.123  65.393  1.00  0.00    -0.229 C  
HETATM   10  C   UNL     1      -9.897  11.187  66.879  1.00  0.00    -0.194 C  
HETATM   11  O   UNL     1     -10.773  10.972  64.653  1.00  0.00    -0.324 OA 
HETATM   12  H   UNL     1      -8.768   9.765  63.307  1.00  0.00     0.000 HD 
BRANCH   6  13
HETATM   13  C   UNL     1      -7.177  10.089  65.309  1.00  0.00    -0.137 C  
HETATM   14  H   UNL     1      -5.743  10.307  63.993  1.00  0.00     0.000 HD 
HETATM   15  O   UNL     1      -6.681  10.160  63.959  1.00  0.00    -0.129 OA 
ENDBRANCH   6  13
BRANCH  10  16
HETATM   16  O   UNL     1      -9.251  12.306  67.506  1.00  0.00    -0.171 OA 
BRANCH  16  17
HETATM   17  C   UNL     1      -9.913  13.555  67.253  1.00  0.00    -0.236 C  
HETATM   18  O   UNL     1      -8.962  14.547  66.852  1.00  0.00    -0.227 OA 
HETATM   19  C   UNL     1      -9.584  15.806  66.536  1.00  0.00    -0.265 C  
HETATM   20  C   UNL     1     -10.285  16.380  67.774  1.00  0.00    -0.274 C  
HETATM   21  H   UNL     1     -12.226  13.279  69.563  1.00  0.00     0.000 HD 
HETATM   22  O   UNL     1     -11.734  13.013  68.796  1.00  0.00    -0.285 OA 
HETATM   23  C   UNL     1     -11.345  15.374  68.238  1.00  0.00    -0.348 C  
HETATM   24  O   UNL     1      -9.393  16.587  68.878  1.00  0.00    -0.243 OA 
HETATM   25  H   UNL     1     -12.656  15.249  69.694  1.00  0.00     0.000 HD 
HETATM   26  O   UNL     1     -12.000  15.873  69.407  1.00  0.00    -0.354 OA 
HETATM   27  H   UNL     1      -9.826  16.942  69.645  1.00  0.00     0.000 HD 
HETATM   28  C   UNL     1     -10.715  13.990  68.503  1.00  0.00    -0.256 C  
BRANCH  19  29
HETATM   29  C   UNL     1      -8.510  16.743  65.977  1.00  0.00    -0.165 C  
HETATM   30  O   UNL     1      -8.913  18.098  66.179  1.00  0.00    -0.468 OA 
HETATM   31  H   UNL     1      -8.247  18.680  65.832  1.00  0.00     0.000 HD 
ENDBRANCH  19  29
ENDBRANCH  16  17
ENDBRANCH  10  16
ENDBRANCH   3   4
TORSDOF 5
ENDMDL
MODEL      138
REMARK 921   NORMALIZED FREE ENERGY PREDICTED BY IDOCK:   -4.05 KCAL/MOL
REMARK 922        TOTAL FREE ENERGY PREDICTED BY IDOCK:   -6.82 KCAL/MOL
REMARK 923 INTER-LIGAND FREE ENERGY PREDICTED BY IDOCK:   -5.85 KCAL/MOL
REMARK 924 INTRA-LIGAND FREE ENERGY PREDICTED BY IDOCK:   -0.97 KCAL/MOL
REMARK 927      BINDING AFFINITY PREDICTED BY RF-SCORE:    0.00 PKD
ROOT
HETATM    1  O   UNL     1     -13.547   7.668  70.928  1.00  0.00    -0.593 OA 
HETATM    2  H   UNL     1     -14.493   7.695  70.843  1.00  0.00     0.000 HD 
HETATM    3  C   UNL     1     -13.144   8.449  72.052  1.00  0.00    -0.352 C  
ENDROOT
BRANCH   3   4
HETATM    4  C   UNL     1     -11.620   8.407  72.188  1.00  0.00    -0.374 C  
HETATM    5  O   UNL     1     -11.251   7.394  73.142  1.00  0.00    -0.335 OA 
HETATM    6  C   UNL     1      -9.960   6.915  72.755  1.00  0.00    -0.171 C  
HETATM    7  O   UNL     1      -9.853   5.547  73.168  1.00  0.00    -0.159 OA 
HETATM    8  H   UNL     1     -10.376   5.785  69.716  1.00  0.00     0.000 HD 
HETATM    9  C   UNL     1      -9.919   6.986  71.223  1.00  0.00    -0.189 C  
HETATM   10  C   UNL     1     -10.926   8.078  70.860  1.00  0.00    -0.243 C  
HETATM   11  O   UNL     1     -10.402   5.742  70.665  1.00  0.00    -0.216 OA 
HETATM   12  H   UNL     1      -8.995   5.229  72.911  1.00  0.00     0.000 HD 
BRANCH   6  13
HETATM   13  C   UNL     1      -8.874   7.744  73.456  1.00  0.00    -0.255 C  
HETATM   14  H   UNL     1      -7.052   7.415  74.095  1.00  0.00     0.000 HD 
HETATM   15  O   UNL     1      -7.724   6.902  73.661  1.00  0.00    -0.087 OA 
ENDBRANCH   6  13
BRANCH  10  16
HETATM   16  O   UNL     1     -10.257   9.218  70.301  1.00  0.00    -0.196 OA 
BRANCH  16  17
HETATM   17  C   UNL     1     -10.777   9.606  69.020  1.00  0.00    -0.211 C  
HETATM   18  O   UNL     1      -9.824   9.318  67.990  1.00  0.00    -0.153 OA 
HETATM   19  C   UNL     1     -10.320   9.641  66.678  1.00  0.00    -0.208 C  
HETATM   20  C   UNL     1     -10.604  11.145  66.571  1.00  0.00    -0.262 C  
HETATM   21  H   UNL     1     -12.463  12.233  70.027  1.00  0.00     0.000 HD 
HETATM   22  O   UNL     1     -12.218  11.316  70.014  1.00  0.00    -0.310 OA 
HETATM   23  C   UNL     1     -11.649  11.515  67.632  1.00  0.00    -0.247 C  
HETATM   24  O   UNL     1      -9.447  11.954  66.824  1.00  0.00    -0.191 OA 
HETATM   25  H   UNL     1     -12.563  13.147  68.228  1.00  0.00     0.000 HD 
HETATM   26  O   UNL     1     -11.917  12.918  67.570  1.00  0.00    -0.359 OA 
HETATM   27  H   UNL     1      -9.622  12.886  66.759  1.00  0.00     0.000 HD 
HETATM   28  C   UNL     1     -11.176  11.101  69.042  1.00  0.00    -0.256 C  
BRANCH  19  29
HETATM   29  C   UNL     1      -9.295   9.158  65.648  1.00  0.00    -0.235 C  
HETATM   30  O   UNL     1      -9.338  10.012  64.503  1.00  0.00    -0.248 OA 
HETATM   31  H   UNL     1      -8.703   9.712  63.864  1.00  0.00     0.000 HD 
ENDBRANCH  19  29
ENDBRANCH  16  17
ENDBRANCH  10  16
ENDBRANCH   3   4
TORSDOF 5
ENDMDL
MODEL      139
REMARK 921   NORMALIZED FREE ENERGY PREDICTED BY IDOCK:   -4.05 KCAL/MOL
REMARK 922        TOTAL FREE ENERGY PREDICTED BY IDOCK:   -6.81 KCAL/MOL
REMARK 923 INTER-LIGAND FREE ENERGY PREDICTED BY IDOCK:   -5.79 KCAL/MOL
REMARK 924 INTRA-LIGAND FREE ENERGY PREDICTED BY IDOCK:   -1.02 KCAL/MOL
REMARK 927      BINDING AFFINITY PREDICTED BY RF-SCORE:    0.00 PKD
ROOT
HETATM    1  O   UNL     1     -12.157  11.948  67.740  1.00  0.00    -0.564 OA 
HETATM    2  H   UNL     1     -12.880  11.897  68.355  1.00  0.00     0.000 HD 
HETATM    3  C   UNL     1     -11.028  11.255  68.269  1.00  0.00    -0.224 C  
ENDROOT
BRANCH   3   4
HETATM    4  C   UNL     1      -9.864  11.337  67.278  1.00  0.00    -0.182 C  
HETATM    5  O   UNL     1      -9.630  10.037  66.703  1.00  0.00    -0.171 OA 
HETATM    6  C   UNL     1      -9.098  10.256  65.394  1.00  0.00    -0.185 C  
HETATM    7  O   UNL     1      -9.485   9.152  64.568  1.00  0.00    -0.395 OA 
HETATM    8  H   UNL     1     -11.394  11.996  63.849  1.00  0.00     0.000 HD 
HETATM    9  C   UNL     1      -9.761  11.537  64.871  1.00  0.00    -0.234 C  
HETATM   10  C   UNL     1     -10.145  12.315  66.130  1.00  0.00    -0.245 C  
HETATM   11  O   UNL     1     -10.983  11.203  64.174  1.00  0.00    -0.358 OA 
HETATM   12  H   UNL     1      -9.131   9.297  63.698  1.00  0.00     0.000 HD 
BRANCH   6  13
HETATM   13  C   UNL     1      -7.565  10.322  65.468  1.00  0.00    -0.149 C  
HETATM   14  H   UNL     1      -6.138   9.131  66.085  1.00  0.00     0.000 HD 
HETATM   15  O   UNL     1      -7.086   9.090  66.039  1.00  0.00    -0.083 OA 
ENDBRANCH   6  13
BRANCH  10  16
HETATM   16  O   UNL     1      -9.366  13.516  66.240  1.00  0.00    -0.225 OA 
BRANCH  16  17
HETATM   17  C   UNL     1      -9.300  14.026  67.581  1.00  0.00    -0.203 C  
HETATM   18  O   UNL     1     -10.570  14.558  67.973  1.00  0.00    -0.233 OA 
HETATM   19  C   UNL     1     -10.570  15.034  69.331  1.00  0.00    -0.256 C  
HETATM   20  C   UNL     1      -9.570  16.187  69.491  1.00  0.00    -0.150 C  
HETATM   21  H   UNL     1      -6.205  15.108  67.467  1.00  0.00     0.000 HD 
HETATM   22  O   UNL     1      -6.899  14.463  67.399  1.00  0.00    -0.222 OA 
HETATM   23  C   UNL     1      -8.175  15.672  69.116  1.00  0.00    -0.248 C  
HETATM   24  O   UNL     1      -9.852  17.298  68.627  1.00  0.00    -0.283 OA 
HETATM   25  H   UNL     1      -6.361  16.414  69.001  1.00  0.00     0.000 HD 
HETATM   26  O   UNL     1      -7.225  16.734  69.234  1.00  0.00    -0.234 OA 
HETATM   27  H   UNL     1      -9.233  18.012  68.726  1.00  0.00     0.000 HD 
HETATM   28  C   UNL     1      -8.169  15.077  67.691  1.00  0.00    -0.168 C  
BRANCH  19  29
HETATM   29  C   UNL     1     -12.001  15.437  69.697  1.00  0.00    -0.343 C  
HETATM   30  O   UNL     1     -12.897  14.390  69.324  1.00  0.00    -0.436 OA 
HETATM   31  H   UNL     1     -13.785  14.640  69.550  1.00  0.00     0.000 HD 
ENDBRANCH  19  29
ENDBRANCH  16  17
ENDBRANCH  10  16
ENDBRANCH   3   4
TORSDOF 5
ENDMDL
MODEL      140
REMARK 921   NORMALIZED FREE ENERGY PREDICTED BY IDOCK:   -4.05 KCAL/MOL
REMARK 922        TOTAL FREE ENERGY PREDICTED BY IDOCK:   -6.81 KCAL/MOL
REMARK 923 INTER-LIGAND FREE ENERGY PREDICTED BY IDOCK:   -5.62 KCAL/MOL
REMARK 924 INTRA-LIGAND FREE ENERGY PREDICTED BY IDOCK:   -1.19 KCAL/MOL
REMARK 927      BINDING AFFINITY PREDICTED BY RF-SCORE:    0.00 PKD
ROOT
HETATM    1  O   UNL     1      -9.933  10.566  69.724  1.00  0.00    -0.397 OA 
HETATM    2  H   UNL     1      -9.978  10.066  70.530  1.00  0.00     0.000 HD 
HETATM    3  C   UNL     1     -11.197  10.528  69.064  1.00  0.00    -0.259 C  
ENDROOT
BRANCH   3   4
HETATM    4  C   UNL     1     -11.124  11.334  67.765  1.00  0.00    -0.271 C  
HETATM    5  O   UNL     1     -12.264  12.211  67.679  1.00  0.00    -0.462 OA 
HETATM    6  C   UNL     1     -11.851  13.350  66.920  1.00  0.00    -0.403 C  
HETATM    7  O   UNL     1     -12.613  14.479  67.364  1.00  0.00    -0.509 OA 
HETATM    8  H   UNL     1      -9.341  14.597  68.603  1.00  0.00     0.000 HD 
HETATM    9  C   UNL     1     -10.370  13.574  67.256  1.00  0.00    -0.241 C  
HETATM   10  C   UNL     1      -9.860  12.198  67.686  1.00  0.00    -0.194 C  
HETATM   11  O   UNL     1     -10.258  14.458  68.395  1.00  0.00    -0.229 OA 
HETATM   12  H   UNL     1     -12.338  15.236  66.860  1.00  0.00     0.000 HD 
BRANCH   6  13
HETATM   13  C   UNL     1     -12.131  13.102  65.430  1.00  0.00    -0.433 C  
HETATM   14  H   UNL     1     -13.539  13.606  64.166  1.00  0.00     0.000 HD 
HETATM   15  O   UNL     1     -13.365  13.759  65.087  1.00  0.00    -0.688 OA 
ENDBRANCH   6  13
BRANCH  10  16
HETATM   16  O   UNL     1      -8.914  11.688  66.733  1.00  0.00    -0.176 OA 
BRANCH  16  17
HETATM   17  C   UNL     1      -7.643  11.363  67.317  1.00  0.00    -0.138 C  
HETATM   18  O   UNL     1      -7.742  10.156  68.081  1.00  0.00    -0.087 OA 
HETATM   19  C   UNL     1      -6.479   9.759  68.645  1.00  0.00    -0.047 C  
HETATM   20  C   UNL     1      -5.972  10.827  69.622  1.00  0.00    -0.058 C  
HETATM   21  H   UNL     1      -6.629  14.437  67.854  1.00  0.00     0.000 HD 
HETATM   22  O   UNL     1      -6.942  13.708  67.332  1.00  0.00    -0.168 OA 
HETATM   23  C   UNL     1      -5.812  12.145  68.855  1.00  0.00    -0.061 C  
HETATM   24  O   UNL     1      -6.885  11.079  70.701  1.00  0.00    -0.460 OA 
HETATM   25  H   UNL     1      -5.262  13.984  69.272  1.00  0.00     0.000 HD 
HETATM   26  O   UNL     1      -5.361  13.167  69.748  1.00  0.00    -0.082 OA 
HETATM   27  H   UNL     1      -6.571  11.741  71.306  1.00  0.00     0.000 HD 
HETATM   28  C   UNL     1      -7.134  12.551  68.169  1.00  0.00    -0.103 C  
BRANCH  19  29
HETATM   29  C   UNL     1      -6.661   8.390  69.307  1.00  0.00    -0.042 C  
HETATM   30  O   UNL     1      -7.905   7.825  68.891  1.00  0.00    -0.117 OA 
HETATM   31  H   UNL     1      -8.018   6.976  69.302  1.00  0.00     0.000 HD 
ENDBRANCH  19  29
ENDBRANCH  16  17
ENDBRANCH  10  16
ENDBRANCH   3   4
TORSDOF 5
ENDMDL
MODEL      141
REMARK 921   NORMALIZED FREE ENERGY PREDICTED BY IDOCK:   -4.03 KCAL/MOL
REMARK 922        TOTAL FREE ENERGY PREDICTED BY IDOCK:   -6.79 KCAL/MOL
REMARK 923 INTER-LIGAND FREE ENERGY PREDICTED BY IDOCK:   -5.99 KCAL/MOL
REMARK 924 INTRA-LIGAND FREE ENERGY PREDICTED BY IDOCK:   -0.80 KCAL/MOL
REMARK 927      BINDING AFFINITY PREDICTED BY RF-SCORE:    0.00 PKD
ROOT
HETATM    1  O   UNL     1     -12.761  10.474  69.359  1.00  0.00    -0.692 OA 
HETATM    2  H   UNL     1     -13.215   9.915  69.979  1.00  0.00     0.000 HD 
HETATM    3  C   UNL     1     -11.358  10.435  69.617  1.00  0.00    -0.272 C  
ENDROOT
BRANCH   3   4
HETATM    4  C   UNL     1     -10.627  11.336  68.618  1.00  0.00    -0.202 C  
HETATM    5  O   UNL     1     -10.224  10.557  67.475  1.00  0.00    -0.187 OA 
HETATM    6  C   UNL     1     -10.203  11.448  66.357  1.00  0.00    -0.230 C  
HETATM    7  O   UNL     1     -10.497  10.688  65.179  1.00  0.00    -0.280 OA 
HETATM    8  H   UNL     1     -13.255  12.605  66.166  1.00  0.00     0.000 HD 
HETATM    9  C   UNL     1     -11.328  12.464  66.598  1.00  0.00    -0.339 C  
HETATM   10  C   UNL     1     -11.510  12.486  68.116  1.00  0.00    -0.319 C  
HETATM   11  O   UNL     1     -12.559  11.975  66.017  1.00  0.00     0.029 OA 
HETATM   12  H   UNL     1     -10.484  11.280  64.436  1.00  0.00     0.000 HD 
BRANCH   6  13
HETATM   13  C   UNL     1      -8.806  12.071  66.224  1.00  0.00    -0.075 C  
HETATM   14  H   UNL     1      -6.963  11.431  66.396  1.00  0.00     0.000 HD 
HETATM   15  O   UNL     1      -7.827  11.046  66.478  1.00  0.00    -0.146 OA 
ENDBRANCH   6  13
BRANCH  10  16
HETATM   16  O   UNL     1     -11.106  13.753  68.656  1.00  0.00    -0.246 OA 
BRANCH  16  17
HETATM   17  C   UNL     1     -11.349  13.868  70.067  1.00  0.00    -0.063 C  
HETATM   18  O   UNL     1     -12.534  13.150  70.428  1.00  0.00    -0.289 OA 
HETATM   19  C   UNL     1     -12.792  13.192  71.843  1.00  0.00    -0.225 C  
HETATM   20  C   UNL     1     -13.027  14.638  72.300  1.00  0.00    -0.355 C  
HETATM   21  H   UNL     1     -10.219  16.926  70.439  1.00  0.00     0.000 HD 
HETATM   22  O   UNL     1     -10.171  16.010  70.192  1.00  0.00    -0.208 OA 
HETATM   23  C   UNL     1     -11.774  15.458  71.971  1.00  0.00    -0.455 C  
HETATM   24  O   UNL     1     -14.127  15.266  71.626  1.00  0.00    -0.473 OA 
HETATM   25  H   UNL     1     -11.198  17.326  72.161  1.00  0.00     0.000 HD 
HETATM   26  O   UNL     1     -11.975  16.818  72.365  1.00  0.00    -0.334 OA 
HETATM   27  H   UNL     1     -14.274  16.161  71.908  1.00  0.00     0.000 HD 
HETATM   28  C   UNL     1     -11.428  15.361  70.469  1.00  0.00    -0.327 C  
BRANCH  19  29
HETATM   29  C   UNL     1     -13.982  12.276  72.139  1.00  0.00     0.246 C  
HETATM   30  O   UNL     1     -13.534  10.922  72.200  1.00  0.00    -0.546 OA 
HETATM   31  H   UNL     1     -14.272  10.353  72.384  1.00  0.00     0.000 HD 
ENDBRANCH  19  29
ENDBRANCH  16  17
ENDBRANCH  10  16
ENDBRANCH   3   4
TORSDOF 5
ENDMDL
MODEL      142
REMARK 921   NORMALIZED FREE ENERGY PREDICTED BY IDOCK:   -4.03 KCAL/MOL
REMARK 922        TOTAL FREE ENERGY PREDICTED BY IDOCK:   -6.79 KCAL/MOL
REMARK 923 INTER-LIGAND FREE ENERGY PREDICTED BY IDOCK:   -5.82 KCAL/MOL
REMARK 924 INTRA-LIGAND FREE ENERGY PREDICTED BY IDOCK:   -0.97 KCAL/MOL
REMARK 927      BINDING AFFINITY PREDICTED BY RF-SCORE:    0.00 PKD
ROOT
HETATM    1  O   UNL     1     -11.090   8.445  67.949  1.00  0.00    -0.470 OA 
HETATM    2  H   UNL     1     -11.798   8.192  68.530  1.00  0.00     0.000 HD 
HETATM    3  C   UNL     1     -10.435   9.603  68.465  1.00  0.00    -0.212 C  
ENDROOT
BRANCH   3   4
HETATM    4  C   UNL     1      -9.295  10.009  67.528  1.00  0.00    -0.144 C  
HETATM    5  O   UNL     1      -9.214   9.072  66.437  1.00  0.00    -0.162 OA 
HETATM    6  C   UNL     1      -8.696   9.792  65.315  1.00  0.00    -0.159 C  
HETATM    7  O   UNL     1      -9.218   9.191  64.123  1.00  0.00    -0.424 OA 
HETATM    8  H   UNL     1     -10.836  12.215  64.827  1.00  0.00     0.000 HD 
HETATM    9  C   UNL     1      -9.234  11.224  65.438  1.00  0.00    -0.183 C  
HETATM   10  C   UNL     1      -9.501  11.408  66.933  1.00  0.00    -0.179 C  
HETATM   11  O   UNL     1     -10.502  11.328  64.751  1.00  0.00    -0.292 OA 
HETATM   12  H   UNL     1      -8.874   9.670  63.378  1.00  0.00     0.000 HD 
BRANCH   6  13
HETATM   13  C   UNL     1      -7.163   9.691  65.305  1.00  0.00    -0.113 C  
HETATM   14  H   UNL     1      -5.711  10.506  64.274  1.00  0.00     0.000 HD 
HETATM   15  O   UNL     1      -6.659  10.569  64.281  1.00  0.00    -0.055 OA 
ENDBRANCH   6  13
BRANCH  10  16
HETATM   16  O   UNL     1      -8.598  12.373  67.493  1.00  0.00    -0.158 OA 
BRANCH  16  17
HETATM   17  C   UNL     1      -9.268  13.504  68.072  1.00  0.00    -0.209 C  
HETATM   18  O   UNL     1     -10.480  13.089  68.710  1.00  0.00    -0.235 OA 
HETATM   19  C   UNL     1     -11.164  14.181  69.351  1.00  0.00    -0.255 C  
HETATM   20  C   UNL     1     -11.580  15.233  68.314  1.00  0.00    -0.341 C  
HETATM   21  H   UNL     1      -8.416  15.706  65.794  1.00  0.00     0.000 HD 
HETATM   22  O   UNL     1      -8.262  15.046  66.460  1.00  0.00    -0.103 OA 
HETATM   23  C   UNL     1     -10.316  15.745  67.613  1.00  0.00    -0.281 C  
HETATM   24  O   UNL     1     -12.439  14.704  67.294  1.00  0.00    -0.530 OA 
HETATM   25  H   UNL     1      -9.893  17.028  66.189  1.00  0.00     0.000 HD 
HETATM   26  O   UNL     1     -10.676  16.712  66.623  1.00  0.00    -0.247 OA 
HETATM   27  H   UNL     1     -12.697  15.355  66.651  1.00  0.00     0.000 HD 
HETATM   28  C   UNL     1      -9.519  14.580  66.988  1.00  0.00    -0.239 C  
BRANCH  19  29
HETATM   29  C   UNL     1     -12.355  13.611  70.126  1.00  0.00    -0.304 C  
HETATM   30  O   UNL     1     -13.375  14.606  70.225  1.00  0.00    -0.528 OA 
HETATM   31  H   UNL     1     -14.114  14.253  70.706  1.00  0.00     0.000 HD 
ENDBRANCH  19  29
ENDBRANCH  16  17
ENDBRANCH  10  16
ENDBRANCH   3   4
TORSDOF 5
ENDMDL
MODEL      143
REMARK 921   NORMALIZED FREE ENERGY PREDICTED BY IDOCK:   -4.02 KCAL/MOL
REMARK 922        TOTAL FREE ENERGY PREDICTED BY IDOCK:   -6.77 KCAL/MOL
REMARK 923 INTER-LIGAND FREE ENERGY PREDICTED BY IDOCK:   -5.87 KCAL/MOL
REMARK 924 INTRA-LIGAND FREE ENERGY PREDICTED BY IDOCK:   -0.90 KCAL/MOL
REMARK 927      BINDING AFFINITY PREDICTED BY RF-SCORE:    0.00 PKD
ROOT
HETATM    1  O   UNL     1     -10.078  10.326  63.738  1.00  0.00    -0.443 OA 
HETATM    2  H   UNL     1     -10.275   9.592  63.167  1.00  0.00     0.000 HD 
HETATM    3  C   UNL     1     -11.004  11.384  63.494  1.00  0.00    -0.324 C  
ENDROOT
BRANCH   3   4
HETATM    4  C   UNL     1     -10.687  12.566  64.412  1.00  0.00    -0.350 C  
HETATM    5  O   UNL     1     -11.848  13.413  64.523  1.00  0.00    -0.365 OA 
HETATM    6  C   UNL     1     -11.784  14.031  65.810  1.00  0.00    -0.363 C  
HETATM    7  O   UNL     1     -13.125  14.287  66.246  1.00  0.00    -0.352 OA 
HETATM    8  H   UNL     1     -11.755  11.537  67.924  1.00  0.00     0.000 HD 
HETATM    9  C   UNL     1     -11.134  13.004  66.748  1.00  0.00    -0.286 C  
HETATM   10  C   UNL     1     -10.296  12.117  65.826  1.00  0.00    -0.258 C  
HETATM   11  O   UNL     1     -12.157  12.173  67.344  1.00  0.00    -0.553 OA 
HETATM   12  H   UNL     1     -13.083  14.697  67.102  1.00  0.00     0.000 HD 
BRANCH   6  13
HETATM   13  C   UNL     1     -11.023  15.361  65.704  1.00  0.00    -0.326 C  
HETATM   14  H   UNL     1     -10.021  16.506  66.936  1.00  0.00     0.000 HD 
HETATM   15  O   UNL     1     -10.491  15.683  67.002  1.00  0.00    -0.290 OA 
ENDBRANCH   6  13
BRANCH  10  16
HETATM   16  O   UNL     1      -8.896  12.299  66.084  1.00  0.00    -0.089 OA 
BRANCH  16  17
HETATM   17  C   UNL     1      -8.285  11.161  66.711  1.00  0.00    -0.154 C  
HETATM   18  O   UNL     1      -9.278  10.359  67.359  1.00  0.00    -0.141 OA 
HETATM   19  C   UNL     1      -8.721   9.176  67.960  1.00  0.00    -0.129 C  
HETATM   20  C   UNL     1      -7.716   9.557  69.056  1.00  0.00    -0.076 C  
HETATM   21  H   UNL     1      -5.474  12.617  67.575  1.00  0.00     0.000 HD 
HETATM   22  O   UNL     1      -6.151  12.330  66.973  1.00  0.00    -0.177 OA 
HETATM   23  C   UNL     1      -6.602  10.395  68.418  1.00  0.00    -0.059 C  
HETATM   24  O   UNL     1      -8.298  10.357  70.096  1.00  0.00    -0.332 OA 
HETATM   25  H   UNL     1      -4.971  11.304  69.026  1.00  0.00     0.000 HD 
HETATM   26  O   UNL     1      -5.661  10.785  69.422  1.00  0.00    -0.037 OA 
HETATM   27  H   UNL     1      -7.676  10.593  70.774  1.00  0.00     0.000 HD 
HETATM   28  C   UNL     1      -7.183  11.628  67.693  1.00  0.00    -0.107 C  
BRANCH  19  29
HETATM   29  C   UNL     1      -9.875   8.319  68.488  1.00  0.00    -0.176 C  
HETATM   30  O   UNL     1     -11.090   8.719  67.852  1.00  0.00    -0.487 OA 
HETATM   31  H   UNL     1     -11.806   8.188  68.180  1.00  0.00     0.000 HD 
ENDBRANCH  19  29
ENDBRANCH  16  17
ENDBRANCH  10  16
ENDBRANCH   3   4
TORSDOF 5
ENDMDL
MODEL      144
REMARK 921   NORMALIZED FREE ENERGY PREDICTED BY IDOCK:   -4.00 KCAL/MOL
REMARK 922        TOTAL FREE ENERGY PREDICTED BY IDOCK:   -6.75 KCAL/MOL
REMARK 923 INTER-LIGAND FREE ENERGY PREDICTED BY IDOCK:   -6.10 KCAL/MOL
REMARK 924 INTRA-LIGAND FREE ENERGY PREDICTED BY IDOCK:   -0.65 KCAL/MOL
REMARK 927      BINDING AFFINITY PREDICTED BY RF-SCORE:    0.00 PKD
ROOT
HETATM    1  O   UNL     1     -12.345  14.010  69.907  1.00  0.00    -0.330 OA 
HETATM    2  H   UNL     1     -12.260  14.113  70.848  1.00  0.00     0.000 HD 
HETATM    3  C   UNL     1     -11.728  12.789  69.502  1.00  0.00    -0.318 C  
ENDROOT
BRANCH   3   4
HETATM    4  C   UNL     1     -11.865  12.623  67.986  1.00  0.00    -0.323 C  
HETATM    5  O   UNL     1     -12.143  13.902  67.386  1.00  0.00    -0.392 OA 
HETATM    6  C   UNL     1     -11.599  13.863  66.065  1.00  0.00    -0.349 C  
HETATM    7  O   UNL     1     -11.222  15.197  65.701  1.00  0.00    -0.336 OA 
HETATM    8  H   UNL     1      -8.414  13.266  66.500  1.00  0.00     0.000 HD 
HETATM    9  C   UNL     1     -10.342  12.986  66.144  1.00  0.00    -0.278 C  
HETATM   10  C   UNL     1     -10.588  12.069  67.343  1.00  0.00    -0.223 C  
HETATM   11  O   UNL     1      -9.193  13.809  66.451  1.00  0.00    -0.232 OA 
HETATM   12  H   UNL     1     -10.860  15.171  64.823  1.00  0.00     0.000 HD 
BRANCH   6  13
HETATM   13  C   UNL     1     -12.666  13.352  65.085  1.00  0.00    -0.399 C  
HETATM   14  H   UNL     1     -13.223  13.797  63.261  1.00  0.00     0.000 HD 
HETATM   15  O   UNL     1     -12.563  14.113  63.867  1.00  0.00    -0.752 OA 
ENDBRANCH   6  13
BRANCH  10  16
HETATM   16  O   UNL     1     -10.743  10.708  66.915  1.00  0.00    -0.257 OA 
BRANCH  16  17
HETATM   17  C   UNL     1      -9.563   9.914  67.116  1.00  0.00    -0.162 C  
HETATM   18  O   UNL     1      -8.393  10.677  66.798  1.00  0.00    -0.126 OA 
HETATM   19  C   UNL     1      -7.178   9.941  67.033  1.00  0.00    -0.090 C  
HETATM   20  C   UNL     1      -7.123   8.701  66.131  1.00  0.00    -0.084 C  
HETATM   21  H   UNL     1     -10.836   7.030  66.209  1.00  0.00     0.000 HD 
HETATM   22  O   UNL     1     -10.780   7.829  66.720  1.00  0.00    -0.311 OA 
HETATM   23  C   UNL     1      -8.338   7.821  66.447  1.00  0.00    -0.131 C  
HETATM   24  O   UNL     1      -7.189   9.021  64.734  1.00  0.00    -0.093 OA 
HETATM   25  H   UNL     1      -9.078   6.122  65.797  1.00  0.00     0.000 HD 
HETATM   26  O   UNL     1      -8.325   6.666  65.602  1.00  0.00    -0.135 OA 
HETATM   27  H   UNL     1      -7.155   8.254  64.175  1.00  0.00     0.000 HD 
HETATM   28  C   UNL     1      -9.653   8.613  66.282  1.00  0.00    -0.252 C  
BRANCH  19  29
HETATM   29  C   UNL     1      -5.996  10.888  66.811  1.00  0.00    -0.087 C  
HETATM   30  O   UNL     1      -6.486  12.198  66.522  1.00  0.00    -0.438 OA 
HETATM   31  H   UNL     1      -5.752  12.785  66.384  1.00  0.00     0.000 HD 
ENDBRANCH  19  29
ENDBRANCH  16  17
ENDBRANCH  10  16
ENDBRANCH   3   4
TORSDOF 5
ENDMDL
MODEL      145
REMARK 921   NORMALIZED FREE ENERGY PREDICTED BY IDOCK:   -3.98 KCAL/MOL
REMARK 922        TOTAL FREE ENERGY PREDICTED BY IDOCK:   -6.73 KCAL/MOL
REMARK 923 INTER-LIGAND FREE ENERGY PREDICTED BY IDOCK:   -6.83 KCAL/MOL
REMARK 924 INTRA-LIGAND FREE ENERGY PREDICTED BY IDOCK:    0.10 KCAL/MOL
REMARK 927      BINDING AFFINITY PREDICTED BY RF-SCORE:    0.00 PKD
ROOT
HETATM    1  O   UNL     1     -12.346  16.204  70.304  1.00  0.00    -0.362 OA 
HETATM    2  H   UNL     1     -12.668  16.392  71.178  1.00  0.00     0.000 HD 
HETATM    3  C   UNL     1     -10.930  16.035  70.340  1.00  0.00    -0.336 C  
ENDROOT
BRANCH   3   4
HETATM    4  C   UNL     1     -10.413  15.731  68.932  1.00  0.00    -0.223 C  
HETATM    5  O   UNL     1      -9.420  16.708  68.564  1.00  0.00    -0.223 OA 
HETATM    6  C   UNL     1      -8.521  16.061  67.660  1.00  0.00    -0.158 C  
HETATM    7  O   UNL     1      -7.232  16.669  67.805  1.00  0.00    -0.131 OA 
HETATM    8  H   UNL     1      -7.329  13.531  69.352  1.00  0.00     0.000 HD 
HETATM    9  C   UNL     1      -8.443  14.595  68.110  1.00  0.00    -0.156 C  
HETATM   10  C   UNL     1      -9.765  14.344  68.836  1.00  0.00    -0.144 C  
HETATM   11  O   UNL     1      -7.377  14.438  69.074  1.00  0.00    -0.123 OA 
HETATM   12  H   UNL     1      -6.635  16.239  67.205  1.00  0.00     0.000 HD 
BRANCH   6  13
HETATM   13  C   UNL     1      -9.015  16.255  66.219  1.00  0.00    -0.331 C  
HETATM   14  H   UNL     1     -10.161  17.544  65.291  1.00  0.00     0.000 HD 
HETATM   15  O   UNL     1      -9.855  17.424  66.182  1.00  0.00    -0.376 OA 
ENDBRANCH   6  13
BRANCH  10  16
HETATM   16  O   UNL     1     -10.578  13.417  68.101  1.00  0.00    -0.232 OA 
BRANCH  16  17
HETATM   17  C   UNL     1     -10.401  13.515  66.679  1.00  0.00    -0.271 C  
HETATM   18  O   UNL     1     -11.462  14.281  66.098  1.00  0.00    -0.338 OA 
HETATM   19  C   UNL     1     -11.302  14.452  64.679  1.00  0.00    -0.371 C  
HETATM   20  C   UNL     1     -11.337  13.092  63.970  1.00  0.00    -0.410 C  
HETATM   21  H   UNL     1      -9.087  10.545  66.214  1.00  0.00     0.000 HD 
HETATM   22  O   UNL     1      -9.149  11.414  66.593  1.00  0.00    -0.170 OA 
HETATM   23  C   UNL     1     -10.197  12.229  64.526  1.00  0.00    -0.296 C  
HETATM   24  O   UNL     1     -12.557  12.372  64.199  1.00  0.00    -0.575 OA 
HETATM   25  H   UNL     1      -9.514  10.410  64.243  1.00  0.00     0.000 HD 
HETATM   26  O   UNL     1     -10.220  10.944  63.899  1.00  0.00    -0.327 OA 
HETATM   27  H   UNL     1     -12.579  11.529  63.761  1.00  0.00     0.000 HD 
HETATM   28  C   UNL     1     -10.300  12.099  66.061  1.00  0.00    -0.237 C  
BRANCH  19  29
HETATM   29  C   UNL     1     -12.395  15.404  64.185  1.00  0.00     0.004 C  
HETATM   30  O   UNL     1     -11.793  16.491  63.480  1.00  0.00    -1.039 OA 
HETATM   31  H   UNL     1     -12.471  17.082  63.174  1.00  0.00     0.000 HD 
ENDBRANCH  19  29
ENDBRANCH  16  17
ENDBRANCH  10  16
ENDBRANCH   3   4
TORSDOF 5
ENDMDL
MODEL      146
REMARK 921   NORMALIZED FREE ENERGY PREDICTED BY IDOCK:   -3.98 KCAL/MOL
REMARK 922        TOTAL FREE ENERGY PREDICTED BY IDOCK:   -6.73 KCAL/MOL
REMARK 923 INTER-LIGAND FREE ENERGY PREDICTED BY IDOCK:   -6.20 KCAL/MOL
REMARK 924 INTRA-LIGAND FREE ENERGY PREDICTED BY IDOCK:   -0.53 KCAL/MOL
REMARK 927      BINDING AFFINITY PREDICTED BY RF-SCORE:    0.00 PKD
ROOT
HETATM    1  O   UNL     1     -12.522  13.740  63.371  1.00  0.00    -1.002 OA 
HETATM    2  H   UNL     1     -12.621  14.096  62.495  1.00  0.00     0.000 HD 
HETATM    3  C   UNL     1     -12.100  14.771  64.262  1.00  0.00    -0.394 C  
ENDROOT
BRANCH   3   4
HETATM    4  C   UNL     1     -11.939  14.198  65.672  1.00  0.00    -0.396 C  
HETATM    5  O   UNL     1     -11.870  12.761  65.600  1.00  0.00    -0.378 OA 
HETATM    6  C   UNL     1     -11.072  12.332  66.707  1.00  0.00    -0.296 C  
HETATM    7  O   UNL     1     -10.412  11.116  66.333  1.00  0.00    -0.244 OA 
HETATM    8  H   UNL     1      -8.195  13.824  66.278  1.00  0.00     0.000 HD 
HETATM    9  C   UNL     1     -10.022  13.430  66.929  1.00  0.00    -0.252 C  
HETATM   10  C   UNL     1     -10.664  14.697  66.362  1.00  0.00    -0.309 C  
HETATM   11  O   UNL     1      -8.845  13.144  66.140  1.00  0.00     0.102 OA 
HETATM   12  H   UNL     1      -9.882  10.832  67.069  1.00  0.00     0.000 HD 
BRANCH   6  13
HETATM   13  C   UNL     1     -11.977  12.067  67.919  1.00  0.00    -0.134 C  
HETATM   14  H   UNL     1     -12.502  10.493  68.960  1.00  0.00     0.000 HD 
HETATM   15  O   UNL     1     -11.942  10.657  68.210  1.00  0.00    -0.462 OA 
ENDBRANCH   6  13
BRANCH  10  16
HETATM   16  O   UNL     1     -10.947  15.634  67.412  1.00  0.00    -0.314 OA 
BRANCH  16  17
HETATM   17  C   UNL     1      -9.813  16.438  67.772  1.00  0.00    -0.239 C  
HETATM   18  O   UNL     1      -9.146  16.910  66.597  1.00  0.00    -0.229 OA 
HETATM   19  C   UNL     1      -8.031  17.766  66.905  1.00  0.00    -0.226 C  
HETATM   20  C   UNL     1      -6.971  16.994  67.702  1.00  0.00    -0.143 C  
HETATM   21  H   UNL     1      -8.972  14.788  70.479  1.00  0.00     0.000 HD 
HETATM   22  O   UNL     1      -9.552  15.282  69.913  1.00  0.00    -0.207 OA 
HETATM   23  C   UNL     1      -7.616  16.486  68.997  1.00  0.00    -0.233 C  
HETATM   24  O   UNL     1      -6.473  15.843  67.004  1.00  0.00    -0.291 OA 
HETATM   25  H   UNL     1      -7.056  15.427  70.552  1.00  0.00     0.000 HD 
HETATM   26  O   UNL     1      -6.656  15.741  69.750  1.00  0.00    -0.182 OA 
HETATM   27  H   UNL     1      -5.817  15.364  67.497  1.00  0.00     0.000 HD 
HETATM   28  C   UNL     1      -8.867  15.633  68.695  1.00  0.00    -0.201 C  
BRANCH  19  29
HETATM   29  C   UNL     1      -7.486  18.333  65.592  1.00  0.00     0.027 C  
HETATM   30  O   UNL     1      -6.060  18.392  65.657  1.00  0.00    -0.198 OA 
HETATM   31  H   UNL     1      -5.722  18.744  64.843  1.00  0.00     0.000 HD 
ENDBRANCH  19  29
ENDBRANCH  16  17
ENDBRANCH  10  16
ENDBRANCH   3   4
TORSDOF 5
ENDMDL
MODEL      147
REMARK 921   NORMALIZED FREE ENERGY PREDICTED BY IDOCK:   -3.98 KCAL/MOL
REMARK 922        TOTAL FREE ENERGY PREDICTED BY IDOCK:   -6.72 KCAL/MOL
REMARK 923 INTER-LIGAND FREE ENERGY PREDICTED BY IDOCK:   -6.03 KCAL/MOL
REMARK 924 INTRA-LIGAND FREE ENERGY PREDICTED BY IDOCK:   -0.69 KCAL/MOL
REMARK 927      BINDING AFFINITY PREDICTED BY RF-SCORE:    0.00 PKD
ROOT
HETATM    1  O   UNL     1     -11.831  13.262  63.506  1.00  0.00    -0.648 OA 
HETATM    2  H   UNL     1     -12.422  13.121  62.775  1.00  0.00     0.000 HD 
HETATM    3  C   UNL     1     -12.333  12.595  64.664  1.00  0.00    -0.476 C  
ENDROOT
BRANCH   3   4
HETATM    4  C   UNL     1     -11.381  12.823  65.840  1.00  0.00    -0.324 C  
HETATM    5  O   UNL     1     -11.961  13.777  66.750  1.00  0.00    -0.388 OA 
HETATM    6  C   UNL     1     -11.463  13.460  68.052  1.00  0.00    -0.304 C  
HETATM    7  O   UNL     1     -12.452  13.851  69.012  1.00  0.00    -0.439 OA 
HETATM    8  H   UNL     1     -12.420  10.378  68.574  1.00  0.00     0.000 HD 
HETATM    9  C   UNL     1     -11.297  11.935  68.088  1.00  0.00    -0.288 C  
HETATM   10  C   UNL     1     -11.105  11.534  66.624  1.00  0.00    -0.295 C  
HETATM   11  O   UNL     1     -12.523  11.323  68.552  1.00  0.00    -0.434 OA 
HETATM   12  H   UNL     1     -12.121  13.640  69.877  1.00  0.00     0.000 HD 
BRANCH   6  13
HETATM   13  C   UNL     1     -10.167  14.243  68.310  1.00  0.00    -0.244 C  
HETATM   14  H   UNL     1      -9.542  16.069  67.976  1.00  0.00     0.000 HD 
HETATM   15  O   UNL     1     -10.344  15.585  67.817  1.00  0.00    -0.253 OA 
ENDBRANCH   6  13
BRANCH  10  16
HETATM   16  O   UNL     1      -9.775  11.040  66.405  1.00  0.00    -0.191 OA 
BRANCH  16  17
HETATM   17  C   UNL     1      -9.228  10.364  67.548  1.00  0.00    -0.145 C  
HETATM   18  O   UNL     1      -7.967  10.938  67.908  1.00  0.00    -0.107 OA 
HETATM   19  C   UNL     1      -7.401  10.328  69.082  1.00  0.00    -0.096 C  
HETATM   20  C   UNL     1      -7.123   8.841  68.828  1.00  0.00    -0.063 C  
HETATM   21  H   UNL     1     -10.358   7.366  66.842  1.00  0.00     0.000 HD 
HETATM   22  O   UNL     1     -10.426   8.297  67.019  1.00  0.00    -0.310 OA 
HETATM   23  C   UNL     1      -8.447   8.157  68.468  1.00  0.00    -0.127 C  
HETATM   24  O   UNL     1      -6.225   8.618  67.731  1.00  0.00    -0.054 OA 
HETATM   25  H   UNL     1      -9.034   6.347  67.980  1.00  0.00     0.000 HD 
HETATM   26  O   UNL     1      -8.213   6.771  68.203  1.00  0.00    -0.113 OA 
HETATM   27  H   UNL     1      -6.052   7.697  67.574  1.00  0.00     0.000 HD 
HETATM   28  C   UNL     1      -9.116   8.847  67.261  1.00  0.00    -0.134 C  
BRANCH  19  29
HETATM   29  C   UNL     1      -6.141  11.108  69.467  1.00  0.00    -0.081 C  
HETATM   30  O   UNL     1      -6.345  11.742  70.731  1.00  0.00    -0.521 OA 
HETATM   31  H   UNL     1      -5.564  12.226  70.970  1.00  0.00     0.000 HD 
ENDBRANCH  19  29
ENDBRANCH  16  17
ENDBRANCH  10  16
ENDBRANCH   3   4
TORSDOF 5
ENDMDL
MODEL      148
REMARK 921   NORMALIZED FREE ENERGY PREDICTED BY IDOCK:   -3.97 KCAL/MOL
REMARK 922        TOTAL FREE ENERGY PREDICTED BY IDOCK:   -6.71 KCAL/MOL
REMARK 923 INTER-LIGAND FREE ENERGY PREDICTED BY IDOCK:   -5.88 KCAL/MOL
REMARK 924 INTRA-LIGAND FREE ENERGY PREDICTED BY IDOCK:   -0.84 KCAL/MOL
REMARK 927      BINDING AFFINITY PREDICTED BY RF-SCORE:    0.00 PKD
ROOT
HETATM    1  O   UNL     1     -12.395  15.217  68.186  1.00  0.00    -0.454 OA 
HETATM    2  H   UNL     1     -13.010  15.878  68.483  1.00  0.00     0.000 HD 
HETATM    3  C   UNL     1     -11.616  14.758  69.290  1.00  0.00    -0.303 C  
ENDROOT
BRANCH   3   4
HETATM    4  C   UNL     1     -10.625  13.694  68.812  1.00  0.00    -0.231 C  
HETATM    5  O   UNL     1     -11.120  12.386  69.159  1.00  0.00    -0.244 OA 
HETATM    6  C   UNL     1     -10.615  11.481  68.174  1.00  0.00    -0.196 C  
HETATM    7  O   UNL     1     -11.554  10.408  68.035  1.00  0.00    -0.663 OA 
HETATM    8  H   UNL     1     -11.763  12.625  65.335  1.00  0.00     0.000 HD 
HETATM    9  C   UNL     1     -10.550  12.270  66.859  1.00  0.00    -0.224 C  
HETATM   10  C   UNL     1     -10.418  13.731  67.293  1.00  0.00    -0.264 C  
HETATM   11  O   UNL     1     -11.803  12.136  66.149  1.00  0.00    -0.543 OA 
HETATM   12  H   UNL     1     -11.218   9.806  67.381  1.00  0.00     0.000 HD 
BRANCH   6  13
HETATM   13  C   UNL     1      -9.264  10.917  68.640  1.00  0.00    -0.187 C  
HETATM   14  H   UNL     1      -8.677   9.365  69.679  1.00  0.00     0.000 HD 
HETATM   15  O   UNL     1      -9.512   9.713  69.390  1.00  0.00    -0.170 OA 
ENDBRANCH   6  13
BRANCH  10  16
HETATM   16  O   UNL     1      -9.129  14.251  66.934  1.00  0.00    -0.234 OA 
BRANCH  16  17
HETATM   17  C   UNL     1      -8.698  15.326  67.783  1.00  0.00    -0.165 C  
HETATM   18  O   UNL     1      -8.876  16.583  67.120  1.00  0.00    -0.187 OA 
HETATM   19  C   UNL     1      -8.506  17.698  67.951  1.00  0.00    -0.233 C  
HETATM   20  C   UNL     1      -7.016  17.626  68.309  1.00  0.00    -0.220 C  
HETATM   21  H   UNL     1      -6.224  13.742  69.244  1.00  0.00     0.000 HD 
HETATM   22  O   UNL     1      -7.125  13.881  68.978  1.00  0.00    -0.110 OA 
HETATM   23  C   UNL     1      -6.762  16.310  69.055  1.00  0.00    -0.182 C  
HETATM   24  O   UNL     1      -6.162  17.624  67.155  1.00  0.00    -0.134 OA 
HETATM   25  H   UNL     1      -5.217  15.389  69.842  1.00  0.00     0.000 HD 
HETATM   26  O   UNL     1      -5.374  16.204  69.380  1.00  0.00    -0.111 OA 
HETATM   27  H   UNL     1      -5.239  17.579  67.376  1.00  0.00     0.000 HD 
HETATM   28  C   UNL     1      -7.229  15.100  68.216  1.00  0.00    -0.110 C  
BRANCH  19  29
HETATM   29  C   UNL     1      -8.875  18.988  67.213  1.00  0.00    -0.281 C  
HETATM   30  O   UNL     1      -8.180  19.034  65.966  1.00  0.00    -0.431 OA 
HETATM   31  H   UNL     1      -8.408  19.834  65.508  1.00  0.00     0.000 HD 
ENDBRANCH  19  29
ENDBRANCH  16  17
ENDBRANCH  10  16
ENDBRANCH   3   4
TORSDOF 5
ENDMDL
MODEL      149
REMARK 921   NORMALIZED FREE ENERGY PREDICTED BY IDOCK:   -3.97 KCAL/MOL
REMARK 922        TOTAL FREE ENERGY PREDICTED BY IDOCK:   -6.71 KCAL/MOL
REMARK 923 INTER-LIGAND FREE ENERGY PREDICTED BY IDOCK:   -5.30 KCAL/MOL
REMARK 924 INTRA-LIGAND FREE ENERGY PREDICTED BY IDOCK:   -1.41 KCAL/MOL
REMARK 927      BINDING AFFINITY PREDICTED BY RF-SCORE:    0.00 PKD
ROOT
HETATM    1  O   UNL     1     -10.138   5.129  70.630  1.00  0.00    -0.207 OA 
HETATM    2  H   UNL     1     -10.556   4.601  71.301  1.00  0.00     0.000 HD 
HETATM    3  C   UNL     1      -9.702   4.290  69.562  1.00  0.00    -0.201 C  
ENDROOT
BRANCH   3   4
HETATM    4  C   UNL     1      -9.030   5.142  68.482  1.00  0.00    -0.106 C  
HETATM    5  O   UNL     1      -9.243   4.537  67.192  1.00  0.00    -0.121 OA 
HETATM    6  C   UNL     1      -9.247   5.600  66.236  1.00  0.00    -0.156 C  
HETATM    7  O   UNL     1     -10.093   5.213  65.146  1.00  0.00    -0.378 OA 
HETATM    8  H   UNL     1     -11.675   7.567  67.197  1.00  0.00     0.000 HD 
HETATM    9  C   UNL     1      -9.861   6.814  66.946  1.00  0.00    -0.175 C  
HETATM   10  C   UNL     1      -9.590   6.568  68.432  1.00  0.00    -0.122 C  
HETATM   11  O   UNL     1     -11.295   6.815  66.757  1.00  0.00    -0.239 OA 
HETATM   12  H   UNL     1     -10.096   5.919  64.511  1.00  0.00     0.000 HD 
BRANCH   6  13
HETATM   13  C   UNL     1      -7.820   5.827  65.715  1.00  0.00    -0.102 C  
HETATM   14  H   UNL     1      -6.796   7.360  65.054  1.00  0.00     0.000 HD 
HETATM   15  O   UNL     1      -7.678   7.219  65.377  1.00  0.00    -0.096 OA 
ENDBRANCH   6  13
BRANCH  10  16
HETATM   16  O   UNL     1      -8.660   7.534  68.943  1.00  0.00    -0.129 OA 
BRANCH  16  17
HETATM   17  C   UNL     1      -9.243   8.425  69.907  1.00  0.00    -0.151 C  
HETATM   18  O   UNL     1      -9.892   7.679  70.942  1.00  0.00    -0.177 OA 
HETATM   19  C   UNL     1     -10.449   8.527  71.963  1.00  0.00    -0.336 C  
HETATM   20  C   UNL     1     -11.530   9.439  71.367  1.00  0.00    -0.379 C  
HETATM   21  H   UNL     1     -10.078  10.814  67.820  1.00  0.00     0.000 HD 
HETATM   22  O   UNL     1      -9.484  10.212  68.253  1.00  0.00    -0.138 OA 
HETATM   23  C   UNL     1     -10.888  10.294  70.268  1.00  0.00    -0.286 C  
HETATM   24  O   UNL     1     -12.604   8.709  70.756  1.00  0.00    -0.498 OA 
HETATM   25  H   UNL     1     -11.482  11.667  68.996  1.00  0.00     0.000 HD 
HETATM   26  O   UNL     1     -11.880  11.138  69.678  1.00  0.00    -0.288 OA 
HETATM   27  H   UNL     1     -13.274   9.273  70.387  1.00  0.00     0.000 HD 
HETATM   28  C   UNL     1     -10.210   9.406  69.202  1.00  0.00    -0.202 C  
BRANCH  19  29
HETATM   29  C   UNL     1     -10.981   7.636  73.088  1.00  0.00    -0.353 C  
HETATM   30  O   UNL     1     -11.837   6.636  72.534  1.00  0.00    -0.457 OA 
HETATM   31  H   UNL     1     -12.168   6.083  73.232  1.00  0.00     0.000 HD 
ENDBRANCH  19  29
ENDBRANCH  16  17
ENDBRANCH  10  16
ENDBRANCH   3   4
TORSDOF 5
ENDMDL
MODEL      150
REMARK 921   NORMALIZED FREE ENERGY PREDICTED BY IDOCK:   -3.94 KCAL/MOL
REMARK 922        TOTAL FREE ENERGY PREDICTED BY IDOCK:   -6.67 KCAL/MOL
REMARK 923 INTER-LIGAND FREE ENERGY PREDICTED BY IDOCK:   -5.85 KCAL/MOL
REMARK 924 INTRA-LIGAND FREE ENERGY PREDICTED BY IDOCK:   -0.82 KCAL/MOL
REMARK 927      BINDING AFFINITY PREDICTED BY RF-SCORE:    0.00 PKD
ROOT
HETATM    1  O   UNL     1      -7.481   8.940  72.183  1.00  0.00    -0.328 OA 
HETATM    2  H   UNL     1      -6.742   9.511  72.359  1.00  0.00     0.000 HD 
HETATM    3  C   UNL     1      -8.080   9.302  70.939  1.00  0.00    -0.124 C  
ENDROOT
BRANCH   3   4
HETATM    4  C   UNL     1      -9.270   8.383  70.656  1.00  0.00    -0.156 C  
HETATM    5  O   UNL     1      -9.667   7.722  71.873  1.00  0.00    -0.160 OA 
HETATM    6  C   UNL     1     -11.070   7.468  71.764  1.00  0.00    -0.241 C  
HETATM    7  O   UNL     1     -11.626   7.479  73.085  1.00  0.00    -0.612 OA 
HETATM    8  H   UNL     1     -12.415  10.420  71.359  1.00  0.00     0.000 HD 
HETATM    9  C   UNL     1     -11.656   8.635  70.959  1.00  0.00    -0.281 C  
HETATM   10  C   UNL     1     -10.485   9.151  70.121  1.00  0.00    -0.218 C  
HETATM   11  O   UNL     1     -12.052   9.697  71.857  1.00  0.00    -0.376 OA 
HETATM   12  H   UNL     1     -12.558   7.310  73.013  1.00  0.00     0.000 HD 
BRANCH   6  13
HETATM   13  C   UNL     1     -11.293   6.087  71.131  1.00  0.00    -0.232 C  
HETATM   14  H   UNL     1     -12.266   5.398  69.577  1.00  0.00     0.000 HD 
HETATM   15  O   UNL     1     -12.127   6.252  69.969  1.00  0.00    -0.118 OA 
ENDBRANCH   6  13
BRANCH  10  16
HETATM   16  O   UNL     1     -10.712   8.901  68.725  1.00  0.00    -0.187 OA 
BRANCH  16  17
HETATM   17  C   UNL     1     -10.273   9.975  67.880  1.00  0.00    -0.188 C  
HETATM   18  O   UNL     1      -8.847   9.953  67.751  1.00  0.00    -0.128 OA 
HETATM   19  C   UNL     1      -8.360  10.980  66.869  1.00  0.00    -0.138 C  
HETATM   20  C   UNL     1      -8.705  12.368  67.426  1.00  0.00    -0.183 C  
HETATM   21  H   UNL     1     -12.542  12.169  68.773  1.00  0.00     0.000 HD 
HETATM   22  O   UNL     1     -12.227  11.339  68.434  1.00  0.00    -0.604 OA 
HETATM   23  C   UNL     1     -10.229  12.470  67.558  1.00  0.00    -0.217 C  
HETATM   24  O   UNL     1      -8.155  12.601  68.731  1.00  0.00    -0.313 OA 
HETATM   25  H   UNL     1     -11.523  13.810  68.180  1.00  0.00     0.000 HD 
HETATM   26  O   UNL     1     -10.578  13.747  68.098  1.00  0.00    -0.241 OA 
HETATM   27  H   UNL     1      -8.368  13.460  69.076  1.00  0.00     0.000 HD 
HETATM   28  C   UNL     1     -10.786  11.326  68.433  1.00  0.00    -0.203 C  
BRANCH  19  29
HETATM   29  C   UNL     1      -6.854  10.776  66.681  1.00  0.00    -0.125 C  
HETATM   30  O   UNL     1      -6.240  12.031  66.387  1.00  0.00    -0.477 OA 
HETATM   31  H   UNL     1      -5.306  11.905  66.270  1.00  0.00     0.000 HD 
ENDBRANCH  19  29
ENDBRANCH  16  17
ENDBRANCH  10  16
ENDBRANCH   3   4
TORSDOF 5
ENDMDL
MODEL      151
REMARK 921   NORMALIZED FREE ENERGY PREDICTED BY IDOCK:   -3.91 KCAL/MOL
REMARK 922        TOTAL FREE ENERGY PREDICTED BY IDOCK:   -6.64 KCAL/MOL
REMARK 923 INTER-LIGAND FREE ENERGY PREDICTED BY IDOCK:   -6.34 KCAL/MOL
REMARK 924 INTRA-LIGAND FREE ENERGY PREDICTED BY IDOCK:   -0.29 KCAL/MOL
REMARK 927      BINDING AFFINITY PREDICTED BY RF-SCORE:    0.00 PKD
ROOT
HETATM    1  O   UNL     1     -11.476  16.154  64.797  1.00  0.00    -0.291 OA 
HETATM    2  H   UNL     1     -11.322  16.078  63.862  1.00  0.00     0.000 HD 
HETATM    3  C   UNL     1     -10.297  15.780  65.509  1.00  0.00    -0.404 C  
ENDROOT
BRANCH   3   4
HETATM    4  C   UNL     1     -10.546  15.902  67.014  1.00  0.00    -0.306 C  
HETATM    5  O   UNL     1     -11.201  14.711  67.491  1.00  0.00    -0.307 OA 
HETATM    6  C   UNL     1     -10.806  14.544  68.855  1.00  0.00    -0.253 C  
HETATM    7  O   UNL     1     -10.820  13.142  69.151  1.00  0.00    -0.389 OA 
HETATM    8  H   UNL     1      -7.546  14.313  68.749  1.00  0.00     0.000 HD 
HETATM    9  C   UNL     1      -9.366  15.067  68.952  1.00  0.00    -0.208 C  
HETATM   10  C   UNL     1      -9.244  16.073  67.807  1.00  0.00    -0.205 C  
HETATM   11  O   UNL     1      -8.438  13.990  68.689  1.00  0.00    -0.160 OA 
HETATM   12  H   UNL     1     -10.558  13.030  70.058  1.00  0.00     0.000 HD 
BRANCH   6  13
HETATM   13  C   UNL     1     -11.805  15.266  69.771  1.00  0.00    -0.332 C  
HETATM   14  H   UNL     1     -11.737  16.090  71.546  1.00  0.00     0.000 HD 
HETATM   15  O   UNL     1     -11.119  15.643  70.980  1.00  0.00    -0.340 OA 
ENDBRANCH   6  13
BRANCH  10  16
HETATM   16  O   UNL     1      -9.093  17.406  68.319  1.00  0.00    -0.255 OA 
BRANCH  16  17
HETATM   17  C   UNL     1      -7.744  17.893  68.237  1.00  0.00    -0.279 C  
HETATM   18  O   UNL     1      -7.450  18.730  69.361  1.00  0.00    -0.137 OA 
HETATM   19  C   UNL     1      -6.090  19.202  69.352  1.00  0.00    -0.264 C  
HETATM   20  C   UNL     1      -5.834  20.068  68.111  1.00  0.00    -0.228 C  
HETATM   21  H   UNL     1      -7.592  18.162  64.971  1.00  0.00     0.000 HD 
HETATM   22  O   UNL     1      -7.725  17.711  65.797  1.00  0.00    -0.540 OA 
HETATM   23  C   UNL     1      -6.101  19.215  66.865  1.00  0.00    -0.166 C  
HETATM   24  O   UNL     1      -6.704  21.206  68.033  1.00  0.00    -0.268 OA 
HETATM   25  H   UNL     1      -6.059  19.477  64.919  1.00  0.00     0.000 HD 
HETATM   26  O   UNL     1      -5.893  20.005  65.691  1.00  0.00    -0.172 OA 
HETATM   27  H   UNL     1      -6.546  21.743  67.265  1.00  0.00     0.000 HD 
HETATM   28  C   UNL     1      -7.529  18.627  66.892  1.00  0.00    -0.218 C  
BRANCH  19  29
HETATM   29  C   UNL     1      -5.837  19.955  70.661  1.00  0.00    -0.302 C  
HETATM   30  O   UNL     1      -5.529  19.017  71.693  1.00  0.00    -0.318 OA 
HETATM   31  H   UNL     1      -5.372  19.484  72.506  1.00  0.00     0.000 HD 
ENDBRANCH  19  29
ENDBRANCH  16  17
ENDBRANCH  10  16
ENDBRANCH   3   4
TORSDOF 5
ENDMDL
MODEL      152
REMARK 921   NORMALIZED FREE ENERGY PREDICTED BY IDOCK:   -3.91 KCAL/MOL
REMARK 922        TOTAL FREE ENERGY PREDICTED BY IDOCK:   -6.63 KCAL/MOL
REMARK 923 INTER-LIGAND FREE ENERGY PREDICTED BY IDOCK:   -5.64 KCAL/MOL
REMARK 924 INTRA-LIGAND FREE ENERGY PREDICTED BY IDOCK:   -0.99 KCAL/MOL
REMARK 927      BINDING AFFINITY PREDICTED BY RF-SCORE:    0.00 PKD
ROOT
HETATM    1  O   UNL     1     -11.914  11.933  66.707  1.00  0.00    -0.613 OA 
HETATM    2  H   UNL     1     -12.695  12.474  66.705  1.00  0.00     0.000 HD 
HETATM    3  C   UNL     1     -11.643  11.488  68.036  1.00  0.00    -0.300 C  
ENDROOT
BRANCH   3   4
HETATM    4  C   UNL     1     -10.385  10.617  68.039  1.00  0.00    -0.178 C  
HETATM    5  O   UNL     1      -9.651  10.837  69.259  1.00  0.00    -0.187 OA 
HETATM    6  C   UNL     1      -8.957   9.621  69.546  1.00  0.00    -0.194 C  
HETATM    7  O   UNL     1      -8.810   9.520  70.968  1.00  0.00    -0.288 OA 
HETATM    8  H   UNL     1     -11.311   7.367  69.802  1.00  0.00     0.000 HD 
HETATM    9  C   UNL     1      -9.860   8.484  69.049  1.00  0.00    -0.183 C  
HETATM   10  C   UNL     1     -10.712   9.121  67.950  1.00  0.00    -0.162 C  
HETATM   11  O   UNL     1     -10.752   8.071  70.109  1.00  0.00    -0.238 OA 
HETATM   12  H   UNL     1      -8.349   8.711  71.159  1.00  0.00     0.000 HD 
BRANCH   6  13
HETATM   13  C   UNL     1      -7.567   9.656  68.893  1.00  0.00    -0.076 C  
HETATM   14  H   UNL     1      -5.859  10.533  69.279  1.00  0.00     0.000 HD 
HETATM   15  O   UNL     1      -6.718  10.510  69.683  1.00  0.00    -0.076 OA 
ENDBRANCH   6  13
BRANCH  10  16
HETATM   16  O   UNL     1     -10.379   8.569  66.667  1.00  0.00    -0.298 OA 
BRANCH  16  17
HETATM   17  C   UNL     1      -9.592   9.457  65.857  1.00  0.00    -0.270 C  
HETATM   18  O   UNL     1     -10.436  10.194  64.966  1.00  0.00    -0.168 OA 
HETATM   19  C   UNL     1      -9.700  11.138  64.168  1.00  0.00    -0.276 C  
HETATM   20  C   UNL     1      -8.691  10.406  63.273  1.00  0.00    -0.201 C  
HETATM   21  H   UNL     1      -6.946   7.538  65.579  1.00  0.00     0.000 HD 
HETATM   22  O   UNL     1      -7.614   8.029  66.043  1.00  0.00    -0.082 OA 
HETATM   23  C   UNL     1      -7.731   9.618  64.173  1.00  0.00    -0.129 C  
HETATM   24  O   UNL     1      -9.309   9.458  62.390  1.00  0.00    -0.532 OA 
HETATM   25  H   UNL     1      -6.197   8.418  63.920  1.00  0.00     0.000 HD 
HETATM   26  O   UNL     1      -6.791   8.906  63.363  1.00  0.00    -0.090 OA 
HETATM   27  H   UNL     1      -8.684   9.005  61.836  1.00  0.00     0.000 HD 
HETATM   28  C   UNL     1      -8.505   8.657  65.100  1.00  0.00    -0.179 C  
BRANCH  19  29
HETATM   29  C   UNL     1     -10.703  11.973  63.367  1.00  0.00    -0.417 C  
HETATM   30  O   UNL     1     -10.836  13.260  63.973  1.00  0.00    -0.500 OA 
HETATM   31  H   UNL     1     -11.458  13.778  63.477  1.00  0.00     0.000 HD 
ENDBRANCH  19  29
ENDBRANCH  16  17
ENDBRANCH  10  16
ENDBRANCH   3   4
TORSDOF 5
ENDMDL
MODEL      153
REMARK 921   NORMALIZED FREE ENERGY PREDICTED BY IDOCK:   -3.90 KCAL/MOL
REMARK 922        TOTAL FREE ENERGY PREDICTED BY IDOCK:   -6.63 KCAL/MOL
REMARK 923 INTER-LIGAND FREE ENERGY PREDICTED BY IDOCK:   -5.73 KCAL/MOL
REMARK 924 INTRA-LIGAND FREE ENERGY PREDICTED BY IDOCK:   -0.90 KCAL/MOL
REMARK 927      BINDING AFFINITY PREDICTED BY RF-SCORE:    0.00 PKD
ROOT
HETATM    1  O   UNL     1     -10.193  10.632  62.683  1.00  0.00    -0.751 OA 
HETATM    2  H   UNL     1     -10.644  10.345  61.897  1.00  0.00     0.000 HD 
HETATM    3  C   UNL     1     -10.835  11.792  63.209  1.00  0.00    -0.326 C  
ENDROOT
BRANCH   3   4
HETATM    4  C   UNL     1     -10.108  12.254  64.474  1.00  0.00    -0.254 C  
HETATM    5  O   UNL     1     -10.547  13.580  64.823  1.00  0.00    -0.370 OA 
HETATM    6  C   UNL     1     -10.430  13.691  66.244  1.00  0.00    -0.291 C  
HETATM    7  O   UNL     1     -11.427  14.613  66.701  1.00  0.00    -0.351 OA 
HETATM    8  H   UNL     1     -12.336  11.310  67.420  1.00  0.00     0.000 HD 
HETATM    9  C   UNL     1     -10.731  12.297  66.810  1.00  0.00    -0.240 C  
HETATM   10  C   UNL     1     -10.384  11.336  65.671  1.00  0.00    -0.256 C  
HETATM   11  O   UNL     1     -12.148  12.173  67.069  1.00  0.00    -0.591 OA 
HETATM   12  H   UNL     1     -11.349  14.686  67.645  1.00  0.00     0.000 HD 
BRANCH   6  13
HETATM   13  C   UNL     1      -9.037  14.232  66.602  1.00  0.00    -0.226 C  
HETATM   14  H   UNL     1      -7.913  14.256  68.205  1.00  0.00     0.000 HD 
HETATM   15  O   UNL     1      -8.773  13.922  67.983  1.00  0.00    -0.164 OA 
ENDBRANCH   6  13
BRANCH  10  16
HETATM   16  O   UNL     1      -9.242  10.537  66.015  1.00  0.00    -0.165 OA 
BRANCH  16  17
HETATM   17  C   UNL     1      -9.580   9.178  66.335  1.00  0.00    -0.245 C  
HETATM   18  O   UNL     1      -9.847   9.050  67.736  1.00  0.00    -0.154 OA 
HETATM   19  C   UNL     1     -10.242   7.714  68.099  1.00  0.00    -0.196 C  
HETATM   20  C   UNL     1      -9.109   6.723  67.800  1.00  0.00    -0.117 C  
HETATM   21  H   UNL     1      -7.606   7.729  64.151  1.00  0.00     0.000 HD 
HETATM   22  O   UNL     1      -8.300   8.312  64.438  1.00  0.00    -0.151 OA 
HETATM   23  C   UNL     1      -8.795   6.788  66.300  1.00  0.00    -0.147 C  
HETATM   24  O   UNL     1      -7.893   7.035  68.496  1.00  0.00    -0.117 OA 
HETATM   25  H   UNL     1      -7.530   5.930  65.067  1.00  0.00     0.000 HD 
HETATM   26  O   UNL     1      -7.725   5.889  65.996  1.00  0.00    -0.094 OA 
HETATM   27  H   UNL     1      -7.191   6.422  68.311  1.00  0.00     0.000 HD 
HETATM   28  C   UNL     1      -8.449   8.229  65.869  1.00  0.00    -0.140 C  
BRANCH  19  29
HETATM   29  C   UNL     1     -10.648   7.720  69.575  1.00  0.00    -0.221 C  
HETATM   30  O   UNL     1      -9.511   8.042  70.377  1.00  0.00    -0.165 OA 
HETATM   31  H   UNL     1      -9.762   8.046  71.293  1.00  0.00     0.000 HD 
ENDBRANCH  19  29
ENDBRANCH  16  17
ENDBRANCH  10  16
ENDBRANCH   3   4
TORSDOF 5
ENDMDL
MODEL      154
REMARK 921   NORMALIZED FREE ENERGY PREDICTED BY IDOCK:   -3.90 KCAL/MOL
REMARK 922        TOTAL FREE ENERGY PREDICTED BY IDOCK:   -6.63 KCAL/MOL
REMARK 923 INTER-LIGAND FREE ENERGY PREDICTED BY IDOCK:   -5.68 KCAL/MOL
REMARK 924 INTRA-LIGAND FREE ENERGY PREDICTED BY IDOCK:   -0.95 KCAL/MOL
REMARK 927      BINDING AFFINITY PREDICTED BY RF-SCORE:    0.00 PKD
ROOT
HETATM    1  O   UNL     1     -11.413   9.318  71.820  1.00  0.00    -0.366 OA 
HETATM    2  H   UNL     1     -12.047   8.968  72.434  1.00  0.00     0.000 HD 
HETATM    3  C   UNL     1     -12.035  10.307  70.999  1.00  0.00    -0.385 C  
ENDROOT
BRANCH   3   4
HETATM    4  C   UNL     1     -11.013  10.870  70.009  1.00  0.00    -0.151 C  
HETATM    5  O   UNL     1      -9.909   9.953  69.885  1.00  0.00    -0.229 OA 
HETATM    6  C   UNL     1      -9.386  10.117  68.564  1.00  0.00    -0.151 C  
HETATM    7  O   UNL     1      -8.823   8.865  68.153  1.00  0.00    -0.133 OA 
HETATM    8  H   UNL     1     -11.902   9.439  66.590  1.00  0.00     0.000 HD 
HETATM    9  C   UNL     1     -10.585  10.452  67.667  1.00  0.00    -0.257 C  
HETATM   10  C   UNL     1     -11.610  11.080  68.612  1.00  0.00    -0.316 C  
HETATM   11  O   UNL     1     -11.159   9.232  67.146  1.00  0.00    -0.020 OA 
HETATM   12  H   UNL     1      -8.476   8.973  67.275  1.00  0.00     0.000 HD 
BRANCH   6  13
HETATM   13  C   UNL     1      -8.286  11.188  68.577  1.00  0.00    -0.149 C  
HETATM   14  H   UNL     1      -7.087  11.983  67.249  1.00  0.00     0.000 HD 
HETATM   15  O   UNL     1      -7.767  11.320  67.241  1.00  0.00    -0.123 OA 
ENDBRANCH   6  13
BRANCH  10  16
HETATM   16  O   UNL     1     -11.796  12.470  68.306  1.00  0.00    -0.324 OA 
BRANCH  16  17
HETATM   17  C   UNL     1     -11.035  12.904  67.169  1.00  0.00    -0.262 C  
HETATM   18  O   UNL     1     -10.072  13.889  67.563  1.00  0.00    -0.239 OA 
HETATM   19  C   UNL     1      -9.246  14.319  66.466  1.00  0.00    -0.235 C  
HETATM   20  C   UNL     1     -10.104  14.988  65.383  1.00  0.00    -0.362 C  
HETATM   21  H   UNL     1     -13.437  12.690  64.946  1.00  0.00     0.000 HD 
HETATM   22  O   UNL     1     -12.854  12.368  65.623  1.00  0.00    -0.308 OA 
HETATM   23  C   UNL     1     -11.140  13.970  64.892  1.00  0.00    -0.375 C  
HETATM   24  O   UNL     1     -10.833  16.125  65.868  1.00  0.00    -0.277 OA 
HETATM   25  H   UNL     1     -12.612  13.943  63.592  1.00  0.00     0.000 HD 
HETATM   26  O   UNL     1     -11.970  14.574  63.896  1.00  0.00    -0.354 OA 
HETATM   27  H   UNL     1     -11.364  16.539  65.198  1.00  0.00     0.000 HD 
HETATM   28  C   UNL     1     -11.985  13.429  66.065  1.00  0.00    -0.415 C  
BRANCH  19  29
HETATM   29  C   UNL     1      -8.162  15.248  67.019  1.00  0.00    -0.233 C  
HETATM   30  O   UNL     1      -7.694  16.102  65.974  1.00  0.00    -0.010 OA 
HETATM   31  H   UNL     1      -7.021  16.678  66.317  1.00  0.00     0.000 HD 
ENDBRANCH  19  29
ENDBRANCH  16  17
ENDBRANCH  10  16
ENDBRANCH   3   4
TORSDOF 5
ENDMDL
MODEL      155
REMARK 921   NORMALIZED FREE ENERGY PREDICTED BY IDOCK:   -3.89 KCAL/MOL
REMARK 922        TOTAL FREE ENERGY PREDICTED BY IDOCK:   -6.62 KCAL/MOL
REMARK 923 INTER-LIGAND FREE ENERGY PREDICTED BY IDOCK:   -6.02 KCAL/MOL
REMARK 924 INTRA-LIGAND FREE ENERGY PREDICTED BY IDOCK:   -0.59 KCAL/MOL
REMARK 927      BINDING AFFINITY PREDICTED BY RF-SCORE:    0.00 PKD
ROOT
HETATM    1  O   UNL     1     -11.042   4.078  73.624  1.00  0.00    -0.248 OA 
HETATM    2  H   UNL     1     -11.738   3.747  74.180  1.00  0.00     0.000 HD 
HETATM    3  C   UNL     1     -11.463   5.291  73.001  1.00  0.00    -0.269 C  
ENDROOT
BRANCH   3   4
HETATM    4  C   UNL     1     -10.342   5.824  72.105  1.00  0.00    -0.205 C  
HETATM    5  O   UNL     1      -9.067   5.416  72.638  1.00  0.00    -0.135 OA 
HETATM    6  C   UNL     1      -8.175   5.302  71.526  1.00  0.00    -0.117 C  
HETATM    7  O   UNL     1      -7.200   4.301  71.842  1.00  0.00    -0.055 OA 
HETATM    8  H   UNL     1      -9.570   3.083  69.572  1.00  0.00     0.000 HD 
HETATM    9  C   UNL     1      -9.026   4.824  70.341  1.00  0.00    -0.104 C  
HETATM   10  C   UNL     1     -10.443   5.296  70.669  1.00  0.00    -0.236 C  
HETATM   11  O   UNL     1      -9.043   3.379  70.306  1.00  0.00    -0.102 OA 
HETATM   12  H   UNL     1      -6.607   4.225  71.103  1.00  0.00     0.000 HD 
BRANCH   6  13
HETATM   13  C   UNL     1      -7.468   6.646  71.296  1.00  0.00    -0.084 C  
HETATM   14  H   UNL     1      -6.451   7.902  72.402  1.00  0.00     0.000 HD 
HETATM   15  O   UNL     1      -6.888   7.071  72.544  1.00  0.00    -0.064 OA 
ENDBRANCH   6  13
BRANCH  10  16
HETATM   16  O   UNL     1     -10.863   6.313  69.747  1.00  0.00    -0.264 OA 
BRANCH  16  17
HETATM   17  C   UNL     1     -10.808   7.637  70.302  1.00  0.00    -0.246 C  
HETATM   18  O   UNL     1     -12.109   8.046  70.739  1.00  0.00    -0.217 OA 
HETATM   19  C   UNL     1     -12.097   9.348  71.352  1.00  0.00    -0.363 C  
HETATM   20  C   UNL     1     -11.646  10.410  70.340  1.00  0.00    -0.337 C  
HETATM   21  H   UNL     1      -8.486   8.829  68.314  1.00  0.00     0.000 HD 
HETATM   22  O   UNL     1      -8.856   8.227  68.949  1.00  0.00    -0.139 OA 
HETATM   23  C   UNL     1     -10.238  10.046  69.854  1.00  0.00    -0.260 C  
HETATM   24  O   UNL     1     -12.486  10.469  69.178  1.00  0.00    -0.750 OA 
HETATM   25  H   UNL     1      -8.928  10.782  68.589  1.00  0.00     0.000 HD 
HETATM   26  O   UNL     1      -9.800  11.007  68.890  1.00  0.00    -0.193 OA 
HETATM   27  H   UNL     1     -12.208  11.126  68.551  1.00  0.00     0.000 HD 
HETATM   28  C   UNL     1     -10.206   8.618  69.267  1.00  0.00    -0.211 C  
BRANCH  19  29
HETATM   29  C   UNL     1     -13.493   9.624  71.916  1.00  0.00    -0.413 C  
HETATM   30  O   UNL     1     -13.670   8.884  73.124  1.00  0.00    -1.009 OA 
HETATM   31  H   UNL     1     -14.536   9.054  73.474  1.00  0.00     0.000 HD 
ENDBRANCH  19  29
ENDBRANCH  16  17
ENDBRANCH  10  16
ENDBRANCH   3   4
TORSDOF 5
ENDMDL
MODEL      156
REMARK 921   NORMALIZED FREE ENERGY PREDICTED BY IDOCK:   -3.89 KCAL/MOL
REMARK 922        TOTAL FREE ENERGY PREDICTED BY IDOCK:   -6.61 KCAL/MOL
REMARK 923 INTER-LIGAND FREE ENERGY PREDICTED BY IDOCK:   -5.24 KCAL/MOL
REMARK 924 INTRA-LIGAND FREE ENERGY PREDICTED BY IDOCK:   -1.37 KCAL/MOL
REMARK 927      BINDING AFFINITY PREDICTED BY RF-SCORE:    0.00 PKD
ROOT
HETATM    1  O   UNL     1      -9.481   7.197  67.176  1.00  0.00    -0.136 OA 
HETATM    2  H   UNL     1      -9.736   6.308  66.958  1.00  0.00     0.000 HD 
HETATM    3  C   UNL     1     -10.616   8.057  67.081  1.00  0.00    -0.297 C  
ENDROOT
BRANCH   3   4
HETATM    4  C   UNL     1     -10.206   9.490  67.431  1.00  0.00    -0.227 C  
HETATM    5  O   UNL     1     -10.785  10.401  66.478  1.00  0.00    -0.184 OA 
HETATM    6  C   UNL     1     -10.982  11.641  67.163  1.00  0.00    -0.280 C  
HETATM    7  O   UNL     1     -12.105  12.302  66.568  1.00  0.00    -0.616 OA 
HETATM    8  H   UNL     1     -12.958  10.900  69.660  1.00  0.00     0.000 HD 
HETATM    9  C   UNL     1     -11.319  11.280  68.616  1.00  0.00    -0.273 C  
HETATM   10  C   UNL     1     -10.680   9.906  68.829  1.00  0.00    -0.220 C  
HETATM   11  O   UNL     1     -12.749  11.124  68.760  1.00  0.00    -0.162 OA 
HETATM   12  H   UNL     1     -12.237  13.126  67.023  1.00  0.00     0.000 HD 
BRANCH   6  13
HETATM   13  C   UNL     1      -9.732  12.520  67.003  1.00  0.00    -0.213 C  
HETATM   14  H   UNL     1      -8.930  14.009  67.990  1.00  0.00     0.000 HD 
HETATM   15  O   UNL     1      -9.702  13.465  68.089  1.00  0.00    -0.216 OA 
ENDBRANCH   6  13
BRANCH  10  16
HETATM   16  O   UNL     1      -9.596   9.992  69.766  1.00  0.00    -0.222 OA 
BRANCH  16  17
HETATM   17  C   UNL     1      -9.449   8.812  70.570  1.00  0.00    -0.186 C  
HETATM   18  O   UNL     1      -8.647   7.843  69.887  1.00  0.00    -0.136 OA 
HETATM   19  C   UNL     1      -8.426   6.659  70.675  1.00  0.00    -0.138 C  
HETATM   20  C   UNL     1      -9.760   5.959  70.971  1.00  0.00    -0.172 C  
HETATM   21  H   UNL     1     -12.419   8.880  71.961  1.00  0.00     0.000 HD 
HETATM   22  O   UNL     1     -11.564   9.223  71.730  1.00  0.00    -0.366 OA 
HETATM   23  C   UNL     1     -10.659   6.939  71.735  1.00  0.00    -0.212 C  
HETATM   24  O   UNL     1     -10.470   5.580  69.783  1.00  0.00    -0.270 OA 
HETATM   25  H   UNL     1     -12.477   6.927  72.478  1.00  0.00     0.000 HD 
HETATM   26  O   UNL     1     -11.920   6.320  72.005  1.00  0.00    -0.330 OA 
HETATM   27  H   UNL     1     -11.295   5.147  69.965  1.00  0.00     0.000 HD 
HETATM   28  C   UNL     1     -10.843   8.253  70.946  1.00  0.00    -0.230 C  
BRANCH  19  29
HETATM   29  C   UNL     1      -7.441   5.760  69.924  1.00  0.00    -0.079 C  
HETATM   30  O   UNL     1      -7.220   6.290  68.616  1.00  0.00    -0.080 OA 
HETATM   31  H   UNL     1      -6.609   5.732  68.149  1.00  0.00     0.000 HD 
ENDBRANCH  19  29
ENDBRANCH  16  17
ENDBRANCH  10  16
ENDBRANCH   3   4
TORSDOF 5
ENDMDL
MODEL      157
REMARK 921   NORMALIZED FREE ENERGY PREDICTED BY IDOCK:   -3.89 KCAL/MOL
REMARK 922        TOTAL FREE ENERGY PREDICTED BY IDOCK:   -6.60 KCAL/MOL
REMARK 923 INTER-LIGAND FREE ENERGY PREDICTED BY IDOCK:   -5.76 KCAL/MOL
REMARK 924 INTRA-LIGAND FREE ENERGY PREDICTED BY IDOCK:   -0.85 KCAL/MOL
REMARK 927      BINDING AFFINITY PREDICTED BY RF-SCORE:    0.00 PKD
ROOT
HETATM    1  O   UNL     1      -8.984  16.010  66.204  1.00  0.00    -0.317 OA 
HETATM    2  H   UNL     1      -8.356  16.544  65.732  1.00  0.00     0.000 HD 
HETATM    3  C   UNL     1      -8.293  15.060  67.014  1.00  0.00    -0.222 C  
ENDROOT
BRANCH   3   4
HETATM    4  C   UNL     1      -9.305  14.200  67.774  1.00  0.00    -0.200 C  
HETATM    5  O   UNL     1     -10.559  14.903  67.866  1.00  0.00    -0.248 OA 
HETATM    6  C   UNL     1     -11.585  13.908  67.920  1.00  0.00    -0.342 C  
HETATM    7  O   UNL     1     -12.770  14.462  67.334  1.00  0.00    -0.400 OA 
HETATM    8  H   UNL     1     -11.223  12.198  65.158  1.00  0.00     0.000 HD 
HETATM    9  C   UNL     1     -11.093  12.738  67.058  1.00  0.00    -0.278 C  
HETATM   10  C   UNL     1      -9.568  12.858  67.080  1.00  0.00    -0.231 C  
HETATM   11  O   UNL     1     -11.527  12.923  65.691  1.00  0.00    -0.308 OA 
HETATM   12  H   UNL     1     -13.451  13.801  67.369  1.00  0.00     0.000 HD 
BRANCH   6  13
HETATM   13  C   UNL     1     -11.867  13.541  69.385  1.00  0.00    -0.335 C  
HETATM   14  H   UNL     1     -12.578  14.475  70.952  1.00  0.00     0.000 HD 
HETATM   15  O   UNL     1     -12.403  14.702  70.046  1.00  0.00    -0.319 OA 
ENDBRANCH   6  13
BRANCH  10  16
HETATM   16  O   UNL     1      -8.984  11.756  67.791  1.00  0.00    -0.161 OA 
BRANCH  16  17
HETATM   17  C   UNL     1      -9.939  10.748  68.154  1.00  0.00    -0.160 C  
HETATM   18  O   UNL     1      -9.855  10.466  69.555  1.00  0.00    -0.222 OA 
HETATM   19  C   UNL     1     -10.831   9.497  69.979  1.00  0.00    -0.252 C  
HETATM   20  C   UNL     1     -10.593   8.156  69.272  1.00  0.00    -0.182 C  
HETATM   21  H   UNL     1      -9.800   9.016  65.371  1.00  0.00     0.000 HD 
HETATM   22  O   UNL     1      -9.932   9.793  65.900  1.00  0.00    -0.269 OA 
HETATM   23  C   UNL     1     -10.703   8.383  67.759  1.00  0.00    -0.095 C  
HETATM   24  O   UNL     1      -9.287   7.615  69.520  1.00  0.00    -0.153 OA 
HETATM   25  H   UNL     1     -10.530   7.293  66.135  1.00  0.00     0.000 HD 
HETATM   26  O   UNL     1     -10.462   7.152  67.072  1.00  0.00    -0.268 OA 
HETATM   27  H   UNL     1      -9.139   6.785  69.081  1.00  0.00     0.000 HD 
HETATM   28  C   UNL     1      -9.723   9.481  67.291  1.00  0.00    -0.167 C  
BRANCH  19  29
HETATM   29  C   UNL     1     -10.759   9.381  71.504  1.00  0.00    -0.297 C  
HETATM   30  O   UNL     1      -9.412   9.107  71.894  1.00  0.00    -0.332 OA 
HETATM   31  H   UNL     1      -9.367   9.035  72.840  1.00  0.00     0.000 HD 
ENDBRANCH  19  29
ENDBRANCH  16  17
ENDBRANCH  10  16
ENDBRANCH   3   4
TORSDOF 5
ENDMDL
MODEL      158
REMARK 921   NORMALIZED FREE ENERGY PREDICTED BY IDOCK:   -3.89 KCAL/MOL
REMARK 922        TOTAL FREE ENERGY PREDICTED BY IDOCK:   -6.60 KCAL/MOL
REMARK 923 INTER-LIGAND FREE ENERGY PREDICTED BY IDOCK:   -5.72 KCAL/MOL
REMARK 924 INTRA-LIGAND FREE ENERGY PREDICTED BY IDOCK:   -0.89 KCAL/MOL
REMARK 927      BINDING AFFINITY PREDICTED BY RF-SCORE:    0.00 PKD
ROOT
HETATM    1  O   UNL     1     -12.464   6.670  70.389  1.00  0.00    -0.500 OA 
HETATM    2  H   UNL     1     -12.703   5.848  70.803  1.00  0.00     0.000 HD 
HETATM    3  C   UNL     1     -11.233   6.511  69.686  1.00  0.00    -0.384 C  
ENDROOT
BRANCH   3   4
HETATM    4  C   UNL     1     -10.847   7.834  69.020  1.00  0.00    -0.021 C  
HETATM    5  O   UNL     1     -10.459   8.784  70.031  1.00  0.00    -0.202 OA 
HETATM    6  C   UNL     1      -9.509   9.664  69.424  1.00  0.00    -0.192 C  
HETATM    7  O   UNL     1      -8.619  10.129  70.447  1.00  0.00    -0.344 OA 
HETATM    8  H   UNL     1      -7.081   7.708  68.440  1.00  0.00     0.000 HD 
HETATM    9  C   UNL     1      -8.722   8.816  68.415  1.00  0.00    -0.135 C  
HETATM   10  C   UNL     1      -9.672   7.676  68.047  1.00  0.00    -0.152 C  
HETATM   11  O   UNL     1      -7.569   8.232  69.065  1.00  0.00    -0.086 OA 
HETATM   12  H   UNL     1      -7.987  10.713  70.044  1.00  0.00     0.000 HD 
BRANCH   6  13
HETATM   13  C   UNL     1     -10.242  10.864  68.806  1.00  0.00    -0.196 C  
HETATM   14  H   UNL     1     -11.652  12.094  69.383  1.00  0.00     0.000 HD 
HETATM   15  O   UNL     1     -11.198  11.353  69.766  1.00  0.00    -0.251 OA 
ENDBRANCH   6  13
BRANCH  10  16
HETATM   16  O   UNL     1     -10.085   7.784  66.676  1.00  0.00    -0.253 OA 
BRANCH  16  17
HETATM   17  C   UNL     1      -9.309   8.731  65.926  1.00  0.00    -0.218 C  
HETATM   18  O   UNL     1     -10.160   9.733  65.360  1.00  0.00    -0.305 OA 
HETATM   19  C   UNL     1      -9.422  10.737  64.639  1.00  0.00    -0.251 C  
HETATM   20  C   UNL     1      -8.680  10.105  63.454  1.00  0.00    -0.213 C  
HETATM   21  H   UNL     1      -7.048   6.630  64.813  1.00  0.00     0.000 HD 
HETATM   22  O   UNL     1      -7.557   7.082  65.475  1.00  0.00    -0.082 OA 
HETATM   23  C   UNL     1      -7.721   9.039  63.998  1.00  0.00    -0.125 C  
HETATM   24  O   UNL     1      -9.558   9.445  62.530  1.00  0.00    -0.552 OA 
HETATM   25  H   UNL     1      -6.438   7.756  63.249  1.00  0.00     0.000 HD 
HETATM   26  O   UNL     1      -7.031   8.416  62.911  1.00  0.00    -0.089 OA 
HETATM   27  H   UNL     1      -9.099   9.054  61.796  1.00  0.00     0.000 HD 
HETATM   28  C   UNL     1      -8.479   7.995  64.847  1.00  0.00    -0.048 C  
BRANCH  19  29
HETATM   29  C   UNL     1     -10.401  11.832  64.208  1.00  0.00    -0.314 C  
HETATM   30  O   UNL     1     -11.334  11.291  63.272  1.00  0.00    -0.804 OA 
HETATM   31  H   UNL     1     -11.941  11.971  63.004  1.00  0.00     0.000 HD 
ENDBRANCH  19  29
ENDBRANCH  16  17
ENDBRANCH  10  16
ENDBRANCH   3   4
TORSDOF 5
ENDMDL
MODEL      159
REMARK 921   NORMALIZED FREE ENERGY PREDICTED BY IDOCK:   -3.88 KCAL/MOL
REMARK 922        TOTAL FREE ENERGY PREDICTED BY IDOCK:   -6.60 KCAL/MOL
REMARK 923 INTER-LIGAND FREE ENERGY PREDICTED BY IDOCK:   -5.72 KCAL/MOL
REMARK 924 INTRA-LIGAND FREE ENERGY PREDICTED BY IDOCK:   -0.88 KCAL/MOL
REMARK 927      BINDING AFFINITY PREDICTED BY RF-SCORE:    0.00 PKD
ROOT
HETATM    1  O   UNL     1     -11.439   5.265  65.718  1.00  0.00    -0.728 OA 
HETATM    2  H   UNL     1     -12.004   4.549  65.452  1.00  0.00     0.000 HD 
HETATM    3  C   UNL     1     -10.419   4.772  66.587  1.00  0.00    -0.165 C  
ENDROOT
BRANCH   3   4
HETATM    4  C   UNL     1      -9.508   5.925  67.016  1.00  0.00    -0.125 C  
HETATM    5  O   UNL     1      -8.974   6.575  65.846  1.00  0.00    -0.151 OA 
HETATM    6  C   UNL     1      -8.747   7.941  66.203  1.00  0.00    -0.158 C  
HETATM    7  O   UNL     1      -8.896   8.738  65.021  1.00  0.00    -0.301 OA 
HETATM    8  H   UNL     1     -11.682   9.055  67.116  1.00  0.00     0.000 HD 
HETATM    9  C   UNL     1      -9.849   8.311  67.205  1.00  0.00    -0.217 C  
HETATM   10  C   UNL     1     -10.254   6.981  67.841  1.00  0.00    -0.183 C  
HETATM   11  O   UNL     1     -11.000   8.825  66.495  1.00  0.00     0.183 OA 
HETATM   12  H   UNL     1      -8.745   9.645  65.258  1.00  0.00     0.000 HD 
BRANCH   6  13
HETATM   13  C   UNL     1      -7.319   8.099  66.746  1.00  0.00    -0.083 C  
HETATM   14  H   UNL     1      -6.044   9.573  66.928  1.00  0.00     0.000 HD 
HETATM   15  O   UNL     1      -6.927   9.476  66.592  1.00  0.00    -0.083 OA 
ENDBRANCH   6  13
BRANCH  10  16
HETATM   16  O   UNL     1      -9.881   6.948  69.227  1.00  0.00    -0.155 OA 
BRANCH  16  17
HETATM   17  C   UNL     1     -10.975   6.624  70.099  1.00  0.00    -0.305 C  
HETATM   18  O   UNL     1     -11.606   7.821  70.568  1.00  0.00    -0.253 OA 
HETATM   19  C   UNL     1     -12.744   7.549  71.406  1.00  0.00    -0.348 C  
HETATM   20  C   UNL     1     -12.308   6.789  72.666  1.00  0.00     0.315 C  
HETATM   21  H   UNL     1      -9.650   3.949  71.459  1.00  0.00     0.000 HD 
HETATM   22  O   UNL     1      -9.956   4.495  70.745  1.00  0.00    -0.207 OA 
HETATM   23  C   UNL     1     -11.650   5.474  72.232  1.00  0.00    -0.111 C  
HETATM   24  O   UNL     1     -11.339   7.505  73.445  1.00  0.00    -0.611 OA 
HETATM   25  H   UNL     1     -10.804   3.939  73.119  1.00  0.00     0.000 HD 
HETATM   26  O   UNL     1     -11.212   4.754  73.388  1.00  0.00    -0.315 OA 
HETATM   27  H   UNL     1     -11.069   7.035  74.225  1.00  0.00     0.000 HD 
HETATM   28  C   UNL     1     -10.476   5.735  71.263  1.00  0.00    -0.235 C  
BRANCH  19  29
HETATM   29  C   UNL     1     -13.431   8.879  71.726  1.00  0.00    -0.397 C  
HETATM   30  O   UNL     1     -13.831   8.886  73.097  1.00  0.00    -1.084 OA 
HETATM   31  H   UNL     1     -14.258   9.711  73.296  1.00  0.00     0.000 HD 
ENDBRANCH  19  29
ENDBRANCH  16  17
ENDBRANCH  10  16
ENDBRANCH   3   4
TORSDOF 5
ENDMDL
MODEL      160
REMARK 921   NORMALIZED FREE ENERGY PREDICTED BY IDOCK:   -3.88 KCAL/MOL
REMARK 922        TOTAL FREE ENERGY PREDICTED BY IDOCK:   -6.60 KCAL/MOL
REMARK 923 INTER-LIGAND FREE ENERGY PREDICTED BY IDOCK:   -5.20 KCAL/MOL
REMARK 924 INTRA-LIGAND FREE ENERGY PREDICTED BY IDOCK:   -1.40 KCAL/MOL
REMARK 927      BINDING AFFINITY PREDICTED BY RF-SCORE:    0.00 PKD
ROOT
HETATM    1  O   UNL     1     -10.659  11.552  68.312  1.00  0.00    -0.184 OA 
HETATM    2  H   UNL     1     -11.245  12.301  68.319  1.00  0.00     0.000 HD 
HETATM    3  C   UNL     1     -11.055  10.625  69.322  1.00  0.00    -0.252 C  
ENDROOT
BRANCH   3   4
HETATM    4  C   UNL     1     -10.112   9.419  69.311  1.00  0.00    -0.196 C  
HETATM    5  O   UNL     1     -10.757   8.300  69.948  1.00  0.00    -0.238 OA 
HETATM    6  C   UNL     1     -10.222   7.119  69.344  1.00  0.00    -0.189 C  
HETATM    7  O   UNL     1     -11.229   6.101  69.392  1.00  0.00    -0.391 OA 
HETATM    8  H   UNL     1     -10.926   7.425  66.166  1.00  0.00     0.000 HD 
HETATM    9  C   UNL     1      -9.936   7.479  67.879  1.00  0.00    -0.165 C  
HETATM   10  C   UNL     1      -9.727   8.994  67.889  1.00  0.00    -0.155 C  
HETATM   11  O   UNL     1     -11.104   7.203  67.073  1.00  0.00    -0.345 OA 
HETATM   12  H   UNL     1     -10.873   5.317  68.991  1.00  0.00     0.000 HD 
BRANCH   6  13
HETATM   13  C   UNL     1      -8.990   6.653  70.133  1.00  0.00    -0.152 C  
HETATM   14  H   UNL     1      -7.275   5.816  69.691  1.00  0.00     0.000 HD 
HETATM   15  O   UNL     1      -8.037   6.105  69.203  1.00  0.00    -0.106 OA 
ENDBRANCH   6  13
BRANCH  10  16
HETATM   16  O   UNL     1      -8.364   9.320  67.576  1.00  0.00    -0.117 OA 
BRANCH  16  17
HETATM   17  C   UNL     1      -8.227  10.063  66.355  1.00  0.00    -0.119 C  
HETATM   18  O   UNL     1      -9.517  10.397  65.830  1.00  0.00    -0.176 OA 
HETATM   19  C   UNL     1      -9.433  11.189  64.632  1.00  0.00    -0.213 C  
HETATM   20  C   UNL     1      -8.723  10.403  63.521  1.00  0.00    -0.199 C  
HETATM   21  H   UNL     1      -5.528   8.562  65.250  1.00  0.00     0.000 HD 
HETATM   22  O   UNL     1      -6.051   9.054  65.872  1.00  0.00    -0.051 OA 
HETATM   23  C   UNL     1      -7.315  10.042  64.011  1.00  0.00    -0.132 C  
HETATM   24  O   UNL     1      -9.382   9.170  63.198  1.00  0.00    -0.457 OA 
HETATM   25  H   UNL     1      -5.765   9.063  63.307  1.00  0.00     0.000 HD 
HETATM   26  O   UNL     1      -6.637   9.287  63.003  1.00  0.00    -0.094 OA 
HETATM   27  H   UNL     1      -8.943   8.683  62.510  1.00  0.00     0.000 HD 
HETATM   28  C   UNL     1      -7.375   9.262  65.342  1.00  0.00    -0.090 C  
BRANCH  19  29
HETATM   29  C   UNL     1     -10.850  11.616  64.240  1.00  0.00    -0.359 C  
HETATM   30  O   UNL     1     -11.062  11.337  62.856  1.00  0.00    -0.818 OA 
HETATM   31  H   UNL     1     -11.941  11.602  62.612  1.00  0.00     0.000 HD 
ENDBRANCH  19  29
ENDBRANCH  16  17
ENDBRANCH  10  16
ENDBRANCH   3   4
TORSDOF 5
ENDMDL
MODEL      161
REMARK 921   NORMALIZED FREE ENERGY PREDICTED BY IDOCK:   -3.87 KCAL/MOL
REMARK 922        TOTAL FREE ENERGY PREDICTED BY IDOCK:   -6.58 KCAL/MOL
REMARK 923 INTER-LIGAND FREE ENERGY PREDICTED BY IDOCK:   -4.95 KCAL/MOL
REMARK 924 INTRA-LIGAND FREE ENERGY PREDICTED BY IDOCK:   -1.63 KCAL/MOL
REMARK 927      BINDING AFFINITY PREDICTED BY RF-SCORE:    0.00 PKD
ROOT
HETATM    1  O   UNL     1      -9.624  12.500  64.133  1.00  0.00    -0.545 OA 
HETATM    2  H   UNL     1     -10.078  13.162  63.625  1.00  0.00     0.000 HD 
HETATM    3  C   UNL     1     -10.344  11.269  64.067  1.00  0.00    -0.371 C  
ENDROOT
BRANCH   3   4
HETATM    4  C   UNL     1      -9.613  10.202  64.885  1.00  0.00    -0.306 C  
HETATM    5  O   UNL     1      -8.984   9.261  63.994  1.00  0.00    -0.187 OA 
HETATM    6  C   UNL     1      -7.830   8.759  64.672  1.00  0.00    -0.127 C  
HETATM    7  O   UNL     1      -6.851   8.414  63.685  1.00  0.00    -0.082 OA 
HETATM    8  H   UNL     1      -6.020  11.410  65.293  1.00  0.00     0.000 HD 
HETATM    9  C   UNL     1      -7.300   9.917  65.529  1.00  0.00    -0.122 C  
HETATM   10  C   UNL     1      -8.522  10.801  65.781  1.00  0.00    -0.174 C  
HETATM   11  O   UNL     1      -6.349  10.693  64.763  1.00  0.00    -0.063 OA 
HETATM   12  H   UNL     1      -6.084   8.081  64.136  1.00  0.00     0.000 HD 
BRANCH   6  13
HETATM   13  C   UNL     1      -8.211   7.504  65.472  1.00  0.00    -0.135 C  
HETATM   14  H   UNL     1      -7.824   6.811  67.262  1.00  0.00     0.000 HD 
HETATM   15  O   UNL     1      -7.589   7.587  66.768  1.00  0.00    -0.097 OA 
ENDBRANCH   6  13
BRANCH  10  16
HETATM   16  O   UNL     1      -8.887  10.775  67.169  1.00  0.00    -0.134 OA 
BRANCH  16  17
HETATM   17  C   UNL     1      -9.245  12.067  67.683  1.00  0.00    -0.182 C  
HETATM   18  O   UNL     1     -10.381  12.583  66.981  1.00  0.00    -0.223 OA 
HETATM   19  C   UNL     1     -10.813  13.856  67.495  1.00  0.00    -0.266 C  
HETATM   20  C   UNL     1      -9.706  14.904  67.320  1.00  0.00    -0.228 C  
HETATM   21  H   UNL     1      -6.210  13.102  68.374  1.00  0.00     0.000 HD 
HETATM   22  O   UNL     1      -6.956  12.516  68.422  1.00  0.00    -0.081 OA 
HETATM   23  C   UNL     1      -8.464  14.425  68.081  1.00  0.00    -0.160 C  
HETATM   24  O   UNL     1      -9.315  15.083  65.951  1.00  0.00    -0.410 OA 
HETATM   25  H   UNL     1      -6.637  15.077  68.388  1.00  0.00     0.000 HD 
HETATM   26  O   UNL     1      -7.407  15.374  67.917  1.00  0.00    -0.119 OA 
HETATM   27  H   UNL     1      -8.629  15.732  65.843  1.00  0.00     0.000 HD 
HETATM   28  C   UNL     1      -8.030  13.022  67.605  1.00  0.00    -0.169 C  
BRANCH  19  29
HETATM   29  C   UNL     1     -12.112  14.243  66.783  1.00  0.00    -0.417 C  
HETATM   30  O   UNL     1     -11.936  14.110  65.372  1.00  0.00    -0.352 OA 
HETATM   31  H   UNL     1     -12.742  14.351  64.930  1.00  0.00     0.000 HD 
ENDBRANCH  19  29
ENDBRANCH  16  17
ENDBRANCH  10  16
ENDBRANCH   3   4
TORSDOF 5
ENDMDL
MODEL      162
REMARK 921   NORMALIZED FREE ENERGY PREDICTED BY IDOCK:   -3.84 KCAL/MOL
REMARK 922        TOTAL FREE ENERGY PREDICTED BY IDOCK:   -6.54 KCAL/MOL
REMARK 923 INTER-LIGAND FREE ENERGY PREDICTED BY IDOCK:   -5.86 KCAL/MOL
REMARK 924 INTRA-LIGAND FREE ENERGY PREDICTED BY IDOCK:   -0.68 KCAL/MOL
REMARK 927      BINDING AFFINITY PREDICTED BY RF-SCORE:    0.00 PKD
ROOT
HETATM    1  O   UNL     1     -10.663  19.319  67.639  1.00  0.00    -0.452 OA 
HETATM    2  H   UNL     1     -10.577  20.201  67.982  1.00  0.00     0.000 HD 
HETATM    3  C   UNL     1     -10.275  18.377  68.637  1.00  0.00    -0.339 C  
ENDROOT
BRANCH   3   4
HETATM    4  C   UNL     1     -10.413  16.956  68.084  1.00  0.00    -0.350 C  
HETATM    5  O   UNL     1     -11.134  16.994  66.838  1.00  0.00     0.033 OA 
HETATM    6  C   UNL     1     -10.666  15.891  66.058  1.00  0.00    -0.284 C  
HETATM    7  O   UNL     1     -10.780  16.245  64.675  1.00  0.00    -0.782 OA 
HETATM    8  H   UNL     1      -7.452  16.402  65.748  1.00  0.00     0.000 HD 
HETATM    9  C   UNL     1      -9.184  15.712  66.414  1.00  0.00    -0.311 C  
HETATM   10  C   UNL     1      -9.052  16.299  67.820  1.00  0.00    -0.195 C  
HETATM   11  O   UNL     1      -8.370  16.513  65.527  1.00  0.00    -0.014 OA 
HETATM   12  H   UNL     1     -10.469  15.512  64.157  1.00  0.00     0.000 HD 
BRANCH   6  13
HETATM   13  C   UNL     1     -11.538  14.658  66.340  1.00  0.00    -0.339 C  
HETATM   14  H   UNL     1     -13.011  13.744  65.429  1.00  0.00     0.000 HD 
HETATM   15  O   UNL     1     -12.472  14.506  65.254  1.00  0.00    -0.369 OA 
ENDBRANCH   6  13
BRANCH  10  16
HETATM   16  O   UNL     1      -8.755  15.268  68.774  1.00  0.00    -0.171 OA 
BRANCH  16  17
HETATM   17  C   UNL     1      -8.651  13.964  68.181  1.00  0.00    -0.180 C  
HETATM   18  O   UNL     1      -9.689  13.111  68.674  1.00  0.00    -0.171 OA 
HETATM   19  C   UNL     1      -9.660  11.805  68.069  1.00  0.00    -0.187 C  
HETATM   20  C   UNL     1      -8.343  11.092  68.405  1.00  0.00    -0.139 C  
HETATM   21  H   UNL     1      -5.378  13.851  67.986  1.00  0.00     0.000 HD 
HETATM   22  O   UNL     1      -6.242  14.212  67.826  1.00  0.00    -0.155 OA 
HETATM   23  C   UNL     1      -7.185  11.943  67.871  1.00  0.00    -0.095 C  
HETATM   24  O   UNL     1      -8.133  10.937  69.816  1.00  0.00    -0.360 OA 
HETATM   25  H   UNL     1      -5.224  11.840  67.861  1.00  0.00     0.000 HD 
HETATM   26  O   UNL     1      -5.941  11.313  68.191  1.00  0.00    -0.046 OA 
HETATM   27  H   UNL     1      -7.318  10.496  70.024  1.00  0.00     0.000 HD 
HETATM   28  C   UNL     1      -7.243  13.377  68.441  1.00  0.00    -0.110 C  
BRANCH  19  29
HETATM   29  C   UNL     1     -10.891  11.029  68.546  1.00  0.00    -0.213 C  
HETATM   30  O   UNL     1     -11.996  11.325  67.692  1.00  0.00    -0.634 OA 
HETATM   31  H   UNL     1     -12.760  10.844  67.987  1.00  0.00     0.000 HD 
ENDBRANCH  19  29
ENDBRANCH  16  17
ENDBRANCH  10  16
ENDBRANCH   3   4
TORSDOF 5
ENDMDL
MODEL      163
REMARK 921   NORMALIZED FREE ENERGY PREDICTED BY IDOCK:   -3.83 KCAL/MOL
REMARK 922        TOTAL FREE ENERGY PREDICTED BY IDOCK:   -6.54 KCAL/MOL
REMARK 923 INTER-LIGAND FREE ENERGY PREDICTED BY IDOCK:   -5.70 KCAL/MOL
REMARK 924 INTRA-LIGAND FREE ENERGY PREDICTED BY IDOCK:   -0.84 KCAL/MOL
REMARK 927      BINDING AFFINITY PREDICTED BY RF-SCORE:    0.00 PKD
ROOT
HETATM    1  O   UNL     1     -12.106  12.461  65.822  1.00  0.00    -0.561 OA 
HETATM    2  H   UNL     1     -12.522  13.314  65.877  1.00  0.00     0.000 HD 
HETATM    3  C   UNL     1     -10.710  12.626  65.575  1.00  0.00    -0.274 C  
ENDROOT
BRANCH   3   4
HETATM    4  C   UNL     1     -10.039  11.253  65.487  1.00  0.00    -0.257 C  
HETATM    5  O   UNL     1      -9.054  11.266  64.436  1.00  0.00    -0.113 OA 
HETATM    6  C   UNL     1      -8.042  10.328  64.809  1.00  0.00    -0.151 C  
HETATM    7  O   UNL     1      -6.800  10.769  64.246  1.00  0.00    -0.345 OA 
HETATM    8  H   UNL     1      -6.927  11.415  67.683  1.00  0.00     0.000 HD 
HETATM    9  C   UNL     1      -7.951  10.382  66.340  1.00  0.00    -0.130 C  
HETATM   10  C   UNL     1      -9.329  10.866  66.791  1.00  0.00    -0.165 C  
HETATM   11  O   UNL     1      -6.984  11.382  66.735  1.00  0.00    -0.132 OA 
HETATM   12  H   UNL     1      -6.127  10.146  64.493  1.00  0.00     0.000 HD 
BRANCH   6  13
HETATM   13  C   UNL     1      -8.392   8.943  64.244  1.00  0.00    -0.169 C  
HETATM   14  H   UNL     1      -7.878   7.901  62.667  1.00  0.00     0.000 HD 
HETATM   15  O   UNL     1      -7.662   8.757  63.017  1.00  0.00    -0.108 OA 
ENDBRANCH   6  13
BRANCH  10  16
HETATM   16  O   UNL     1     -10.024   9.828  67.499  1.00  0.00    -0.166 OA 
BRANCH  16  17
HETATM   17  C   UNL     1     -10.144  10.088  68.906  1.00  0.00    -0.190 C  
HETATM   18  O   UNL     1      -9.535   9.032  69.658  1.00  0.00    -0.162 OA 
HETATM   19  C   UNL     1      -9.583   9.271  71.077  1.00  0.00    -0.259 C  
HETATM   20  C   UNL     1     -11.039   9.337  71.557  1.00  0.00    -0.373 C  
HETATM   21  H   UNL     1     -13.078  11.552  68.815  1.00  0.00     0.000 HD 
HETATM   22  O   UNL     1     -12.165  11.429  68.585  1.00  0.00    -0.532 OA 
HETATM   23  C   UNL     1     -11.743  10.476  70.810  1.00  0.00    -0.356 C  
HETATM   24  O   UNL     1     -11.775   8.137  71.280  1.00  0.00    -0.272 OA 
HETATM   25  H   UNL     1     -13.547  11.251  70.758  1.00  0.00     0.000 HD 
HETATM   26  O   UNL     1     -13.111  10.545  71.222  1.00  0.00    -0.377 OA 
HETATM   27  H   UNL     1     -12.677   8.177  71.578  1.00  0.00     0.000 HD 
HETATM   28  C   UNL     1     -11.633  10.286  69.281  1.00  0.00    -0.119 C  
BRANCH  19  29
HETATM   29  C   UNL     1      -8.779   8.171  71.775  1.00  0.00    -0.151 C  
HETATM   30  O   UNL     1      -7.655   8.755  72.435  1.00  0.00    -0.335 OA 
HETATM   31  H   UNL     1      -7.155   8.072  72.868  1.00  0.00     0.000 HD 
ENDBRANCH  19  29
ENDBRANCH  16  17
ENDBRANCH  10  16
ENDBRANCH   3   4
TORSDOF 5
ENDMDL
MODEL      164
REMARK 921   NORMALIZED FREE ENERGY PREDICTED BY IDOCK:   -3.83 KCAL/MOL
REMARK 922        TOTAL FREE ENERGY PREDICTED BY IDOCK:   -6.53 KCAL/MOL
REMARK 923 INTER-LIGAND FREE ENERGY PREDICTED BY IDOCK:   -5.89 KCAL/MOL
REMARK 924 INTRA-LIGAND FREE ENERGY PREDICTED BY IDOCK:   -0.64 KCAL/MOL
REMARK 927      BINDING AFFINITY PREDICTED BY RF-SCORE:    0.00 PKD
ROOT
HETATM    1  O   UNL     1      -7.032  20.771  65.439  1.00  0.00    -0.502 OA 
HETATM    2  H   UNL     1      -7.106  21.371  64.706  1.00  0.00     0.000 HD 
HETATM    3  C   UNL     1      -6.681  19.473  64.962  1.00  0.00    -0.121 C  
ENDROOT
BRANCH   3   4
HETATM    4  C   UNL     1      -6.562  18.507  66.144  1.00  0.00    -0.232 C  
HETATM    5  O   UNL     1      -6.085  19.220  67.301  1.00  0.00    -0.185 OA 
HETATM    6  C   UNL     1      -6.621  18.551  68.445  1.00  0.00    -0.226 C  
HETATM    7  O   UNL     1      -6.784  19.520  69.489  1.00  0.00    -0.328 OA 
HETATM    8  H   UNL     1      -9.862  18.693  68.042  1.00  0.00     0.000 HD 
HETATM    9  C   UNL     1      -8.000  18.022  68.026  1.00  0.00    -0.255 C  
HETATM   10  C   UNL     1      -7.906  17.865  66.508  1.00  0.00    -0.264 C  
HETATM   11  O   UNL     1      -9.008  19.021  68.301  1.00  0.00    -0.307 OA 
HETATM   12  H   UNL     1      -7.140  19.076  70.249  1.00  0.00     0.000 HD 
BRANCH   6  13
HETATM   13  C   UNL     1      -5.641  17.464  68.910  1.00  0.00    -0.161 C  
HETATM   14  H   UNL     1      -5.264  16.544  70.597  1.00  0.00     0.000 HD 
HETATM   15  O   UNL     1      -5.870  17.216  70.310  1.00  0.00    -0.224 OA 
ENDBRANCH   6  13
BRANCH  10  16
HETATM   16  O   UNL     1      -7.962  16.478  66.138  1.00  0.00    -0.312 OA 
BRANCH  16  17
HETATM   17  C   UNL     1      -8.868  15.714  66.950  1.00  0.00    -0.250 C  
HETATM   18  O   UNL     1      -8.314  14.424  67.231  1.00  0.00    -0.191 OA 
HETATM   19  C   UNL     1      -9.162  13.637  68.086  1.00  0.00    -0.204 C  
HETATM   20  C   UNL     1     -10.509  13.370  67.401  1.00  0.00    -0.243 C  
HETATM   21  H   UNL     1     -11.658  16.872  65.670  1.00  0.00     0.000 HD 
HETATM   22  O   UNL     1     -10.812  16.932  66.098  1.00  0.00    -0.159 OA 
HETATM   23  C   UNL     1     -11.173  14.719  67.101  1.00  0.00    -0.343 C  
HETATM   24  O   UNL     1     -10.374  12.682  66.149  1.00  0.00    -0.247 OA 
HETATM   25  H   UNL     1     -12.834  15.336  66.253  1.00  0.00     0.000 HD 
HETATM   26  O   UNL     1     -12.423  14.500  66.440  1.00  0.00    -0.315 OA 
HETATM   27  H   UNL     1     -11.207  12.516  65.724  1.00  0.00     0.000 HD 
HETATM   28  C   UNL     1     -10.246  15.616  66.253  1.00  0.00    -0.299 C  
BRANCH  19  29
HETATM   29  C   UNL     1      -8.416  12.350  68.447  1.00  0.00    -0.131 C  
HETATM   30  O   UNL     1      -9.329  11.425  69.039  1.00  0.00    -0.388 OA 
HETATM   31  H   UNL     1      -8.867  10.626  69.263  1.00  0.00     0.000 HD 
ENDBRANCH  19  29
ENDBRANCH  16  17
ENDBRANCH  10  16
ENDBRANCH   3   4
TORSDOF 5
ENDMDL
MODEL      165
REMARK 921   NORMALIZED FREE ENERGY PREDICTED BY IDOCK:   -3.81 KCAL/MOL
REMARK 922        TOTAL FREE ENERGY PREDICTED BY IDOCK:   -6.50 KCAL/MOL
REMARK 923 INTER-LIGAND FREE ENERGY PREDICTED BY IDOCK:   -5.84 KCAL/MOL
REMARK 924 INTRA-LIGAND FREE ENERGY PREDICTED BY IDOCK:   -0.66 KCAL/MOL
REMARK 927      BINDING AFFINITY PREDICTED BY RF-SCORE:    0.00 PKD
ROOT
HETATM    1  O   UNL     1     -11.186  17.110  69.908  1.00  0.00    -0.227 OA 
HETATM    2  H   UNL     1     -11.157  17.355  70.825  1.00  0.00     0.000 HD 
HETATM    3  C   UNL     1     -10.633  15.804  69.743  1.00  0.00    -0.312 C  
ENDROOT
BRANCH   3   4
HETATM    4  C   UNL     1     -10.679  15.409  68.265  1.00  0.00    -0.260 C  
HETATM    5  O   UNL     1     -10.252  16.523  67.457  1.00  0.00    -0.269 OA 
HETATM    6  C   UNL     1      -9.662  15.972  66.277  1.00  0.00    -0.306 C  
HETATM    7  O   UNL     1      -8.661  16.886  65.814  1.00  0.00    -0.512 OA 
HETATM    8  H   UNL     1      -7.209  14.109  67.373  1.00  0.00     0.000 HD 
HETATM    9  C   UNL     1      -8.990  14.661  66.706  1.00  0.00    -0.257 C  
HETATM   10  C   UNL     1      -9.762  14.221  67.951  1.00  0.00    -0.222 C  
HETATM   11  O   UNL     1      -7.625  14.921  67.108  1.00  0.00    -0.200 OA 
HETATM   12  H   UNL     1      -8.269  16.520  65.030  1.00  0.00     0.000 HD 
BRANCH   6  13
HETATM   13  C   UNL     1     -10.739  15.806  65.194  1.00  0.00    -0.435 C  
HETATM   14  H   UNL     1     -11.304  14.372  63.988  1.00  0.00     0.000 HD 
HETATM   15  O   UNL     1     -10.639  14.474  64.657  1.00  0.00    -0.405 OA 
ENDBRANCH   6  13
BRANCH  10  16
HETATM   16  O   UNL     1     -10.503  13.020  67.689  1.00  0.00    -0.221 OA 
BRANCH  16  17
HETATM   17  C   UNL     1     -10.082  11.909  68.496  1.00  0.00    -0.206 C  
HETATM   18  O   UNL     1      -8.653  11.865  68.572  1.00  0.00    -0.162 OA 
HETATM   19  C   UNL     1      -8.181  10.797  69.414  1.00  0.00    -0.023 C  
HETATM   20  C   UNL     1      -8.609   9.439  68.843  1.00  0.00    -0.131 C  
HETATM   21  H   UNL     1     -12.480   9.838  67.645  1.00  0.00     0.000 HD 
HETATM   22  O   UNL     1     -12.115  10.645  67.989  1.00  0.00    -0.366 OA 
HETATM   23  C   UNL     1     -10.140   9.408  68.766  1.00  0.00    -0.193 C  
HETATM   24  O   UNL     1      -8.119   9.210  67.514  1.00  0.00    -0.103 OA 
HETATM   25  H   UNL     1     -11.515   8.141  68.167  1.00  0.00     0.000 HD 
HETATM   26  O   UNL     1     -10.567   8.160  68.215  1.00  0.00    -0.183 OA 
HETATM   27  H   UNL     1      -8.383   8.369  67.160  1.00  0.00     0.000 HD 
HETATM   28  C   UNL     1     -10.676  10.594  67.936  1.00  0.00    -0.248 C  
BRANCH  19  29
HETATM   29  C   UNL     1      -6.662  10.930  69.549  1.00  0.00    -0.117 C  
HETATM   30  O   UNL     1      -6.346  11.455  70.840  1.00  0.00    -0.484 OA 
HETATM   31  H   UNL     1      -5.404  11.538  70.924  1.00  0.00     0.000 HD 
ENDBRANCH  19  29
ENDBRANCH  16  17
ENDBRANCH  10  16
ENDBRANCH   3   4
TORSDOF 5
ENDMDL
MODEL      166
REMARK 921   NORMALIZED FREE ENERGY PREDICTED BY IDOCK:   -3.80 KCAL/MOL
REMARK 922        TOTAL FREE ENERGY PREDICTED BY IDOCK:   -6.49 KCAL/MOL
REMARK 923 INTER-LIGAND FREE ENERGY PREDICTED BY IDOCK:   -5.29 KCAL/MOL
REMARK 924 INTRA-LIGAND FREE ENERGY PREDICTED BY IDOCK:   -1.21 KCAL/MOL
REMARK 927      BINDING AFFINITY PREDICTED BY RF-SCORE:    0.00 PKD
ROOT
HETATM    1  O   UNL     1     -11.371  10.904  66.445  1.00  0.00    -0.133 OA 
HETATM    2  H   UNL     1     -11.775  10.226  65.915  1.00  0.00     0.000 HD 
HETATM    3  C   UNL     1     -11.366  12.136  65.724  1.00  0.00    -0.354 C  
ENDROOT
BRANCH   3   4
HETATM    4  C   UNL     1     -10.715  13.227  66.576  1.00  0.00    -0.285 C  
HETATM    5  O   UNL     1     -11.658  14.295  66.791  1.00  0.00    -0.356 OA 
HETATM    6  C   UNL     1     -11.329  14.887  68.050  1.00  0.00    -0.324 C  
HETATM    7  O   UNL     1     -12.533  15.414  68.621  1.00  0.00    -0.522 OA 
HETATM    8  H   UNL     1     -11.580  12.441  70.205  1.00  0.00     0.000 HD 
HETATM    9  C   UNL     1     -10.805  13.748  68.936  1.00  0.00    -0.242 C  
HETATM   10  C   UNL     1     -10.273  12.707  67.949  1.00  0.00    -0.220 C  
HETATM   11  O   UNL     1     -11.905  13.146  69.656  1.00  0.00    -0.304 OA 
HETATM   12  H   UNL     1     -12.315  15.807  69.458  1.00  0.00     0.000 HD 
BRANCH   6  13
HETATM   13  C   UNL     1     -10.328  16.031  67.832  1.00  0.00    -0.269 C  
HETATM   14  H   UNL     1      -9.844  17.207  66.343  1.00  0.00     0.000 HD 
HETATM   15  O   UNL     1     -10.464  16.500  66.478  1.00  0.00    -0.301 OA 
ENDBRANCH   6  13
BRANCH  10  16
HETATM   16  O   UNL     1      -8.845  12.597  68.052  1.00  0.00    -0.180 OA 
BRANCH  16  17
HETATM   17  C   UNL     1      -8.406  11.285  68.437  1.00  0.00    -0.152 C  
HETATM   18  O   UNL     1      -9.534  10.441  68.694  1.00  0.00    -0.152 OA 
HETATM   19  C   UNL     1      -9.146   9.097  69.034  1.00  0.00    -0.143 C  
HETATM   20  C   UNL     1      -8.320   9.091  70.327  1.00  0.00    -0.157 C  
HETATM   21  H   UNL     1      -5.708  12.204  70.062  1.00  0.00     0.000 HD 
HETATM   22  O   UNL     1      -6.289  12.144  69.312  1.00  0.00    -0.087 OA 
HETATM   23  C   UNL     1      -7.073   9.956  70.106  1.00  0.00    -0.145 C  
HETATM   24  O   UNL     1      -9.025   9.650  71.445  1.00  0.00    -0.275 OA 
HETATM   25  H   UNL     1      -5.523  10.523  71.169  1.00  0.00     0.000 HD 
HETATM   26  O   UNL     1      -6.295   9.987  71.306  1.00  0.00    -0.304 OA 
HETATM   27  H   UNL     1      -8.514   9.646  72.246  1.00  0.00     0.000 HD 
HETATM   28  C   UNL     1      -7.461  11.381  69.659  1.00  0.00     0.257 C  
BRANCH  19  29
HETATM   29  C   UNL     1     -10.415   8.245  69.138  1.00  0.00    -0.206 C  
HETATM   30  O   UNL     1     -11.518   9.082  69.490  1.00  0.00    -0.432 OA 
HETATM   31  H   UNL     1     -12.305   8.554  69.555  1.00  0.00     0.000 HD 
ENDBRANCH  19  29
ENDBRANCH  16  17
ENDBRANCH  10  16
ENDBRANCH   3   4
TORSDOF 5
ENDMDL
MODEL      167
REMARK 921   NORMALIZED FREE ENERGY PREDICTED BY IDOCK:   -3.79 KCAL/MOL
REMARK 922        TOTAL FREE ENERGY PREDICTED BY IDOCK:   -6.48 KCAL/MOL
REMARK 923 INTER-LIGAND FREE ENERGY PREDICTED BY IDOCK:   -5.75 KCAL/MOL
REMARK 924 INTRA-LIGAND FREE ENERGY PREDICTED BY IDOCK:   -0.73 KCAL/MOL
REMARK 927      BINDING AFFINITY PREDICTED BY RF-SCORE:    0.00 PKD
ROOT
HETATM    1  O   UNL     1     -12.091  15.959  69.106  1.00  0.00    -0.487 OA 
HETATM    2  H   UNL     1     -12.124  16.421  69.935  1.00  0.00     0.000 HD 
HETATM    3  C   UNL     1     -11.891  14.566  69.342  1.00  0.00    -0.325 C  
ENDROOT
BRANCH   3   4
HETATM    4  C   UNL     1     -11.837  13.820  68.006  1.00  0.00    -0.373 C  
HETATM    5  O   UNL     1     -12.274  14.696  66.950  1.00  0.00    -0.311 OA 
HETATM    6  C   UNL     1     -11.596  14.278  65.762  1.00  0.00    -0.346 C  
HETATM    7  O   UNL     1     -11.426  15.426  64.921  1.00  0.00    -0.365 OA 
HETATM    8  H   UNL     1      -8.419  14.552  66.485  1.00  0.00     0.000 HD 
HETATM    9  C   UNL     1     -10.218  13.772  66.211  1.00  0.00    -0.297 C  
HETATM   10  C   UNL     1     -10.421  13.340  67.664  1.00  0.00    -0.229 C  
HETATM   11  O   UNL     1      -9.272  14.865  66.208  1.00  0.00    -0.287 OA 
HETATM   12  H   UNL     1     -10.976  15.148  64.132  1.00  0.00     0.000 HD 
BRANCH   6  13
HETATM   13  C   UNL     1     -12.447  13.231  65.028  1.00  0.00    -0.443 C  
HETATM   14  H   UNL     1     -12.113  11.499  64.178  1.00  0.00     0.000 HD 
HETATM   15  O   UNL     1     -11.587  12.146  64.633  1.00  0.00    -0.331 OA 
ENDBRANCH   6  13
BRANCH  10  16
HETATM   16  O   UNL     1     -10.286  11.916  67.793  1.00  0.00    -0.192 OA 
BRANCH  16  17
HETATM   17  C   UNL     1      -8.995  11.513  68.273  1.00  0.00    -0.177 C  
HETATM   18  O   UNL     1      -8.177  12.661  68.522  1.00  0.00    -0.145 OA 
HETATM   19  C   UNL     1      -6.887  12.311  69.055  1.00  0.00    -0.094 C  
HETATM   20  C   UNL     1      -6.107  11.457  68.047  1.00  0.00    -0.046 C  
HETATM   21  H   UNL     1      -8.740   8.750  66.523  1.00  0.00     0.000 HD 
HETATM   22  O   UNL     1      -9.143   9.349  67.140  1.00  0.00    -0.129 OA 
HETATM   23  C   UNL     1      -6.918  10.187  67.761  1.00  0.00    -0.084 C  
HETATM   24  O   UNL     1      -5.907  12.117  66.789  1.00  0.00    -0.385 OA 
HETATM   25  H   UNL     1      -6.728   8.595  66.628  1.00  0.00     0.000 HD 
HETATM   26  O   UNL     1      -6.225   9.381  66.805  1.00  0.00    -0.063 OA 
HETATM   27  H   UNL     1      -5.424  11.588  66.164  1.00  0.00     0.000 HD 
HETATM   28  C   UNL     1      -8.338  10.537  67.266  1.00  0.00    -0.122 C  
BRANCH  19  29
HETATM   29  C   UNL     1      -6.155  13.604  69.425  1.00  0.00    -0.104 C  
HETATM   30  O   UNL     1      -6.524  13.994  70.749  1.00  0.00    -0.419 OA 
HETATM   31  H   UNL     1      -6.070  14.796  70.979  1.00  0.00     0.000 HD 
ENDBRANCH  19  29
ENDBRANCH  16  17
ENDBRANCH  10  16
ENDBRANCH   3   4
TORSDOF 5
ENDMDL
MODEL      168
REMARK 921   NORMALIZED FREE ENERGY PREDICTED BY IDOCK:   -3.79 KCAL/MOL
REMARK 922        TOTAL FREE ENERGY PREDICTED BY IDOCK:   -6.47 KCAL/MOL
REMARK 923 INTER-LIGAND FREE ENERGY PREDICTED BY IDOCK:   -5.48 KCAL/MOL
REMARK 924 INTRA-LIGAND FREE ENERGY PREDICTED BY IDOCK:   -1.00 KCAL/MOL
REMARK 927      BINDING AFFINITY PREDICTED BY RF-SCORE:    0.00 PKD
ROOT
HETATM    1  O   UNL     1      -9.766  12.089  63.624  1.00  0.00    -0.524 OA 
HETATM    2  H   UNL     1     -10.232  12.468  62.888  1.00  0.00     0.000 HD 
HETATM    3  C   UNL     1     -10.464  10.936  64.092  1.00  0.00    -0.327 C  
ENDROOT
BRANCH   3   4
HETATM    4  C   UNL     1      -9.713  10.326  65.278  1.00  0.00    -0.291 C  
HETATM    5  O   UNL     1      -9.197   9.033  64.905  1.00  0.00    -0.151 OA 
HETATM    6  C   UNL     1      -8.013   8.825  65.679  1.00  0.00    -0.103 C  
HETATM    7  O   UNL     1      -7.131   7.986  64.922  1.00  0.00    -0.068 OA 
HETATM    8  H   UNL     1      -6.053  11.316  64.877  1.00  0.00     0.000 HD 
HETATM    9  C   UNL     1      -7.368  10.206  65.857  1.00  0.00    -0.121 C  
HETATM   10  C   UNL     1      -8.530  11.193  65.726  1.00  0.00    -0.076 C  
HETATM   11  O   UNL     1      -6.453  10.461  64.767  1.00  0.00    -0.121 OA 
HETATM   12  H   UNL     1      -6.344   7.847  65.436  1.00  0.00     0.000 HD 
BRANCH   6  13
HETATM   13  C   UNL     1      -8.377   8.122  66.995  1.00  0.00    -0.116 C  
HETATM   14  H   UNL     1      -7.679   8.123  68.825  1.00  0.00     0.000 HD 
HETATM   15  O   UNL     1      -7.455   8.558  68.011  1.00  0.00    -0.094 OA 
ENDBRANCH   6  13
BRANCH  10  16
HETATM   16  O   UNL     1      -8.782  11.847  66.979  1.00  0.00    -0.169 OA 
BRANCH  16  17
HETATM   17  C   UNL     1      -9.931  12.707  66.945  1.00  0.00    -0.230 C  
HETATM   18  O   UNL     1      -9.597  13.958  66.335  1.00  0.00    -0.279 OA 
HETATM   19  C   UNL     1     -10.731  14.838  66.230  1.00  0.00    -0.313 C  
HETATM   20  C   UNL     1     -11.265  15.187  67.625  1.00  0.00    -0.327 C  
HETATM   21  H   UNL     1     -11.270  11.729  69.776  1.00  0.00     0.000 HD 
HETATM   22  O   UNL     1     -10.924  11.618  68.899  1.00  0.00    -0.211 OA 
HETATM   23  C   UNL     1     -11.675  13.885  68.324  1.00  0.00    -0.361 C  
HETATM   24  O   UNL     1     -10.283  15.820  68.459  1.00  0.00    -0.210 OA 
HETATM   25  H   UNL     1     -12.409  13.372  70.072  1.00  0.00     0.000 HD 
HETATM   26  O   UNL     1     -12.156  14.179  69.639  1.00  0.00    -0.316 OA 
HETATM   27  H   UNL     1     -10.614  16.036  69.323  1.00  0.00     0.000 HD 
HETATM   28  C   UNL     1     -10.496  12.890  68.375  1.00  0.00    -0.251 C  
BRANCH  19  29
HETATM   29  C   UNL     1     -10.305  16.074  65.433  1.00  0.00    -0.359 C  
HETATM   30  O   UNL     1      -9.064  16.562  65.945  1.00  0.00    -0.460 OA 
HETATM   31  H   UNL     1      -8.800  17.329  65.451  1.00  0.00     0.000 HD 
ENDBRANCH  19  29
ENDBRANCH  16  17
ENDBRANCH  10  16
ENDBRANCH   3   4
TORSDOF 5
ENDMDL
MODEL      169
REMARK 921   NORMALIZED FREE ENERGY PREDICTED BY IDOCK:   -3.76 KCAL/MOL
REMARK 922        TOTAL FREE ENERGY PREDICTED BY IDOCK:   -6.44 KCAL/MOL
REMARK 923 INTER-LIGAND FREE ENERGY PREDICTED BY IDOCK:   -5.51 KCAL/MOL
REMARK 924 INTRA-LIGAND FREE ENERGY PREDICTED BY IDOCK:   -0.93 KCAL/MOL
REMARK 927      BINDING AFFINITY PREDICTED BY RF-SCORE:    0.00 PKD
ROOT
HETATM    1  O   UNL     1     -10.823   6.427  68.184  1.00  0.00    -0.257 OA 
HETATM    2  H   UNL     1     -11.679   6.015  68.217  1.00  0.00     0.000 HD 
HETATM    3  C   UNL     1     -10.882   7.587  67.355  1.00  0.00    -0.202 C  
ENDROOT
BRANCH   3   4
HETATM    4  C   UNL     1      -9.503   8.250  67.301  1.00  0.00    -0.151 C  
HETATM    5  O   UNL     1      -8.578   7.380  66.622  1.00  0.00    -0.118 OA 
HETATM    6  C   UNL     1      -7.604   8.222  66.000  1.00  0.00    -0.078 C  
HETATM    7  O   UNL     1      -7.127   7.554  64.825  1.00  0.00    -0.059 OA 
HETATM    8  H   UNL     1      -9.330  10.144  63.998  1.00  0.00     0.000 HD 
HETATM    9  C   UNL     1      -8.343   9.502  65.589  1.00  0.00    -0.126 C  
HETATM   10  C   UNL     1      -9.529   9.587  66.550  1.00  0.00    -0.182 C  
HETATM   11  O   UNL     1      -8.873   9.351  64.252  1.00  0.00    -0.208 OA 
HETATM   12  H   UNL     1      -6.479   8.113  64.412  1.00  0.00     0.000 HD 
BRANCH   6  13
HETATM   13  C   UNL     1      -6.431   8.450  66.966  1.00  0.00    -0.057 C  
HETATM   14  H   UNL     1      -4.926   9.698  67.074  1.00  0.00     0.000 HD 
HETATM   15  O   UNL     1      -5.652   9.557  66.477  1.00  0.00    -0.048 OA 
ENDBRANCH   6  13
BRANCH  10  16
HETATM   16  O   UNL     1      -9.384  10.708  67.435  1.00  0.00    -0.143 OA 
BRANCH  16  17
HETATM   17  C   UNL     1     -10.148  11.854  67.026  1.00  0.00    -0.205 C  
HETATM   18  O   UNL     1     -10.969  11.526  65.900  1.00  0.00    -0.284 OA 
HETATM   19  C   UNL     1     -11.794  12.628  65.483  1.00  0.00    -0.431 C  
HETATM   20  C   UNL     1     -10.921  13.807  65.031  1.00  0.00    -0.357 C  
HETATM   21  H   UNL     1      -7.902  14.134  67.743  1.00  0.00     0.000 HD 
HETATM   22  O   UNL     1      -8.483  13.405  67.925  1.00  0.00    -0.149 OA 
HETATM   23  C   UNL     1     -10.036  14.231  66.209  1.00  0.00    -0.306 C  
HETATM   24  O   UNL     1     -10.042  13.470  63.947  1.00  0.00    -0.681 OA 
HETATM   25  H   UNL     1      -8.644  15.577  66.538  1.00  0.00     0.000 HD 
HETATM   26  O   UNL     1      -9.193  15.314  65.809  1.00  0.00    -0.289 OA 
HETATM   27  H   UNL     1      -9.502  14.199  63.667  1.00  0.00     0.000 HD 
HETATM   28  C   UNL     1      -9.200  13.041  66.730  1.00  0.00    -0.228 C  
BRANCH  19  29
HETATM   29  C   UNL     1     -12.734  12.132  64.381  1.00  0.00    -0.217 C  
HETATM   30  O   UNL     1     -11.984  11.390  63.418  1.00  0.00    -0.734 OA 
HETATM   31  H   UNL     1     -12.567  11.082  62.734  1.00  0.00     0.000 HD 
ENDBRANCH  19  29
ENDBRANCH  16  17
ENDBRANCH  10  16
ENDBRANCH   3   4
TORSDOF 5
ENDMDL
MODEL      170
REMARK 921   NORMALIZED FREE ENERGY PREDICTED BY IDOCK:   -3.75 KCAL/MOL
REMARK 922        TOTAL FREE ENERGY PREDICTED BY IDOCK:   -6.42 KCAL/MOL
REMARK 923 INTER-LIGAND FREE ENERGY PREDICTED BY IDOCK:   -6.68 KCAL/MOL
REMARK 924 INTRA-LIGAND FREE ENERGY PREDICTED BY IDOCK:    0.26 KCAL/MOL
REMARK 927      BINDING AFFINITY PREDICTED BY RF-SCORE:    0.00 PKD
ROOT
HETATM    1  O   UNL     1      -8.752  12.910  68.590  1.00  0.00    -0.351 OA 
HETATM    2  H   UNL     1      -8.120  13.189  69.242  1.00  0.00     0.000 HD 
HETATM    3  C   UNL     1      -8.507  13.593  67.361  1.00  0.00    -0.201 C  
ENDROOT
BRANCH   3   4
HETATM    4  C   UNL     1      -9.526  13.143  66.311  1.00  0.00    -0.185 C  
HETATM    5  O   UNL     1      -9.200  11.813  65.865  1.00  0.00    -0.223 OA 
HETATM    6  C   UNL     1     -10.431  11.195  65.482  1.00  0.00    -0.256 C  
HETATM    7  O   UNL     1     -10.306   9.784  65.700  1.00  0.00    -0.199 OA 
HETATM    8  H   UNL     1     -12.271  11.275  68.184  1.00  0.00     0.000 HD 
HETATM    9  C   UNL     1     -11.505  11.759  66.423  1.00  0.00    -0.239 C  
HETATM   10  C   UNL     1     -10.957  13.117  66.863  1.00  0.00    -0.276 C  
HETATM   11  O   UNL     1     -11.606  10.926  67.601  1.00  0.00    -0.531 OA 
HETATM   12  H   UNL     1     -11.124   9.374  65.446  1.00  0.00     0.000 HD 
BRANCH   6  13
HETATM   13  C   UNL     1     -10.696  11.458  63.992  1.00  0.00    -0.387 C  
HETATM   14  H   UNL     1     -11.638  12.826  62.955  1.00  0.00     0.000 HD 
HETATM   15  O   UNL     1     -11.474  12.663  63.876  1.00  0.00    -0.375 OA 
ENDBRANCH   6  13
BRANCH  10  16
HETATM   16  O   UNL     1     -11.761  14.182  66.333  1.00  0.00    -0.357 OA 
BRANCH  16  17
HETATM   17  C   UNL     1     -11.722  15.372  67.137  1.00  0.00     0.040 C  
HETATM   18  O   UNL     1     -10.763  16.296  66.610  1.00  0.00    -0.291 OA 
HETATM   19  C   UNL     1     -10.724  17.528  67.352  1.00  0.00    -0.250 C  
HETATM   20  C   UNL     1     -10.295  17.265  68.801  1.00  0.00    -0.358 C  
HETATM   21  H   UNL     1     -12.301  13.942  70.032  1.00  0.00     0.000 HD 
HETATM   22  O   UNL     1     -12.482  14.168  69.127  1.00  0.00    -0.231 OA 
HETATM   23  C   UNL     1     -11.305  16.303  69.437  1.00  0.00    -0.284 C  
HETATM   24  O   UNL     1      -9.005  16.643  68.899  1.00  0.00    -0.250 OA 
HETATM   25  H   UNL     1     -11.542  15.425  71.177  1.00  0.00     0.000 HD 
HETATM   26  O   UNL     1     -10.916  16.021  70.784  1.00  0.00    -0.314 OA 
HETATM   27  H   UNL     1      -8.739  16.479  69.797  1.00  0.00     0.000 HD 
HETATM   28  C   UNL     1     -11.428  15.004  68.611  1.00  0.00    -0.311 C  
BRANCH  19  29
HETATM   29  C   UNL     1      -9.787  18.495  66.623  1.00  0.00    -0.354 C  
HETATM   30  O   UNL     1     -10.535  19.250  65.668  1.00  0.00    -0.502 OA 
HETATM   31  H   UNL     1      -9.954  19.849  65.216  1.00  0.00     0.000 HD 
ENDBRANCH  19  29
ENDBRANCH  16  17
ENDBRANCH  10  16
ENDBRANCH   3   4
TORSDOF 5
ENDMDL
MODEL      171
REMARK 921   NORMALIZED FREE ENERGY PREDICTED BY IDOCK:   -3.74 KCAL/MOL
REMARK 922        TOTAL FREE ENERGY PREDICTED BY IDOCK:   -6.42 KCAL/MOL
REMARK 923 INTER-LIGAND FREE ENERGY PREDICTED BY IDOCK:   -5.65 KCAL/MOL
REMARK 924 INTRA-LIGAND FREE ENERGY PREDICTED BY IDOCK:   -0.76 KCAL/MOL
REMARK 927      BINDING AFFINITY PREDICTED BY RF-SCORE:    0.00 PKD
ROOT
HETATM    1  O   UNL     1      -9.125   4.566  69.478  1.00  0.00    -0.095 OA 
HETATM    2  H   UNL     1      -9.015   3.910  70.157  1.00  0.00     0.000 HD 
HETATM    3  C   UNL     1      -8.164   5.606  69.656  1.00  0.00    -0.107 C  
ENDROOT
BRANCH   3   4
HETATM    4  C   UNL     1      -8.342   6.661  68.561  1.00  0.00    -0.122 C  
HETATM    5  O   UNL     1      -8.303   6.024  67.270  1.00  0.00    -0.106 OA 
HETATM    6  C   UNL     1      -9.112   6.816  66.396  1.00  0.00    -0.152 C  
HETATM    7  O   UNL     1      -9.664   5.950  65.397  1.00  0.00    -0.325 OA 
HETATM    8  H   UNL     1     -12.071   6.816  67.787  1.00  0.00     0.000 HD 
HETATM    9  C   UNL     1     -10.248   7.381  67.260  1.00  0.00    -0.260 C  
HETATM   10  C   UNL     1      -9.678   7.404  68.679  1.00  0.00    -0.152 C  
HETATM   11  O   UNL     1     -11.367   6.466  67.253  1.00  0.00    -0.295 OA 
HETATM   12  H   UNL     1     -10.203   6.476  64.817  1.00  0.00     0.000 HD 
BRANCH   6  13
HETATM   13  C   UNL     1      -8.242   7.884  65.718  1.00  0.00    -0.130 C  
HETATM   14  H   UNL     1      -8.549   9.650  64.930  1.00  0.00     0.000 HD 
HETATM   15  O   UNL     1      -9.087   8.990  65.350  1.00  0.00    -0.209 OA 
ENDBRANCH   6  13
BRANCH  10  16
HETATM   16  O   UNL     1      -9.508   8.755  69.135  1.00  0.00    -0.155 OA 
BRANCH  16  17
HETATM   17  C   UNL     1     -10.722   9.521  69.094  1.00  0.00    -0.210 C  
HETATM   18  O   UNL     1     -10.563  10.655  68.234  1.00  0.00    -0.171 OA 
HETATM   19  C   UNL     1     -11.771  11.429  68.118  1.00  0.00    -0.284 C  
HETATM   20  C   UNL     1     -12.175  11.997  69.485  1.00  0.00    -0.117 C  
HETATM   21  H   UNL     1     -11.652   9.005  72.197  1.00  0.00     0.000 HD 
HETATM   22  O   UNL     1     -11.397   8.754  71.317  1.00  0.00    -0.258 OA 
HETATM   23  C   UNL     1     -12.393  10.825  70.449  1.00  0.00    -0.353 C  
HETATM   24  O   UNL     1     -11.162  12.833  70.065  1.00  0.00    -0.482 OA 
HETATM   25  H   UNL     1     -12.883  10.601  72.337  1.00  0.00     0.000 HD 
HETATM   26  O   UNL     1     -12.748  11.327  71.740  1.00  0.00    -0.364 OA 
HETATM   27  H   UNL     1     -11.411  13.185  70.912  1.00  0.00     0.000 HD 
HETATM   28  C   UNL     1     -11.137   9.931  70.527  1.00  0.00    -0.332 C  
BRANCH  19  29
HETATM   29  C   UNL     1     -11.542  12.520  67.068  1.00  0.00    -0.368 C  
HETATM   30  O   UNL     1     -12.278  12.201  65.887  1.00  0.00    -0.604 OA 
HETATM   31  H   UNL     1     -12.135  12.878  65.235  1.00  0.00     0.000 HD 
ENDBRANCH  19  29
ENDBRANCH  16  17
ENDBRANCH  10  16
ENDBRANCH   3   4
TORSDOF 5
ENDMDL
MODEL      172
REMARK 921   NORMALIZED FREE ENERGY PREDICTED BY IDOCK:   -3.71 KCAL/MOL
REMARK 922        TOTAL FREE ENERGY PREDICTED BY IDOCK:   -6.38 KCAL/MOL
REMARK 923 INTER-LIGAND FREE ENERGY PREDICTED BY IDOCK:   -5.60 KCAL/MOL
REMARK 924 INTRA-LIGAND FREE ENERGY PREDICTED BY IDOCK:   -0.78 KCAL/MOL
REMARK 927      BINDING AFFINITY PREDICTED BY RF-SCORE:    0.00 PKD
ROOT
HETATM    1  O   UNL     1      -6.915   9.225  70.686  1.00  0.00    -0.077 OA 
HETATM    2  H   UNL     1      -6.488   8.505  71.135  1.00  0.00     0.000 HD 
HETATM    3  C   UNL     1      -7.631   8.728  69.557  1.00  0.00    -0.080 C  
ENDROOT
BRANCH   3   4
HETATM    4  C   UNL     1      -8.320   9.888  68.834  1.00  0.00    -0.124 C  
HETATM    5  O   UNL     1      -7.324  10.732  68.224  1.00  0.00    -0.081 OA 
HETATM    6  C   UNL     1      -7.933  11.320  67.071  1.00  0.00    -0.150 C  
HETATM    7  O   UNL     1      -6.905  11.565  66.104  1.00  0.00    -0.372 OA 
HETATM    8  H   UNL     1      -8.828   8.776  65.223  1.00  0.00     0.000 HD 
HETATM    9  C   UNL     1      -8.908  10.270  66.520  1.00  0.00    -0.137 C  
HETATM   10  C   UNL     1      -9.267   9.405  67.729  1.00  0.00    -0.128 C  
HETATM   11  O   UNL     1      -8.225   9.426  65.565  1.00  0.00    -0.119 OA 
HETATM   12  H   UNL     1      -7.310  11.955  65.338  1.00  0.00     0.000 HD 
BRANCH   6  13
HETATM   13  C   UNL     1      -8.591  12.651  67.462  1.00  0.00    -0.185 C  
HETATM   14  H   UNL     1      -8.012  14.518  67.589  1.00  0.00     0.000 HD 
HETATM   15  O   UNL     1      -7.605  13.694  67.347  1.00  0.00    -0.167 OA 
ENDBRANCH   6  13
BRANCH  10  16
HETATM   16  O   UNL     1     -10.647   9.581  68.084  1.00  0.00    -0.213 OA 
BRANCH  16  17
HETATM   17  C   UNL     1     -10.883   9.484  69.497  1.00  0.00    -0.222 C  
HETATM   18  O   UNL     1     -11.299   8.157  69.841  1.00  0.00    -0.108 OA 
HETATM   19  C   UNL     1     -11.498   7.994  71.256  1.00  0.00    -0.269 C  
HETATM   20  C   UNL     1     -12.619   8.920  71.748  1.00  0.00    -0.361 C  
HETATM   21  H   UNL     1     -12.035  12.523  69.941  1.00  0.00     0.000 HD 
HETATM   22  O   UNL     1     -11.401  11.869  69.673  1.00  0.00    -0.252 OA 
HETATM   23  C   UNL     1     -12.218  10.368  71.438  1.00  0.00    -0.362 C  
HETATM   24  O   UNL     1     -13.871   8.682  71.089  1.00  0.00    -0.577 OA 
HETATM   25  H   UNL     1     -13.009  12.150  71.672  1.00  0.00     0.000 HD 
HETATM   26  O   UNL     1     -13.257  11.253  71.865  1.00  0.00    -0.482 OA 
HETATM   27  H   UNL     1     -14.565   9.256  71.392  1.00  0.00     0.000 HD 
HETATM   28  C   UNL     1     -11.917  10.549  69.935  1.00  0.00    -0.264 C  
BRANCH  19  29
HETATM   29  C   UNL     1     -11.789   6.516  71.531  1.00  0.00    -0.333 C  
HETATM   30  O   UNL     1     -12.921   6.410  72.397  1.00  0.00    -0.537 OA 
HETATM   31  H   UNL     1     -13.101   5.494  72.568  1.00  0.00     0.000 HD 
ENDBRANCH  19  29
ENDBRANCH  16  17
ENDBRANCH  10  16
ENDBRANCH   3   4
TORSDOF 5
ENDMDL
MODEL      173
REMARK 921   NORMALIZED FREE ENERGY PREDICTED BY IDOCK:   -3.70 KCAL/MOL
REMARK 922        TOTAL FREE ENERGY PREDICTED BY IDOCK:   -6.36 KCAL/MOL
REMARK 923 INTER-LIGAND FREE ENERGY PREDICTED BY IDOCK:   -4.74 KCAL/MOL
REMARK 924 INTRA-LIGAND FREE ENERGY PREDICTED BY IDOCK:   -1.62 KCAL/MOL
REMARK 927      BINDING AFFINITY PREDICTED BY RF-SCORE:    0.00 PKD
ROOT
HETATM    1  O   UNL     1      -8.401   8.174  69.509  1.00  0.00    -0.119 OA 
HETATM    2  H   UNL     1      -8.079   9.056  69.652  1.00  0.00     0.000 HD 
HETATM    3  C   UNL     1      -8.445   7.901  68.109  1.00  0.00    -0.124 C  
ENDROOT
BRANCH   3   4
HETATM    4  C   UNL     1      -8.963   6.479  67.878  1.00  0.00    -0.115 C  
HETATM    5  O   UNL     1      -7.940   5.693  67.239  1.00  0.00    -0.101 OA 
HETATM    6  C   UNL     1      -8.143   4.339  67.653  1.00  0.00    -0.095 C  
HETATM    7  O   UNL     1      -6.871   3.680  67.654  1.00  0.00    -0.048 OA 
HETATM    8  H   UNL     1      -7.908   4.427  70.913  1.00  0.00     0.000 HD 
HETATM    9  C   UNL     1      -8.680   4.406  69.089  1.00  0.00    -0.085 C  
HETATM   10  C   UNL     1      -9.345   5.779  69.188  1.00  0.00    -0.123 C  
HETATM   11  O   UNL     1      -7.576   4.386  70.023  1.00  0.00    -0.049 OA 
HETATM   12  H   UNL     1      -7.005   2.781  67.929  1.00  0.00     0.000 HD 
BRANCH   6  13
HETATM   13  C   UNL     1      -9.079   3.635  66.660  1.00  0.00    -0.162 C  
HETATM   14  H   UNL     1      -9.328   1.797  66.029  1.00  0.00     0.000 HD 
HETATM   15  O   UNL     1      -8.749   2.233  66.644  1.00  0.00    -0.109 OA 
ENDBRANCH   6  13
BRANCH  10  16
HETATM   16  O   UNL     1     -10.767   5.643  69.335  1.00  0.00    -0.297 OA 
BRANCH  16  17
HETATM   17  C   UNL     1     -11.307   6.463  70.383  1.00  0.00    -0.389 C  
HETATM   18  O   UNL     1     -11.236   7.845  70.019  1.00  0.00    -0.214 OA 
HETATM   19  C   UNL     1     -11.814   8.706  71.017  1.00  0.00    -0.265 C  
HETATM   20  C   UNL     1     -11.043   8.585  72.338  1.00  0.00    -0.327 C  
HETATM   21  H   UNL     1     -10.319   4.619  72.910  1.00  0.00     0.000 HD 
HETATM   22  O   UNL     1     -10.771   4.797  72.094  1.00  0.00    -0.174 OA 
HETATM   23  C   UNL     1     -11.110   7.125  72.802  1.00  0.00    -0.300 C  
HETATM   24  O   UNL     1      -9.653   8.920  72.208  1.00  0.00    -0.295 OA 
HETATM   25  H   UNL     1     -10.419   6.073  74.310  1.00  0.00     0.000 HD 
HETATM   26  O   UNL     1     -10.378   6.977  74.022  1.00  0.00    -0.364 OA 
HETATM   27  H   UNL     1      -9.175   8.845  73.026  1.00  0.00     0.000 HD 
HETATM   28  C   UNL     1     -10.571   6.172  71.714  1.00  0.00    -0.223 C  
BRANCH  19  29
HETATM   29  C   UNL     1     -11.825  10.135  70.467  1.00  0.00    -0.321 C  
HETATM   30  O   UNL     1     -10.491  10.525  70.136  1.00  0.00    -0.438 OA 
HETATM   31  H   UNL     1     -10.497  11.411  69.796  1.00  0.00     0.000 HD 
ENDBRANCH  19  29
ENDBRANCH  16  17
ENDBRANCH  10  16
ENDBRANCH   3   4
TORSDOF 5
ENDMDL
MODEL      174
REMARK 921   NORMALIZED FREE ENERGY PREDICTED BY IDOCK:   -3.68 KCAL/MOL
REMARK 922        TOTAL FREE ENERGY PREDICTED BY IDOCK:   -6.34 KCAL/MOL
REMARK 923 INTER-LIGAND FREE ENERGY PREDICTED BY IDOCK:   -5.30 KCAL/MOL
REMARK 924 INTRA-LIGAND FREE ENERGY PREDICTED BY IDOCK:   -1.04 KCAL/MOL
REMARK 927      BINDING AFFINITY PREDICTED BY RF-SCORE:    0.00 PKD
ROOT
HETATM    1  O   UNL     1     -11.641   6.478  68.167  1.00  0.00    -0.570 OA 
HETATM    2  H   UNL     1     -12.012   5.664  67.844  1.00  0.00     0.000 HD 
HETATM    3  C   UNL     1     -10.799   7.051  67.168  1.00  0.00    -0.357 C  
ENDROOT
BRANCH   3   4
HETATM    4  C   UNL     1     -10.202   8.361  67.688  1.00  0.00    -0.236 C  
HETATM    5  O   UNL     1     -10.974   9.470  67.191  1.00  0.00    -0.168 OA 
HETATM    6  C   UNL     1     -10.869  10.513  68.164  1.00  0.00    -0.253 C  
HETATM    7  O   UNL     1     -12.070  11.293  68.109  1.00  0.00    -0.635 OA 
HETATM    8  H   UNL     1     -12.054   9.199  70.913  1.00  0.00     0.000 HD 
HETATM    9  C   UNL     1     -10.780   9.817  69.529  1.00  0.00    -0.233 C  
HETATM   10  C   UNL     1     -10.205   8.434  69.220  1.00  0.00    -0.208 C  
HETATM   11  O   UNL     1     -12.109   9.629  70.068  1.00  0.00    -0.001 OA 
HETATM   12  H   UNL     1     -12.001  11.986  68.756  1.00  0.00     0.000 HD 
BRANCH   6  13
HETATM   13  C   UNL     1      -9.666  11.407  67.830  1.00  0.00    -0.175 C  
HETATM   14  H   UNL     1      -8.841  12.092  66.191  1.00  0.00     0.000 HD 
HETATM   15  O   UNL     1      -9.585  11.539  66.398  1.00  0.00    -0.198 OA 
ENDBRANCH   6  13
BRANCH  10  16
HETATM   16  O   UNL     1      -8.887   8.299  69.772  1.00  0.00    -0.139 OA 
BRANCH  16  17
HETATM   17  C   UNL     1      -8.807   7.306  70.806  1.00  0.00    -0.150 C  
HETATM   18  O   UNL     1     -10.120   6.904  71.211  1.00  0.00    -0.191 OA 
HETATM   19  C   UNL     1     -10.093   5.870  72.212  1.00  0.00    -0.182 C  
HETATM   20  C   UNL     1      -9.404   6.379  73.485  1.00  0.00    -0.134 C  
HETATM   21  H   UNL     1      -6.114   8.458  72.285  1.00  0.00     0.000 HD 
HETATM   22  O   UNL     1      -6.627   8.127  71.558  1.00  0.00    -0.042 OA 
HETATM   23  C   UNL     1      -7.973   6.797  73.125  1.00  0.00    -0.100 C  
HETATM   24  O   UNL     1     -10.047   7.531  74.049  1.00  0.00    -0.395 OA 
HETATM   25  H   UNL     1      -6.427   7.557  74.067  1.00  0.00     0.000 HD 
HETATM   26  O   UNL     1      -7.313   7.298  74.291  1.00  0.00    -0.106 OA 
HETATM   27  H   UNL     1      -9.621   7.846  74.837  1.00  0.00     0.000 HD 
HETATM   28  C   UNL     1      -7.972   7.846  71.993  1.00  0.00    -0.113 C  
BRANCH  19  29
HETATM   29  C   UNL     1     -11.531   5.409  72.462  1.00  0.00    -0.195 C  
HETATM   30  O   UNL     1     -12.396   6.546  72.478  1.00  0.00    -0.516 OA 
HETATM   31  H   UNL     1     -13.289   6.260  72.633  1.00  0.00     0.000 HD 
ENDBRANCH  19  29
ENDBRANCH  16  17
ENDBRANCH  10  16
ENDBRANCH   3   4
TORSDOF 5
ENDMDL
MODEL      175
REMARK 921   NORMALIZED FREE ENERGY PREDICTED BY IDOCK:   -3.67 KCAL/MOL
REMARK 922        TOTAL FREE ENERGY PREDICTED BY IDOCK:   -6.32 KCAL/MOL
REMARK 923 INTER-LIGAND FREE ENERGY PREDICTED BY IDOCK:   -5.74 KCAL/MOL
REMARK 924 INTRA-LIGAND FREE ENERGY PREDICTED BY IDOCK:   -0.59 KCAL/MOL
REMARK 927      BINDING AFFINITY PREDICTED BY RF-SCORE:    0.00 PKD
ROOT
HETATM    1  O   UNL     1     -11.692   9.800  69.918  1.00  0.00    -0.426 OA 
HETATM    2  H   UNL     1     -12.452   9.558  70.435  1.00  0.00     0.000 HD 
HETATM    3  C   UNL     1     -11.966  11.001  69.197  1.00  0.00    -0.324 C  
ENDROOT
BRANCH   3   4
HETATM    4  C   UNL     1     -10.743  11.391  68.364  1.00  0.00    -0.203 C  
HETATM    5  O   UNL     1     -10.593  10.466  67.270  1.00  0.00    -0.235 OA 
HETATM    6  C   UNL     1      -9.966  11.187  66.206  1.00  0.00    -0.219 C  
HETATM    7  O   UNL     1     -10.401  10.615  64.966  1.00  0.00    -0.310 OA 
HETATM    8  H   UNL     1     -12.000  13.668  65.578  1.00  0.00     0.000 HD 
HETATM    9  C   UNL     1     -10.479  12.630  66.305  1.00  0.00    -0.251 C  
HETATM   10  C   UNL     1     -10.865  12.801  67.775  1.00  0.00    -0.225 C  
HETATM   11  O   UNL     1     -11.682  12.774  65.517  1.00  0.00    -0.352 OA 
HETATM   12  H   UNL     1      -9.984  11.094  64.259  1.00  0.00     0.000 HD 
BRANCH   6  13
HETATM   13  C   UNL     1      -8.440  11.048  66.322  1.00  0.00    -0.165 C  
HETATM   14  H   UNL     1      -6.999  10.405  65.163  1.00  0.00     0.000 HD 
HETATM   15  O   UNL     1      -7.942  10.491  65.091  1.00  0.00    -0.149 OA 
ENDBRANCH   6  13
BRANCH  10  16
HETATM   16  O   UNL     1      -9.990  13.736  68.423  1.00  0.00    -0.224 OA 
BRANCH  16  17
HETATM   17  C   UNL     1      -9.736  14.911  67.636  1.00  0.00    -0.212 C  
HETATM   18  O   UNL     1      -8.334  15.198  67.612  1.00  0.00    -0.144 OA 
HETATM   19  C   UNL     1      -8.022  16.339  66.791  1.00  0.00    -0.271 C  
HETATM   20  C   UNL     1      -8.694  17.599  67.352  1.00  0.00    -0.234 C  
HETATM   21  H   UNL     1     -12.480  16.535  68.410  1.00  0.00     0.000 HD 
HETATM   22  O   UNL     1     -11.971  15.805  68.076  1.00  0.00    -0.110 OA 
HETATM   23  C   UNL     1     -10.210  17.368  67.375  1.00  0.00    -0.326 C  
HETATM   24  O   UNL     1      -8.296  17.894  68.699  1.00  0.00    -0.299 OA 
HETATM   25  H   UNL     1     -11.800  18.377  67.930  1.00  0.00     0.000 HD 
HETATM   26  O   UNL     1     -10.861  18.520  67.916  1.00  0.00    -0.350 OA 
HETATM   27  H   UNL     1      -8.711  18.674  69.047  1.00  0.00     0.000 HD 
HETATM   28  C   UNL     1     -10.564  16.100  68.180  1.00  0.00    -0.290 C  
BRANCH  19  29
HETATM   29  C   UNL     1      -6.498  16.467  66.710  1.00  0.00    -0.088 C  
HETATM   30  O   UNL     1      -5.895  15.305  67.280  1.00  0.00    -0.332 OA 
HETATM   31  H   UNL     1      -4.950  15.385  67.230  1.00  0.00     0.000 HD 
ENDBRANCH  19  29
ENDBRANCH  16  17
ENDBRANCH  10  16
ENDBRANCH   3   4
TORSDOF 5
ENDMDL
MODEL      176
REMARK 921   NORMALIZED FREE ENERGY PREDICTED BY IDOCK:   -3.65 KCAL/MOL
REMARK 922        TOTAL FREE ENERGY PREDICTED BY IDOCK:   -6.30 KCAL/MOL
REMARK 923 INTER-LIGAND FREE ENERGY PREDICTED BY IDOCK:   -5.41 KCAL/MOL
REMARK 924 INTRA-LIGAND FREE ENERGY PREDICTED BY IDOCK:   -0.89 KCAL/MOL
REMARK 927      BINDING AFFINITY PREDICTED BY RF-SCORE:    0.00 PKD
ROOT
HETATM    1  O   UNL     1      -9.799   9.565  65.152  1.00  0.00    -0.435 OA 
HETATM    2  H   UNL     1     -10.208   8.914  64.594  1.00  0.00     0.000 HD 
HETATM    3  C   UNL     1     -10.633  10.721  65.229  1.00  0.00    -0.160 C  
ENDROOT
BRANCH   3   4
HETATM    4  C   UNL     1      -9.973  11.771  66.127  1.00  0.00    -0.226 C  
HETATM    5  O   UNL     1     -10.055  13.063  65.495  1.00  0.00    -0.283 OA 
HETATM    6  C   UNL     1     -10.095  14.032  66.546  1.00  0.00    -0.285 C  
HETATM    7  O   UNL     1     -10.837  15.164  66.077  1.00  0.00    -0.322 OA 
HETATM    8  H   UNL     1     -12.739  13.242  68.299  1.00  0.00     0.000 HD 
HETATM    9  C   UNL     1     -10.854  13.375  67.707  1.00  0.00    -0.252 C  
HETATM   10  C   UNL     1     -10.653  11.873  67.498  1.00  0.00    -0.219 C  
HETATM   11  O   UNL     1     -12.269  13.648  67.580  1.00  0.00    -0.326 OA 
HETATM   12  H   UNL     1     -10.864  15.808  66.775  1.00  0.00     0.000 HD 
BRANCH   6  13
HETATM   13  C   UNL     1      -8.665  14.471  66.893  1.00  0.00    -0.211 C  
HETATM   14  H   UNL     1      -7.540  16.024  66.498  1.00  0.00     0.000 HD 
HETATM   15  O   UNL     1      -8.425  15.753  66.283  1.00  0.00    -0.298 OA 
ENDBRANCH   6  13
BRANCH  10  16
HETATM   16  O   UNL     1      -9.842  11.321  68.547  1.00  0.00    -0.186 OA 
BRANCH  16  17
HETATM   17  C   UNL     1     -10.062   9.916  68.750  1.00  0.00    -0.174 C  
HETATM   18  O   UNL     1     -10.812   9.700  69.949  1.00  0.00    -0.231 OA 
HETATM   19  C   UNL     1     -11.104   8.308  70.170  1.00  0.00    -0.189 C  
HETATM   20  C   UNL     1      -9.803   7.512  70.345  1.00  0.00    -0.183 C  
HETATM   21  H   UNL     1      -7.214   8.862  67.506  1.00  0.00     0.000 HD 
HETATM   22  O   UNL     1      -8.046   9.322  67.496  1.00  0.00    -0.106 OA 
HETATM   23  C   UNL     1      -8.963   7.676  69.072  1.00  0.00    -0.137 C  
HETATM   24  O   UNL     1      -9.002   7.981  71.439  1.00  0.00    -0.130 OA 
HETATM   25  H   UNL     1      -7.212   7.064  68.428  1.00  0.00     0.000 HD 
HETATM   26  O   UNL     1      -7.732   6.962  69.216  1.00  0.00    -0.101 OA 
HETATM   27  H   UNL     1      -8.196   7.488  71.547  1.00  0.00     0.000 HD 
HETATM   28  C   UNL     1      -8.707   9.167  68.767  1.00  0.00    -0.132 C  
BRANCH  19  29
HETATM   29  C   UNL     1     -12.030   8.200  71.384  1.00  0.00    -0.298 C  
HETATM   30  O   UNL     1     -13.384   8.374  70.963  1.00  0.00    -0.524 OA 
HETATM   31  H   UNL     1     -13.959   8.307  71.716  1.00  0.00     0.000 HD 
ENDBRANCH  19  29
ENDBRANCH  16  17
ENDBRANCH  10  16
ENDBRANCH   3   4
TORSDOF 5
ENDMDL
MODEL      177
REMARK 921   NORMALIZED FREE ENERGY PREDICTED BY IDOCK:   -3.65 KCAL/MOL
REMARK 922        TOTAL FREE ENERGY PREDICTED BY IDOCK:   -6.29 KCAL/MOL
REMARK 923 INTER-LIGAND FREE ENERGY PREDICTED BY IDOCK:   -5.59 KCAL/MOL
REMARK 924 INTRA-LIGAND FREE ENERGY PREDICTED BY IDOCK:   -0.70 KCAL/MOL
REMARK 927      BINDING AFFINITY PREDICTED BY RF-SCORE:    0.00 PKD
ROOT
HETATM    1  O   UNL     1      -9.700  14.454  69.494  1.00  0.00    -0.407 OA 
HETATM    2  H   UNL     1      -9.560  14.208  70.402  1.00  0.00     0.000 HD 
HETATM    3  C   UNL     1     -10.694  15.475  69.422  1.00  0.00    -0.251 C  
ENDROOT
BRANCH   3   4
HETATM    4  C   UNL     1     -10.919  15.870  67.960  1.00  0.00    -0.336 C  
HETATM    5  O   UNL     1     -10.127  17.033  67.650  1.00  0.00    -0.279 OA 
HETATM    6  C   UNL     1      -9.814  16.955  66.257  1.00  0.00    -0.302 C  
HETATM    7  O   UNL     1      -8.555  17.609  66.049  1.00  0.00    -0.503 OA 
HETATM    8  H   UNL     1      -8.205  14.128  65.928  1.00  0.00     0.000 HD 
HETATM    9  C   UNL     1      -9.668  15.463  65.932  1.00  0.00    -0.357 C  
HETATM   10  C   UNL     1     -10.518  14.754  66.988  1.00  0.00    -0.270 C  
HETATM   11  O   UNL     1      -8.295  15.053  66.129  1.00  0.00     0.168 OA 
HETATM   12  H   UNL     1      -8.346  17.558  65.124  1.00  0.00     0.000 HD 
BRANCH   6  13
HETATM   13  C   UNL     1     -10.900  17.677  65.445  1.00  0.00     0.104 C  
HETATM   14  H   UNL     1     -11.875  17.324  63.784  1.00  0.00     0.000 HD 
HETATM   15  O   UNL     1     -11.204  16.878  64.286  1.00  0.00    -1.204 OA 
ENDBRANCH   6  13
BRANCH  10  16
HETATM   16  O   UNL     1     -11.660  14.129  66.381  1.00  0.00    -0.341 OA 
BRANCH  16  17
HETATM   17  C   UNL     1     -11.432  12.754  66.033  1.00  0.00    -0.350 C  
HETATM   18  O   UNL     1     -10.095  12.371  66.374  1.00  0.00    -0.227 OA 
HETATM   19  C   UNL     1      -9.833  10.984  66.093  1.00  0.00    -0.225 C  
HETATM   20  C   UNL     1      -9.972  10.710  64.589  1.00  0.00    -0.337 C  
HETATM   21  H   UNL     1     -13.309  12.685  63.344  1.00  0.00     0.000 HD 
HETATM   22  O   UNL     1     -13.122  12.821  64.265  1.00  0.00    -0.699 OA 
HETATM   23  C   UNL     1     -11.401  11.071  64.164  1.00  0.00     0.374 C  
HETATM   24  O   UNL     1      -9.084  11.505  63.790  1.00  0.00    -0.433 OA 
HETATM   25  H   UNL     1     -12.437  11.070  62.496  1.00  0.00     0.000 HD 
HETATM   26  O   UNL     1     -11.553  10.847  62.760  1.00  0.00     0.900 OA 
HETATM   27  H   UNL     1      -9.170  11.336  62.859  1.00  0.00     0.000 HD 
HETATM   28  C   UNL     1     -11.736  12.532  64.532  1.00  0.00    -0.362 C  
BRANCH  19  29
HETATM   29  C   UNL     1      -8.440  10.642  66.629  1.00  0.00    -0.137 C  
HETATM   30  O   UNL     1      -8.368   9.241  66.897  1.00  0.00    -0.121 OA 
HETATM   31  H   UNL     1      -7.504   9.028  67.230  1.00  0.00     0.000 HD 
ENDBRANCH  19  29
ENDBRANCH  16  17
ENDBRANCH  10  16
ENDBRANCH   3   4
TORSDOF 5
ENDMDL
MODEL      178
REMARK 921   NORMALIZED FREE ENERGY PREDICTED BY IDOCK:   -3.64 KCAL/MOL
REMARK 922        TOTAL FREE ENERGY PREDICTED BY IDOCK:   -6.28 KCAL/MOL
REMARK 923 INTER-LIGAND FREE ENERGY PREDICTED BY IDOCK:   -4.94 KCAL/MOL
REMARK 924 INTRA-LIGAND FREE ENERGY PREDICTED BY IDOCK:   -1.34 KCAL/MOL
REMARK 927      BINDING AFFINITY PREDICTED BY RF-SCORE:    0.00 PKD
ROOT
HETATM    1  O   UNL     1     -11.193   6.930  67.307  1.00  0.00    -0.581 OA 
HETATM    2  H   UNL     1     -11.271   6.372  66.541  1.00  0.00     0.000 HD 
HETATM    3  C   UNL     1     -11.030   6.122  68.472  1.00  0.00    -0.320 C  
ENDROOT
BRANCH   3   4
HETATM    4  C   UNL     1     -10.903   7.020  69.705  1.00  0.00    -0.248 C  
HETATM    5  O   UNL     1     -11.831   6.580  70.716  1.00  0.00    -0.373 OA 
HETATM    6  C   UNL     1     -11.252   6.918  71.979  1.00  0.00    -0.257 C  
HETATM    7  O   UNL     1     -11.709   5.963  72.945  1.00  0.00    -0.495 OA 
HETATM    8  H   UNL     1      -8.390   5.339  72.027  1.00  0.00     0.000 HD 
HETATM    9  C   UNL     1      -9.734   6.776  71.807  1.00  0.00    -0.160 C  
HETATM   10  C   UNL     1      -9.495   6.983  70.311  1.00  0.00    -0.165 C  
HETATM   11  O   UNL     1      -9.330   5.426  72.133  1.00  0.00    -0.142 OA 
HETATM   12  H   UNL     1     -11.325   6.187  73.785  1.00  0.00     0.000 HD 
BRANCH   6  13
HETATM   13  C   UNL     1     -11.714   8.322  72.395  1.00  0.00    -0.397 C  
HETATM   14  H   UNL     1     -13.435   9.245  72.548  1.00  0.00     0.000 HD 
HETATM   15  O   UNL     1     -13.149   8.376  72.291  1.00  0.00    -0.327 OA 
ENDBRANCH   6  13
BRANCH  10  16
HETATM   16  O   UNL     1      -8.773   8.201  70.077  1.00  0.00    -0.128 OA 
BRANCH  16  17
HETATM   17  C   UNL     1      -7.908   8.134  68.932  1.00  0.00    -0.112 C  
HETATM   18  O   UNL     1      -8.625   8.498  67.747  1.00  0.00    -0.132 OA 
HETATM   19  C   UNL     1      -7.787   8.497  66.577  1.00  0.00    -0.096 C  
HETATM   20  C   UNL     1      -7.239   7.088  66.315  1.00  0.00    -0.075 C  
HETATM   21  H   UNL     1      -6.095   5.586  69.923  1.00  0.00     0.000 HD 
HETATM   22  O   UNL     1      -6.479   6.452  69.989  1.00  0.00    -0.037 OA 
HETATM   23  C   UNL     1      -6.428   6.650  67.541  1.00  0.00    -0.045 C  
HETATM   24  O   UNL     1      -8.273   6.111  66.126  1.00  0.00    -0.110 OA 
HETATM   25  H   UNL     1      -5.422   5.056  68.093  1.00  0.00     0.000 HD 
HETATM   26  O   UNL     1      -5.924   5.328  67.333  1.00  0.00    -0.024 OA 
HETATM   27  H   UNL     1      -7.934   5.238  65.963  1.00  0.00     0.000 HD 
HETATM   28  C   UNL     1      -7.283   6.722  68.824  1.00  0.00    -0.092 C  
BRANCH  19  29
HETATM   29  C   UNL     1      -8.604   9.042  65.403  1.00  0.00    -0.177 C  
HETATM   30  O   UNL     1      -9.996   8.869  65.675  1.00  0.00    -0.451 OA 
HETATM   31  H   UNL     1     -10.503   9.206  64.946  1.00  0.00     0.000 HD 
ENDBRANCH  19  29
ENDBRANCH  16  17
ENDBRANCH  10  16
ENDBRANCH   3   4
TORSDOF 5
ENDMDL
MODEL      179
REMARK 921   NORMALIZED FREE ENERGY PREDICTED BY IDOCK:   -3.61 KCAL/MOL
REMARK 922        TOTAL FREE ENERGY PREDICTED BY IDOCK:   -6.25 KCAL/MOL
REMARK 923 INTER-LIGAND FREE ENERGY PREDICTED BY IDOCK:   -5.38 KCAL/MOL
REMARK 924 INTRA-LIGAND FREE ENERGY PREDICTED BY IDOCK:   -0.87 KCAL/MOL
REMARK 927      BINDING AFFINITY PREDICTED BY RF-SCORE:    0.00 PKD
ROOT
HETATM    1  O   UNL     1      -9.394  11.076  69.561  1.00  0.00    -0.398 OA 
HETATM    2  H   UNL     1      -9.487  11.142  70.505  1.00  0.00     0.000 HD 
HETATM    3  C   UNL     1      -8.443  10.062  69.243  1.00  0.00    -0.163 C  
ENDROOT
BRANCH   3   4
HETATM    4  C   UNL     1      -8.294   9.956  67.723  1.00  0.00    -0.114 C  
HETATM    5  O   UNL     1      -6.905   9.769  67.389  1.00  0.00    -0.080 OA 
HETATM    6  C   UNL     1      -6.872   9.021  66.171  1.00  0.00    -0.081 C  
HETATM    7  O   UNL     1      -5.669   8.244  66.161  1.00  0.00    -0.038 OA 
HETATM    8  H   UNL     1      -8.455   6.246  66.865  1.00  0.00     0.000 HD 
HETATM    9  C   UNL     1      -8.083   8.078  66.215  1.00  0.00    -0.112 C  
HETATM   10  C   UNL     1      -9.080   8.775  67.141  1.00  0.00    -0.132 C  
HETATM   11  O   UNL     1      -7.706   6.829  66.838  1.00  0.00    -0.099 OA 
HETATM   12  H   UNL     1      -5.647   7.746  65.352  1.00  0.00     0.000 HD 
BRANCH   6  13
HETATM   13  C   UNL     1      -6.864   9.986  64.976  1.00  0.00    -0.132 C  
HETATM   14  H   UNL     1      -5.538  11.143  64.118  1.00  0.00     0.000 HD 
HETATM   15  O   UNL     1      -5.543  10.546  64.856  1.00  0.00    -0.128 OA 
ENDBRANCH   6  13
BRANCH  10  16
HETATM   16  O   UNL     1     -10.238   9.204  66.408  1.00  0.00    -0.281 OA 
BRANCH  16  17
HETATM   17  C   UNL     1     -10.242  10.614  66.134  1.00  0.00    -0.248 C  
HETATM   18  O   UNL     1     -11.065  11.301  67.083  1.00  0.00    -0.279 OA 
HETATM   19  C   UNL     1     -11.061  12.726  66.883  1.00  0.00    -0.270 C  
HETATM   20  C   UNL     1     -11.639  13.073  65.504  1.00  0.00    -0.347 C  
HETATM   21  H   UNL     1     -10.051  10.408  62.866  1.00  0.00     0.000 HD 
HETATM   22  O   UNL     1      -9.772  10.253  63.760  1.00  0.00    -0.302 OA 
HETATM   23  C   UNL     1     -10.778  12.390  64.435  1.00  0.00    -0.339 C  
HETATM   24  O   UNL     1     -12.982  12.599  65.325  1.00  0.00    -0.657 OA 
HETATM   25  H   UNL     1     -10.775  12.254  62.476  1.00  0.00     0.000 HD 
HETATM   26  O   UNL     1     -11.309  12.678  63.138  1.00  0.00    -0.397 OA 
HETATM   27  H   UNL     1     -13.340  12.813  64.471  1.00  0.00     0.000 HD 
HETATM   28  C   UNL     1     -10.698  10.868  64.677  1.00  0.00    -0.184 C  
BRANCH  19  29
HETATM   29  C   UNL     1     -11.841  13.373  68.031  1.00  0.00    -0.357 C  
HETATM   30  O   UNL     1     -10.954  14.175  68.812  1.00  0.00    -0.241 OA 
HETATM   31  H   UNL     1     -11.437  14.576  69.524  1.00  0.00     0.000 HD 
ENDBRANCH  19  29
ENDBRANCH  16  17
ENDBRANCH  10  16
ENDBRANCH   3   4
TORSDOF 5
ENDMDL
MODEL      180
REMARK 921   NORMALIZED FREE ENERGY PREDICTED BY IDOCK:   -3.60 KCAL/MOL
REMARK 922        TOTAL FREE ENERGY PREDICTED BY IDOCK:   -6.23 KCAL/MOL
REMARK 923 INTER-LIGAND FREE ENERGY PREDICTED BY IDOCK:   -5.40 KCAL/MOL
REMARK 924 INTRA-LIGAND FREE ENERGY PREDICTED BY IDOCK:   -0.83 KCAL/MOL
REMARK 927      BINDING AFFINITY PREDICTED BY RF-SCORE:    0.00 PKD
ROOT
HETATM    1  O   UNL     1     -11.198  13.327  68.925  1.00  0.00    -0.253 OA 
HETATM    2  H   UNL     1     -11.321  13.640  69.814  1.00  0.00     0.000 HD 
HETATM    3  C   UNL     1     -11.766  12.025  68.793  1.00  0.00    -0.321 C  
ENDROOT
BRANCH   3   4
HETATM    4  C   UNL     1     -11.567  11.521  67.362  1.00  0.00    -0.228 C  
HETATM    5  O   UNL     1     -11.305  12.638  66.491  1.00  0.00    -0.291 OA 
HETATM    6  C   UNL     1     -10.487  12.147  65.427  1.00  0.00    -0.270 C  
HETATM    7  O   UNL     1      -9.662  13.225  64.968  1.00  0.00    -0.539 OA 
HETATM    8  H   UNL     1      -7.823  10.966  66.909  1.00  0.00     0.000 HD 
HETATM    9  C   UNL     1      -9.598  11.054  66.038  1.00  0.00    -0.215 C  
HETATM   10  C   UNL     1     -10.387  10.547  67.246  1.00  0.00    -0.228 C  
HETATM   11  O   UNL     1      -8.373  11.643  66.531  1.00  0.00    -0.170 OA 
HETATM   12  H   UNL     1      -9.118  12.898  64.260  1.00  0.00     0.000 HD 
BRANCH   6  13
HETATM   13  C   UNL     1     -11.380  11.664  64.274  1.00  0.00    -0.284 C  
HETATM   14  H   UNL     1     -12.091  12.451  62.628  1.00  0.00     0.000 HD 
HETATM   15  O   UNL     1     -11.539  12.749  63.341  1.00  0.00    -0.499 OA 
ENDBRANCH   6  13
BRANCH  10  16
HETATM   16  O   UNL     1     -10.820   9.195  67.036  1.00  0.00    -0.182 OA 
BRANCH  16  17
HETATM   17  C   UNL     1      -9.868   8.220  67.491  1.00  0.00    -0.177 C  
HETATM   18  O   UNL     1      -9.473   7.370  66.409  1.00  0.00    -0.178 OA 
HETATM   19  C   UNL     1      -8.478   6.408  66.803  1.00  0.00    -0.112 C  
HETATM   20  C   UNL     1      -9.040   5.472  67.881  1.00  0.00    -0.107 C  
HETATM   21  H   UNL     1     -11.095   7.810  70.506  1.00  0.00     0.000 HD 
HETATM   22  O   UNL     1     -10.733   8.303  69.779  1.00  0.00    -0.239 OA 
HETATM   23  C   UNL     1      -9.454   6.321  69.089  1.00  0.00    -0.133 C  
HETATM   24  O   UNL     1     -10.208   4.758  67.451  1.00  0.00    -0.154 OA 
HETATM   25  H   UNL     1     -10.261   6.002  70.850  1.00  0.00     0.000 HD 
HETATM   26  O   UNL     1     -10.004   5.476  70.103  1.00  0.00    -0.187 OA 
HETATM   27  H   UNL     1     -10.556   4.179  68.119  1.00  0.00     0.000 HD 
HETATM   28  C   UNL     1     -10.460   7.418  68.675  1.00  0.00    -0.189 C  
BRANCH  19  29
HETATM   29  C   UNL     1      -8.016   5.657  65.551  1.00  0.00    -0.113 C  
HETATM   30  O   UNL     1      -9.159   5.233  64.806  1.00  0.00    -0.330 OA 
HETATM   31  H   UNL     1      -8.872   4.767  64.029  1.00  0.00     0.000 HD 
ENDBRANCH  19  29
ENDBRANCH  16  17
ENDBRANCH  10  16
ENDBRANCH   3   4
TORSDOF 5
ENDMDL
MODEL      181
REMARK 921   NORMALIZED FREE ENERGY PREDICTED BY IDOCK:   -3.59 KCAL/MOL
REMARK 922        TOTAL FREE ENERGY PREDICTED BY IDOCK:   -6.22 KCAL/MOL
REMARK 923 INTER-LIGAND FREE ENERGY PREDICTED BY IDOCK:   -5.00 KCAL/MOL
REMARK 924 INTRA-LIGAND FREE ENERGY PREDICTED BY IDOCK:   -1.22 KCAL/MOL
REMARK 927      BINDING AFFINITY PREDICTED BY RF-SCORE:    0.00 PKD
ROOT
HETATM    1  O   UNL     1     -11.955  11.671  67.714  1.00  0.00    -0.608 OA 
HETATM    2  H   UNL     1     -12.803  12.030  67.946  1.00  0.00     0.000 HD 
HETATM    3  C   UNL     1     -11.476  10.848  68.777  1.00  0.00    -0.308 C  
ENDROOT
BRANCH   3   4
HETATM    4  C   UNL     1     -10.109  10.270  68.405  1.00  0.00    -0.159 C  
HETATM    5  O   UNL     1     -10.259   8.891  68.019  1.00  0.00    -0.193 OA 
HETATM    6  C   UNL     1      -9.219   8.611  67.078  1.00  0.00    -0.151 C  
HETATM    7  O   UNL     1      -9.690   7.592  66.187  1.00  0.00    -0.424 OA 
HETATM    8  H   UNL     1      -9.717  10.733  64.641  1.00  0.00     0.000 HD 
HETATM    9  C   UNL     1      -8.994   9.908  66.290  1.00  0.00    -0.145 C  
HETATM   10  C   UNL     1      -9.460  11.018  67.233  1.00  0.00    -0.164 C  
HETATM   11  O   UNL     1      -9.857   9.929  65.129  1.00  0.00    -0.306 OA 
HETATM   12  H   UNL     1      -8.999   7.407  65.562  1.00  0.00     0.000 HD 
BRANCH   6  13
HETATM   13  C   UNL     1      -7.978   8.100  67.823  1.00  0.00    -0.127 C  
HETATM   14  H   UNL     1      -7.600   6.659  69.095  1.00  0.00     0.000 HD 
HETATM   15  O   UNL     1      -8.368   6.975  68.634  1.00  0.00    -0.120 OA 
ENDBRANCH   6  13
BRANCH  10  16
HETATM   16  O   UNL     1      -8.349  11.824  67.654  1.00  0.00    -0.133 OA 
BRANCH  16  17
HETATM   17  C   UNL     1      -8.735  13.143  68.072  1.00  0.00    -0.190 C  
HETATM   18  O   UNL     1      -9.893  13.574  67.348  1.00  0.00    -0.221 OA 
HETATM   19  C   UNL     1     -10.351  14.872  67.769  1.00  0.00    -0.244 C  
HETATM   20  C   UNL     1      -9.274  15.931  67.498  1.00  0.00    -0.207 C  
HETATM   21  H   UNL     1      -5.719  14.304  68.638  1.00  0.00     0.000 HD 
HETATM   22  O   UNL     1      -6.449  13.705  68.741  1.00  0.00    -0.085 OA 
HETATM   23  C   UNL     1      -8.011  15.544  68.276  1.00  0.00    -0.132 C  
HETATM   24  O   UNL     1      -8.904  16.014  66.114  1.00  0.00    -0.320 OA 
HETATM   25  H   UNL     1      -6.198  16.263  68.506  1.00  0.00     0.000 HD 
HETATM   26  O   UNL     1      -6.980  16.503  68.024  1.00  0.00    -0.136 OA 
HETATM   27  H   UNL     1      -8.237  16.669  65.946  1.00  0.00     0.000 HD 
HETATM   28  C   UNL     1      -7.546  14.119  67.904  1.00  0.00    -0.158 C  
BRANCH  19  29
HETATM   29  C   UNL     1     -11.668  15.171  67.048  1.00  0.00    -0.110 C  
HETATM   30  O   UNL     1     -11.671  14.518  65.778  1.00  0.00    -0.358 OA 
HETATM   31  H   UNL     1     -12.488  14.703  65.331  1.00  0.00     0.000 HD 
ENDBRANCH  19  29
ENDBRANCH  16  17
ENDBRANCH  10  16
ENDBRANCH   3   4
TORSDOF 5
ENDMDL
MODEL      182
REMARK 921   NORMALIZED FREE ENERGY PREDICTED BY IDOCK:   -3.54 KCAL/MOL
REMARK 922        TOTAL FREE ENERGY PREDICTED BY IDOCK:   -6.16 KCAL/MOL
REMARK 923 INTER-LIGAND FREE ENERGY PREDICTED BY IDOCK:   -5.32 KCAL/MOL
REMARK 924 INTRA-LIGAND FREE ENERGY PREDICTED BY IDOCK:   -0.84 KCAL/MOL
REMARK 927      BINDING AFFINITY PREDICTED BY RF-SCORE:    0.00 PKD
ROOT
HETATM    1  O   UNL     1      -8.182   9.050  71.630  1.00  0.00    -0.330 OA 
HETATM    2  H   UNL     1      -8.114   9.748  72.272  1.00  0.00     0.000 HD 
HETATM    3  C   UNL     1      -9.050   9.455  70.572  1.00  0.00    -0.256 C  
ENDROOT
BRANCH   3   4
HETATM    4  C   UNL     1      -9.160   8.332  69.539  1.00  0.00    -0.154 C  
HETATM    5  O   UNL     1      -8.550   7.136  70.063  1.00  0.00    -0.138 OA 
HETATM    6  C   UNL     1      -9.233   6.031  69.466  1.00  0.00    -0.136 C  
HETATM    7  O   UNL     1      -9.190   4.934  70.387  1.00  0.00    -0.122 OA 
HETATM    8  H   UNL     1     -12.359   6.420  70.341  1.00  0.00     0.000 HD 
HETATM    9  C   UNL     1     -10.689   6.477  69.278  1.00  0.00    -0.280 C  
HETATM   10  C   UNL     1     -10.616   8.002  69.189  1.00  0.00    -0.169 C  
HETATM   11  O   UNL     1     -11.457   6.144  70.457  1.00  0.00    -0.342 OA 
HETATM   12  H   UNL     1      -9.644   4.199  69.990  1.00  0.00     0.000 HD 
BRANCH   6  13
HETATM   13  C   UNL     1      -8.521   5.631  68.165  1.00  0.00    -0.098 C  
HETATM   14  H   UNL     1      -9.082   5.066  66.376  1.00  0.00     0.000 HD 
HETATM   15  O   UNL     1      -9.522   5.314  67.180  1.00  0.00    -0.118 OA 
ENDBRANCH   6  13
BRANCH  10  16
HETATM   16  O   UNL     1     -10.972   8.450  67.872  1.00  0.00    -0.031 OA 
BRANCH  16  17
HETATM   17  C   UNL     1     -10.539   9.791  67.596  1.00  0.00    -0.276 C  
HETATM   18  O   UNL     1     -11.547  10.729  67.991  1.00  0.00    -0.470 OA 
HETATM   19  C   UNL     1     -11.139  12.093  67.782  1.00  0.00    -0.250 C  
HETATM   20  C   UNL     1     -10.891  12.353  66.290  1.00  0.00    -0.266 C  
HETATM   21  H   UNL     1      -8.848   9.133  64.863  1.00  0.00     0.000 HD 
HETATM   22  O   UNL     1      -9.075   9.048  65.782  1.00  0.00    -0.190 OA 
HETATM   23  C   UNL     1      -9.792  11.398  65.810  1.00  0.00    -0.232 C  
HETATM   24  O   UNL     1     -12.048  12.103  65.479  1.00  0.00    -0.517 OA 
HETATM   25  H   UNL     1      -8.876  11.011  64.117  1.00  0.00     0.000 HD 
HETATM   26  O   UNL     1      -9.557  11.603  64.414  1.00  0.00    -0.202 OA 
HETATM   27  H   UNL     1     -11.895  12.264  64.555  1.00  0.00     0.000 HD 
HETATM   28  C   UNL     1     -10.170   9.929  66.099  1.00  0.00    -0.207 C  
BRANCH  19  29
HETATM   29  C   UNL     1     -12.214  13.009  68.372  1.00  0.00     0.010 C  
HETATM   30  O   UNL     1     -12.283  14.212  67.605  1.00  0.00    -0.550 OA 
HETATM   31  H   UNL     1     -12.950  14.781  67.971  1.00  0.00     0.000 HD 
ENDBRANCH  19  29
ENDBRANCH  16  17
ENDBRANCH  10  16
ENDBRANCH   3   4
TORSDOF 5
ENDMDL
MODEL      183
REMARK 921   NORMALIZED FREE ENERGY PREDICTED BY IDOCK:   -3.54 KCAL/MOL
REMARK 922        TOTAL FREE ENERGY PREDICTED BY IDOCK:   -6.16 KCAL/MOL
REMARK 923 INTER-LIGAND FREE ENERGY PREDICTED BY IDOCK:   -5.29 KCAL/MOL
REMARK 924 INTRA-LIGAND FREE ENERGY PREDICTED BY IDOCK:   -0.87 KCAL/MOL
REMARK 927      BINDING AFFINITY PREDICTED BY RF-SCORE:    0.00 PKD
ROOT
HETATM    1  O   UNL     1      -9.860  11.667  62.935  1.00  0.00    -0.548 OA 
HETATM    2  H   UNL     1     -10.179  12.117  62.161  1.00  0.00     0.000 HD 
HETATM    3  C   UNL     1     -10.937  11.468  63.850  1.00  0.00    -0.401 C  
ENDROOT
BRANCH   3   4
HETATM    4  C   UNL     1     -10.423  10.744  65.098  1.00  0.00    -0.229 C  
HETATM    5  O   UNL     1      -9.847   9.480  64.716  1.00  0.00    -0.092 OA 
HETATM    6  C   UNL     1      -8.831   9.185  65.678  1.00  0.00    -0.185 C  
HETATM    7  O   UNL     1      -7.822   8.400  65.030  1.00  0.00    -0.103 OA 
HETATM    8  H   UNL     1      -6.754  11.702  65.484  1.00  0.00     0.000 HD 
HETATM    9  C   UNL     1      -8.231  10.534  66.096  1.00  0.00    -0.151 C  
HETATM   10  C   UNL     1      -9.346  11.548  65.836  1.00  0.00    -0.226 C  
HETATM   11  O   UNL     1      -7.126  10.866  65.225  1.00  0.00     0.047 OA 
HETATM   12  H   UNL     1      -7.147   8.204  65.668  1.00  0.00     0.000 HD 
BRANCH   6  13
HETATM   13  C   UNL     1      -9.438   8.377  66.834  1.00  0.00    -0.185 C  
HETATM   14  H   UNL     1      -9.160   8.273  68.770  1.00  0.00     0.000 HD 
HETATM   15  O   UNL     1      -8.785   8.773  68.055  1.00  0.00    -0.138 OA 
ENDBRANCH   6  13
BRANCH  10  16
HETATM   16  O   UNL     1      -9.830  12.096  67.071  1.00  0.00    -0.200 OA 
BRANCH  16  17
HETATM   17  C   UNL     1      -9.500  13.483  67.243  1.00  0.00    -0.230 C  
HETATM   18  O   UNL     1      -8.495  13.632  68.251  1.00  0.00    -0.161 OA 
HETATM   19  C   UNL     1      -8.090  15.003  68.424  1.00  0.00    -0.141 C  
HETATM   20  C   UNL     1      -9.278  15.854  68.892  1.00  0.00    -0.232 C  
HETATM   21  H   UNL     1     -12.492  14.701  66.673  1.00  0.00     0.000 HD 
HETATM   22  O   UNL     1     -11.708  14.204  66.473  1.00  0.00    -0.361 OA 
HETATM   23  C   UNL     1     -10.384  15.763  67.834  1.00  0.00    -0.261 C  
HETATM   24  O   UNL     1      -9.843  15.395  70.129  1.00  0.00    -0.433 OA 
HETATM   25  H   UNL     1     -12.200  16.473  67.600  1.00  0.00     0.000 HD 
HETATM   26  O   UNL     1     -11.515  16.530  68.256  1.00  0.00    -0.283 OA 
HETATM   27  H   UNL     1     -10.579  15.921  70.419  1.00  0.00     0.000 HD 
HETATM   28  C   UNL     1     -10.777  14.294  67.569  1.00  0.00    -0.270 C  
BRANCH  19  29
HETATM   29  C   UNL     1      -6.916  15.035  69.405  1.00  0.00    -0.172 C  
HETATM   30  O   UNL     1      -6.671  13.715  69.893  1.00  0.00    -0.331 OA 
HETATM   31  H   UNL     1      -5.942  13.735  70.502  1.00  0.00     0.000 HD 
ENDBRANCH  19  29
ENDBRANCH  16  17
ENDBRANCH  10  16
ENDBRANCH   3   4
TORSDOF 5
ENDMDL
MODEL      184
REMARK 921   NORMALIZED FREE ENERGY PREDICTED BY IDOCK:   -3.53 KCAL/MOL
REMARK 922        TOTAL FREE ENERGY PREDICTED BY IDOCK:   -6.15 KCAL/MOL
REMARK 923 INTER-LIGAND FREE ENERGY PREDICTED BY IDOCK:   -5.13 KCAL/MOL
REMARK 924 INTRA-LIGAND FREE ENERGY PREDICTED BY IDOCK:   -1.02 KCAL/MOL
REMARK 927      BINDING AFFINITY PREDICTED BY RF-SCORE:    0.00 PKD
ROOT
HETATM    1  O   UNL     1     -14.137   7.730  71.191  1.00  0.00    -0.624 OA 
HETATM    2  H   UNL     1     -14.943   8.018  70.777  1.00  0.00     0.000 HD 
HETATM    3  C   UNL     1     -13.254   8.840  71.342  1.00  0.00    -0.249 C  
ENDROOT
BRANCH   3   4
HETATM    4  C   UNL     1     -11.956   8.376  72.009  1.00  0.00    -0.357 C  
HETATM    5  O   UNL     1     -12.146   7.063  72.568  1.00  0.00    -0.143 OA 
HETATM    6  C   UNL     1     -10.872   6.415  72.539  1.00  0.00    -0.238 C  
HETATM    7  O   UNL     1     -11.094   5.005  72.407  1.00  0.00    -0.185 OA 
HETATM    8  H   UNL     1     -10.024   6.402  69.381  1.00  0.00     0.000 HD 
HETATM    9  C   UNL     1     -10.156   6.933  71.284  1.00  0.00    -0.190 C  
HETATM   10  C   UNL     1     -10.787   8.301  71.018  1.00  0.00    -0.233 C  
HETATM   11  O   UNL     1     -10.468   6.081  70.158  1.00  0.00    -0.207 OA 
HETATM   12  H   UNL     1     -10.248   4.575  72.387  1.00  0.00     0.000 HD 
BRANCH   6  13
HETATM   13  C   UNL     1     -10.126   6.691  73.853  1.00  0.00    -0.324 C  
HETATM   14  H   UNL     1      -8.295   7.175  74.350  1.00  0.00     0.000 HD 
HETATM   15  O   UNL     1      -8.756   7.005  73.538  1.00  0.00    -0.127 OA 
ENDBRANCH   6  13
BRANCH  10  16
HETATM   16  O   UNL     1      -9.830   9.350  71.229  1.00  0.00    -0.275 OA 
BRANCH  16  17
HETATM   17  C   UNL     1      -9.194   9.786  70.018  1.00  0.00    -0.229 C  
HETATM   18  O   UNL     1      -9.923   9.316  68.878  1.00  0.00    -0.171 OA 
HETATM   19  C   UNL     1      -9.354   9.772  67.637  1.00  0.00    -0.140 C  
HETATM   20  C   UNL     1      -7.929   9.227  67.472  1.00  0.00    -0.099 C  
HETATM   21  H   UNL     1      -6.097   9.627  71.087  1.00  0.00     0.000 HD 
HETATM   22  O   UNL     1      -7.003   9.913  71.099  1.00  0.00    -0.338 OA 
HETATM   23  C   UNL     1      -7.083   9.725  68.651  1.00  0.00    -0.071 C  
HETATM   24  O   UNL     1      -7.871   7.793  67.492  1.00  0.00    -0.117 OA 
HETATM   25  H   UNL     1      -5.229   9.520  69.266  1.00  0.00     0.000 HD 
HETATM   26  O   UNL     1      -5.753   9.212  68.535  1.00  0.00    -0.041 OA 
HETATM   27  H   UNL     1      -6.989   7.456  67.390  1.00  0.00     0.000 HD 
HETATM   28  C   UNL     1      -7.719   9.320  69.998  1.00  0.00    -0.104 C  
BRANCH  19  29
HETATM   29  C   UNL     1     -10.285   9.346  66.499  1.00  0.00    -0.238 C  
HETATM   30  O   UNL     1      -9.504   8.869  65.402  1.00  0.00    -0.430 OA 
HETATM   31  H   UNL     1     -10.081   8.605  64.696  1.00  0.00     0.000 HD 
ENDBRANCH  19  29
ENDBRANCH  16  17
ENDBRANCH  10  16
ENDBRANCH   3   4
TORSDOF 5
ENDMDL
MODEL      185
REMARK 921   NORMALIZED FREE ENERGY PREDICTED BY IDOCK:   -3.50 KCAL/MOL
REMARK 922        TOTAL FREE ENERGY PREDICTED BY IDOCK:   -6.11 KCAL/MOL
REMARK 923 INTER-LIGAND FREE ENERGY PREDICTED BY IDOCK:   -5.10 KCAL/MOL
REMARK 924 INTRA-LIGAND FREE ENERGY PREDICTED BY IDOCK:   -1.01 KCAL/MOL
REMARK 927      BINDING AFFINITY PREDICTED BY RF-SCORE:    0.00 PKD
ROOT
HETATM    1  O   UNL     1      -9.174  10.109  69.733  1.00  0.00    -0.300 OA 
HETATM    2  H   UNL     1      -9.238  10.289  70.663  1.00  0.00     0.000 HD 
HETATM    3  C   UNL     1      -8.097   9.204  69.493  1.00  0.00    -0.107 C  
ENDROOT
BRANCH   3   4
HETATM    4  C   UNL     1      -7.993   8.914  67.994  1.00  0.00    -0.102 C  
HETATM    5  O   UNL     1      -7.906   7.491  67.785  1.00  0.00    -0.113 OA 
HETATM    6  C   UNL     1      -8.487   7.227  66.506  1.00  0.00    -0.125 C  
HETATM    7  O   UNL     1      -9.047   5.909  66.537  1.00  0.00    -0.134 OA 
HETATM    8  H   UNL     1     -11.549   8.348  66.742  1.00  0.00     0.000 HD 
HETATM    9  C   UNL     1      -9.615   8.252  66.328  1.00  0.00    -0.196 C  
HETATM   10  C   UNL     1      -9.209   9.430  67.215  1.00  0.00    -0.130 C  
HETATM   11  O   UNL     1     -10.850   7.714  66.853  1.00  0.00    -0.328 OA 
HETATM   12  H   UNL     1      -9.434   5.733  65.687  1.00  0.00     0.000 HD 
BRANCH   6  13
HETATM   13  C   UNL     1      -7.398   7.290  65.425  1.00  0.00    -0.079 C  
HETATM   14  H   UNL     1      -7.190   6.605  63.602  1.00  0.00     0.000 HD 
HETATM   15  O   UNL     1      -7.863   6.566  64.271  1.00  0.00    -0.107 OA 
ENDBRANCH   6  13
BRANCH  10  16
HETATM   16  O   UNL     1      -8.893  10.580  66.417  1.00  0.00    -0.147 OA 
BRANCH  16  17
HETATM   17  C   UNL     1      -9.697  11.726  66.735  1.00  0.00    -0.197 C  
HETATM   18  O   UNL     1     -10.525  12.075  65.620  1.00  0.00    -0.240 OA 
HETATM   19  C   UNL     1     -11.391  13.189  65.907  1.00  0.00    -0.311 C  
HETATM   20  C   UNL     1     -10.562  14.443  66.216  1.00  0.00    -0.292 C  
HETATM   21  H   UNL     1      -7.511  13.259  68.641  1.00  0.00     0.000 HD 
HETATM   22  O   UNL     1      -8.067  12.539  68.369  1.00  0.00    -0.151 OA 
HETATM   23  C   UNL     1      -9.671  14.145  67.429  1.00  0.00    -0.232 C  
HETATM   24  O   UNL     1      -9.690  14.818  65.140  1.00  0.00    -0.453 OA 
HETATM   25  H   UNL     1      -8.317  15.105  68.477  1.00  0.00     0.000 HD 
HETATM   26  O   UNL     1      -8.869  15.290  67.726  1.00  0.00    -0.169 OA 
HETATM   27  H   UNL     1      -9.177  15.594  65.331  1.00  0.00     0.000 HD 
HETATM   28  C   UNL     1      -8.792  12.901  67.177  1.00  0.00    -0.210 C  
BRANCH  19  29
HETATM   29  C   UNL     1     -12.333  13.382  64.715  1.00  0.00    -0.396 C  
HETATM   30  O   UNL     1     -12.863  12.116  64.322  1.00  0.00    -0.578 OA 
HETATM   31  H   UNL     1     -13.447  12.236  63.582  1.00  0.00     0.000 HD 
ENDBRANCH  19  29
ENDBRANCH  16  17
ENDBRANCH  10  16
ENDBRANCH   3   4
TORSDOF 5
ENDMDL
MODEL      186
REMARK 921   NORMALIZED FREE ENERGY PREDICTED BY IDOCK:   -3.50 KCAL/MOL
REMARK 922        TOTAL FREE ENERGY PREDICTED BY IDOCK:   -6.11 KCAL/MOL
REMARK 923 INTER-LIGAND FREE ENERGY PREDICTED BY IDOCK:   -5.23 KCAL/MOL
REMARK 924 INTRA-LIGAND FREE ENERGY PREDICTED BY IDOCK:   -0.88 KCAL/MOL
REMARK 927      BINDING AFFINITY PREDICTED BY RF-SCORE:    0.00 PKD
ROOT
HETATM    1  O   UNL     1      -8.358   9.814  70.910  1.00  0.00    -0.377 OA 
HETATM    2  H   UNL     1      -8.388  10.703  71.245  1.00  0.00     0.000 HD 
HETATM    3  C   UNL     1      -9.371   9.642  69.920  1.00  0.00    -0.228 C  
ENDROOT
BRANCH   3   4
HETATM    4  C   UNL     1      -9.323   8.210  69.380  1.00  0.00    -0.155 C  
HETATM    5  O   UNL     1      -9.035   7.300  70.459  1.00  0.00    -0.152 OA 
HETATM    6  C   UNL     1      -9.653   6.055  70.122  1.00  0.00    -0.162 C  
HETATM    7  O   UNL     1     -10.003   5.390  71.342  1.00  0.00    -0.170 OA 
HETATM    8  H   UNL     1     -12.827   6.767  69.799  1.00  0.00     0.000 HD 
HETATM    9  C   UNL     1     -10.932   6.406  69.351  1.00  0.00    -0.359 C  
HETATM   10  C   UNL     1     -10.652   7.782  68.746  1.00  0.00    -0.135 C  
HETATM   11  O   UNL     1     -12.034   6.551  70.276  1.00  0.00    -0.394 OA 
HETATM   12  H   UNL     1     -10.414   4.563  71.118  1.00  0.00     0.000 HD 
BRANCH   6  13
HETATM   13  C   UNL     1      -8.659   5.186  69.337  1.00  0.00    -0.096 C  
HETATM   14  H   UNL     1      -8.761   3.988  67.791  1.00  0.00     0.000 HD 
HETATM   15  O   UNL     1      -9.375   4.526  68.277  1.00  0.00    -0.125 OA 
ENDBRANCH   6  13
BRANCH  10  16
HETATM   16  O   UNL     1     -10.567   7.698  67.315  1.00  0.00    -0.295 OA 
BRANCH  16  17
HETATM   17  C   UNL     1      -9.683   8.675  66.744  1.00  0.00    -0.233 C  
HETATM   18  O   UNL     1     -10.428   9.807  66.280  1.00  0.00    -0.191 OA 
HETATM   19  C   UNL     1      -9.581  10.840  65.745  1.00  0.00    -0.208 C  
HETATM   20  C   UNL     1      -8.813  10.319  64.522  1.00  0.00    -0.203 C  
HETATM   21  H   UNL     1      -7.509   6.578  65.465  1.00  0.00     0.000 HD 
HETATM   22  O   UNL     1      -8.025   6.974  66.157  1.00  0.00    -0.101 OA 
HETATM   23  C   UNL     1      -7.964   9.119  64.961  1.00  0.00    -0.120 C  
HETATM   24  O   UNL     1      -9.677   9.860  63.472  1.00  0.00    -0.490 OA 
HETATM   25  H   UNL     1      -6.729   7.855  64.105  1.00  0.00     0.000 HD 
HETATM   26  O   UNL     1      -7.255   8.598  63.834  1.00  0.00    -0.093 OA 
HETATM   27  H   UNL     1      -9.202   9.537  62.715  1.00  0.00     0.000 HD 
HETATM   28  C   UNL     1      -8.842   8.031  65.616  1.00  0.00    -0.094 C  
BRANCH  19  29
HETATM   29  C   UNL     1     -10.453  12.055  65.422  1.00  0.00    -0.275 C  
HETATM   30  O   UNL     1      -9.825  12.830  64.400  1.00  0.00    -0.570 OA 
HETATM   31  H   UNL     1     -10.366  13.585  64.199  1.00  0.00     0.000 HD 
ENDBRANCH  19  29
ENDBRANCH  16  17
ENDBRANCH  10  16
ENDBRANCH   3   4
TORSDOF 5
ENDMDL
MODEL      187
REMARK 921   NORMALIZED FREE ENERGY PREDICTED BY IDOCK:   -3.49 KCAL/MOL
REMARK 922        TOTAL FREE ENERGY PREDICTED BY IDOCK:   -6.09 KCAL/MOL
REMARK 923 INTER-LIGAND FREE ENERGY PREDICTED BY IDOCK:   -5.33 KCAL/MOL
REMARK 924 INTRA-LIGAND FREE ENERGY PREDICTED BY IDOCK:   -0.75 KCAL/MOL
REMARK 927      BINDING AFFINITY PREDICTED BY RF-SCORE:    0.00 PKD
ROOT
HETATM    1  O   UNL     1     -11.221   6.085  66.380  1.00  0.00    -0.742 OA 
HETATM    2  H   UNL     1     -11.989   5.537  66.267  1.00  0.00     0.000 HD 
HETATM    3  C   UNL     1     -10.392   5.540  67.406  1.00  0.00    -0.225 C  
ENDROOT
BRANCH   3   4
HETATM    4  C   UNL     1      -9.154   6.423  67.589  1.00  0.00    -0.114 C  
HETATM    5  O   UNL     1      -8.088   5.933  66.754  1.00  0.00    -0.101 OA 
HETATM    6  C   UNL     1      -7.280   7.062  66.414  1.00  0.00    -0.075 C  
HETATM    7  O   UNL     1      -6.690   6.816  65.132  1.00  0.00    -0.048 OA 
HETATM    8  H   UNL     1      -9.322   9.111  64.891  1.00  0.00     0.000 HD 
HETATM    9  C   UNL     1      -8.236   8.258  66.310  1.00  0.00    -0.112 C  
HETATM   10  C   UNL     1      -9.419   7.884  67.204  1.00  0.00    -0.159 C  
HETATM   11  O   UNL     1      -8.730   8.370  64.956  1.00  0.00    -0.154 OA 
HETATM   12  H   UNL     1      -6.154   7.566  64.905  1.00  0.00     0.000 HD 
BRANCH   6  13
HETATM   13  C   UNL     1      -6.168   7.231  67.460  1.00  0.00    -0.046 C  
HETATM   14  H   UNL     1      -5.729   8.549  68.840  1.00  0.00     0.000 HD 
HETATM   15  O   UNL     1      -6.417   8.445  68.193  1.00  0.00    -0.054 OA 
ENDBRANCH   6  13
BRANCH  10  16
HETATM   16  O   UNL     1      -9.478   8.744  68.352  1.00  0.00    -0.140 OA 
BRANCH  16  17
HETATM   17  C   UNL     1     -10.638   9.590  68.366  1.00  0.00    -0.219 C  
HETATM   18  O   UNL     1     -10.432  10.728  67.522  1.00  0.00    -0.195 OA 
HETATM   19  C   UNL     1     -11.589  11.582  67.461  1.00  0.00    -0.246 C  
HETATM   20  C   UNL     1     -11.908  12.148  68.850  1.00  0.00    -0.304 C  
HETATM   21  H   UNL     1     -11.498   9.074  71.490  1.00  0.00     0.000 HD 
HETATM   22  O   UNL     1     -11.289   8.824  70.597  1.00  0.00    -0.262 OA 
HETATM   23  C   UNL     1     -12.173  10.974  69.800  1.00  0.00    -0.318 C  
HETATM   24  O   UNL     1     -10.824  12.903  69.411  1.00  0.00    -0.439 OA 
HETATM   25  H   UNL     1     -12.615  10.745  71.700  1.00  0.00     0.000 HD 
HETATM   26  O   UNL     1     -12.451  11.472  71.112  1.00  0.00    -0.376 OA 
HETATM   27  H   UNL     1     -11.021  13.254  70.271  1.00  0.00     0.000 HD 
HETATM   28  C   UNL     1     -10.978   9.997  69.820  1.00  0.00    -0.276 C  
BRANCH  19  29
HETATM   29  C   UNL     1     -11.322  12.676  66.423  1.00  0.00    -0.331 C  
HETATM   30  O   UNL     1     -11.942  13.891  66.847  1.00  0.00    -0.396 OA 
HETATM   31  H   UNL     1     -11.776  14.569  66.204  1.00  0.00     0.000 HD 
ENDBRANCH  19  29
ENDBRANCH  16  17
ENDBRANCH  10  16
ENDBRANCH   3   4
TORSDOF 5
ENDMDL
MODEL      188
REMARK 921   NORMALIZED FREE ENERGY PREDICTED BY IDOCK:   -3.48 KCAL/MOL
REMARK 922        TOTAL FREE ENERGY PREDICTED BY IDOCK:   -6.08 KCAL/MOL
REMARK 923 INTER-LIGAND FREE ENERGY PREDICTED BY IDOCK:   -5.81 KCAL/MOL
REMARK 924 INTRA-LIGAND FREE ENERGY PREDICTED BY IDOCK:   -0.27 KCAL/MOL
REMARK 927      BINDING AFFINITY PREDICTED BY RF-SCORE:    0.00 PKD
ROOT
HETATM    1  O   UNL     1     -11.379  10.400  70.091  1.00  0.00    -0.276 OA 
HETATM    2  H   UNL     1     -11.974   9.800  70.527  1.00  0.00     0.000 HD 
HETATM    3  C   UNL     1     -10.096   9.790  69.957  1.00  0.00    -0.257 C  
ENDROOT
BRANCH   3   4
HETATM    4  C   UNL     1      -9.139  10.756  69.255  1.00  0.00    -0.037 C  
HETATM    5  O   UNL     1      -7.819  10.180  69.217  1.00  0.00    -0.108 OA 
HETATM    6  C   UNL     1      -7.178  10.699  68.048  1.00  0.00    -0.087 C  
HETATM    7  O   UNL     1      -6.240   9.720  67.586  1.00  0.00    -0.055 OA 
HETATM    8  H   UNL     1      -9.102   9.774  65.572  1.00  0.00     0.000 HD 
HETATM    9  C   UNL     1      -8.283  10.877  66.997  1.00  0.00    -0.134 C  
HETATM   10  C   UNL     1      -9.565  11.053  67.812  1.00  0.00    -0.170 C  
HETATM   11  O   UNL     1      -8.419   9.663  66.223  1.00  0.00    -0.118 OA 
HETATM   12  H   UNL     1      -5.814  10.064  66.809  1.00  0.00     0.000 HD 
BRANCH   6  13
HETATM   13  C   UNL     1      -6.430  11.992  68.405  1.00  0.00    -0.055 C  
HETATM   14  H   UNL     1      -6.203  13.753  67.581  1.00  0.00     0.000 HD 
HETATM   15  O   UNL     1      -6.667  12.954  67.361  1.00  0.00    -0.158 OA 
ENDBRANCH   6  13
BRANCH  10  16
HETATM   16  O   UNL     1     -10.082  12.384  67.663  1.00  0.00    -0.194 OA 
BRANCH  16  17
HETATM   17  C   UNL     1     -10.374  12.726  66.299  1.00  0.00    -0.258 C  
HETATM   18  O   UNL     1     -10.487  14.146  66.158  1.00  0.00    -0.284 OA 
HETATM   19  C   UNL     1     -10.728  14.545  64.796  1.00  0.00    -0.393 C  
HETATM   20  C   UNL     1     -12.063  13.971  64.301  1.00  0.00    -0.445 C  
HETATM   21  H   UNL     1     -12.232  10.115  65.599  1.00  0.00     0.000 HD 
HETATM   22  O   UNL     1     -11.447  10.566  65.885  1.00  0.00     0.431 OA 
HETATM   23  C   UNL     1     -11.995  12.442  64.396  1.00  0.00    -0.407 C  
HETATM   24  O   UNL     1     -13.182  14.390  65.096  1.00  0.00    -0.602 OA 
HETATM   25  H   UNL     1     -13.194  10.933  64.022  1.00  0.00     0.000 HD 
HETATM   26  O   UNL     1     -13.237  11.880  63.963  1.00  0.00    -0.632 OA 
HETATM   27  H   UNL     1     -14.009  14.035  64.790  1.00  0.00     0.000 HD 
HETATM   28  C   UNL     1     -11.654  11.991  65.833  1.00  0.00    -0.300 C  
BRANCH  19  29
HETATM   29  C   UNL     1     -10.681  16.074  64.729  1.00  0.00    -0.204 C  
HETATM   30  O   UNL     1     -11.910  16.561  64.189  1.00  0.00    -1.070 OA 
HETATM   31  H   UNL     1     -11.881  17.510  64.147  1.00  0.00     0.000 HD 
ENDBRANCH  19  29
ENDBRANCH  16  17
ENDBRANCH  10  16
ENDBRANCH   3   4
TORSDOF 5
ENDMDL
MODEL      189
REMARK 921   NORMALIZED FREE ENERGY PREDICTED BY IDOCK:   -3.47 KCAL/MOL
REMARK 922        TOTAL FREE ENERGY PREDICTED BY IDOCK:   -6.07 KCAL/MOL
REMARK 923 INTER-LIGAND FREE ENERGY PREDICTED BY IDOCK:   -5.97 KCAL/MOL
REMARK 924 INTRA-LIGAND FREE ENERGY PREDICTED BY IDOCK:   -0.10 KCAL/MOL
REMARK 927      BINDING AFFINITY PREDICTED BY RF-SCORE:    0.00 PKD
ROOT
HETATM    1  O   UNL     1      -7.553   7.321  64.331  1.00  0.00    -0.096 OA 
HETATM    2  H   UNL     1      -7.214   7.278  63.444  1.00  0.00     0.000 HD 
HETATM    3  C   UNL     1      -8.363   8.487  64.477  1.00  0.00    -0.128 C  
ENDROOT
BRANCH   3   4
HETATM    4  C   UNL     1      -8.909   8.557  65.906  1.00  0.00    -0.182 C  
HETATM    5  O   UNL     1      -8.083   7.758  66.775  1.00  0.00    -0.111 OA 
HETATM    6  C   UNL     1      -8.156   8.354  68.072  1.00  0.00    -0.123 C  
HETATM    7  O   UNL     1      -6.922   8.089  68.751  1.00  0.00    -0.063 OA 
HETATM    8  H   UNL     1      -7.065  11.406  67.641  1.00  0.00     0.000 HD 
HETATM    9  C   UNL     1      -8.292   9.866  67.843  1.00  0.00    -0.114 C  
HETATM   10  C   UNL     1      -8.922   9.989  66.454  1.00  0.00    -0.144 C  
HETATM   11  O   UNL     1      -6.980  10.470  67.783  1.00  0.00    -0.076 OA 
HETATM   12  H   UNL     1      -6.970   8.486  69.613  1.00  0.00     0.000 HD 
BRANCH   6  13
HETATM   13  C   UNL     1      -9.315   7.727  68.861  1.00  0.00    -0.146 C  
HETATM   14  H   UNL     1     -11.194   7.312  68.500  1.00  0.00     0.000 HD 
HETATM   15  O   UNL     1     -10.477   7.699  68.012  1.00  0.00    -0.204 OA 
ENDBRANCH   6  13
BRANCH  10  16
HETATM   16  O   UNL     1     -10.252  10.521  66.547  1.00  0.00    -0.217 OA 
BRANCH  16  17
HETATM   17  C   UNL     1     -10.358  11.866  66.056  1.00  0.00    -0.233 C  
HETATM   18  O   UNL     1     -10.783  12.745  67.104  1.00  0.00    -0.241 OA 
HETATM   19  C   UNL     1     -10.854  14.117  66.675  1.00  0.00    -0.299 C  
HETATM   20  C   UNL     1     -11.893  14.272  65.556  1.00  0.00    -0.363 C  
HETATM   21  H   UNL     1     -11.363  11.129  63.022  1.00  0.00     0.000 HD 
HETATM   22  O   UNL     1     -10.779  11.102  63.770  1.00  0.00    -0.380 OA 
HETATM   23  C   UNL     1     -11.476  13.377  64.383  1.00  0.00    -0.384 C  
HETATM   24  O   UNL     1     -13.208  13.858  65.952  1.00  0.00    -0.524 OA 
HETATM   25  H   UNL     1     -12.182  12.929  62.607  1.00  0.00     0.000 HD 
HETATM   26  O   UNL     1     -12.440  13.484  63.333  1.00  0.00    -0.750 OA 
HETATM   27  H   UNL     1     -13.852  13.954  65.259  1.00  0.00     0.000 HD 
HETATM   28  C   UNL     1     -11.311  11.911  64.838  1.00  0.00    -0.277 C  
BRANCH  19  29
HETATM   29  C   UNL     1     -11.166  14.985  67.897  1.00  0.00    -0.323 C  
HETATM   30  O   UNL     1     -12.418  14.583  68.454  1.00  0.00    -0.592 OA 
HETATM   31  H   UNL     1     -12.613  15.122  69.212  1.00  0.00     0.000 HD 
ENDBRANCH  19  29
ENDBRANCH  16  17
ENDBRANCH  10  16
ENDBRANCH   3   4
TORSDOF 5
ENDMDL
MODEL      190
REMARK 921   NORMALIZED FREE ENERGY PREDICTED BY IDOCK:   -3.46 KCAL/MOL
REMARK 922        TOTAL FREE ENERGY PREDICTED BY IDOCK:   -6.05 KCAL/MOL
REMARK 923 INTER-LIGAND FREE ENERGY PREDICTED BY IDOCK:   -5.01 KCAL/MOL
REMARK 924 INTRA-LIGAND FREE ENERGY PREDICTED BY IDOCK:   -1.04 KCAL/MOL
REMARK 927      BINDING AFFINITY PREDICTED BY RF-SCORE:    0.00 PKD
ROOT
HETATM    1  O   UNL     1      -9.574   8.401  65.750  1.00  0.00    -0.438 OA 
HETATM    2  H   UNL     1      -9.849   7.662  65.219  1.00  0.00     0.000 HD 
HETATM    3  C   UNL     1      -8.213   8.230  66.141  1.00  0.00    -0.119 C  
ENDROOT
BRANCH   3   4
HETATM    4  C   UNL     1      -7.770   9.419  66.996  1.00  0.00    -0.091 C  
HETATM    5  O   UNL     1      -7.730  10.607  66.182  1.00  0.00    -0.136 OA 
HETATM    6  C   UNL     1      -8.002  11.710  67.051  1.00  0.00    -0.164 C  
HETATM    7  O   UNL     1      -8.640  12.735  66.278  1.00  0.00    -0.409 OA 
HETATM    8  H   UNL     1     -10.950  11.063  68.307  1.00  0.00     0.000 HD 
HETATM    9  C   UNL     1      -8.984  11.190  68.109  1.00  0.00    -0.159 C  
HETATM   10  C   UNL     1      -8.727   9.683  68.166  1.00  0.00    -0.119 C  
HETATM   11  O   UNL     1     -10.342  11.385  67.652  1.00  0.00    -0.177 OA 
HETATM   12  H   UNL     1      -8.821  13.468  66.855  1.00  0.00     0.000 HD 
BRANCH   6  13
HETATM   13  C   UNL     1      -6.683  12.251  67.622  1.00  0.00    -0.126 C  
HETATM   14  H   UNL     1      -4.810  12.265  67.053  1.00  0.00     0.000 HD 
HETATM   15  O   UNL     1      -5.625  11.931  66.699  1.00  0.00    -0.261 OA 
ENDBRANCH   6  13
BRANCH  10  16
HETATM   16  O   UNL     1      -8.152   9.315  69.429  1.00  0.00    -0.098 OA 
BRANCH  16  17
HETATM   17  C   UNL     1      -8.825   8.211  70.055  1.00  0.00    -0.139 C  
HETATM   18  O   UNL     1      -9.859   7.711  69.200  1.00  0.00    -0.166 OA 
HETATM   19  C   UNL     1     -10.529   6.568  69.761  1.00  0.00    -0.211 C  
HETATM   20  C   UNL     1     -11.225   6.949  71.074  1.00  0.00    -0.282 C  
HETATM   21  H   UNL     1      -8.613   9.288  73.146  1.00  0.00     0.000 HD 
HETATM   22  O   UNL     1      -8.279   9.024  72.297  1.00  0.00    -0.354 OA 
HETATM   23  C   UNL     1     -10.162   7.465  72.051  1.00  0.00    -0.191 C  
HETATM   24  O   UNL     1     -12.190   8.000  70.913  1.00  0.00    -0.463 OA 
HETATM   25  H   UNL     1     -10.127   8.171  73.883  1.00  0.00     0.000 HD 
HETATM   26  O   UNL     1     -10.786   7.851  73.279  1.00  0.00    -0.339 OA 
HETATM   27  H   UNL     1     -12.621   8.237  71.726  1.00  0.00     0.000 HD 
HETATM   28  C   UNL     1      -9.370   8.640  71.438  1.00  0.00    -0.236 C  
BRANCH  19  29
HETATM   29  C   UNL     1     -11.503   6.022  68.713  1.00  0.00     0.296 C  
HETATM   30  O   UNL     1     -11.488   6.873  67.566  1.00  0.00    -0.628 OA 
HETATM   31  H   UNL     1     -12.092   6.535  66.915  1.00  0.00     0.000 HD 
ENDBRANCH  19  29
ENDBRANCH  16  17
ENDBRANCH  10  16
ENDBRANCH   3   4
TORSDOF 5
ENDMDL
MODEL      191
REMARK 921   NORMALIZED FREE ENERGY PREDICTED BY IDOCK:   -3.46 KCAL/MOL
REMARK 922        TOTAL FREE ENERGY PREDICTED BY IDOCK:   -6.05 KCAL/MOL
REMARK 923 INTER-LIGAND FREE ENERGY PREDICTED BY IDOCK:   -5.34 KCAL/MOL
REMARK 924 INTRA-LIGAND FREE ENERGY PREDICTED BY IDOCK:   -0.72 KCAL/MOL
REMARK 927      BINDING AFFINITY PREDICTED BY RF-SCORE:    0.00 PKD
ROOT
HETATM    1  O   UNL     1      -9.414   6.109  67.036  1.00  0.00    -0.122 OA 
HETATM    2  H   UNL     1      -9.111   5.927  66.154  1.00  0.00     0.000 HD 
HETATM    3  C   UNL     1     -10.516   7.014  66.987  1.00  0.00    -0.316 C  
ENDROOT
BRANCH   3   4
HETATM    4  C   UNL     1     -11.005   7.307  68.408  1.00  0.00     0.029 C  
HETATM    5  O   UNL     1     -11.049   6.081  69.162  1.00  0.00    -0.362 OA 
HETATM    6  C   UNL     1     -10.822   6.431  70.530  1.00  0.00    -0.279 C  
HETATM    7  O   UNL     1     -10.187   5.319  71.173  1.00  0.00    -0.205 OA 
HETATM    8  H   UNL     1      -7.894   7.886  70.534  1.00  0.00     0.000 HD 
HETATM    9  C   UNL     1      -9.856   7.624  70.512  1.00  0.00    -0.183 C  
HETATM   10  C   UNL     1     -10.084   8.283  69.150  1.00  0.00    -0.202 C  
HETATM   11  O   UNL     1      -8.492   7.147  70.545  1.00  0.00    -0.135 OA 
HETATM   12  H   UNL     1     -10.035   5.552  72.081  1.00  0.00     0.000 HD 
BRANCH   6  13
HETATM   13  C   UNL     1     -12.166   6.715  71.217  1.00  0.00    -0.314 C  
HETATM   14  H   UNL     1     -12.736   7.585  72.876  1.00  0.00     0.000 HD 
HETATM   15  O   UNL     1     -11.905   7.410  72.451  1.00  0.00    -0.284 OA 
ENDBRANCH   6  13
BRANCH  10  16
HETATM   16  O   UNL     1     -10.682   9.578  69.308  1.00  0.00    -0.225 OA 
BRANCH  16  17
HETATM   17  C   UNL     1     -10.200  10.543  68.359  1.00  0.00    -0.172 C  
HETATM   18  O   UNL     1      -8.798  10.764  68.545  1.00  0.00    -0.135 OA 
HETATM   19  C   UNL     1      -8.256  11.686  67.582  1.00  0.00    -0.141 C  
HETATM   20  C   UNL     1      -8.916  13.063  67.731  1.00  0.00    -0.191 C  
HETATM   21  H   UNL     1     -12.902  12.399  68.238  1.00  0.00     0.000 HD 
HETATM   22  O   UNL     1     -12.401  11.596  68.167  1.00  0.00    -0.429 OA 
HETATM   23  C   UNL     1     -10.425  12.900  67.509  1.00  0.00    -0.223 C  
HETATM   24  O   UNL     1      -8.745  13.628  69.039  1.00  0.00    -0.368 OA 
HETATM   25  H   UNL     1     -12.005  14.065  67.528  1.00  0.00     0.000 HD 
HETATM   26  O   UNL     1     -11.071  14.166  67.665  1.00  0.00    -0.269 OA 
HETATM   27  H   UNL     1      -9.154  14.481  69.131  1.00  0.00     0.000 HD 
HETATM   28  C   UNL     1     -11.017  11.852  68.476  1.00  0.00    -0.235 C  
BRANCH  19  29
HETATM   29  C   UNL     1      -6.737  11.735  67.770  1.00  0.00    -0.082 C  
HETATM   30  O   UNL     1      -6.157  12.520  66.728  1.00  0.00    -0.493 OA 
HETATM   31  H   UNL     1      -5.215  12.551  66.844  1.00  0.00     0.000 HD 
ENDBRANCH  19  29
ENDBRANCH  16  17
ENDBRANCH  10  16
ENDBRANCH   3   4
TORSDOF 5
ENDMDL
MODEL      192
REMARK 921   NORMALIZED FREE ENERGY PREDICTED BY IDOCK:   -3.46 KCAL/MOL
REMARK 922        TOTAL FREE ENERGY PREDICTED BY IDOCK:   -6.05 KCAL/MOL
REMARK 923 INTER-LIGAND FREE ENERGY PREDICTED BY IDOCK:   -5.28 KCAL/MOL
REMARK 924 INTRA-LIGAND FREE ENERGY PREDICTED BY IDOCK:   -0.77 KCAL/MOL
REMARK 927      BINDING AFFINITY PREDICTED BY RF-SCORE:    0.00 PKD
ROOT
HETATM    1  O   UNL     1     -11.234  11.860  65.767  1.00  0.00    -0.320 OA 
HETATM    2  H   UNL     1     -12.086  12.280  65.774  1.00  0.00     0.000 HD 
HETATM    3  C   UNL     1     -11.034  11.160  66.994  1.00  0.00    -0.289 C  
ENDROOT
BRANCH   3   4
HETATM    4  C   UNL     1      -9.661  10.483  66.982  1.00  0.00    -0.173 C  
HETATM    5  O   UNL     1      -8.780  11.200  66.096  1.00  0.00    -0.180 OA 
HETATM    6  C   UNL     1      -7.454  11.021  66.601  1.00  0.00    -0.146 C  
HETATM    7  O   UNL     1      -6.685  12.177  66.247  1.00  0.00    -0.257 OA 
HETATM    8  H   UNL     1      -7.557  12.231  69.637  1.00  0.00     0.000 HD 
HETATM    9  C   UNL     1      -7.584  10.948  68.129  1.00  0.00    -0.094 C  
HETATM   10  C   UNL     1      -9.012  10.457  68.371  1.00  0.00    -0.137 C  
HETATM   11  O   UNL     1      -7.477  12.276  68.691  1.00  0.00    -0.111 OA 
HETATM   12  H   UNL     1      -5.805  12.059  66.583  1.00  0.00     0.000 HD 
BRANCH   6  13
HETATM   13  C   UNL     1      -6.825   9.776  65.959  1.00  0.00    -0.094 C  
HETATM   14  H   UNL     1      -6.402   9.201  64.136  1.00  0.00     0.000 HD 
HETATM   15  O   UNL     1      -6.791   9.971  64.533  1.00  0.00    -0.121 OA 
ENDBRANCH   6  13
BRANCH  10  16
HETATM   16  O   UNL     1      -9.004   9.139  68.940  1.00  0.00    -0.137 OA 
BRANCH  16  17
HETATM   17  C   UNL     1     -10.294   8.721  69.414  1.00  0.00    -0.214 C  
HETATM   18  O   UNL     1     -10.867   9.732  70.250  1.00  0.00    -0.254 OA 
HETATM   19  C   UNL     1     -12.185   9.382  70.709  1.00  0.00    -0.162 C  
HETATM   20  C   UNL     1     -12.130   8.114  71.571  1.00  0.00    -0.298 C  
HETATM   21  H   UNL     1      -9.627   5.520  69.677  1.00  0.00     0.000 HD 
HETATM   22  O   UNL     1      -9.701   6.354  69.229  1.00  0.00    -0.136 OA 
HETATM   23  C   UNL     1     -11.553   6.977  70.719  1.00  0.00    -0.338 C  
HETATM   24  O   UNL     1     -11.278   8.252  72.718  1.00  0.00    -0.371 OA 
HETATM   25  H   UNL     1     -11.110   5.081  70.978  1.00  0.00     0.000 HD 
HETATM   26  O   UNL     1     -11.468   5.785  71.506  1.00  0.00    -0.203 OA 
HETATM   27  H   UNL     1     -11.244   7.466  73.252  1.00  0.00     0.000 HD 
HETATM   28  C   UNL     1     -10.172   7.362  70.145  1.00  0.00    -0.205 C  
BRANCH  19  29
HETATM   29  C   UNL     1     -12.764  10.583  71.461  1.00  0.00    -0.452 C  
HETATM   30  O   UNL     1     -13.703  10.124  72.435  1.00  0.00    -0.585 OA 
HETATM   31  H   UNL     1     -14.063  10.869  72.902  1.00  0.00     0.000 HD 
ENDBRANCH  19  29
ENDBRANCH  16  17
ENDBRANCH  10  16
ENDBRANCH   3   4
TORSDOF 5
ENDMDL
MODEL      193
REMARK 921   NORMALIZED FREE ENERGY PREDICTED BY IDOCK:   -3.45 KCAL/MOL
REMARK 922        TOTAL FREE ENERGY PREDICTED BY IDOCK:   -6.04 KCAL/MOL
REMARK 923 INTER-LIGAND FREE ENERGY PREDICTED BY IDOCK:   -5.33 KCAL/MOL
REMARK 924 INTRA-LIGAND FREE ENERGY PREDICTED BY IDOCK:   -0.71 KCAL/MOL
REMARK 927      BINDING AFFINITY PREDICTED BY RF-SCORE:    0.00 PKD
ROOT
HETATM    1  O   UNL     1     -10.276  15.144  70.458  1.00  0.00    -0.494 OA 
HETATM    2  H   UNL     1     -10.761  14.904  71.239  1.00  0.00     0.000 HD 
HETATM    3  C   UNL     1     -11.006  16.127  69.724  1.00  0.00    -0.349 C  
ENDROOT
BRANCH   3   4
HETATM    4  C   UNL     1     -10.226  16.512  68.465  1.00  0.00    -0.266 C  
HETATM    5  O   UNL     1      -9.706  17.848  68.613  1.00  0.00    -0.328 OA 
HETATM    6  C   UNL     1      -8.505  17.909  67.839  1.00  0.00    -0.251 C  
HETATM    7  O   UNL     1      -7.631  18.864  68.453  1.00  0.00    -0.284 OA 
HETATM    8  H   UNL     1      -6.584  15.589  69.111  1.00  0.00     0.000 HD 
HETATM    9  C   UNL     1      -7.870  16.514  67.923  1.00  0.00    -0.154 C  
HETATM   10  C   UNL     1      -9.043  15.573  68.203  1.00  0.00    -0.184 C  
HETATM   11  O   UNL     1      -6.978  16.453  69.059  1.00  0.00    -0.174 OA 
HETATM   12  H   UNL     1      -6.833  18.905  67.939  1.00  0.00     0.000 HD 
BRANCH   6  13
HETATM   13  C   UNL     1      -8.838  18.368  66.411  1.00  0.00    -0.248 C  
HETATM   14  H   UNL     1      -7.806  18.907  64.836  1.00  0.00     0.000 HD 
HETATM   15  O   UNL     1      -7.601  18.623  65.719  1.00  0.00    -0.478 OA 
ENDBRANCH   6  13
BRANCH  10  16
HETATM   16  O   UNL     1      -9.276  14.708  67.081  1.00  0.00    -0.202 OA 
BRANCH  16  17
HETATM   17  C   UNL     1      -9.346  13.320  67.444  1.00  0.00    -0.217 C  
HETATM   18  O   UNL     1      -8.042  12.826  67.770  1.00  0.00    -0.142 OA 
HETATM   19  C   UNL     1      -8.066  11.450  68.191  1.00  0.00    -0.137 C  
HETATM   20  C   UNL     1      -8.578  10.554  67.056  1.00  0.00    -0.127 C  
HETATM   21  H   UNL     1     -11.764  12.472  65.395  1.00  0.00     0.000 HD 
HETATM   22  O   UNL     1     -11.357  12.969  66.095  1.00  0.00    -0.295 OA 
HETATM   23  C   UNL     1      -9.992  11.012  66.680  1.00  0.00    -0.209 C  
HETATM   24  O   UNL     1      -7.779  10.644  65.867  1.00  0.00    -0.151 OA 
HETATM   25  H   UNL     1     -11.363  10.491  65.373  1.00  0.00     0.000 HD 
HETATM   26  O   UNL     1     -10.487  10.207  65.606  1.00  0.00    -0.182 OA 
HETATM   27  H   UNL     1      -8.096  10.089  65.164  1.00  0.00     0.000 HD 
HETATM   28  C   UNL     1     -10.008  12.509  66.304  1.00  0.00    -0.252 C  
BRANCH  19  29
HETATM   29  C   UNL     1      -6.659  11.068  68.658  1.00  0.00    -0.058 C  
HETATM   30  O   UNL     1      -6.689  10.771  70.054  1.00  0.00    -0.147 OA 
HETATM   31  H   UNL     1      -5.816  10.534  70.344  1.00  0.00     0.000 HD 
ENDBRANCH  19  29
ENDBRANCH  16  17
ENDBRANCH  10  16
ENDBRANCH   3   4
TORSDOF 5
ENDMDL
MODEL      194
REMARK 921   NORMALIZED FREE ENERGY PREDICTED BY IDOCK:   -3.42 KCAL/MOL
REMARK 922        TOTAL FREE ENERGY PREDICTED BY IDOCK:   -6.00 KCAL/MOL
REMARK 923 INTER-LIGAND FREE ENERGY PREDICTED BY IDOCK:   -5.41 KCAL/MOL
REMARK 924 INTRA-LIGAND FREE ENERGY PREDICTED BY IDOCK:   -0.59 KCAL/MOL
REMARK 927      BINDING AFFINITY PREDICTED BY RF-SCORE:    0.00 PKD
ROOT
HETATM    1  O   UNL     1      -9.551  11.821  64.422  1.00  0.00    -0.398 OA 
HETATM    2  H   UNL     1      -9.582  11.935  63.479  1.00  0.00     0.000 HD 
HETATM    3  C   UNL     1     -10.010  10.513  64.762  1.00  0.00    -0.345 C  
ENDROOT
BRANCH   3   4
HETATM    4  C   UNL     1      -9.960  10.329  66.281  1.00  0.00    -0.235 C  
HETATM    5  O   UNL     1      -8.999   9.308  66.610  1.00  0.00    -0.134 OA 
HETATM    6  C   UNL     1      -8.487   9.628  67.905  1.00  0.00    -0.122 C  
HETATM    7  O   UNL     1      -7.144   9.135  67.985  1.00  0.00    -0.076 OA 
HETATM    8  H   UNL     1      -7.190  12.610  67.567  1.00  0.00     0.000 HD 
HETATM    9  C   UNL     1      -8.470  11.160  67.993  1.00  0.00    -0.135 C  
HETATM   10  C   UNL     1      -9.549  11.614  67.009  1.00  0.00    -0.184 C  
HETATM   11  O   UNL     1      -7.201  11.661  67.513  1.00  0.00    -0.102 OA 
HETATM   12  H   UNL     1      -6.803   9.348  68.846  1.00  0.00     0.000 HD 
BRANCH   6  13
HETATM   13  C   UNL     1      -9.344   8.942  68.980  1.00  0.00    -0.144 C  
HETATM   14  H   UNL     1      -9.626   9.170  70.904  1.00  0.00     0.000 HD 
HETATM   15  O   UNL     1      -9.096   9.594  70.240  1.00  0.00    -0.235 OA 
ENDBRANCH   6  13
BRANCH  10  16
HETATM   16  O   UNL     1     -10.650  12.216  67.708  1.00  0.00    -0.197 OA 
BRANCH  16  17
HETATM   17  C   UNL     1     -10.331  13.503  68.261  1.00  0.00    -0.252 C  
HETATM   18  O   UNL     1     -11.207  13.804  69.353  1.00  0.00    -0.249 OA 
HETATM   19  C   UNL     1     -10.895  15.063  69.976  1.00  0.00    -0.219 C  
HETATM   20  C   UNL     1     -11.070  16.212  68.975  1.00  0.00    -0.336 C  
HETATM   21  H   UNL     1      -9.444  14.958  65.458  1.00  0.00     0.000 HD 
HETATM   22  O   UNL     1      -9.409  14.295  66.138  1.00  0.00    -0.252 OA 
HETATM   23  C   UNL     1     -10.129  15.966  67.789  1.00  0.00    -0.244 C  
HETATM   24  O   UNL     1     -12.401  16.294  68.443  1.00  0.00     0.033 OA 
HETATM   25  H   UNL     1      -9.706  16.859  66.092  1.00  0.00     0.000 HD 
HETATM   26  O   UNL     1     -10.289  17.012  66.826  1.00  0.00    -0.309 OA 
HETATM   27  H   UNL     1     -12.510  17.005  67.822  1.00  0.00     0.000 HD 
HETATM   28  C   UNL     1     -10.389  14.583  67.154  1.00  0.00    -0.265 C  
BRANCH  19  29
HETATM   29  C   UNL     1     -11.782  15.217  71.214  1.00  0.00    -0.372 C  
HETATM   30  O   UNL     1     -11.676  16.553  71.708  1.00  0.00    -0.635 OA 
HETATM   31  H   UNL     1     -12.226  16.649  72.476  1.00  0.00     0.000 HD 
ENDBRANCH  19  29
ENDBRANCH  16  17
ENDBRANCH  10  16
ENDBRANCH   3   4
TORSDOF 5
ENDMDL
MODEL      195
REMARK 921   NORMALIZED FREE ENERGY PREDICTED BY IDOCK:   -3.41 KCAL/MOL
REMARK 922        TOTAL FREE ENERGY PREDICTED BY IDOCK:   -5.99 KCAL/MOL
REMARK 923 INTER-LIGAND FREE ENERGY PREDICTED BY IDOCK:   -5.58 KCAL/MOL
REMARK 924 INTRA-LIGAND FREE ENERGY PREDICTED BY IDOCK:   -0.41 KCAL/MOL
REMARK 927      BINDING AFFINITY PREDICTED BY RF-SCORE:    0.00 PKD
ROOT
HETATM    1  O   UNL     1      -5.792  17.438  70.081  1.00  0.00    -0.243 OA 
HETATM    2  H   UNL     1      -5.229  17.900  70.691  1.00  0.00     0.000 HD 
HETATM    3  C   UNL     1      -7.012  18.158  69.914  1.00  0.00     0.469 C  
ENDROOT
BRANCH   3   4
HETATM    4  C   UNL     1      -7.919  17.413  68.932  1.00  0.00    -0.187 C  
HETATM    5  O   UNL     1      -8.245  18.279  67.828  1.00  0.00    -0.240 OA 
HETATM    6  C   UNL     1      -8.455  17.437  66.692  1.00  0.00    -0.261 C  
HETATM    7  O   UNL     1      -8.098  18.177  65.519  1.00  0.00    -0.302 OA 
HETATM    8  H   UNL     1      -5.634  15.826  66.326  1.00  0.00     0.000 HD 
HETATM    9  C   UNL     1      -7.494  16.251  66.854  1.00  0.00    -0.236 C  
HETATM   10  C   UNL     1      -7.251  16.156  68.361  1.00  0.00    -0.135 C  
HETATM   11  O   UNL     1      -6.229  16.560  66.226  1.00  0.00    -0.122 OA 
HETATM   12  H   UNL     1      -8.237  17.617  64.764  1.00  0.00     0.000 HD 
BRANCH   6  13
HETATM   13  C   UNL     1      -9.938  17.043  66.613  1.00  0.00    -0.302 C  
HETATM   14  H   UNL     1     -11.128  16.334  65.228  1.00  0.00     0.000 HD 
HETATM   15  O   UNL     1     -10.211  16.577  65.278  1.00  0.00    -0.588 OA 
ENDBRANCH   6  13
BRANCH  10  16
HETATM   16  O   UNL     1      -7.823  14.951  68.891  1.00  0.00    -0.142 OA 
BRANCH  16  17
HETATM   17  C   UNL     1      -9.253  14.900  68.761  1.00  0.00    -0.193 C  
HETATM   18  O   UNL     1      -9.874  15.093  70.037  1.00  0.00    -0.146 OA 
HETATM   19  C   UNL     1     -11.310  15.103  69.951  1.00  0.00    -0.284 C  
HETATM   20  C   UNL     1     -11.824  13.750  69.441  1.00  0.00    -0.341 C  
HETATM   21  H   UNL     1      -9.378  12.653  66.375  1.00  0.00     0.000 HD 
HETATM   22  O   UNL     1      -9.118  13.472  66.778  1.00  0.00    -0.243 OA 
HETATM   23  C   UNL     1     -11.218  13.497  68.055  1.00  0.00    -0.271 C  
HETATM   24  O   UNL     1     -11.432  12.650  70.276  1.00  0.00    -0.518 OA 
HETATM   25  H   UNL     1     -11.285  12.072  66.705  1.00  0.00     0.000 HD 
HETATM   26  O   UNL     1     -11.661  12.229  67.563  1.00  0.00    -0.368 OA 
HETATM   27  H   UNL     1     -11.749  11.813  69.960  1.00  0.00     0.000 HD 
HETATM   28  C   UNL     1      -9.676  13.564  68.104  1.00  0.00    -0.233 C  
BRANCH  19  29
HETATM   29  C   UNL     1     -11.869  15.465  71.330  1.00  0.00    -0.384 C  
HETATM   30  O   UNL     1     -12.877  14.520  71.695  1.00  0.00    -0.308 OA 
HETATM   31  H   UNL     1     -13.224  14.745  72.550  1.00  0.00     0.000 HD 
ENDBRANCH  19  29
ENDBRANCH  16  17
ENDBRANCH  10  16
ENDBRANCH   3   4
TORSDOF 5
ENDMDL
MODEL      196
REMARK 921   NORMALIZED FREE ENERGY PREDICTED BY IDOCK:   -3.36 KCAL/MOL
REMARK 922        TOTAL FREE ENERGY PREDICTED BY IDOCK:   -5.92 KCAL/MOL
REMARK 923 INTER-LIGAND FREE ENERGY PREDICTED BY IDOCK:   -4.92 KCAL/MOL
REMARK 924 INTRA-LIGAND FREE ENERGY PREDICTED BY IDOCK:   -1.00 KCAL/MOL
REMARK 927      BINDING AFFINITY PREDICTED BY RF-SCORE:    0.00 PKD
ROOT
HETATM    1  O   UNL     1     -11.539   6.288  70.020  1.00  0.00    -0.425 OA 
HETATM    2  H   UNL     1     -12.075   5.749  70.590  1.00  0.00     0.000 HD 
HETATM    3  C   UNL     1     -10.198   6.314  70.506  1.00  0.00    -0.193 C  
ENDROOT
BRANCH   3   4
HETATM    4  C   UNL     1      -9.335   7.183  69.587  1.00  0.00    -0.149 C  
HETATM    5  O   UNL     1      -8.764   6.363  68.550  1.00  0.00    -0.121 OA 
HETATM    6  C   UNL     1      -8.586   7.208  67.410  1.00  0.00    -0.121 C  
HETATM    7  O   UNL     1      -8.699   6.396  66.235  1.00  0.00    -0.133 OA 
HETATM    8  H   UNL     1     -11.585   8.315  66.726  1.00  0.00     0.000 HD 
HETATM    9  C   UNL     1      -9.741   8.218  67.440  1.00  0.00    -0.174 C  
HETATM   10  C   UNL     1     -10.143   8.299  68.914  1.00  0.00    -0.199 C  
HETATM   11  O   UNL     1     -10.870   7.689  66.707  1.00  0.00    -0.274 OA 
HETATM   12  H   UNL     1      -8.581   6.958  65.477  1.00  0.00     0.000 HD 
BRANCH   6  13
HETATM   13  C   UNL     1      -7.188   7.843  67.456  1.00  0.00    -0.088 C  
HETATM   14  H   UNL     1      -5.440   7.444  66.669  1.00  0.00     0.000 HD 
HETATM   15  O   UNL     1      -6.304   7.051  66.641  1.00  0.00    -0.046 OA 
ENDBRANCH   6  13
BRANCH  10  16
HETATM   16  O   UNL     1      -9.833   9.593  69.453  1.00  0.00    -0.173 OA 
BRANCH  16  17
HETATM   17  C   UNL     1      -9.827  10.631  68.461  1.00  0.00    -0.168 C  
HETATM   18  O   UNL     1      -8.551  11.279  68.428  1.00  0.00    -0.143 OA 
HETATM   19  C   UNL     1      -8.478  12.296  67.412  1.00  0.00    -0.176 C  
HETATM   20  C   UNL     1      -9.500  13.405  67.693  1.00  0.00    -0.216 C  
HETATM   21  H   UNL     1     -12.954  11.560  68.809  1.00  0.00     0.000 HD 
HETATM   22  O   UNL     1     -12.247  10.949  68.641  1.00  0.00    -0.533 OA 
HETATM   23  C   UNL     1     -10.900  12.779  67.708  1.00  0.00    -0.225 C  
HETATM   24  O   UNL     1      -9.308  14.034  68.969  1.00  0.00    -0.392 OA 
HETATM   25  H   UNL     1     -12.739  13.400  68.002  1.00  0.00     0.000 HD 
HETATM   26  O   UNL     1     -11.872  13.789  67.992  1.00  0.00    -0.341 OA 
HETATM   27  H   UNL     1      -9.941  14.721  69.144  1.00  0.00     0.000 HD 
HETATM   28  C   UNL     1     -10.980  11.628  68.734  1.00  0.00    -0.226 C  
BRANCH  19  29
HETATM   29  C   UNL     1      -7.039  12.816  67.359  1.00  0.00    -0.132 C  
HETATM   30  O   UNL     1      -7.055  14.243  67.291  1.00  0.00    -0.273 OA 
HETATM   31  H   UNL     1      -6.163  14.566  67.258  1.00  0.00     0.000 HD 
ENDBRANCH  19  29
ENDBRANCH  16  17
ENDBRANCH  10  16
ENDBRANCH   3   4
TORSDOF 5
ENDMDL
MODEL      197
REMARK 921   NORMALIZED FREE ENERGY PREDICTED BY IDOCK:   -3.35 KCAL/MOL
REMARK 922        TOTAL FREE ENERGY PREDICTED BY IDOCK:   -5.91 KCAL/MOL
REMARK 923 INTER-LIGAND FREE ENERGY PREDICTED BY IDOCK:   -4.41 KCAL/MOL
REMARK 924 INTRA-LIGAND FREE ENERGY PREDICTED BY IDOCK:   -1.50 KCAL/MOL
REMARK 927      BINDING AFFINITY PREDICTED BY RF-SCORE:    0.00 PKD
ROOT
HETATM    1  O   UNL     1      -9.167   9.318  71.031  1.00  0.00    -0.246 OA 
HETATM    2  H   UNL     1      -9.152  10.105  71.562  1.00  0.00     0.000 HD 
HETATM    3  C   UNL     1      -8.251   8.362  71.564  1.00  0.00    -0.144 C  
ENDROOT
BRANCH   3   4
HETATM    4  C   UNL     1      -8.275   7.094  70.707  1.00  0.00    -0.120 C  
HETATM    5  O   UNL     1      -8.696   5.978  71.513  1.00  0.00    -0.131 OA 
HETATM    6  C   UNL     1      -9.349   5.059  70.634  1.00  0.00    -0.160 C  
HETATM    7  O   UNL     1     -10.337   4.347  71.390  1.00  0.00    -0.132 OA 
HETATM    8  H   UNL     1     -11.817   6.766  69.338  1.00  0.00     0.000 HD 
HETATM    9  C   UNL     1     -10.046   5.910  69.564  1.00  0.00    -0.203 C  
HETATM   10  C   UNL     1      -9.241   7.210  69.522  1.00  0.00    -0.149 C  
HETATM   11  O   UNL     1     -11.385   6.239  70.000  1.00  0.00    -0.380 OA 
HETATM   12  H   UNL     1     -10.771   3.737  70.805  1.00  0.00     0.000 HD 
BRANCH   6  13
HETATM   13  C   UNL     1      -8.320   4.062  70.078  1.00  0.00    -0.056 C  
HETATM   14  H   UNL     1      -8.367   2.216  69.427  1.00  0.00     0.000 HD 
HETATM   15  O   UNL     1      -9.003   2.832  69.771  1.00  0.00    -0.081 OA 
ENDBRANCH   6  13
BRANCH  10  16
HETATM   16  O   UNL     1      -8.550   7.336  68.270  1.00  0.00    -0.123 OA 
BRANCH  16  17
HETATM   17  C   UNL     1      -8.643   8.653  67.704  1.00  0.00    -0.136 C  
HETATM   18  O   UNL     1      -7.809   9.564  68.428  1.00  0.00    -0.085 OA 
HETATM   19  C   UNL     1      -7.826  10.889  67.867  1.00  0.00    -0.109 C  
HETATM   20  C   UNL     1      -9.241  11.478  67.935  1.00  0.00    -0.168 C  
HETATM   21  H   UNL     1     -11.799   8.511  66.823  1.00  0.00     0.000 HD 
HETATM   22  O   UNL     1     -10.893   8.229  66.841  1.00  0.00    -0.228 OA 
HETATM   23  C   UNL     1     -10.184  10.562  67.146  1.00  0.00    -0.223 C  
HETATM   24  O   UNL     1      -9.754  11.552  69.274  1.00  0.00    -0.407 OA 
HETATM   25  H   UNL     1     -12.101  10.507  66.723  1.00  0.00     0.000 HD 
HETATM   26  O   UNL     1     -11.517  11.075  67.212  1.00  0.00    -0.470 OA 
HETATM   27  H   UNL     1     -10.630  11.917  69.316  1.00  0.00     0.000 HD 
HETATM   28  C   UNL     1     -10.120   9.113  67.676  1.00  0.00    -0.220 C  
BRANCH  19  29
HETATM   29  C   UNL     1      -6.795  11.739  68.614  1.00  0.00    -0.081 C  
HETATM   30  O   UNL     1      -7.137  11.786  70.000  1.00  0.00    -0.359 OA 
HETATM   31  H   UNL     1      -6.498  12.314  70.464  1.00  0.00     0.000 HD 
ENDBRANCH  19  29
ENDBRANCH  16  17
ENDBRANCH  10  16
ENDBRANCH   3   4
TORSDOF 5
ENDMDL
MODEL      198
REMARK 921   NORMALIZED FREE ENERGY PREDICTED BY IDOCK:   -3.34 KCAL/MOL
REMARK 922        TOTAL FREE ENERGY PREDICTED BY IDOCK:   -5.91 KCAL/MOL
REMARK 923 INTER-LIGAND FREE ENERGY PREDICTED BY IDOCK:   -5.07 KCAL/MOL
REMARK 924 INTRA-LIGAND FREE ENERGY PREDICTED BY IDOCK:   -0.83 KCAL/MOL
REMARK 927      BINDING AFFINITY PREDICTED BY RF-SCORE:    0.00 PKD
ROOT
HETATM    1  O   UNL     1      -8.229   9.852  70.809  1.00  0.00    -0.393 OA 
HETATM    2  H   UNL     1      -7.999  10.736  70.549  1.00  0.00     0.000 HD 
HETATM    3  C   UNL     1      -9.517   9.519  70.291  1.00  0.00    -0.259 C  
ENDROOT
BRANCH   3   4
HETATM    4  C   UNL     1      -9.887   8.095  70.712  1.00  0.00    -0.180 C  
HETATM    5  O   UNL     1      -9.694   7.948  72.132  1.00  0.00    -0.173 OA 
HETATM    6  C   UNL     1     -10.633   6.965  72.575  1.00  0.00    -0.222 C  
HETATM    7  O   UNL     1     -10.977   7.261  73.934  1.00  0.00    -0.533 OA 
HETATM    8  H   UNL     1     -13.554   8.182  71.751  1.00  0.00     0.000 HD 
HETATM    9  C   UNL     1     -11.877   7.131  71.691  1.00  0.00    -0.306 C  
HETATM   10  C   UNL     1     -11.350   7.757  70.398  1.00  0.00    -0.207 C  
HETATM   11  O   UNL     1     -12.784   8.080  72.299  1.00  0.00    -0.285 OA 
HETATM   12  H   UNL     1     -11.601   6.608  74.228  1.00  0.00     0.000 HD 
BRANCH   6  13
HETATM   13  C   UNL     1      -9.989   5.572  72.505  1.00  0.00    -0.169 C  
HETATM   14  H   UNL     1      -8.315   4.769  73.128  1.00  0.00     0.000 HD 
HETATM   15  O   UNL     1      -8.714   5.631  73.171  1.00  0.00    -0.121 OA 
ENDBRANCH   6  13
BRANCH  10  16
HETATM   16  O   UNL     1     -11.471   6.836  69.304  1.00  0.00    -0.203 OA 
BRANCH  16  17
HETATM   17  C   UNL     1     -10.246   6.663  68.574  1.00  0.00    -0.171 C  
HETATM   18  O   UNL     1     -10.226   7.521  67.429  1.00  0.00    -0.200 OA 
HETATM   19  C   UNL     1      -8.994   7.423  66.691  1.00  0.00    -0.146 C  
HETATM   20  C   UNL     1      -8.811   6.000  66.147  1.00  0.00    -0.148 C  
HETATM   21  H   UNL     1      -9.868   3.454  69.144  1.00  0.00     0.000 HD 
HETATM   22  O   UNL     1      -9.978   4.368  69.380  1.00  0.00    -0.197 OA 
HETATM   23  C   UNL     1      -8.791   5.028  67.333  1.00  0.00    -0.102 C  
HETATM   24  O   UNL     1      -9.882   5.587  65.286  1.00  0.00    -0.350 OA 
HETATM   25  H   UNL     1      -8.633   3.088  67.587  1.00  0.00     0.000 HD 
HETATM   26  O   UNL     1      -8.645   3.689  66.852  1.00  0.00    -0.103 OA 
HETATM   27  H   UNL     1      -9.769   4.706  64.948  1.00  0.00     0.000 HD 
HETATM   28  C   UNL     1     -10.067   5.174  68.189  1.00  0.00    -0.129 C  
BRANCH  19  29
HETATM   29  C   UNL     1      -9.012   8.481  65.585  1.00  0.00    -0.160 C  
HETATM   30  O   UNL     1      -8.290   7.995  64.453  1.00  0.00    -0.314 OA 
HETATM   31  H   UNL     1      -8.301   8.651  63.767  1.00  0.00     0.000 HD 
ENDBRANCH  19  29
ENDBRANCH  16  17
ENDBRANCH  10  16
ENDBRANCH   3   4
TORSDOF 5
ENDMDL
MODEL      199
REMARK 921   NORMALIZED FREE ENERGY PREDICTED BY IDOCK:   -3.33 KCAL/MOL
REMARK 922        TOTAL FREE ENERGY PREDICTED BY IDOCK:   -5.88 KCAL/MOL
REMARK 923 INTER-LIGAND FREE ENERGY PREDICTED BY IDOCK:   -4.87 KCAL/MOL
REMARK 924 INTRA-LIGAND FREE ENERGY PREDICTED BY IDOCK:   -1.02 KCAL/MOL
REMARK 927      BINDING AFFINITY PREDICTED BY RF-SCORE:    0.00 PKD
ROOT
HETATM    1  O   UNL     1      -7.650   8.500  63.723  1.00  0.00    -0.115 OA 
HETATM    2  H   UNL     1      -7.159   8.346  62.925  1.00  0.00     0.000 HD 
HETATM    3  C   UNL     1      -7.540   7.364  64.580  1.00  0.00    -0.110 C  
ENDROOT
BRANCH   3   4
HETATM    4  C   UNL     1      -8.331   7.611  65.866  1.00  0.00    -0.139 C  
HETATM    5  O   UNL     1      -8.794   6.354  66.394  1.00  0.00    -0.132 OA 
HETATM    6  C   UNL     1      -8.884   6.512  67.813  1.00  0.00    -0.113 C  
HETATM    7  O   UNL     1      -8.653   5.233  68.416  1.00  0.00    -0.096 OA 
HETATM    8  H   UNL     1      -5.855   7.309  68.748  1.00  0.00     0.000 HD 
HETATM    9  C   UNL     1      -7.753   7.470  68.210  1.00  0.00    -0.120 C  
HETATM   10  C   UNL     1      -7.485   8.293  66.949  1.00  0.00    -0.088 C  
HETATM   11  O   UNL     1      -6.555   6.716  68.502  1.00  0.00    -0.047 OA 
HETATM   12  H   UNL     1      -8.712   5.338  69.359  1.00  0.00     0.000 HD 
BRANCH   6  13
HETATM   13  C   UNL     1     -10.290   7.003  68.186  1.00  0.00    -0.191 C  
HETATM   14  H   UNL     1     -12.012   6.158  68.582  1.00  0.00     0.000 HD 
HETATM   15  O   UNL     1     -11.142   5.854  68.351  1.00  0.00    -0.268 OA 
ENDBRANCH   6  13
BRANCH  10  16
HETATM   16  O   UNL     1      -7.864   9.664  67.149  1.00  0.00    -0.092 OA 
BRANCH  16  17
HETATM   17  C   UNL     1      -9.161   9.975  66.616  1.00  0.00    -0.149 C  
HETATM   18  O   UNL     1      -9.033  10.630  65.349  1.00  0.00    -0.177 OA 
HETATM   19  C   UNL     1     -10.308  10.916  64.748  1.00  0.00    -0.323 C  
HETATM   20  C   UNL     1     -11.111  11.878  65.633  1.00  0.00    -0.310 C  
HETATM   21  H   UNL     1     -10.651  10.597  69.471  1.00  0.00     0.000 HD 
HETATM   22  O   UNL     1     -10.161  10.076  68.847  1.00  0.00    -0.173 OA 
HETATM   23  C   UNL     1     -11.313  11.219  67.002  1.00  0.00    -0.187 C  
HETATM   24  O   UNL     1     -10.435  13.123  65.864  1.00  0.00    -0.271 OA 
HETATM   25  H   UNL     1     -12.165  11.696  68.706  1.00  0.00     0.000 HD 
HETATM   26  O   UNL     1     -12.040  12.105  67.858  1.00  0.00    -0.502 OA 
HETATM   27  H   UNL     1     -10.932  13.719  66.413  1.00  0.00     0.000 HD 
HETATM   28  C   UNL     1      -9.960  10.825  67.632  1.00  0.00    -0.173 C  
BRANCH  19  29
HETATM   29  C   UNL     1     -10.061  11.472  63.343  1.00  0.00    -0.420 C  
HETATM   30  O   UNL     1     -11.026  12.487  63.059  1.00  0.00    -0.673 OA 
HETATM   31  H   UNL     1     -10.873  12.832  62.188  1.00  0.00     0.000 HD 
ENDBRANCH  19  29
ENDBRANCH  16  17
ENDBRANCH  10  16
ENDBRANCH   3   4
TORSDOF 5
ENDMDL
MODEL      200
REMARK 921   NORMALIZED FREE ENERGY PREDICTED BY IDOCK:   -3.31 KCAL/MOL
REMARK 922        TOTAL FREE ENERGY PREDICTED BY IDOCK:   -5.86 KCAL/MOL
REMARK 923 INTER-LIGAND FREE ENERGY PREDICTED BY IDOCK:   -4.86 KCAL/MOL
REMARK 924 INTRA-LIGAND FREE ENERGY PREDICTED BY IDOCK:   -1.00 KCAL/MOL
REMARK 927      BINDING AFFINITY PREDICTED BY RF-SCORE:    0.00 PKD
ROOT
HETATM    1  O   UNL     1     -11.962  11.542  67.809  1.00  0.00    -0.623 OA 
HETATM    2  H   UNL     1     -12.806  11.841  68.127  1.00  0.00     0.000 HD 
HETATM    3  C   UNL     1     -11.150  11.140  68.912  1.00  0.00    -0.237 C  
ENDROOT
BRANCH   3   4
HETATM    4  C   UNL     1      -9.790  10.659  68.400  1.00  0.00    -0.161 C  
HETATM    5  O   UNL     1      -8.812  11.700  68.585  1.00  0.00    -0.156 OA 
HETATM    6  C   UNL     1      -7.551  11.052  68.767  1.00  0.00    -0.127 C  
HETATM    7  O   UNL     1      -6.738  11.888  69.599  1.00  0.00    -0.259 OA 
HETATM    8  H   UNL     1      -7.971   9.145  71.389  1.00  0.00     0.000 HD 
HETATM    9  C   UNL     1      -7.846   9.738  69.504  1.00  0.00    -0.128 C  
HETATM   10  C   UNL     1      -9.296   9.412  69.143  1.00  0.00    -0.159 C  
HETATM   11  O   UNL     1      -7.789   9.958  70.932  1.00  0.00    -0.235 OA 
HETATM   12  H   UNL     1      -5.900  11.457  69.720  1.00  0.00     0.000 HD 
BRANCH   6  13
HETATM   13  C   UNL     1      -6.866  10.872  67.404  1.00  0.00    -0.079 C  
HETATM   14  H   UNL     1      -6.013   9.391  66.447  1.00  0.00     0.000 HD 
HETATM   15  O   UNL     1      -6.438   9.502  67.290  1.00  0.00    -0.068 OA 
ENDBRANCH   6  13
BRANCH  10  16
HETATM   16  O   UNL     1      -9.361   8.233  68.326  1.00  0.00    -0.135 OA 
BRANCH  16  17
HETATM   17  C   UNL     1     -10.134   7.177  68.918  1.00  0.00    -0.177 C  
HETATM   18  O   UNL     1     -11.026   7.709  69.903  1.00  0.00    -0.250 OA 
HETATM   19  C   UNL     1     -11.862   6.695  70.490  1.00  0.00    -0.370 C  
HETATM   20  C   UNL     1     -11.004   5.656  71.225  1.00  0.00    -0.181 C  
HETATM   21  H   UNL     1      -7.820   4.854  68.816  1.00  0.00     0.000 HD 
HETATM   22  O   UNL     1      -8.398   5.516  68.455  1.00  0.00    -0.101 OA 
HETATM   23  C   UNL     1     -10.043   5.022  70.212  1.00  0.00    -0.269 C  
HETATM   24  O   UNL     1     -10.198   6.229  72.265  1.00  0.00    -0.185 OA 
HETATM   25  H   UNL     1      -8.617   3.672  70.248  1.00  0.00     0.000 HD 
HETATM   26  O   UNL     1      -9.213   4.064  70.875  1.00  0.00    -0.111 OA 
HETATM   27  H   UNL     1      -9.666   5.586  72.719  1.00  0.00     0.000 HD 
HETATM   28  C   UNL     1      -9.192   6.100  69.507  1.00  0.00    -0.138 C  
BRANCH  19  29
HETATM   29  C   UNL     1     -12.874   7.382  71.410  1.00  0.00    -0.365 C  
HETATM   30  O   UNL     1     -12.183   8.255  72.305  1.00  0.00    -0.344 OA 
HETATM   31  H   UNL     1     -12.811   8.682  72.876  1.00  0.00     0.000 HD 
ENDBRANCH  19  29
ENDBRANCH  16  17
ENDBRANCH  10  16
ENDBRANCH   3   4
TORSDOF 5
ENDMDL
MODEL      201
REMARK 921   NORMALIZED FREE ENERGY PREDICTED BY IDOCK:   -3.31 KCAL/MOL
REMARK 922        TOTAL FREE ENERGY PREDICTED BY IDOCK:   -5.85 KCAL/MOL
REMARK 923 INTER-LIGAND FREE ENERGY PREDICTED BY IDOCK:   -5.52 KCAL/MOL
REMARK 924 INTRA-LIGAND FREE ENERGY PREDICTED BY IDOCK:   -0.34 KCAL/MOL
REMARK 927      BINDING AFFINITY PREDICTED BY RF-SCORE:    0.00 PKD
ROOT
HETATM    1  O   UNL     1      -9.960  10.076  70.756  1.00  0.00    -0.339 OA 
HETATM    2  H   UNL     1      -9.759   9.827  71.651  1.00  0.00     0.000 HD 
HETATM    3  C   UNL     1      -9.062   9.419  69.863  1.00  0.00    -0.204 C  
ENDROOT
BRANCH   3   4
HETATM    4  C   UNL     1      -9.387   9.819  68.422  1.00  0.00    -0.133 C  
HETATM    5  O   UNL     1      -8.561   9.063  67.516  1.00  0.00    -0.119 OA 
HETATM    6  C   UNL     1      -9.304   8.923  66.302  1.00  0.00    -0.219 C  
HETATM    7  O   UNL     1      -8.908   7.694  65.679  1.00  0.00    -0.293 OA 
HETATM    8  H   UNL     1     -12.052   7.390  67.187  1.00  0.00     0.000 HD 
HETATM    9  C   UNL     1     -10.780   8.830  66.711  1.00  0.00    -0.018 C  
HETATM   10  C   UNL     1     -10.852   9.550  68.059  1.00  0.00    -0.168 C  
HETATM   11  O   UNL     1     -11.138   7.447  66.934  1.00  0.00    -0.236 OA 
HETATM   12  H   UNL     1      -9.402   7.601  64.873  1.00  0.00     0.000 HD 
BRANCH   6  13
HETATM   13  C   UNL     1      -8.979  10.095  65.364  1.00  0.00    -0.177 C  
HETATM   14  H   UNL     1      -9.848  10.943  63.828  1.00  0.00     0.000 HD 
HETATM   15  O   UNL     1     -10.049  10.219  64.408  1.00  0.00    -0.324 OA 
ENDBRANCH   6  13
BRANCH  10  16
HETATM   16  O   UNL     1     -11.613  10.762  67.945  1.00  0.00    -0.504 OA 
BRANCH  16  17
HETATM   17  C   UNL     1     -10.873  11.840  67.350  1.00  0.00    -0.251 C  
HETATM   18  O   UNL     1     -10.089  12.510  68.343  1.00  0.00    -0.220 OA 
HETATM   19  C   UNL     1      -9.287  13.568  67.786  1.00  0.00    -0.213 C  
HETATM   20  C   UNL     1     -10.184  14.648  67.167  1.00  0.00    -0.256 C  
HETATM   21  H   UNL     1     -13.111  12.701  65.111  1.00  0.00     0.000 HD 
HETATM   22  O   UNL     1     -12.518  12.109  65.558  1.00  0.00    -0.517 OA 
HETATM   23  C   UNL     1     -11.031  13.998  66.067  1.00  0.00    -0.298 C  
HETATM   24  O   UNL     1     -11.096  15.227  68.111  1.00  0.00    -0.282 OA 
HETATM   25  H   UNL     1     -12.421  14.576  64.805  1.00  0.00     0.000 HD 
HETATM   26  O   UNL     1     -11.896  14.979  65.486  1.00  0.00    -0.224 OA 
HETATM   27  H   UNL     1     -11.652  15.896  67.728  1.00  0.00     0.000 HD 
HETATM   28  C   UNL     1     -11.839  12.805  66.622  1.00  0.00    -0.393 C  
BRANCH  19  29
HETATM   29  C   UNL     1      -8.381  14.114  68.893  1.00  0.00    -0.003 C  
HETATM   30  O   UNL     1      -7.843  15.373  68.485  1.00  0.00    -0.125 OA 
HETATM   31  H   UNL     1      -7.281  15.712  69.171  1.00  0.00     0.000 HD 
ENDBRANCH  19  29
ENDBRANCH  16  17
ENDBRANCH  10  16
ENDBRANCH   3   4
TORSDOF 5
ENDMDL
MODEL      202
REMARK 921   NORMALIZED FREE ENERGY PREDICTED BY IDOCK:   -3.29 KCAL/MOL
REMARK 922        TOTAL FREE ENERGY PREDICTED BY IDOCK:   -5.83 KCAL/MOL
REMARK 923 INTER-LIGAND FREE ENERGY PREDICTED BY IDOCK:   -4.39 KCAL/MOL
REMARK 924 INTRA-LIGAND FREE ENERGY PREDICTED BY IDOCK:   -1.44 KCAL/MOL
REMARK 927      BINDING AFFINITY PREDICTED BY RF-SCORE:    0.00 PKD
ROOT
HETATM    1  O   UNL     1      -9.455   9.763  67.850  1.00  0.00    -0.131 OA 
HETATM    2  H   UNL     1      -9.488  10.339  67.095  1.00  0.00     0.000 HD 
HETATM    3  C   UNL     1     -10.479  10.125  68.775  1.00  0.00    -0.204 C  
ENDROOT
BRANCH   3   4
HETATM    4  C   UNL     1     -10.424   9.198  69.991  1.00  0.00    -0.221 C  
HETATM    5  O   UNL     1     -11.752   9.026  70.524  1.00  0.00    -0.234 OA 
HETATM    6  C   UNL     1     -11.788   7.731  71.128  1.00  0.00    -0.291 C  
HETATM    7  O   UNL     1     -13.130   7.238  71.040  1.00  0.00    -0.573 OA 
HETATM    8  H   UNL     1     -11.054   5.667  68.701  1.00  0.00     0.000 HD 
HETATM    9  C   UNL     1     -10.865   6.839  70.286  1.00  0.00    -0.270 C  
HETATM   10  C   UNL     1      -9.875   7.810  69.641  1.00  0.00    -0.182 C  
HETATM   11  O   UNL     1     -11.625   6.219  69.223  1.00  0.00    -0.363 OA 
HETATM   12  H   UNL     1     -13.154   6.377  71.442  1.00  0.00     0.000 HD 
BRANCH   6  13
HETATM   13  C   UNL     1     -11.383   7.843  72.605  1.00  0.00    -0.408 C  
HETATM   14  H   UNL     1     -10.509   6.675  73.912  1.00  0.00     0.000 HD 
HETATM   15  O   UNL     1     -10.759   6.606  72.998  1.00  0.00    -0.238 OA 
ENDBRANCH   6  13
BRANCH  10  16
HETATM   16  O   UNL     1      -8.553   7.604  70.162  1.00  0.00    -0.137 OA 
BRANCH  16  17
HETATM   17  C   UNL     1      -7.634   7.090  69.184  1.00  0.00    -0.100 C  
HETATM   18  O   UNL     1      -8.192   7.206  67.870  1.00  0.00    -0.117 OA 
HETATM   19  C   UNL     1      -7.287   6.752  66.848  1.00  0.00    -0.082 C  
HETATM   20  C   UNL     1      -6.975   5.262  67.036  1.00  0.00    -0.065 C  
HETATM   21  H   UNL     1      -6.365   4.687  71.021  1.00  0.00     0.000 HD 
HETATM   22  O   UNL     1      -6.597   5.583  70.809  1.00  0.00    -0.040 OA 
HETATM   23  C   UNL     1      -6.341   5.073  68.419  1.00  0.00    -0.036 C  
HETATM   24  O   UNL     1      -8.147   4.434  66.996  1.00  0.00    -0.101 OA 
HETATM   25  H   UNL     1      -5.667   3.570  69.488  1.00  0.00     0.000 HD 
HETATM   26  O   UNL     1      -6.060   3.686  68.631  1.00  0.00    -0.026 OA 
HETATM   27  H   UNL     1      -7.954   3.511  67.112  1.00  0.00     0.000 HD 
HETATM   28  C   UNL     1      -7.258   5.629  69.529  1.00  0.00    -0.066 C  
BRANCH  19  29
HETATM   29  C   UNL     1      -7.913   7.058  65.484  1.00  0.00    -0.130 C  
HETATM   30  O   UNL     1      -9.253   6.565  65.458  1.00  0.00    -0.376 OA 
HETATM   31  H   UNL     1      -9.642   6.754  64.613  1.00  0.00     0.000 HD 
ENDBRANCH  19  29
ENDBRANCH  16  17
ENDBRANCH  10  16
ENDBRANCH   3   4
TORSDOF 5
ENDMDL
MODEL      203
REMARK 921   NORMALIZED FREE ENERGY PREDICTED BY IDOCK:   -3.28 KCAL/MOL
REMARK 922        TOTAL FREE ENERGY PREDICTED BY IDOCK:   -5.83 KCAL/MOL
REMARK 923 INTER-LIGAND FREE ENERGY PREDICTED BY IDOCK:   -5.21 KCAL/MOL
REMARK 924 INTRA-LIGAND FREE ENERGY PREDICTED BY IDOCK:   -0.62 KCAL/MOL
REMARK 927      BINDING AFFINITY PREDICTED BY RF-SCORE:    0.00 PKD
ROOT
HETATM    1  O   UNL     1     -11.503  12.267  69.620  1.00  0.00    -0.387 OA 
HETATM    2  H   UNL     1     -11.643  12.271  70.560  1.00  0.00     0.000 HD 
HETATM    3  C   UNL     1     -11.802  10.974  69.096  1.00  0.00    -0.337 C  
ENDROOT
BRANCH   3   4
HETATM    4  C   UNL     1     -11.576  10.969  67.582  1.00  0.00    -0.143 C  
HETATM    5  O   UNL     1     -11.796  12.293  67.060  1.00  0.00    -0.519 OA 
HETATM    6  C   UNL     1     -10.961  12.423  65.906  1.00  0.00    -0.288 C  
HETATM    7  O   UNL     1     -10.604  13.804  65.771  1.00  0.00    -0.281 OA 
HETATM    8  H   UNL     1      -7.929  11.923  67.019  1.00  0.00     0.000 HD 
HETATM    9  C   UNL     1      -9.699  11.599  66.195  1.00  0.00    -0.229 C  
HETATM   10  C   UNL     1     -10.150  10.546  67.208  1.00  0.00    -0.201 C  
HETATM   11  O   UNL     1      -8.710  12.433  66.841  1.00  0.00    -0.198 OA 
HETATM   12  H   UNL     1     -10.049  13.891  65.005  1.00  0.00     0.000 HD 
BRANCH   6  13
HETATM   13  C   UNL     1     -11.738  11.976  64.658  1.00  0.00    -0.287 C  
HETATM   14  H   UNL     1     -13.567  12.191  63.993  1.00  0.00     0.000 HD 
HETATM   15  O   UNL     1     -13.087  12.468  64.764  1.00  0.00    -0.853 OA 
ENDBRANCH   6  13
BRANCH  10  16
HETATM   16  O   UNL     1     -10.109   9.234  66.626  1.00  0.00    -0.242 OA 
BRANCH  16  17
HETATM   17  C   UNL     1      -8.775   8.774  66.364  1.00  0.00    -0.139 C  
HETATM   18  O   UNL     1      -8.751   7.972  65.178  1.00  0.00    -0.104 OA 
HETATM   19  C   UNL     1      -7.424   7.528  64.842  1.00  0.00    -0.089 C  
HETATM   20  C   UNL     1      -6.861   6.637  65.957  1.00  0.00    -0.053 C  
HETATM   21  H   UNL     1      -7.827   8.427  69.485  1.00  0.00     0.000 HD 
HETATM   22  O   UNL     1      -8.163   8.895  68.730  1.00  0.00    -0.112 OA 
HETATM   23  C   UNL     1      -6.828   7.453  67.255  1.00  0.00    -0.078 C  
HETATM   24  O   UNL     1      -7.669   5.479  66.211  1.00  0.00    -0.096 OA 
HETATM   25  H   UNL     1      -6.309   7.144  69.124  1.00  0.00     0.000 HD 
HETATM   26  O   UNL     1      -6.328   6.639  68.320  1.00  0.00    -0.034 OA 
HETATM   27  H   UNL     1      -7.320   4.927  66.902  1.00  0.00     0.000 HD 
HETATM   28  C   UNL     1      -8.227   8.011  67.594  1.00  0.00    -0.124 C  
BRANCH  19  29
HETATM   29  C   UNL     1      -7.486   6.814  63.489  1.00  0.00    -0.080 C  
HETATM   30  O   UNL     1      -8.650   5.987  63.444  1.00  0.00    -0.336 OA 
HETATM   31  H   UNL     1      -8.689   5.543  62.606  1.00  0.00     0.000 HD 
ENDBRANCH  19  29
ENDBRANCH  16  17
ENDBRANCH  10  16
ENDBRANCH   3   4
TORSDOF 5
ENDMDL
MODEL      204
REMARK 921   NORMALIZED FREE ENERGY PREDICTED BY IDOCK:   -3.27 KCAL/MOL
REMARK 922        TOTAL FREE ENERGY PREDICTED BY IDOCK:   -5.81 KCAL/MOL
REMARK 923 INTER-LIGAND FREE ENERGY PREDICTED BY IDOCK:   -5.11 KCAL/MOL
REMARK 924 INTRA-LIGAND FREE ENERGY PREDICTED BY IDOCK:   -0.70 KCAL/MOL
REMARK 927      BINDING AFFINITY PREDICTED BY RF-SCORE:    0.00 PKD
ROOT
HETATM    1  O   UNL     1      -9.510  14.462  66.010  1.00  0.00    -0.437 OA 
HETATM    2  H   UNL     1      -9.546  15.351  66.345  1.00  0.00     0.000 HD 
HETATM    3  C   UNL     1     -10.151  13.578  66.928  1.00  0.00    -0.256 C  
ENDROOT
BRANCH   3   4
HETATM    4  C   UNL     1     -10.093  12.147  66.389  1.00  0.00    -0.220 C  
HETATM    5  O   UNL     1      -9.253  12.108  65.220  1.00  0.00     0.027 OA 
HETATM    6  C   UNL     1      -8.680  10.799  65.168  1.00  0.00    -0.164 C  
HETATM    7  O   UNL     1      -7.403  10.899  64.526  1.00  0.00    -0.328 OA 
HETATM    8  H   UNL     1      -7.047  10.501  67.985  1.00  0.00     0.000 HD 
HETATM    9  C   UNL     1      -8.480  10.361  66.626  1.00  0.00    -0.126 C  
HETATM   10  C   UNL     1      -9.518  11.161  67.414  1.00  0.00    -0.164 C  
HETATM   11  O   UNL     1      -7.171  10.773  67.083  1.00  0.00    -0.092 OA 
HETATM   12  H   UNL     1      -7.022  10.030  64.492  1.00  0.00     0.000 HD 
BRANCH   6  13
HETATM   13  C   UNL     1      -9.590   9.873  64.348  1.00  0.00    -0.189 C  
HETATM   14  H   UNL     1     -10.483   9.966  62.608  1.00  0.00     0.000 HD 
HETATM   15  O   UNL     1      -9.920  10.539  63.115  1.00  0.00    -0.294 OA 
ENDBRANCH   6  13
BRANCH  10  16
HETATM   16  O   UNL     1     -10.525  10.291  67.952  1.00  0.00    -0.182 OA 
BRANCH  16  17
HETATM   17  C   UNL     1     -10.015   9.003  68.331  1.00  0.00    -0.180 C  
HETATM   18  O   UNL     1     -10.647   7.974  67.563  1.00  0.00    -0.259 OA 
HETATM   19  C   UNL     1     -10.131   6.665  67.868  1.00  0.00    -0.150 C  
HETATM   20  C   UNL     1     -10.405   6.314  69.337  1.00  0.00    -0.216 C  
HETATM   21  H   UNL     1      -9.561   9.650  71.515  1.00  0.00     0.000 HD 
HETATM   22  O   UNL     1      -9.449   9.781  70.581  1.00  0.00    -0.196 OA 
HETATM   23  C   UNL     1      -9.723   7.367  70.219  1.00  0.00    -0.172 C  
HETATM   24  O   UNL     1     -11.802   6.333  69.667  1.00  0.00    -0.496 OA 
HETATM   25  H   UNL     1      -9.559   7.729  72.142  1.00  0.00     0.000 HD 
HETATM   26  O   UNL     1      -9.981   7.077  71.596  1.00  0.00    -0.179 OA 
HETATM   27  H   UNL     1     -11.972   6.116  70.576  1.00  0.00     0.000 HD 
HETATM   28  C   UNL     1     -10.198   8.789  69.853  1.00  0.00    -0.200 C  
BRANCH  19  29
HETATM   29  C   UNL     1     -10.758   5.664  66.894  1.00  0.00    -0.272 C  
HETATM   30  O   UNL     1      -9.934   5.556  65.733  1.00  0.00    -0.366 OA 
HETATM   31  H   UNL     1     -10.322   4.935  65.128  1.00  0.00     0.000 HD 
ENDBRANCH  19  29
ENDBRANCH  16  17
ENDBRANCH  10  16
ENDBRANCH   3   4
TORSDOF 5
ENDMDL
MODEL      205
REMARK 921   NORMALIZED FREE ENERGY PREDICTED BY IDOCK:   -3.26 KCAL/MOL
REMARK 922        TOTAL FREE ENERGY PREDICTED BY IDOCK:   -5.80 KCAL/MOL
REMARK 923 INTER-LIGAND FREE ENERGY PREDICTED BY IDOCK:   -4.91 KCAL/MOL
REMARK 924 INTRA-LIGAND FREE ENERGY PREDICTED BY IDOCK:   -0.88 KCAL/MOL
REMARK 927      BINDING AFFINITY PREDICTED BY RF-SCORE:    0.00 PKD
ROOT
HETATM    1  O   UNL     1      -6.052   9.886  71.741  1.00  0.00    -0.300 OA 
HETATM    2  H   UNL     1      -5.350   9.339  72.071  1.00  0.00     0.000 HD 
HETATM    3  C   UNL     1      -6.258   9.617  70.355  1.00  0.00    -0.071 C  
ENDROOT
BRANCH   3   4
HETATM    4  C   UNL     1      -7.390  10.499  69.822  1.00  0.00    -0.134 C  
HETATM    5  O   UNL     1      -7.067  10.943  68.491  1.00  0.00    -0.068 OA 
HETATM    6  C   UNL     1      -8.309  11.130  67.807  1.00  0.00    -0.123 C  
HETATM    7  O   UNL     1      -8.088  10.887  66.412  1.00  0.00    -0.153 OA 
HETATM    8  H   UNL     1      -9.759   8.202  67.913  1.00  0.00     0.000 HD 
HETATM    9  C   UNL     1      -9.267  10.067  68.360  1.00  0.00    -0.131 C  
HETATM   10  C   UNL     1      -8.729   9.753  69.757  1.00  0.00    -0.212 C  
HETATM   11  O   UNL     1      -9.165   8.860  67.570  1.00  0.00    -0.135 OA 
HETATM   12  H   UNL     1      -8.913  11.011  65.958  1.00  0.00     0.000 HD 
BRANCH   6  13
HETATM   13  C   UNL     1      -8.788  12.577  68.000  1.00  0.00    -0.187 C  
HETATM   14  H   UNL     1      -9.390  14.023  66.825  1.00  0.00     0.000 HD 
HETATM   15  O   UNL     1      -9.094  13.128  66.706  1.00  0.00    -0.234 OA 
ENDBRANCH   6  13
BRANCH  10  16
HETATM   16  O   UNL     1      -9.647  10.199  70.766  1.00  0.00     0.236 OA 
BRANCH  16  17
HETATM   17  C   UNL     1     -10.362   9.123  71.394  1.00  0.00    -0.338 C  
HETATM   18  O   UNL     1      -9.916   7.864  70.879  1.00  0.00    -0.182 OA 
HETATM   19  C   UNL     1     -10.567   6.749  71.516  1.00  0.00    -0.219 C  
HETATM   20  C   UNL     1     -12.078   6.793  71.254  1.00  0.00    -0.370 C  
HETATM   21  H   UNL     1     -13.236  10.669  71.730  1.00  0.00     0.000 HD 
HETATM   22  O   UNL     1     -12.301  10.546  71.844  1.00  0.00    -0.269 OA 
HETATM   23  C   UNL     1     -12.627   8.111  71.815  1.00  0.00    -0.330 C  
HETATM   24  O   UNL     1     -12.406   6.765  69.857  1.00  0.00    -0.581 OA 
HETATM   25  H   UNL     1     -14.372   9.007  71.910  1.00  0.00     0.000 HD 
HETATM   26  O   UNL     1     -14.033   8.190  71.563  1.00  0.00    -0.367 OA 
HETATM   27  H   UNL     1     -13.342   6.792  69.695  1.00  0.00     0.000 HD 
HETATM   28  C   UNL     1     -11.886   9.322  71.208  1.00  0.00    -0.343 C  
BRANCH  19  29
HETATM   29  C   UNL     1      -9.916   5.461  71.008  1.00  0.00    -0.199 C  
HETATM   30  O   UNL     1     -10.056   5.389  69.588  1.00  0.00    -0.203 OA 
HETATM   31  H   UNL     1      -9.652   4.589  69.272  1.00  0.00     0.000 HD 
ENDBRANCH  19  29
ENDBRANCH  16  17
ENDBRANCH  10  16
ENDBRANCH   3   4
TORSDOF 5
ENDMDL
MODEL      206
REMARK 921   NORMALIZED FREE ENERGY PREDICTED BY IDOCK:   -3.23 KCAL/MOL
REMARK 922        TOTAL FREE ENERGY PREDICTED BY IDOCK:   -5.76 KCAL/MOL
REMARK 923 INTER-LIGAND FREE ENERGY PREDICTED BY IDOCK:   -5.15 KCAL/MOL
REMARK 924 INTRA-LIGAND FREE ENERGY PREDICTED BY IDOCK:   -0.61 KCAL/MOL
REMARK 927      BINDING AFFINITY PREDICTED BY RF-SCORE:    0.00 PKD
ROOT
HETATM    1  O   UNL     1     -10.934  17.390  68.949  1.00  0.00    -0.265 OA 
HETATM    2  H   UNL     1     -10.822  18.001  69.668  1.00  0.00     0.000 HD 
HETATM    3  C   UNL     1     -10.708  16.059  69.412  1.00  0.00    -0.294 C  
ENDROOT
BRANCH   3   4
HETATM    4  C   UNL     1     -10.889  15.075  68.254  1.00  0.00    -0.259 C  
HETATM    5  O   UNL     1     -11.480  15.758  67.131  1.00  0.00    -0.114 OA 
HETATM    6  C   UNL     1     -11.015  15.092  65.954  1.00  0.00    -0.339 C  
HETATM    7  O   UNL     1     -10.968  16.052  64.892  1.00  0.00    -0.472 OA 
HETATM    8  H   UNL     1      -7.758  15.343  66.095  1.00  0.00     0.000 HD 
HETATM    9  C   UNL     1      -9.591  14.613  66.267  1.00  0.00    -0.308 C  
HETATM   10  C   UNL     1      -9.557  14.472  67.789  1.00  0.00    -0.215 C  
HETATM   11  O   UNL     1      -8.640  15.640  65.902  1.00  0.00    -0.138 OA 
HETATM   12  H   UNL     1     -10.659  15.611  64.110  1.00  0.00     0.000 HD 
BRANCH   6  13
HETATM   13  C   UNL     1     -11.993  13.968  65.580  1.00  0.00    -0.397 C  
HETATM   14  H   UNL     1     -13.882  13.864  65.077  1.00  0.00     0.000 HD 
HETATM   15  O   UNL     1     -13.278  14.559  65.308  1.00  0.00    -0.512 OA 
ENDBRANCH   6  13
BRANCH  10  16
HETATM   16  O   UNL     1      -9.427  13.093  68.167  1.00  0.00    -0.213 OA 
BRANCH  16  17
HETATM   17  C   UNL     1      -8.072  12.711  68.450  1.00  0.00    -0.137 C  
HETATM   18  O   UNL     1      -7.387  13.773  69.123  1.00  0.00    -0.082 OA 
HETATM   19  C   UNL     1      -6.038  13.419  69.476  1.00  0.00    -0.110 C  
HETATM   20  C   UNL     1      -5.215  13.129  68.214  1.00  0.00    -0.086 C  
HETATM   21  H   UNL     1      -7.577  10.892  65.765  1.00  0.00     0.000 HD 
HETATM   22  O   UNL     1      -8.016  11.149  66.567  1.00  0.00    -0.153 OA 
HETATM   23  C   UNL     1      -5.880  11.971  67.460  1.00  0.00    -0.109 C  
HETATM   24  O   UNL     1      -5.164  14.243  67.310  1.00  0.00    -0.282 OA 
HETATM   25  H   UNL     1      -5.558  10.977  65.797  1.00  0.00     0.000 HD 
HETATM   26  O   UNL     1      -5.146  11.694  66.264  1.00  0.00    -0.284 OA 
HETATM   27  H   UNL     1      -4.654  14.063  66.528  1.00  0.00     0.000 HD 
HETATM   28  C   UNL     1      -7.356  12.293  67.143  1.00  0.00    -0.107 C  
BRANCH  19  29
HETATM   29  C   UNL     1      -5.450  14.556  70.317  1.00  0.00    -0.113 C  
HETATM   30  O   UNL     1      -5.298  14.115  71.667  1.00  0.00    -0.164 OA 
HETATM   31  H   UNL     1      -4.933  14.820  72.189  1.00  0.00     0.000 HD 
ENDBRANCH  19  29
ENDBRANCH  16  17
ENDBRANCH  10  16
ENDBRANCH   3   4
TORSDOF 5
ENDMDL
MODEL      207
REMARK 921   NORMALIZED FREE ENERGY PREDICTED BY IDOCK:   -3.23 KCAL/MOL
REMARK 922        TOTAL FREE ENERGY PREDICTED BY IDOCK:   -5.76 KCAL/MOL
REMARK 923 INTER-LIGAND FREE ENERGY PREDICTED BY IDOCK:   -5.09 KCAL/MOL
REMARK 924 INTRA-LIGAND FREE ENERGY PREDICTED BY IDOCK:   -0.67 KCAL/MOL
REMARK 927      BINDING AFFINITY PREDICTED BY RF-SCORE:    0.00 PKD
ROOT
HETATM    1  O   UNL     1      -6.470  13.198  69.417  1.00  0.00    -0.108 OA 
HETATM    2  H   UNL     1      -6.392  14.083  69.755  1.00  0.00     0.000 HD 
HETATM    3  C   UNL     1      -6.797  13.243  68.029  1.00  0.00    -0.122 C  
ENDROOT
BRANCH   3   4
HETATM    4  C   UNL     1      -6.923  11.818  67.484  1.00  0.00    -0.113 C  
HETATM    5  O   UNL     1      -6.123  10.927  68.283  1.00  0.00    -0.049 OA 
HETATM    6  C   UNL     1      -6.756   9.646  68.228  1.00  0.00    -0.061 C  
HETATM    7  O   UNL     1      -6.471   8.958  69.452  1.00  0.00    -0.043 OA 
HETATM    8  H   UNL     1      -9.759  10.157  69.414  1.00  0.00     0.000 HD 
HETATM    9  C   UNL     1      -8.264   9.916  68.139  1.00  0.00    -0.109 C  
HETATM   10  C   UNL     1      -8.369  11.309  67.515  1.00  0.00    -0.131 C  
HETATM   11  O   UNL     1      -8.825   9.990  69.469  1.00  0.00    -0.175 OA 
HETATM   12  H   UNL     1      -6.892   8.107  69.416  1.00  0.00     0.000 HD 
BRANCH   6  13
HETATM   13  C   UNL     1      -6.187   8.842  67.050  1.00  0.00    -0.059 C  
HETATM   14  H   UNL     1      -6.800   7.344  65.948  1.00  0.00     0.000 HD 
HETATM   15  O   UNL     1      -7.152   7.841  66.676  1.00  0.00    -0.075 OA 
ENDBRANCH   6  13
BRANCH  10  16
HETATM   16  O   UNL     1      -8.945  11.233  66.202  1.00  0.00    -0.194 OA 
BRANCH  16  17
HETATM   17  C   UNL     1      -9.543  12.467  65.775  1.00  0.00    -0.156 C  
HETATM   18  O   UNL     1     -10.184  13.115  66.878  1.00  0.00    -0.240 OA 
HETATM   19  C   UNL     1     -10.755  14.384  66.512  1.00  0.00    -0.306 C  
HETATM   20  C   UNL     1     -11.847  14.192  65.452  1.00  0.00    -0.362 C  
HETATM   21  H   UNL     1     -10.405  11.495  62.762  1.00  0.00     0.000 HD 
HETATM   22  O   UNL     1      -9.805  11.658  63.480  1.00  0.00    -0.329 OA 
HETATM   23  C   UNL     1     -11.214  13.528  64.223  1.00  0.00    -0.360 C  
HETATM   24  O   UNL     1     -12.910  13.333  65.891  1.00  0.00    -0.360 OA 
HETATM   25  H   UNL     1     -11.824  12.903  62.464  1.00  0.00     0.000 HD 
HETATM   26  O   UNL     1     -12.217  13.315  63.225  1.00  0.00    -0.663 OA 
HETATM   27  H   UNL     1     -13.586  13.213  65.234  1.00  0.00     0.000 HD 
HETATM   28  C   UNL     1     -10.521  12.202  64.605  1.00  0.00    -0.299 C  
BRANCH  19  29
HETATM   29  C   UNL     1     -11.278  15.058  67.784  1.00  0.00    -0.321 C  
HETATM   30  O   UNL     1     -12.609  14.610  68.044  1.00  0.00    -0.457 OA 
HETATM   31  H   UNL     1     -12.933  15.028  68.832  1.00  0.00     0.000 HD 
ENDBRANCH  19  29
ENDBRANCH  16  17
ENDBRANCH  10  16
ENDBRANCH   3   4
TORSDOF 5
ENDMDL
MODEL      208
REMARK 921   NORMALIZED FREE ENERGY PREDICTED BY IDOCK:   -3.23 KCAL/MOL
REMARK 922        TOTAL FREE ENERGY PREDICTED BY IDOCK:   -5.75 KCAL/MOL
REMARK 923 INTER-LIGAND FREE ENERGY PREDICTED BY IDOCK:   -5.07 KCAL/MOL
REMARK 924 INTRA-LIGAND FREE ENERGY PREDICTED BY IDOCK:   -0.69 KCAL/MOL
REMARK 927      BINDING AFFINITY PREDICTED BY RF-SCORE:    0.00 PKD
ROOT
HETATM    1  O   UNL     1      -7.643  13.844  69.313  1.00  0.00    -0.321 OA 
HETATM    2  H   UNL     1      -6.921  14.247  69.782  1.00  0.00     0.000 HD 
HETATM    3  C   UNL     1      -8.509  14.858  68.807  1.00  0.00    -0.172 C  
ENDROOT
BRANCH   3   4
HETATM    4  C   UNL     1      -9.672  14.210  68.051  1.00  0.00    -0.226 C  
HETATM    5  O   UNL     1      -9.760  14.775  66.729  1.00  0.00    -0.236 OA 
HETATM    6  C   UNL     1     -10.310  13.761  65.885  1.00  0.00    -0.309 C  
HETATM    7  O   UNL     1      -9.801  13.963  64.560  1.00  0.00    -0.634 OA 
HETATM    8  H   UNL     1      -8.215  11.262  66.124  1.00  0.00     0.000 HD 
HETATM    9  C   UNL     1      -9.790  12.423  66.428  1.00  0.00    -0.240 C  
HETATM   10  C   UNL     1      -9.498  12.694  67.904  1.00  0.00    -0.204 C  
HETATM   11  O   UNL     1      -8.536  12.091  65.788  1.00  0.00     0.157 OA 
HETATM   12  H   UNL     1     -10.166  13.288  63.999  1.00  0.00     0.000 HD 
BRANCH   6  13
HETATM   13  C   UNL     1     -11.841  13.884  65.865  1.00  0.00    -0.382 C  
HETATM   14  H   UNL     1     -13.347  12.634  65.788  1.00  0.00     0.000 HD 
HETATM   15  O   UNL     1     -12.400  12.558  65.801  1.00  0.00    -0.627 OA 
ENDBRANCH   6  13
BRANCH  10  16
HETATM   16  O   UNL     1     -10.404  11.961  68.742  1.00  0.00    -0.212 OA 
BRANCH  16  17
HETATM   17  C   UNL     1      -9.828  10.762  69.285  1.00  0.00    -0.138 C  
HETATM   18  O   UNL     1      -8.684  10.371  68.519  1.00  0.00    -0.123 OA 
HETATM   19  C   UNL     1      -8.038   9.202  69.054  1.00  0.00    -0.102 C  
HETATM   20  C   UNL     1      -8.993   8.001  69.016  1.00  0.00    -0.145 C  
HETATM   21  H   UNL     1     -12.627   9.355  70.260  1.00  0.00     0.000 HD 
HETATM   22  O   UNL     1     -11.971  10.041  70.221  1.00  0.00    -0.249 OA 
HETATM   23  C   UNL     1     -10.233   8.344  69.850  1.00  0.00    -0.201 C  
HETATM   24  O   UNL     1      -9.452   7.692  67.692  1.00  0.00    -0.140 OA 
HETATM   25  H   UNL     1     -11.921   7.463  70.330  1.00  0.00     0.000 HD 
HETATM   26  O   UNL     1     -11.153   7.250  69.813  1.00  0.00    -0.246 OA 
HETATM   27  H   UNL     1     -10.043   6.949  67.667  1.00  0.00     0.000 HD 
HETATM   28  C   UNL     1     -10.897   9.644  69.347  1.00  0.00    -0.217 C  
BRANCH  19  29
HETATM   29  C   UNL     1      -6.752   8.960  68.261  1.00  0.00    -0.065 C  
HETATM   30  O   UNL     1      -6.082   7.812  68.784  1.00  0.00    -0.036 OA 
HETATM   31  H   UNL     1      -5.284   7.661  68.292  1.00  0.00     0.000 HD 
ENDBRANCH  19  29
ENDBRANCH  16  17
ENDBRANCH  10  16
ENDBRANCH   3   4
TORSDOF 5
ENDMDL
MODEL      209
REMARK 921   NORMALIZED FREE ENERGY PREDICTED BY IDOCK:   -3.20 KCAL/MOL
REMARK 922        TOTAL FREE ENERGY PREDICTED BY IDOCK:   -5.72 KCAL/MOL
REMARK 923 INTER-LIGAND FREE ENERGY PREDICTED BY IDOCK:   -4.86 KCAL/MOL
REMARK 924 INTRA-LIGAND FREE ENERGY PREDICTED BY IDOCK:   -0.86 KCAL/MOL
REMARK 927      BINDING AFFINITY PREDICTED BY RF-SCORE:    0.00 PKD
ROOT
HETATM    1  O   UNL     1      -5.665   5.841  72.680  1.00  0.00    -0.029 OA 
HETATM    2  H   UNL     1      -5.229   5.508  73.456  1.00  0.00     0.000 HD 
HETATM    3  C   UNL     1      -6.736   6.702  73.063  1.00  0.00    -0.068 C  
ENDROOT
BRANCH   3   4
HETATM    4  C   UNL     1      -7.438   7.237  71.812  1.00  0.00    -0.084 C  
HETATM    5  O   UNL     1      -7.093   6.416  70.680  1.00  0.00    -0.065 OA 
HETATM    6  C   UNL     1      -8.202   6.471  69.779  1.00  0.00    -0.126 C  
HETATM    7  O   UNL     1      -8.246   5.236  69.054  1.00  0.00    -0.085 OA 
HETATM    8  H   UNL     1     -10.733   5.344  71.515  1.00  0.00     0.000 HD 
HETATM    9  C   UNL     1      -9.458   6.590  70.653  1.00  0.00    -0.166 C  
HETATM   10  C   UNL     1      -8.965   7.228  71.953  1.00  0.00    -0.126 C  
HETATM   11  O   UNL     1      -9.955   5.270  70.974  1.00  0.00    -0.180 OA 
HETATM   12  H   UNL     1      -8.983   5.273  68.456  1.00  0.00     0.000 HD 
BRANCH   6  13
HETATM   13  C   UNL     1      -8.005   7.633  68.794  1.00  0.00    -0.126 C  
HETATM   14  H   UNL     1      -9.180   8.832  67.787  1.00  0.00     0.000 HD 
HETATM   15  O   UNL     1      -9.302   8.115  68.397  1.00  0.00    -0.136 OA 
ENDBRANCH   6  13
BRANCH  10  16
HETATM   16  O   UNL     1      -9.503   8.550  72.103  1.00  0.00    -0.257 OA 
BRANCH  16  17
HETATM   17  C   UNL     1     -10.776   8.719  71.460  1.00  0.00    -0.301 C  
HETATM   18  O   UNL     1     -10.787   9.926  70.691  1.00  0.00    -0.301 OA 
HETATM   19  C   UNL     1     -12.026  10.114  69.983  1.00  0.00    -0.136 C  
HETATM   20  C   UNL     1     -13.191  10.243  70.973  1.00  0.00    -0.319 C  
HETATM   21  H   UNL     1     -12.621   7.395  73.827  1.00  0.00     0.000 HD 
HETATM   22  O   UNL     1     -11.926   7.412  73.180  1.00  0.00     0.143 OA 
HETATM   23  C   UNL     1     -13.256   8.960  71.811  1.00  0.00    -0.378 C  
HETATM   24  O   UNL     1     -13.030  11.334  71.891  1.00  0.00    -0.456 OA 
HETATM   25  H   UNL     1     -14.360   8.267  73.279  1.00  0.00     0.000 HD 
HETATM   26  O   UNL     1     -14.321   9.061  72.760  1.00  0.00    -0.596 OA 
HETATM   27  H   UNL     1     -13.751  11.414  72.504  1.00  0.00     0.000 HD 
HETATM   28  C   UNL     1     -11.908   8.691  72.515  1.00  0.00    -0.272 C  
BRANCH  19  29
HETATM   29  C   UNL     1     -11.879  11.342  69.080  1.00  0.00    -0.352 C  
HETATM   30  O   UNL     1     -10.767  12.123  69.520  1.00  0.00    -0.445 OA 
HETATM   31  H   UNL     1     -10.676  12.885  68.960  1.00  0.00     0.000 HD 
ENDBRANCH  19  29
ENDBRANCH  16  17
ENDBRANCH  10  16
ENDBRANCH   3   4
TORSDOF 5
ENDMDL
MODEL      210
REMARK 921   NORMALIZED FREE ENERGY PREDICTED BY IDOCK:   -3.18 KCAL/MOL
REMARK 922        TOTAL FREE ENERGY PREDICTED BY IDOCK:   -5.70 KCAL/MOL
REMARK 923 INTER-LIGAND FREE ENERGY PREDICTED BY IDOCK:   -4.74 KCAL/MOL
REMARK 924 INTRA-LIGAND FREE ENERGY PREDICTED BY IDOCK:   -0.96 KCAL/MOL
REMARK 927      BINDING AFFINITY PREDICTED BY RF-SCORE:    0.00 PKD
ROOT
HETATM    1  O   UNL     1      -7.178   6.507  68.372  1.00  0.00    -0.080 OA 
HETATM    2  H   UNL     1      -6.883   5.612  68.247  1.00  0.00     0.000 HD 
HETATM    3  C   UNL     1      -7.312   7.148  67.104  1.00  0.00    -0.090 C  
ENDROOT
BRANCH   3   4
HETATM    4  C   UNL     1      -7.786   8.589  67.305  1.00  0.00    -0.097 C  
HETATM    5  O   UNL     1      -6.704   9.495  67.014  1.00  0.00    -0.070 OA 
HETATM    6  C   UNL     1      -7.298  10.707  66.543  1.00  0.00    -0.134 C  
HETATM    7  O   UNL     1      -6.380  11.328  65.635  1.00  0.00    -0.368 OA 
HETATM    8  H   UNL     1      -9.025   9.814  63.915  1.00  0.00     0.000 HD 
HETATM    9  C   UNL     1      -8.564  10.295  65.779  1.00  0.00    -0.154 C  
HETATM   10  C   UNL     1      -8.961   8.949  66.388  1.00  0.00    -0.158 C  
HETATM   11  O   UNL     1      -8.241  10.069  64.388  1.00  0.00    -0.150 OA 
HETATM   12  H   UNL     1      -6.775  12.133  65.322  1.00  0.00     0.000 HD 
BRANCH   6  13
HETATM   13  C   UNL     1      -7.554  11.648  67.730  1.00  0.00    -0.121 C  
HETATM   14  H   UNL     1      -8.212  13.479  67.951  1.00  0.00     0.000 HD 
HETATM   15  O   UNL     1      -8.054  12.897  67.217  1.00  0.00    -0.176 OA 
ENDBRANCH   6  13
BRANCH  10  16
HETATM   16  O   UNL     1     -10.196   9.065  67.110  1.00  0.00    -0.222 OA 
BRANCH  16  17
HETATM   17  C   UNL     1     -10.081   8.682  68.489  1.00  0.00    -0.190 C  
HETATM   18  O   UNL     1     -10.337   7.281  68.638  1.00  0.00    -0.184 OA 
HETATM   19  C   UNL     1     -10.182   6.837  69.999  1.00  0.00    -0.191 C  
HETATM   20  C   UNL     1     -11.197   7.543  70.908  1.00  0.00    -0.269 C  
HETATM   21  H   UNL     1     -11.243  11.459  69.793  1.00  0.00     0.000 HD 
HETATM   22  O   UNL     1     -10.660  10.931  69.261  1.00  0.00    -0.213 OA 
HETATM   23  C   UNL     1     -10.955   9.055  70.819  1.00  0.00    -0.258 C  
HETATM   24  O   UNL     1     -12.558   7.314  70.514  1.00  0.00    -0.591 OA 
HETATM   25  H   UNL     1     -11.754  10.677  71.585  1.00  0.00     0.000 HD 
HETATM   26  O   UNL     1     -11.904   9.740  71.641  1.00  0.00    -0.389 OA 
HETATM   27  H   UNL     1     -13.186   7.750  71.076  1.00  0.00     0.000 HD 
HETATM   28  C   UNL     1     -11.032   9.542  69.356  1.00  0.00    -0.170 C  
BRANCH  19  29
HETATM   29  C   UNL     1     -10.326   5.313  70.024  1.00  0.00    -0.295 C  
HETATM   30  O   UNL     1      -9.795   4.769  68.814  1.00  0.00    -0.165 OA 
HETATM   31  H   UNL     1      -9.884   3.823  68.830  1.00  0.00     0.000 HD 
ENDBRANCH  19  29
ENDBRANCH  16  17
ENDBRANCH  10  16
ENDBRANCH   3   4
TORSDOF 5
ENDMDL
MODEL      211
REMARK 921   NORMALIZED FREE ENERGY PREDICTED BY IDOCK:   -3.17 KCAL/MOL
REMARK 922        TOTAL FREE ENERGY PREDICTED BY IDOCK:   -5.68 KCAL/MOL
REMARK 923 INTER-LIGAND FREE ENERGY PREDICTED BY IDOCK:   -5.05 KCAL/MOL
REMARK 924 INTRA-LIGAND FREE ENERGY PREDICTED BY IDOCK:   -0.62 KCAL/MOL
REMARK 927      BINDING AFFINITY PREDICTED BY RF-SCORE:    0.00 PKD
ROOT
HETATM    1  O   UNL     1      -6.459   5.748  70.010  1.00  0.00    -0.035 OA 
HETATM    2  H   UNL     1      -6.426   5.277  70.835  1.00  0.00     0.000 HD 
HETATM    3  C   UNL     1      -7.705   5.493  69.363  1.00  0.00    -0.086 C  
ENDROOT
BRANCH   3   4
HETATM    4  C   UNL     1      -7.758   6.252  68.034  1.00  0.00    -0.103 C  
HETATM    5  O   UNL     1      -8.225   5.370  66.996  1.00  0.00    -0.105 OA 
HETATM    6  C   UNL     1      -8.896   6.188  66.033  1.00  0.00    -0.153 C  
HETATM    7  O   UNL     1      -9.915   5.395  65.412  1.00  0.00    -0.375 OA 
HETATM    8  H   UNL     1     -11.292   7.645  67.714  1.00  0.00     0.000 HD 
HETATM    9  C   UNL     1      -9.552   7.329  66.823  1.00  0.00    -0.185 C  
HETATM   10  C   UNL     1      -8.705   7.457  68.090  1.00  0.00    -0.122 C  
HETATM   11  O   UNL     1     -10.885   6.939  67.225  1.00  0.00    -0.309 OA 
HETATM   12  H   UNL     1     -10.361   5.938  64.773  1.00  0.00     0.000 HD 
BRANCH   6  13
HETATM   13  C   UNL     1      -7.893   6.651  64.966  1.00  0.00    -0.113 C  
HETATM   14  H   UNL     1      -7.506   6.178  63.106  1.00  0.00     0.000 HD 
HETATM   15  O   UNL     1      -8.126   5.891  63.766  1.00  0.00    -0.118 OA 
ENDBRANCH   6  13
BRANCH  10  16
HETATM   16  O   UNL     1      -7.995   8.705  68.099  1.00  0.00    -0.105 OA 
BRANCH  16  17
HETATM   17  C   UNL     1      -8.734   9.770  68.716  1.00  0.00    -0.128 C  
HETATM   18  O   UNL     1      -9.847   9.244  69.447  1.00  0.00    -0.165 OA 
HETATM   19  C   UNL     1     -10.590  10.271  70.129  1.00  0.00    -0.246 C  
HETATM   20  C   UNL     1     -11.187  11.257  69.117  1.00  0.00    -0.273 C  
HETATM   21  H   UNL     1      -8.283  12.011  66.363  1.00  0.00     0.000 HD 
HETATM   22  O   UNL     1      -8.013  11.381  67.021  1.00  0.00    -0.144 OA 
HETATM   23  C   UNL     1     -10.038  11.885  68.319  1.00  0.00    -0.203 C  
HETATM   24  O   UNL     1     -12.060  10.628  68.167  1.00  0.00    -0.797 OA 
HETATM   25  H   UNL     1      -9.855  13.182  66.856  1.00  0.00     0.000 HD 
HETATM   26  O   UNL     1     -10.568  12.794  67.350  1.00  0.00    -0.226 OA 
HETATM   27  H   UNL     1     -12.430  11.238  67.540  1.00  0.00     0.000 HD 
HETATM   28  C   UNL     1      -9.173  10.797  67.645  1.00  0.00    -0.147 C  
BRANCH  19  29
HETATM   29  C   UNL     1     -11.656   9.594  70.995  1.00  0.00    -0.359 C  
HETATM   30  O   UNL     1     -12.953   9.941  70.505  1.00  0.00    -0.556 OA 
HETATM   31  H   UNL     1     -13.614   9.522  71.042  1.00  0.00     0.000 HD 
ENDBRANCH  19  29
ENDBRANCH  16  17
ENDBRANCH  10  16
ENDBRANCH   3   4
TORSDOF 5
ENDMDL
MODEL      212
REMARK 921   NORMALIZED FREE ENERGY PREDICTED BY IDOCK:   -3.15 KCAL/MOL
REMARK 922        TOTAL FREE ENERGY PREDICTED BY IDOCK:   -5.66 KCAL/MOL
REMARK 923 INTER-LIGAND FREE ENERGY PREDICTED BY IDOCK:   -6.56 KCAL/MOL
REMARK 924 INTRA-LIGAND FREE ENERGY PREDICTED BY IDOCK:    0.91 KCAL/MOL
REMARK 927      BINDING AFFINITY PREDICTED BY RF-SCORE:    0.00 PKD
ROOT
HETATM    1  O   UNL     1     -11.466  16.693  63.838  1.00  0.00    -1.604 OA 
HETATM    2  H   UNL     1     -12.040  16.279  63.204  1.00  0.00     0.000 HD 
HETATM    3  C   UNL     1     -10.829  15.694  64.632  1.00  0.00    -0.243 C  
ENDROOT
BRANCH   3   4
HETATM    4  C   UNL     1      -9.904  16.361  65.653  1.00  0.00    -0.187 C  
HETATM    5  O   UNL     1     -10.467  17.624  66.056  1.00  0.00    -0.387 OA 
HETATM    6  C   UNL     1     -10.025  17.862  67.395  1.00  0.00    -0.325 C  
HETATM    7  O   UNL     1     -11.024  18.647  68.058  1.00  0.00    -0.268 OA 
HETATM    8  H   UNL     1     -11.145  15.307  69.101  1.00  0.00     0.000 HD 
HETATM    9  C   UNL     1      -9.934  16.486  68.068  1.00  0.00    -0.245 C  
HETATM   10  C   UNL     1      -9.716  15.507  66.913  1.00  0.00    -0.233 C  
HETATM   11  O   UNL     1     -11.201  16.160  68.684  1.00  0.00    -0.336 OA 
HETATM   12  H   UNL     1     -10.731  18.805  68.948  1.00  0.00     0.000 HD 
BRANCH   6  13
HETATM   13  C   UNL     1      -8.702  18.642  67.368  1.00  0.00    -0.269 C  
HETATM   14  H   UNL     1      -8.029  20.289  68.186  1.00  0.00     0.000 HD 
HETATM   15  O   UNL     1      -8.847  19.806  68.203  1.00  0.00    -0.320 OA 
ENDBRANCH   6  13
BRANCH  10  16
HETATM   16  O   UNL     1      -8.404  14.927  66.983  1.00  0.00    -0.207 OA 
BRANCH  16  17
HETATM   17  C   UNL     1      -8.424  13.513  67.235  1.00  0.00    -0.193 C  
HETATM   18  O   UNL     1      -7.123  12.953  67.026  1.00  0.00    -0.033 OA 
HETATM   19  C   UNL     1      -7.079  11.545  67.317  1.00  0.00    -0.128 C  
HETATM   20  C   UNL     1      -8.017  10.776  66.377  1.00  0.00    -0.151 C  
HETATM   21  H   UNL     1     -11.462  12.934  66.139  1.00  0.00     0.000 HD 
HETATM   22  O   UNL     1     -10.802  13.351  66.681  1.00  0.00    -0.280 OA 
HETATM   23  C   UNL     1      -9.441  11.308  66.576  1.00  0.00    -0.193 C  
HETATM   24  O   UNL     1      -7.692  10.958  64.990  1.00  0.00    -0.355 OA 
HETATM   25  H   UNL     1     -11.217  10.955  65.816  1.00  0.00     0.000 HD 
HETATM   26  O   UNL     1     -10.335  10.624  65.693  1.00  0.00    -0.255 OA 
HETATM   27  H   UNL     1      -8.273  10.482  64.408  1.00  0.00     0.000 HD 
HETATM   28  C   UNL     1      -9.498  12.834  66.351  1.00  0.00    -0.229 C  
BRANCH  19  29
HETATM   29  C   UNL     1      -5.624  11.080  67.211  1.00  0.00    -0.048 C  
HETATM   30  O   UNL     1      -5.374  10.609  65.886  1.00  0.00    -0.079 OA 
HETATM   31  H   UNL     1      -4.471  10.321  65.820  1.00  0.00     0.000 HD 
ENDBRANCH  19  29
ENDBRANCH  16  17
ENDBRANCH  10  16
ENDBRANCH   3   4
TORSDOF 5
ENDMDL
MODEL      213
REMARK 921   NORMALIZED FREE ENERGY PREDICTED BY IDOCK:   -3.14 KCAL/MOL
REMARK 922        TOTAL FREE ENERGY PREDICTED BY IDOCK:   -5.64 KCAL/MOL
REMARK 923 INTER-LIGAND FREE ENERGY PREDICTED BY IDOCK:   -4.61 KCAL/MOL
REMARK 924 INTRA-LIGAND FREE ENERGY PREDICTED BY IDOCK:   -1.03 KCAL/MOL
REMARK 927      BINDING AFFINITY PREDICTED BY RF-SCORE:    0.00 PKD
ROOT
HETATM    1  O   UNL     1      -9.809   3.849  66.894  1.00  0.00    -0.298 OA 
HETATM    2  H   UNL     1      -9.811   3.088  66.324  1.00  0.00     0.000 HD 
HETATM    3  C   UNL     1     -10.622   4.875  66.327  1.00  0.00    -0.255 C  
ENDROOT
BRANCH   3   4
HETATM    4  C   UNL     1     -10.618   6.100  67.244  1.00  0.00    -0.290 C  
HETATM    5  O   UNL     1     -10.742   5.673  68.615  1.00  0.00    -0.229 OA 
HETATM    6  C   UNL     1     -10.072   6.652  69.412  1.00  0.00    -0.173 C  
HETATM    7  O   UNL     1      -9.566   6.000  70.583  1.00  0.00    -0.169 OA 
HETATM    8  H   UNL     1      -6.998   6.663  68.299  1.00  0.00     0.000 HD 
HETATM    9  C   UNL     1      -8.896   7.161  68.568  1.00  0.00    -0.125 C  
HETATM   10  C   UNL     1      -9.326   6.916  67.121  1.00  0.00    -0.141 C  
HETATM   11  O   UNL     1      -7.727   6.348  68.821  1.00  0.00    -0.097 OA 
HETATM   12  H   UNL     1      -9.121   6.650  71.113  1.00  0.00     0.000 HD 
BRANCH   6  13
HETATM   13  C   UNL     1     -11.070   7.743  69.830  1.00  0.00    -0.136 C  
HETATM   14  H   UNL     1     -12.442   7.932  71.214  1.00  0.00     0.000 HD 
HETATM   15  O   UNL     1     -11.825   7.258  70.956  1.00  0.00    -0.297 OA 
ENDBRANCH   6  13
BRANCH  10  16
HETATM   16  O   UNL     1      -9.535   8.161  66.437  1.00  0.00    -0.204 OA 
BRANCH  16  17
HETATM   17  C   UNL     1      -9.069   9.298  67.180  1.00  0.00    -0.130 C  
HETATM   18  O   UNL     1     -10.154  10.192  67.452  1.00  0.00    -0.185 OA 
HETATM   19  C   UNL     1      -9.747  11.324  68.242  1.00  0.00    -0.198 C  
HETATM   20  C   UNL     1      -8.705  12.157  67.482  1.00  0.00    -0.173 C  
HETATM   21  H   UNL     1      -6.103   9.518  65.796  1.00  0.00     0.000 HD 
HETATM   22  O   UNL     1      -6.808   9.090  66.267  1.00  0.00    -0.076 OA 
HETATM   23  C   UNL     1      -7.496  11.262  67.187  1.00  0.00    -0.130 C  
HETATM   24  O   UNL     1      -9.186  12.640  66.220  1.00  0.00    -0.359 OA 
HETATM   25  H   UNL     1      -5.767  11.452  66.275  1.00  0.00     0.000 HD 
HETATM   26  O   UNL     1      -6.516  12.006  66.458  1.00  0.00    -0.013 OA 
HETATM   27  H   UNL     1      -8.541  13.155  65.749  1.00  0.00     0.000 HD 
HETATM   28  C   UNL     1      -7.920   9.995  66.413  1.00  0.00    -0.116 C  
BRANCH  19  29
HETATM   29  C   UNL     1     -10.998  12.130  68.603  1.00  0.00    -0.245 C  
HETATM   30  O   UNL     1     -11.922  12.081  67.514  1.00  0.00    -0.572 OA 
HETATM   31  H   UNL     1     -12.699  12.581  67.738  1.00  0.00     0.000 HD 
ENDBRANCH  19  29
ENDBRANCH  16  17
ENDBRANCH  10  16
ENDBRANCH   3   4
TORSDOF 5
ENDMDL
MODEL      214
REMARK 921   NORMALIZED FREE ENERGY PREDICTED BY IDOCK:   -3.10 KCAL/MOL
REMARK 922        TOTAL FREE ENERGY PREDICTED BY IDOCK:   -5.58 KCAL/MOL
REMARK 923 INTER-LIGAND FREE ENERGY PREDICTED BY IDOCK:   -5.16 KCAL/MOL
REMARK 924 INTRA-LIGAND FREE ENERGY PREDICTED BY IDOCK:   -0.42 KCAL/MOL
REMARK 927      BINDING AFFINITY PREDICTED BY RF-SCORE:    0.00 PKD
ROOT
HETATM    1  O   UNL     1     -11.003  12.214  63.020  1.00  0.00    -0.674 OA 
HETATM    2  H   UNL     1     -11.542  12.993  62.947  1.00  0.00     0.000 HD 
HETATM    3  C   UNL     1     -11.039  11.730  64.362  1.00  0.00    -0.334 C  
ENDROOT
BRANCH   3   4
HETATM    4  C   UNL     1     -10.169  10.476  64.479  1.00  0.00    -0.285 C  
HETATM    5  O   UNL     1      -8.958  10.659  63.721  1.00  0.00    -0.186 OA 
HETATM    6  C   UNL     1      -7.949   9.876  64.364  1.00  0.00    -0.146 C  
HETATM    7  O   UNL     1      -6.684  10.511  64.137  1.00  0.00    -0.330 OA 
HETATM    8  H   UNL     1      -7.802  11.057  67.409  1.00  0.00     0.000 HD 
HETATM    9  C   UNL     1      -8.270   9.911  65.864  1.00  0.00    -0.124 C  
HETATM   10  C   UNL     1      -9.776  10.173  65.930  1.00  0.00    -0.232 C  
HETATM   11  O   UNL     1      -7.603  11.036  66.480  1.00  0.00    -0.139 OA 
HETATM   12  H   UNL     1      -6.013   9.991  64.565  1.00  0.00     0.000 HD 
BRANCH   6  13
HETATM   13  C   UNL     1      -7.926   8.467  63.754  1.00  0.00    -0.161 C  
HETATM   14  H   UNL     1      -7.195   7.654  62.129  1.00  0.00     0.000 HD 
HETATM   15  O   UNL     1      -7.208   8.526  62.507  1.00  0.00    -0.097 OA 
ENDBRANCH   6  13
BRANCH  10  16
HETATM   16  O   UNL     1     -10.467   9.028  66.451  1.00  0.00    -0.215 OA 
BRANCH  16  17
HETATM   17  C   UNL     1     -10.164   8.764  67.830  1.00  0.00    -0.228 C  
HETATM   18  O   UNL     1     -10.010   7.357  68.044  1.00  0.00    -0.153 OA 
HETATM   19  C   UNL     1      -9.653   7.045  69.402  1.00  0.00    -0.155 C  
HETATM   20  C   UNL     1     -10.765   7.491  70.361  1.00  0.00    -0.239 C  
HETATM   21  H   UNL     1     -11.967  11.180  69.124  1.00  0.00     0.000 HD 
HETATM   22  O   UNL     1     -11.295  10.805  68.568  1.00  0.00    -0.259 OA 
HETATM   23  C   UNL     1     -10.959   9.004  70.205  1.00  0.00    -0.233 C  
HETATM   24  O   UNL     1     -12.030   6.876  70.078  1.00  0.00    -0.618 OA 
HETATM   25  H   UNL     1     -12.127  10.382  70.974  1.00  0.00     0.000 HD 
HETATM   26  O   UNL     1     -12.007   9.445  71.072  1.00  0.00    -0.293 OA 
HETATM   27  H   UNL     1     -12.719   7.152  70.671  1.00  0.00     0.000 HD 
HETATM   28  C   UNL     1     -11.260   9.374  68.736  1.00  0.00     0.159 C  
BRANCH  19  29
HETATM   29  C   UNL     1      -9.366   5.543  69.489  1.00  0.00    -0.130 C  
HETATM   30  O   UNL     1      -8.250   5.227  68.655  1.00  0.00    -0.093 OA 
HETATM   31  H   UNL     1      -8.071   4.296  68.708  1.00  0.00     0.000 HD 
ENDBRANCH  19  29
ENDBRANCH  16  17
ENDBRANCH  10  16
ENDBRANCH   3   4
TORSDOF 5
ENDMDL
MODEL      215
REMARK 921   NORMALIZED FREE ENERGY PREDICTED BY IDOCK:   -3.07 KCAL/MOL
REMARK 922        TOTAL FREE ENERGY PREDICTED BY IDOCK:   -5.55 KCAL/MOL
REMARK 923 INTER-LIGAND FREE ENERGY PREDICTED BY IDOCK:   -5.31 KCAL/MOL
REMARK 924 INTRA-LIGAND FREE ENERGY PREDICTED BY IDOCK:   -0.24 KCAL/MOL
REMARK 927      BINDING AFFINITY PREDICTED BY RF-SCORE:    0.00 PKD
ROOT
HETATM    1  O   UNL     1      -9.327   6.596  73.934  1.00  0.00    -0.153 OA 
HETATM    2  H   UNL     1      -9.353   6.860  74.846  1.00  0.00     0.000 HD 
HETATM    3  C   UNL     1      -8.498   7.494  73.198  1.00  0.00    -0.136 C  
ENDROOT
BRANCH   3   4
HETATM    4  C   UNL     1      -8.456   7.068  71.728  1.00  0.00    -0.114 C  
HETATM    5  O   UNL     1      -8.371   5.633  71.647  1.00  0.00    -0.121 OA 
HETATM    6  C   UNL     1      -9.004   5.252  70.423  1.00  0.00    -0.128 C  
HETATM    7  O   UNL     1      -9.556   3.941  70.599  1.00  0.00    -0.164 OA 
HETATM    8  H   UNL     1     -12.059   6.386  70.687  1.00  0.00     0.000 HD 
HETATM    9  C   UNL     1     -10.144   6.255  70.200  1.00  0.00    -0.179 C  
HETATM   10  C   UNL     1      -9.707   7.509  70.959  1.00  0.00    -0.167 C  
HETATM   11  O   UNL     1     -11.353   5.765  70.825  1.00  0.00    -0.216 OA 
HETATM   12  H   UNL     1      -9.977   3.688  69.786  1.00  0.00     0.000 HD 
BRANCH   6  13
HETATM   13  C   UNL     1      -7.962   5.217  69.296  1.00  0.00    -0.088 C  
HETATM   14  H   UNL     1      -7.556   4.023  67.798  1.00  0.00     0.000 HD 
HETATM   15  O   UNL     1      -8.201   4.045  68.495  1.00  0.00    -0.075 OA 
ENDBRANCH   6  13
BRANCH  10  16
HETATM   16  O   UNL     1      -9.431   8.582  70.045  1.00  0.00    -0.161 OA 
BRANCH  16  17
HETATM   17  C   UNL     1     -10.610   9.293  69.637  1.00  0.00    -0.229 C  
HETATM   18  O   UNL     1     -10.323  10.119  68.503  1.00  0.00    -0.165 OA 
HETATM   19  C   UNL     1     -11.487  10.814  68.021  1.00  0.00    -0.256 C  
HETATM   20  C   UNL     1     -12.025  11.764  69.100  1.00  0.00    -0.293 C  
HETATM   21  H   UNL     1     -11.897   9.725  72.623  1.00  0.00     0.000 HD 
HETATM   22  O   UNL     1     -11.552   9.223  71.894  1.00  0.00    -0.372 OA 
HETATM   23  C   UNL     1     -12.385  10.933  70.338  1.00  0.00    -0.351 C  
HETATM   24  O   UNL     1     -11.061  12.741  69.518  1.00  0.00    -0.437 OA 
HETATM   25  H   UNL     1     -13.090  11.281  72.137  1.00  0.00     0.000 HD 
HETATM   26  O   UNL     1     -12.868  11.796  71.370  1.00  0.00    -0.404 OA 
HETATM   27  H   UNL     1     -11.393  13.329  70.186  1.00  0.00     0.000 HD 
HETATM   28  C   UNL     1     -11.172  10.111  70.825  1.00  0.00    -0.336 C  
BRANCH  19  29
HETATM   29  C   UNL     1     -11.110  11.542  66.728  1.00  0.00    -0.302 C  
HETATM   30  O   UNL     1     -11.975  12.664  66.548  1.00  0.00    -0.467 OA 
HETATM   31  H   UNL     1     -11.741  13.115  65.745  1.00  0.00     0.000 HD 
ENDBRANCH  19  29
ENDBRANCH  16  17
ENDBRANCH  10  16
ENDBRANCH   3   4
TORSDOF 5
ENDMDL
MODEL      216
REMARK 921   NORMALIZED FREE ENERGY PREDICTED BY IDOCK:   -3.07 KCAL/MOL
REMARK 922        TOTAL FREE ENERGY PREDICTED BY IDOCK:   -5.54 KCAL/MOL
REMARK 923 INTER-LIGAND FREE ENERGY PREDICTED BY IDOCK:   -4.42 KCAL/MOL
REMARK 924 INTRA-LIGAND FREE ENERGY PREDICTED BY IDOCK:   -1.12 KCAL/MOL
REMARK 927      BINDING AFFINITY PREDICTED BY RF-SCORE:    0.00 PKD
ROOT
HETATM    1  O   UNL     1      -9.047   8.395  66.006  1.00  0.00    -0.174 OA 
HETATM    2  H   UNL     1      -9.280   7.650  65.465  1.00  0.00     0.000 HD 
HETATM    3  C   UNL     1     -10.230   9.077  66.419  1.00  0.00    -0.227 C  
ENDROOT
BRANCH   3   4
HETATM    4  C   UNL     1      -9.854  10.278  67.291  1.00  0.00    -0.182 C  
HETATM    5  O   UNL     1     -10.564  11.444  66.833  1.00  0.00    -0.229 OA 
HETATM    6  C   UNL     1     -10.751  12.285  67.975  1.00  0.00    -0.218 C  
HETATM    7  O   UNL     1     -11.956  13.035  67.780  1.00  0.00    -0.348 OA 
HETATM    8  H   UNL     1     -12.438  10.448  70.088  1.00  0.00     0.000 HD 
HETATM    9  C   UNL     1     -10.927  11.346  69.175  1.00  0.00    -0.236 C  
HETATM   10  C   UNL     1     -10.209  10.059  68.767  1.00  0.00    -0.186 C  
HETATM   11  O   UNL     1     -12.328  11.030  69.344  1.00  0.00    -0.348 OA 
HETATM   12  H   UNL     1     -12.080  13.594  68.539  1.00  0.00     0.000 HD 
BRANCH   6  13
HETATM   13  C   UNL     1      -9.565  13.253  68.098  1.00  0.00    -0.227 C  
HETATM   14  H   UNL     1      -8.632  14.488  66.897  1.00  0.00     0.000 HD 
HETATM   15  O   UNL     1      -9.366  13.889  66.821  1.00  0.00    -0.260 OA 
ENDBRANCH   6  13
BRANCH  10  16
HETATM   16  O   UNL     1      -9.043   9.851  69.578  1.00  0.00    -0.194 OA 
BRANCH  16  17
HETATM   17  C   UNL     1      -9.001   8.549  70.183  1.00  0.00    -0.147 C  
HETATM   18  O   UNL     1      -9.113   8.658  71.606  1.00  0.00    -0.204 OA 
HETATM   19  C   UNL     1      -9.129   7.374  72.255  1.00  0.00    -0.132 C  
HETATM   20  C   UNL     1      -7.811   6.631  71.999  1.00  0.00    -0.097 C  
HETATM   21  H   UNL     1      -6.909   7.170  68.065  1.00  0.00     0.000 HD 
HETATM   22  O   UNL     1      -7.701   7.624  68.327  1.00  0.00    -0.114 OA 
HETATM   23  C   UNL     1      -7.646   6.451  70.485  1.00  0.00    -0.096 C  
HETATM   24  O   UNL     1      -6.661   7.353  72.463  1.00  0.00    -0.054 OA 
HETATM   25  H   UNL     1      -6.309   5.669  69.277  1.00  0.00     0.000 HD 
HETATM   26  O   UNL     1      -6.411   5.780  70.215  1.00  0.00    -0.033 OA 
HETATM   27  H   UNL     1      -5.845   6.894  72.304  1.00  0.00     0.000 HD 
HETATM   28  C   UNL     1      -7.710   7.810  69.756  1.00  0.00    -0.097 C  
BRANCH  19  29
HETATM   29  C   UNL     1      -9.403   7.595  73.745  1.00  0.00    -0.267 C  
HETATM   30  O   UNL     1      -8.511   8.591  74.248  1.00  0.00    -0.353 OA 
HETATM   31  H   UNL     1      -8.681   8.728  75.172  1.00  0.00     0.000 HD 
ENDBRANCH  19  29
ENDBRANCH  16  17
ENDBRANCH  10  16
ENDBRANCH   3   4
TORSDOF 5
ENDMDL
MODEL      217
REMARK 921   NORMALIZED FREE ENERGY PREDICTED BY IDOCK:   -3.07 KCAL/MOL
REMARK 922        TOTAL FREE ENERGY PREDICTED BY IDOCK:   -5.54 KCAL/MOL
REMARK 923 INTER-LIGAND FREE ENERGY PREDICTED BY IDOCK:   -5.08 KCAL/MOL
REMARK 924 INTRA-LIGAND FREE ENERGY PREDICTED BY IDOCK:   -0.46 KCAL/MOL
REMARK 927      BINDING AFFINITY PREDICTED BY RF-SCORE:    0.00 PKD
ROOT
HETATM    1  O   UNL     1     -12.686  10.077  70.319  1.00  0.00    -0.530 OA 
HETATM    2  H   UNL     1     -12.862   9.794  71.208  1.00  0.00     0.000 HD 
HETATM    3  C   UNL     1     -11.325  10.490  70.207  1.00  0.00    -0.327 C  
ENDROOT
BRANCH   3   4
HETATM    4  C   UNL     1     -11.042  10.947  68.774  1.00  0.00    -0.256 C  
HETATM    5  O   UNL     1     -11.886  12.069  68.453  1.00  0.00    -0.320 OA 
HETATM    6  C   UNL     1     -11.176  12.857  67.494  1.00  0.00    -0.290 C  
HETATM    7  O   UNL     1     -11.579  14.222  67.657  1.00  0.00    -0.328 OA 
HETATM    8  H   UNL     1      -8.393  13.678  69.001  1.00  0.00     0.000 HD 
HETATM    9  C   UNL     1      -9.688  12.723  67.848  1.00  0.00    -0.217 C  
HETATM   10  C   UNL     1      -9.585  11.383  68.578  1.00  0.00    -0.189 C  
HETATM   11  O   UNL     1      -9.314  13.761  68.782  1.00  0.00    -0.129 OA 
HETATM   12  H   UNL     1     -11.107  14.746  67.020  1.00  0.00     0.000 HD 
BRANCH   6  13
HETATM   13  C   UNL     1     -11.534  12.387  66.077  1.00  0.00    -0.382 C  
HETATM   14  H   UNL     1     -13.026  12.671  64.840  1.00  0.00     0.000 HD 
HETATM   15  O   UNL     1     -12.804  12.962  65.717  1.00  0.00    -0.403 OA 
ENDBRANCH   6  13
BRANCH  10  16
HETATM   16  O   UNL     1      -8.837  10.438  67.799  1.00  0.00    -0.128 OA 
BRANCH  16  17
HETATM   17  C   UNL     1      -9.326   9.093  67.919  1.00  0.00    -0.137 C  
HETATM   18  O   UNL     1      -8.810   8.482  69.106  1.00  0.00    -0.140 OA 
HETATM   19  C   UNL     1      -9.314   7.148  69.300  1.00  0.00    -0.146 C  
HETATM   20  C   UNL     1      -8.878   6.240  68.143  1.00  0.00    -0.113 C  
HETATM   21  H   UNL     1      -9.393   8.382  64.718  1.00  0.00     0.000 HD 
HETATM   22  O   UNL     1      -9.610   8.877  65.499  1.00  0.00    -0.184 OA 
HETATM   23  C   UNL     1      -9.431   6.825  66.837  1.00  0.00    -0.156 C  
HETATM   24  O   UNL     1      -7.453   6.163  67.996  1.00  0.00    -0.086 OA 
HETATM   25  H   UNL     1      -9.362   6.372  64.927  1.00  0.00     0.000 HD 
HETATM   26  O   UNL     1      -9.020   6.010  65.736  1.00  0.00    -0.156 OA 
HETATM   27  H   UNL     1      -7.183   5.601  67.279  1.00  0.00     0.000 HD 
HETATM   28  C   UNL     1      -8.972   8.286  66.647  1.00  0.00    -0.150 C  
BRANCH  19  29
HETATM   29  C   UNL     1      -8.826   6.645  70.662  1.00  0.00    -0.148 C  
HETATM   30  O   UNL     1      -9.803   5.763  71.218  1.00  0.00    -0.171 OA 
HETATM   31  H   UNL     1      -9.501   5.452  72.062  1.00  0.00     0.000 HD 
ENDBRANCH  19  29
ENDBRANCH  16  17
ENDBRANCH  10  16
ENDBRANCH   3   4
TORSDOF 5
ENDMDL
MODEL      218
REMARK 921   NORMALIZED FREE ENERGY PREDICTED BY IDOCK:   -3.06 KCAL/MOL
REMARK 922        TOTAL FREE ENERGY PREDICTED BY IDOCK:   -5.54 KCAL/MOL
REMARK 923 INTER-LIGAND FREE ENERGY PREDICTED BY IDOCK:   -6.32 KCAL/MOL
REMARK 924 INTRA-LIGAND FREE ENERGY PREDICTED BY IDOCK:    0.78 KCAL/MOL
REMARK 927      BINDING AFFINITY PREDICTED BY RF-SCORE:    0.00 PKD
ROOT
HETATM    1  O   UNL     1     -11.338   6.252  67.800  1.00  0.00    -0.566 OA 
HETATM    2  H   UNL     1     -10.879   5.571  67.322  1.00  0.00     0.000 HD 
HETATM    3  C   UNL     1     -10.819   6.341  69.126  1.00  0.00    -0.340 C  
ENDROOT
BRANCH   3   4
HETATM    4  C   UNL     1     -11.558   7.439  69.895  1.00  0.00     0.080 C  
HETATM    5  O   UNL     1     -11.781   7.008  71.251  1.00  0.00    -0.282 OA 
HETATM    6  C   UNL     1     -11.806   8.187  72.058  1.00  0.00    -0.338 C  
HETATM    7  O   UNL     1     -11.338   7.839  73.367  1.00  0.00    -0.586 OA 
HETATM    8  H   UNL     1      -8.890   9.582  71.573  1.00  0.00     0.000 HD 
HETATM    9  C   UNL     1     -10.819   9.170  71.413  1.00  0.00    -0.349 C  
HETATM   10  C   UNL     1     -10.765   8.751  69.943  1.00  0.00    -0.223 C  
HETATM   11  O   UNL     1      -9.501   8.974  71.973  1.00  0.00    -0.339 OA 
HETATM   12  H   UNL     1     -11.354   8.623  73.903  1.00  0.00     0.000 HD 
BRANCH   6  13
HETATM   13  C   UNL     1     -13.247   8.711  72.157  1.00  0.00    -0.383 C  
HETATM   14  H   UNL     1     -14.096  10.474  72.228  1.00  0.00     0.000 HD 
HETATM   15  O   UNL     1     -13.205  10.150  72.167  1.00  0.00    -0.444 OA 
ENDBRANCH   6  13
BRANCH  10  16
HETATM   16  O   UNL     1     -11.343   9.764  69.106  1.00  0.00    -0.124 OA 
BRANCH  16  17
HETATM   17  C   UNL     1     -10.412  10.317  68.163  1.00  0.00    -0.190 C  
HETATM   18  O   UNL     1     -11.069  10.596  66.922  1.00  0.00    -0.220 OA 
HETATM   19  C   UNL     1     -10.188  11.202  65.959  1.00  0.00    -0.250 C  
HETATM   20  C   UNL     1      -9.038  10.246  65.613  1.00  0.00    -0.175 C  
HETATM   21  H   UNL     1      -7.779   8.613  69.125  1.00  0.00     0.000 HD 
HETATM   22  O   UNL     1      -8.516   9.202  69.235  1.00  0.00    -0.124 OA 
HETATM   23  C   UNL     1      -8.269   9.932  66.902  1.00  0.00    -0.120 C  
HETATM   24  O   UNL     1      -9.491   8.993  65.080  1.00  0.00    -0.451 OA 
HETATM   25  H   UNL     1      -6.727   8.828  67.412  1.00  0.00     0.000 HD 
HETATM   26  O   UNL     1      -7.203   9.023  66.614  1.00  0.00    -0.083 OA 
HETATM   27  H   UNL     1      -8.780   8.401  64.866  1.00  0.00     0.000 HD 
HETATM   28  C   UNL     1      -9.211   9.358  67.982  1.00  0.00    -0.130 C  
BRANCH  19  29
HETATM   29  C   UNL     1     -11.018  11.596  64.734  1.00  0.00    -0.289 C  
HETATM   30  O   UNL     1     -11.976  12.586  65.110  1.00  0.00    -0.395 OA 
HETATM   31  H   UNL     1     -12.491  12.831  64.350  1.00  0.00     0.000 HD 
ENDBRANCH  19  29
ENDBRANCH  16  17
ENDBRANCH  10  16
ENDBRANCH   3   4
TORSDOF 5
ENDMDL
MODEL      219
REMARK 921   NORMALIZED FREE ENERGY PREDICTED BY IDOCK:   -3.05 KCAL/MOL
REMARK 922        TOTAL FREE ENERGY PREDICTED BY IDOCK:   -5.52 KCAL/MOL
REMARK 923 INTER-LIGAND FREE ENERGY PREDICTED BY IDOCK:   -6.18 KCAL/MOL
REMARK 924 INTRA-LIGAND FREE ENERGY PREDICTED BY IDOCK:    0.65 KCAL/MOL
REMARK 927      BINDING AFFINITY PREDICTED BY RF-SCORE:    0.00 PKD
ROOT
HETATM    1  O   UNL     1     -10.713  19.016  67.724  1.00  0.00    -0.415 OA 
HETATM    2  H   UNL     1     -10.558  19.834  68.183  1.00  0.00     0.000 HD 
HETATM    3  C   UNL     1     -10.491  17.920  68.611  1.00  0.00    -0.262 C  
ENDROOT
BRANCH   3   4
HETATM    4  C   UNL     1     -10.740  16.603  67.871  1.00  0.00    -0.344 C  
HETATM    5  O   UNL     1     -11.319  16.879  66.582  1.00  0.00     0.375 OA 
HETATM    6  C   UNL     1     -10.909  15.820  65.712  1.00  0.00    -0.280 C  
HETATM    7  O   UNL     1     -10.837  16.344  64.380  1.00  0.00    -0.996 OA 
HETATM    8  H   UNL     1      -7.642  15.937  65.752  1.00  0.00     0.000 HD 
HETATM    9  C   UNL     1      -9.504  15.409  66.171  1.00  0.00    -0.336 C  
HETATM   10  C   UNL     1      -9.448  15.808  67.647  1.00  0.00    -0.218 C  
HETATM   11  O   UNL     1      -8.512  16.192  65.468  1.00  0.00     0.130 OA 
HETATM   12  H   UNL     1     -10.564  15.641  63.802  1.00  0.00     0.000 HD 
BRANCH   6  13
HETATM   13  C   UNL     1     -11.946  14.688  65.757  1.00  0.00    -0.235 C  
HETATM   14  H   UNL     1     -13.411  14.082  64.607  1.00  0.00     0.000 HD 
HETATM   15  O   UNL     1     -12.769  14.782  64.579  1.00  0.00    -0.569 OA 
ENDBRANCH   6  13
BRANCH  10  16
HETATM   16  O   UNL     1      -9.376  14.643  68.483  1.00  0.00    -0.191 OA 
BRANCH  16  17
HETATM   17  C   UNL     1     -10.580  13.861  68.467  1.00  0.00    -0.252 C  
HETATM   18  O   UNL     1     -11.120  13.754  69.789  1.00  0.00    -0.119 OA 
HETATM   19  C   UNL     1     -12.358  13.021  69.818  1.00  0.00    -0.078 C  
HETATM   20  C   UNL     1     -12.136  11.579  69.342  1.00  0.00    -0.279 C  
HETATM   21  H   UNL     1      -9.700  11.784  66.085  1.00  0.00     0.000 HD 
HETATM   22  O   UNL     1      -9.872  12.635  66.472  1.00  0.00    -0.243 OA 
HETATM   23  C   UNL     1     -11.587  11.623  67.911  1.00  0.00    -0.298 C  
HETATM   24  O   UNL     1     -11.176  10.868  70.137  1.00  0.00    -0.363 OA 
HETATM   25  H   UNL     1     -11.007  10.319  66.563  1.00  0.00     0.000 HD 
HETATM   26  O   UNL     1     -11.348  10.291  67.449  1.00  0.00    -0.310 OA 
HETATM   27  H   UNL     1     -11.039   9.975  69.842  1.00  0.00     0.000 HD 
HETATM   28  C   UNL     1     -10.301  12.475  67.838  1.00  0.00    -0.216 C  
BRANCH  19  29
HETATM   29  C   UNL     1     -12.924  13.094  71.239  1.00  0.00    -0.254 C  
HETATM   30  O   UNL     1     -12.957  11.782  71.803  1.00  0.00    -0.423 OA 
HETATM   31  H   UNL     1     -13.308  11.827  72.684  1.00  0.00     0.000 HD 
ENDBRANCH  19  29
ENDBRANCH  16  17
ENDBRANCH  10  16
ENDBRANCH   3   4
TORSDOF 5
ENDMDL
MODEL      220
REMARK 921   NORMALIZED FREE ENERGY PREDICTED BY IDOCK:   -3.02 KCAL/MOL
REMARK 922        TOTAL FREE ENERGY PREDICTED BY IDOCK:   -5.49 KCAL/MOL
REMARK 923 INTER-LIGAND FREE ENERGY PREDICTED BY IDOCK:   -4.74 KCAL/MOL
REMARK 924 INTRA-LIGAND FREE ENERGY PREDICTED BY IDOCK:   -0.75 KCAL/MOL
REMARK 927      BINDING AFFINITY PREDICTED BY RF-SCORE:    0.00 PKD
ROOT
HETATM    1  O   UNL     1     -10.471   7.871  72.747  1.00  0.00    -0.292 OA 
HETATM    2  H   UNL     1     -11.099   7.298  73.172  1.00  0.00     0.000 HD 
HETATM    3  C   UNL     1     -11.107   8.571  71.679  1.00  0.00    -0.290 C  
ENDROOT
BRANCH   3   4
HETATM    4  C   UNL     1     -10.095   9.493  70.995  1.00  0.00    -0.229 C  
HETATM    5  O   UNL     1      -8.847   8.795  70.827  1.00  0.00    -0.155 OA 
HETATM    6  C   UNL     1      -8.222   9.344  69.664  1.00  0.00    -0.136 C  
HETATM    7  O   UNL     1      -7.418   8.319  69.067  1.00  0.00    -0.086 OA 
HETATM    8  H   UNL     1     -10.367   8.827  67.252  1.00  0.00     0.000 HD 
HETATM    9  C   UNL     1      -9.358   9.719  68.703  1.00  0.00    -0.147 C  
HETATM   10  C   UNL     1     -10.568   9.952  69.610  1.00  0.00    -0.250 C  
HETATM   11  O   UNL     1      -9.663   8.595  67.847  1.00  0.00    -0.152 OA 
HETATM   12  H   UNL     1      -7.003   8.684  68.294  1.00  0.00     0.000 HD 
BRANCH   6  13
HETATM   13  C   UNL     1      -7.324  10.521  70.072  1.00  0.00    -0.052 C  
HETATM   14  H   UNL     1      -5.635  11.283  69.436  1.00  0.00     0.000 HD 
HETATM   15  O   UNL     1      -6.191  10.555  69.183  1.00  0.00    -0.043 OA 
ENDBRANCH   6  13
BRANCH  10  16
HETATM   16  O   UNL     1     -10.951  11.335  69.599  1.00  0.00    -0.227 OA 
BRANCH  16  17
HETATM   17  C   UNL     1     -10.365  12.074  68.515  1.00  0.00    -0.217 C  
HETATM   18  O   UNL     1      -9.683  13.230  69.014  1.00  0.00     0.084 OA 
HETATM   19  C   UNL     1      -9.034  13.977  67.970  1.00  0.00    -0.182 C  
HETATM   20  C   UNL     1     -10.070  14.507  66.970  1.00  0.00    -0.254 C  
HETATM   21  H   UNL     1     -12.696  11.470  66.287  1.00  0.00     0.000 HD 
HETATM   22  O   UNL     1     -12.028  11.244  66.923  1.00  0.00    -0.327 OA 
HETATM   23  C   UNL     1     -10.817  13.309  66.371  1.00  0.00    -0.288 C  
HETATM   24  O   UNL     1     -11.056  15.353  67.579  1.00  0.00    -0.314 OA 
HETATM   25  H   UNL     1     -12.271  13.033  65.079  1.00  0.00     0.000 HD 
HETATM   26  O   UNL     1     -11.808  13.775  65.450  1.00  0.00    -0.332 OA 
HETATM   27  H   UNL     1     -11.698  15.681  66.961  1.00  0.00     0.000 HD 
HETATM   28  C   UNL     1     -11.454  12.443  67.479  1.00  0.00    -0.346 C  
BRANCH  19  29
HETATM   29  C   UNL     1      -8.214  15.095  68.620  1.00  0.00    -0.154 C  
HETATM   30  O   UNL     1      -8.496  15.135  70.020  1.00  0.00    -0.351 OA 
HETATM   31  H   UNL     1      -7.988  15.829  70.424  1.00  0.00     0.000 HD 
ENDBRANCH  19  29
ENDBRANCH  16  17
ENDBRANCH  10  16
ENDBRANCH   3   4
TORSDOF 5
ENDMDL
MODEL      221
REMARK 921   NORMALIZED FREE ENERGY PREDICTED BY IDOCK:   -3.02 KCAL/MOL
REMARK 922        TOTAL FREE ENERGY PREDICTED BY IDOCK:   -5.49 KCAL/MOL
REMARK 923 INTER-LIGAND FREE ENERGY PREDICTED BY IDOCK:   -5.13 KCAL/MOL
REMARK 924 INTRA-LIGAND FREE ENERGY PREDICTED BY IDOCK:   -0.36 KCAL/MOL
REMARK 927      BINDING AFFINITY PREDICTED BY RF-SCORE:    0.00 PKD
ROOT
HETATM    1  O   UNL     1     -12.504  10.832  69.930  1.00  0.00    -0.407 OA 
HETATM    2  H   UNL     1     -13.232  10.494  70.439  1.00  0.00     0.000 HD 
HETATM    3  C   UNL     1     -11.297  10.185  70.330  1.00  0.00    -0.315 C  
ENDROOT
BRANCH   3   4
HETATM    4  C   UNL     1     -10.125  10.731  69.509  1.00  0.00    -0.084 C  
HETATM    5  O   UNL     1      -8.908  10.081  69.921  1.00  0.00    -0.205 OA 
HETATM    6  C   UNL     1      -8.046  10.061  68.780  1.00  0.00    -0.106 C  
HETATM    7  O   UNL     1      -7.201   8.909  68.882  1.00  0.00    -0.071 OA 
HETATM    8  H   UNL     1      -9.725   8.418  66.506  1.00  0.00     0.000 HD 
HETATM    9  C   UNL     1      -8.960   9.912  67.556  1.00  0.00    -0.134 C  
HETATM   10  C   UNL     1     -10.304  10.487  68.006  1.00  0.00    -0.181 C  
HETATM   11  O   UNL     1      -9.159   8.510  67.264  1.00  0.00    -0.131 OA 
HETATM   12  H   UNL     1      -6.629   8.895  68.124  1.00  0.00     0.000 HD 
BRANCH   6  13
HETATM   13  C   UNL     1      -7.178  11.328  68.771  1.00  0.00    -0.104 C  
HETATM   14  H   UNL     1      -6.577  12.607  67.415  1.00  0.00     0.000 HD 
HETATM   15  O   UNL     1      -7.114  11.823  67.420  1.00  0.00    -0.106 OA 
ENDBRANCH   6  13
BRANCH  10  16
HETATM   16  O   UNL     1     -10.602  11.697  67.293  1.00  0.00    -0.212 OA 
BRANCH  16  17
HETATM   17  C   UNL     1     -10.965  11.470  65.922  1.00  0.00    -0.243 C  
HETATM   18  O   UNL     1      -9.874  10.872  65.212  1.00  0.00    -0.230 OA 
HETATM   19  C   UNL     1     -10.207  10.576  63.844  1.00  0.00    -0.129 C  
HETATM   20  C   UNL     1     -10.538  11.867  63.084  1.00  0.00    -0.263 C  
HETATM   21  H   UNL     1     -12.878  14.108  65.551  1.00  0.00     0.000 HD 
HETATM   22  O   UNL     1     -12.595  13.294  65.951  1.00  0.00    -0.406 OA 
HETATM   23  C   UNL     1     -11.727  12.543  63.778  1.00  0.00    -0.485 C  
HETATM   24  O   UNL     1      -9.459  12.813  63.088  1.00  0.00    -0.160 OA 
HETATM   25  H   UNL     1     -12.780  14.182  63.534  1.00  0.00     0.000 HD 
HETATM   26  O   UNL     1     -12.044  13.764  63.104  1.00  0.00    -0.434 OA 
HETATM   27  H   UNL     1      -9.664  13.612  62.618  1.00  0.00     0.000 HD 
HETATM   28  C   UNL     1     -11.426  12.796  65.271  1.00  0.00    -0.325 C  
BRANCH  19  29
HETATM   29  C   UNL     1      -9.037   9.808  63.223  1.00  0.00    -0.237 C  
HETATM   30  O   UNL     1      -8.383   9.042  64.236  1.00  0.00    -0.160 OA 
HETATM   31  H   UNL     1      -7.657   8.566  63.850  1.00  0.00     0.000 HD 
ENDBRANCH  19  29
ENDBRANCH  16  17
ENDBRANCH  10  16
ENDBRANCH   3   4
TORSDOF 5
ENDMDL
MODEL      222
REMARK 921   NORMALIZED FREE ENERGY PREDICTED BY IDOCK:   -3.02 KCAL/MOL
REMARK 922        TOTAL FREE ENERGY PREDICTED BY IDOCK:   -5.49 KCAL/MOL
REMARK 923 INTER-LIGAND FREE ENERGY PREDICTED BY IDOCK:   -4.64 KCAL/MOL
REMARK 924 INTRA-LIGAND FREE ENERGY PREDICTED BY IDOCK:   -0.85 KCAL/MOL
REMARK 927      BINDING AFFINITY PREDICTED BY RF-SCORE:    0.00 PKD
ROOT
HETATM    1  O   UNL     1     -12.922   7.660  70.870  1.00  0.00    -0.554 OA 
HETATM    2  H   UNL     1     -13.747   8.127  70.922  1.00  0.00     0.000 HD 
HETATM    3  C   UNL     1     -11.840   8.584  70.972  1.00  0.00    -0.257 C  
ENDROOT
BRANCH   3   4
HETATM    4  C   UNL     1     -10.510   7.830  70.887  1.00  0.00    -0.206 C  
HETATM    5  O   UNL     1     -10.744   6.422  71.077  1.00  0.00    -0.232 OA 
HETATM    6  C   UNL     1      -9.725   5.734  70.347  1.00  0.00    -0.176 C  
HETATM    7  O   UNL     1     -10.259   4.473  69.923  1.00  0.00    -0.208 OA 
HETATM    8  H   UNL     1     -10.103   6.737  67.258  1.00  0.00     0.000 HD 
HETATM    9  C   UNL     1      -9.425   6.596  69.113  1.00  0.00    -0.136 C  
HETATM   10  C   UNL     1      -9.822   8.014  69.529  1.00  0.00    -0.181 C  
HETATM   11  O   UNL     1     -10.289   6.203  68.022  1.00  0.00    -0.157 OA 
HETATM   12  H   UNL     1      -9.582   4.016  69.438  1.00  0.00     0.000 HD 
BRANCH   6  13
HETATM   13  C   UNL     1      -8.514   5.492  71.260  1.00  0.00    -0.127 C  
HETATM   14  H   UNL     1      -7.884   4.026  72.395  1.00  0.00     0.000 HD 
HETATM   15  O   UNL     1      -8.633   4.175  71.830  1.00  0.00    -0.100 OA 
ENDBRANCH   6  13
BRANCH  10  16
HETATM   16  O   UNL     1      -8.663   8.858  69.619  1.00  0.00    -0.132 OA 
BRANCH  16  17
HETATM   17  C   UNL     1      -8.907  10.201  69.172  1.00  0.00    -0.175 C  
HETATM   18  O   UNL     1      -9.656  10.190  67.952  1.00  0.00    -0.147 OA 
HETATM   19  C   UNL     1      -9.972  11.516  67.490  1.00  0.00    -0.190 C  
HETATM   20  C   UNL     1      -8.686  12.293  67.181  1.00  0.00    -0.193 C  
HETATM   21  H   UNL     1      -6.085  11.508  70.215  1.00  0.00     0.000 HD 
HETATM   22  O   UNL     1      -6.908  11.043  70.304  1.00  0.00    -0.217 OA 
HETATM   23  C   UNL     1      -7.848  12.370  68.463  1.00  0.00    -0.112 C  
HETATM   24  O   UNL     1      -7.871  11.654  66.186  1.00  0.00    -0.375 OA 
HETATM   25  H   UNL     1      -6.111  13.117  68.992  1.00  0.00     0.000 HD 
HETATM   26  O   UNL     1      -6.630  13.070  68.197  1.00  0.00    -0.080 OA 
HETATM   27  H   UNL     1      -7.074  12.135  65.994  1.00  0.00     0.000 HD 
HETATM   28  C   UNL     1      -7.566  10.960  69.025  1.00  0.00    -0.135 C  
BRANCH  19  29
HETATM   29  C   UNL     1     -10.895  11.392  66.275  1.00  0.00    -0.263 C  
HETATM   30  O   UNL     1     -10.253  10.604  65.272  1.00  0.00    -0.282 OA 
HETATM   31  H   UNL     1     -10.825  10.528  64.518  1.00  0.00     0.000 HD 
ENDBRANCH  19  29
ENDBRANCH  16  17
ENDBRANCH  10  16
ENDBRANCH   3   4
TORSDOF 5
ENDMDL
MODEL      223
REMARK 921   NORMALIZED FREE ENERGY PREDICTED BY IDOCK:   -2.99 KCAL/MOL
REMARK 922        TOTAL FREE ENERGY PREDICTED BY IDOCK:   -5.44 KCAL/MOL
REMARK 923 INTER-LIGAND FREE ENERGY PREDICTED BY IDOCK:   -4.71 KCAL/MOL
REMARK 924 INTRA-LIGAND FREE ENERGY PREDICTED BY IDOCK:   -0.73 KCAL/MOL
REMARK 927      BINDING AFFINITY PREDICTED BY RF-SCORE:    0.00 PKD
ROOT
HETATM    1  O   UNL     1      -9.311   6.042  66.900  1.00  0.00    -0.124 OA 
HETATM    2  H   UNL     1      -8.985   5.885  66.021  1.00  0.00     0.000 HD 
HETATM    3  C   UNL     1     -10.363   7.006  66.855  1.00  0.00    -0.268 C  
ENDROOT
BRANCH   3   4
HETATM    4  C   UNL     1     -10.889   7.258  68.270  1.00  0.00    -0.058 C  
HETATM    5  O   UNL     1     -11.071   5.999  68.946  1.00  0.00    -0.343 OA 
HETATM    6  C   UNL     1     -10.878   6.249  70.340  1.00  0.00    -0.299 C  
HETATM    7  O   UNL     1     -10.369   5.051  70.939  1.00  0.00    -0.230 OA 
HETATM    8  H   UNL     1      -7.841   7.440  70.552  1.00  0.00     0.000 HD 
HETATM    9  C   UNL     1      -9.815   7.352  70.435  1.00  0.00    -0.183 C  
HETATM   10  C   UNL     1      -9.923   8.106  69.108  1.00  0.00    -0.192 C  
HETATM   11  O   UNL     1      -8.499   6.757  70.494  1.00  0.00    -0.134 OA 
HETATM   12  H   UNL     1     -10.240   5.217  71.866  1.00  0.00     0.000 HD 
BRANCH   6  13
HETATM   13  C   UNL     1     -12.223   6.609  70.989  1.00  0.00    -0.286 C  
HETATM   14  H   UNL     1     -12.796   7.364  72.702  1.00  0.00     0.000 HD 
HETATM   15  O   UNL     1     -11.964   7.142  72.301  1.00  0.00    -0.280 OA 
ENDBRANCH   6  13
BRANCH  10  16
HETATM   16  O   UNL     1     -10.417   9.437  69.321  1.00  0.00    -0.207 OA 
BRANCH  16  17
HETATM   17  C   UNL     1      -9.726  10.427  68.542  1.00  0.00    -0.168 C  
HETATM   18  O   UNL     1     -10.243  10.457  67.208  1.00  0.00    -0.190 OA 
HETATM   19  C   UNL     1      -9.617  11.471  66.400  1.00  0.00    -0.209 C  
HETATM   20  C   UNL     1      -8.116  11.188  66.257  1.00  0.00    -0.142 C  
HETATM   21  H   UNL     1      -6.778  10.078  69.940  1.00  0.00     0.000 HD 
HETATM   22  O   UNL     1      -7.713  10.246  69.922  1.00  0.00    -0.165 OA 
HETATM   23  C   UNL     1      -7.492  11.174  67.658  1.00  0.00    -0.100 C  
HETATM   24  O   UNL     1      -7.841   9.910  65.664  1.00  0.00    -0.117 OA 
HETATM   25  H   UNL     1      -5.708  10.880  68.425  1.00  0.00     0.000 HD 
HETATM   26  O   UNL     1      -6.094  10.889  67.557  1.00  0.00    -0.047 OA 
HETATM   27  H   UNL     1      -6.911   9.734  65.576  1.00  0.00     0.000 HD 
HETATM   28  C   UNL     1      -8.203  10.152  68.570  1.00  0.00    -0.111 C  
BRANCH  19  29
HETATM   29  C   UNL     1     -10.340  11.523  65.052  1.00  0.00    -0.281 C  
HETATM   30  O   UNL     1      -9.817  12.601  64.275  1.00  0.00    -0.573 OA 
HETATM   31  H   UNL     1     -10.265  12.633  63.439  1.00  0.00     0.000 HD 
ENDBRANCH  19  29
ENDBRANCH  16  17
ENDBRANCH  10  16
ENDBRANCH   3   4
TORSDOF 5
ENDMDL
MODEL      224
REMARK 921   NORMALIZED FREE ENERGY PREDICTED BY IDOCK:   -2.98 KCAL/MOL
REMARK 922        TOTAL FREE ENERGY PREDICTED BY IDOCK:   -5.44 KCAL/MOL
REMARK 923 INTER-LIGAND FREE ENERGY PREDICTED BY IDOCK:   -5.28 KCAL/MOL
REMARK 924 INTRA-LIGAND FREE ENERGY PREDICTED BY IDOCK:   -0.15 KCAL/MOL
REMARK 927      BINDING AFFINITY PREDICTED BY RF-SCORE:    0.00 PKD
ROOT
HETATM    1  O   UNL     1      -6.524   5.725  68.576  1.00  0.00    -0.039 OA 
HETATM    2  H   UNL     1      -5.605   5.686  68.336  1.00  0.00     0.000 HD 
HETATM    3  C   UNL     1      -6.839   7.033  69.052  1.00  0.00    -0.065 C  
ENDROOT
BRANCH   3   4
HETATM    4  C   UNL     1      -8.318   7.097  69.438  1.00  0.00    -0.133 C  
HETATM    5  O   UNL     1      -8.978   5.889  69.014  1.00  0.00    -0.121 OA 
HETATM    6  C   UNL     1     -10.057   5.668  69.926  1.00  0.00    -0.222 C  
HETATM    7  O   UNL     1     -10.283   4.255  70.011  1.00  0.00    -0.113 OA 
HETATM    8  H   UNL     1      -8.627   5.441  72.857  1.00  0.00     0.000 HD 
HETATM    9  C   UNL     1      -9.579   6.186  71.289  1.00  0.00    -0.171 C  
HETATM   10  C   UNL     1      -8.520   7.237  70.952  1.00  0.00    -0.128 C  
HETATM   11  O   UNL     1      -8.923   5.120  72.013  1.00  0.00    -0.132 OA 
HETATM   12  H   UNL     1     -11.000   4.108  70.617  1.00  0.00     0.000 HD 
BRANCH   6  13
HETATM   13  C   UNL     1     -11.325   6.354  69.397  1.00  0.00    -0.377 C  
HETATM   14  H   UNL     1     -12.114   6.674  67.634  1.00  0.00     0.000 HD 
HETATM   15  O   UNL     1     -11.330   6.249  67.961  1.00  0.00    -0.260 OA 
ENDBRANCH   6  13
BRANCH  10  16
HETATM   16  O   UNL     1      -8.973   8.549  71.319  1.00  0.00    -0.156 OA 
BRANCH  16  17
HETATM   17  C   UNL     1     -10.188   8.933  70.657  1.00  0.00    -0.217 C  
HETATM   18  O   UNL     1      -9.907   9.865  69.607  1.00  0.00    -0.206 OA 
HETATM   19  C   UNL     1     -11.088  10.241  68.877  1.00  0.00    -0.231 C  
HETATM   20  C   UNL     1     -12.086  10.949  69.804  1.00  0.00    -0.338 C  
HETATM   21  H   UNL     1     -12.149   8.835  73.285  1.00  0.00     0.000 HD 
HETATM   22  O   UNL     1     -11.531   8.486  72.653  1.00  0.00    -0.351 OA 
HETATM   23  C   UNL     1     -12.455   9.985  70.939  1.00  0.00    -0.337 C  
HETATM   24  O   UNL     1     -11.543  12.128  70.417  1.00  0.00    -0.526 OA 
HETATM   25  H   UNL     1     -13.596  10.031  72.537  1.00  0.00     0.000 HD 
HETATM   26  O   UNL     1     -13.368  10.628  71.834  1.00  0.00    -0.424 OA 
HETATM   27  H   UNL     1     -12.160  12.566  70.991  1.00  0.00     0.000 HD 
HETATM   28  C   UNL     1     -11.194   9.501  71.686  1.00  0.00    -0.308 C  
BRANCH  19  29
HETATM   29  C   UNL     1     -10.662  11.113  67.693  1.00  0.00    -0.230 C  
HETATM   30  O   UNL     1     -11.674  11.071  66.686  1.00  0.00    -0.201 OA 
HETATM   31  H   UNL     1     -11.410  11.612  65.951  1.00  0.00     0.000 HD 
ENDBRANCH  19  29
ENDBRANCH  16  17
ENDBRANCH  10  16
ENDBRANCH   3   4
TORSDOF 5
ENDMDL
MODEL      225
REMARK 921   NORMALIZED FREE ENERGY PREDICTED BY IDOCK:   -2.98 KCAL/MOL
REMARK 922        TOTAL FREE ENERGY PREDICTED BY IDOCK:   -5.43 KCAL/MOL
REMARK 923 INTER-LIGAND FREE ENERGY PREDICTED BY IDOCK:   -4.74 KCAL/MOL
REMARK 924 INTRA-LIGAND FREE ENERGY PREDICTED BY IDOCK:   -0.70 KCAL/MOL
REMARK 927      BINDING AFFINITY PREDICTED BY RF-SCORE:    0.00 PKD
ROOT
HETATM    1  O   UNL     1     -10.434   9.138  70.431  1.00  0.00    -0.196 OA 
HETATM    2  H   UNL     1     -11.347   9.130  70.694  1.00  0.00     0.000 HD 
HETATM    3  C   UNL     1     -10.341   9.372  69.027  1.00  0.00    -0.210 C  
ENDROOT
BRANCH   3   4
HETATM    4  C   UNL     1      -8.870   9.385  68.604  1.00  0.00    -0.132 C  
HETATM    5  O   UNL     1      -8.342   8.046  68.663  1.00  0.00    -0.125 OA 
HETATM    6  C   UNL     1      -7.310   7.968  67.677  1.00  0.00    -0.093 C  
HETATM    7  O   UNL     1      -7.243   6.614  67.211  1.00  0.00    -0.080 OA 
HETATM    8  H   UNL     1      -8.803   8.683  64.858  1.00  0.00     0.000 HD 
HETATM    9  C   UNL     1      -7.749   8.879  66.522  1.00  0.00    -0.099 C  
HETATM   10  C   UNL     1      -8.679   9.904  67.174  1.00  0.00    -0.131 C  
HETATM   11  O   UNL     1      -8.531   8.119  65.573  1.00  0.00    -0.148 OA 
HETATM   12  H   UNL     1      -6.557   6.562  66.556  1.00  0.00     0.000 HD 
BRANCH   6  13
HETATM   13  C   UNL     1      -5.965   8.353  68.311  1.00  0.00    -0.046 C  
HETATM   14  H   UNL     1      -4.298   7.419  68.738  1.00  0.00     0.000 HD 
HETATM   15  O   UNL     1      -5.129   7.181  68.346  1.00  0.00    -0.017 OA 
ENDBRANCH   6  13
BRANCH  10  16
HETATM   16  O   UNL     1      -8.089  11.212  67.146  1.00  0.00    -0.127 OA 
BRANCH  16  17
HETATM   17  C   UNL     1      -9.041  12.256  66.887  1.00  0.00    -0.208 C  
HETATM   18  O   UNL     1      -9.528  12.800  68.118  1.00  0.00    -0.210 OA 
HETATM   19  C   UNL     1     -10.448  13.888  67.912  1.00  0.00    -0.242 C  
HETATM   20  C   UNL     1     -11.690  13.399  67.155  1.00  0.00    -0.379 C  
HETATM   21  H   UNL     1     -10.361  10.957  64.179  1.00  0.00     0.000 HD 
HETATM   22  O   UNL     1      -9.658  11.288  64.726  1.00  0.00    -0.235 OA 
HETATM   23  C   UNL     1     -11.238  12.830  65.804  1.00  0.00    -0.307 C  
HETATM   24  O   UNL     1     -12.386  12.347  67.840  1.00  0.00    -0.261 OA 
HETATM   25  H   UNL     1     -12.095  11.992  64.249  1.00  0.00     0.000 HD 
HETATM   26  O   UNL     1     -12.375  12.344  65.085  1.00  0.00    -0.524 OA 
HETATM   27  H   UNL     1     -13.155  12.044  67.371  1.00  0.00     0.000 HD 
HETATM   28  C   UNL     1     -10.186  11.716  65.996  1.00  0.00    -0.232 C  
BRANCH  19  29
HETATM   29  C   UNL     1     -10.787  14.493  69.276  1.00  0.00    -0.252 C  
HETATM   30  O   UNL     1     -11.208  13.455  70.162  1.00  0.00    -0.480 OA 
HETATM   31  H   UNL     1     -11.419  13.830  71.009  1.00  0.00     0.000 HD 
ENDBRANCH  19  29
ENDBRANCH  16  17
ENDBRANCH  10  16
ENDBRANCH   3   4
TORSDOF 5
ENDMDL
MODEL      226
REMARK 921   NORMALIZED FREE ENERGY PREDICTED BY IDOCK:   -2.96 KCAL/MOL
REMARK 922        TOTAL FREE ENERGY PREDICTED BY IDOCK:   -5.41 KCAL/MOL
REMARK 923 INTER-LIGAND FREE ENERGY PREDICTED BY IDOCK:   -4.69 KCAL/MOL
REMARK 924 INTRA-LIGAND FREE ENERGY PREDICTED BY IDOCK:   -0.72 KCAL/MOL
REMARK 927      BINDING AFFINITY PREDICTED BY RF-SCORE:    0.00 PKD
ROOT
HETATM    1  O   UNL     1      -5.816   6.877  67.010  1.00  0.00    -0.017 OA 
HETATM    2  H   UNL     1      -5.799   6.847  66.060  1.00  0.00     0.000 HD 
HETATM    3  C   UNL     1      -5.841   8.235  67.446  1.00  0.00    -0.043 C  
ENDROOT
BRANCH   3   4
HETATM    4  C   UNL     1      -5.868   8.283  68.976  1.00  0.00    -0.039 C  
HETATM    5  O   UNL     1      -5.421   9.577  69.423  1.00  0.00    -0.035 OA 
HETATM    6  C   UNL     1      -6.076   9.830  70.668  1.00  0.00    -0.088 C  
HETATM    7  O   UNL     1      -6.240  11.248  70.803  1.00  0.00    -0.427 OA 
HETATM    8  H   UNL     1      -9.266   9.702  69.963  1.00  0.00     0.000 HD 
HETATM    9  C   UNL     1      -7.458   9.169  70.568  1.00  0.00    -0.116 C  
HETATM   10  C   UNL     1      -7.275   8.051  69.540  1.00  0.00    -0.070 C  
HETATM   11  O   UNL     1      -8.411  10.111  70.025  1.00  0.00    -0.160 OA 
HETATM   12  H   UNL     1      -6.676  11.416  71.630  1.00  0.00     0.000 HD 
BRANCH   6  13
HETATM   13  C   UNL     1      -5.207   9.308  71.822  1.00  0.00    -0.060 C  
HETATM   14  H   UNL     1      -4.879   9.833  73.680  1.00  0.00     0.000 HD 
HETATM   15  O   UNL     1      -5.417  10.156  72.966  1.00  0.00    -0.318 OA 
ENDBRANCH   6  13
BRANCH  10  16
HETATM   16  O   UNL     1      -7.403   6.764  70.164  1.00  0.00    -0.080 OA 
BRANCH  16  17
HETATM   17  C   UNL     1      -8.697   6.170  69.974  1.00  0.00    -0.137 C  
HETATM   18  O   UNL     1      -9.310   6.687  68.788  1.00  0.00    -0.132 OA 
HETATM   19  C   UNL     1     -10.589   6.083  68.524  1.00  0.00    -0.265 C  
HETATM   20  C   UNL     1     -11.569   6.389  69.665  1.00  0.00    -0.282 C  
HETATM   21  H   UNL     1      -9.505   5.901  73.142  1.00  0.00     0.000 HD 
HETATM   22  O   UNL     1      -8.968   5.761  72.371  1.00  0.00    -0.140 OA 
HETATM   23  C   UNL     1     -10.983   5.829  70.967  1.00  0.00    -0.230 C  
HETATM   24  O   UNL     1     -11.771   7.795  69.868  1.00  0.00    -0.461 OA 
HETATM   25  H   UNL     1     -11.502   5.774  72.860  1.00  0.00     0.000 HD 
HETATM   26  O   UNL     1     -11.866   6.120  72.054  1.00  0.00    -0.318 OA 
HETATM   27  H   UNL     1     -12.377   7.985  70.575  1.00  0.00     0.000 HD 
HETATM   28  C   UNL     1      -9.572   6.399  71.229  1.00  0.00    -0.170 C  
BRANCH  19  29
HETATM   29  C   UNL     1     -11.086   6.587  67.167  1.00  0.00    -0.360 C  
HETATM   30  O   UNL     1     -11.283   5.475  66.292  1.00  0.00    -0.746 OA 
HETATM   31  H   UNL     1     -11.591   5.788  65.450  1.00  0.00     0.000 HD 
ENDBRANCH  19  29
ENDBRANCH  16  17
ENDBRANCH  10  16
ENDBRANCH   3   4
TORSDOF 5
ENDMDL
MODEL      227
REMARK 921   NORMALIZED FREE ENERGY PREDICTED BY IDOCK:   -2.93 KCAL/MOL
REMARK 922        TOTAL FREE ENERGY PREDICTED BY IDOCK:   -5.37 KCAL/MOL
REMARK 923 INTER-LIGAND FREE ENERGY PREDICTED BY IDOCK:   -4.78 KCAL/MOL
REMARK 924 INTRA-LIGAND FREE ENERGY PREDICTED BY IDOCK:   -0.59 KCAL/MOL
REMARK 927      BINDING AFFINITY PREDICTED BY RF-SCORE:    0.00 PKD
ROOT
HETATM    1  O   UNL     1      -8.230   9.606  63.187  1.00  0.00    -0.135 OA 
HETATM    2  H   UNL     1      -8.071   9.246  62.322  1.00  0.00     0.000 HD 
HETATM    3  C   UNL     1      -8.232   8.553  64.150  1.00  0.00    -0.139 C  
ENDROOT
BRANCH   3   4
HETATM    4  C   UNL     1      -8.488   9.131  65.544  1.00  0.00    -0.147 C  
HETATM    5  O   UNL     1      -8.665   8.055  66.485  1.00  0.00    -0.131 OA 
HETATM    6  C   UNL     1      -8.219   8.542  67.753  1.00  0.00    -0.122 C  
HETATM    7  O   UNL     1      -7.724   7.427  68.506  1.00  0.00    -0.114 OA 
HETATM    8  H   UNL     1      -5.096   9.378  67.265  1.00  0.00     0.000 HD 
HETATM    9  C   UNL     1      -7.062   9.507  67.460  1.00  0.00    -0.085 C  
HETATM   10  C   UNL     1      -7.325  10.001  66.036  1.00  0.00    -0.112 C  
HETATM   11  O   UNL     1      -5.813   8.780  67.447  1.00  0.00    -0.042 OA 
HETATM   12  H   UNL     1      -7.428   7.750  69.349  1.00  0.00     0.000 HD 
BRANCH   6  13
HETATM   13  C   UNL     1      -9.399   9.178  68.503  1.00  0.00    -0.135 C  
HETATM   14  H   UNL     1      -9.697   9.888  70.304  1.00  0.00     0.000 HD 
HETATM   15  O   UNL     1      -8.967   9.495  69.840  1.00  0.00    -0.177 OA 
ENDBRANCH   6  13
BRANCH  10  16
HETATM   16  O   UNL     1      -7.657  11.398  66.038  1.00  0.00     0.013 OA 
BRANCH  16  17
HETATM   17  C   UNL     1      -9.040  11.650  66.329  1.00  0.00    -0.214 C  
HETATM   18  O   UNL     1      -9.769  11.871  65.116  1.00  0.00    -0.239 OA 
HETATM   19  C   UNL     1     -11.174  12.077  65.351  1.00  0.00    -0.322 C  
HETATM   20  C   UNL     1     -11.394  13.334  66.203  1.00  0.00    -0.309 C  
HETATM   21  H   UNL     1      -8.592  13.251  69.156  1.00  0.00     0.000 HD 
HETATM   22  O   UNL     1      -8.515  12.520  68.554  1.00  0.00    -0.146 OA 
HETATM   23  C   UNL     1     -10.662  13.146  67.537  1.00  0.00    -0.238 C  
HETATM   24  O   UNL     1     -10.863  14.521  65.597  1.00  0.00    -0.301 OA 
HETATM   25  H   UNL     1     -10.377  14.198  69.170  1.00  0.00     0.000 HD 
HETATM   26  O   UNL     1     -10.831  14.315  68.344  1.00  0.00    -0.240 OA 
HETATM   27  H   UNL     1     -10.999  15.300  66.125  1.00  0.00     0.000 HD 
HETATM   28  C   UNL     1      -9.166  12.840  67.309  1.00  0.00    -0.203 C  
BRANCH  19  29
HETATM   29  C   UNL     1     -11.880  12.151  63.994  1.00  0.00    -0.434 C  
HETATM   30  O   UNL     1     -11.328  11.165  63.119  1.00  0.00    -0.808 OA 
HETATM   31  H   UNL     1     -11.765  11.211  62.278  1.00  0.00     0.000 HD 
ENDBRANCH  19  29
ENDBRANCH  16  17
ENDBRANCH  10  16
ENDBRANCH   3   4
TORSDOF 5
ENDMDL
MODEL      228
REMARK 921   NORMALIZED FREE ENERGY PREDICTED BY IDOCK:   -2.93 KCAL/MOL
REMARK 922        TOTAL FREE ENERGY PREDICTED BY IDOCK:   -5.37 KCAL/MOL
REMARK 923 INTER-LIGAND FREE ENERGY PREDICTED BY IDOCK:   -4.30 KCAL/MOL
REMARK 924 INTRA-LIGAND FREE ENERGY PREDICTED BY IDOCK:   -1.06 KCAL/MOL
REMARK 927      BINDING AFFINITY PREDICTED BY RF-SCORE:    0.00 PKD
ROOT
HETATM    1  O   UNL     1      -8.767  13.413  66.503  1.00  0.00    -0.440 OA 
HETATM    2  H   UNL     1      -8.445  14.262  66.220  1.00  0.00     0.000 HD 
HETATM    3  C   UNL     1      -8.483  13.232  67.890  1.00  0.00    -0.177 C  
ENDROOT
BRANCH   3   4
HETATM    4  C   UNL     1      -9.002  11.866  68.346  1.00  0.00    -0.163 C  
HETATM    5  O   UNL     1     -10.316  12.017  68.917  1.00  0.00    -0.188 OA 
HETATM    6  C   UNL     1     -11.008  10.787  68.687  1.00  0.00    -0.239 C  
HETATM    7  O   UNL     1     -12.406  11.079  68.579  1.00  0.00    -0.762 OA 
HETATM    8  H   UNL     1     -11.007  10.433  65.437  1.00  0.00     0.000 HD 
HETATM    9  C   UNL     1     -10.497  10.253  67.342  1.00  0.00    -0.251 C  
HETATM   10  C   UNL     1      -9.105  10.866  67.187  1.00  0.00    -0.145 C  
HETATM   11  O   UNL     1     -11.322  10.764  66.270  1.00  0.00    -0.016 OA 
HETATM   12  H   UNL     1     -12.866  10.262  68.427  1.00  0.00     0.000 HD 
BRANCH   6  13
HETATM   13  C   UNL     1     -10.777   9.839  69.873  1.00  0.00    -0.268 C  
HETATM   14  H   UNL     1     -11.479   9.674  71.694  1.00  0.00     0.000 HD 
HETATM   15  O   UNL     1     -11.623  10.260  70.960  1.00  0.00    -0.351 OA 
ENDBRANCH   6  13
BRANCH  10  16
HETATM   16  O   UNL     1      -8.094   9.849  67.258  1.00  0.00    -0.112 OA 
BRANCH  16  17
HETATM   17  C   UNL     1      -8.600   8.530  67.000  1.00  0.00    -0.121 C  
HETATM   18  O   UNL     1      -8.386   7.686  68.136  1.00  0.00    -0.123 OA 
HETATM   19  C   UNL     1      -8.924   6.365  67.947  1.00  0.00    -0.114 C  
HETATM   20  C   UNL     1      -8.223   5.667  66.773  1.00  0.00    -0.105 C  
HETATM   21  H   UNL     1      -7.894   8.427  63.798  1.00  0.00     0.000 HD 
HETATM   22  O   UNL     1      -8.292   8.779  64.585  1.00  0.00    -0.158 OA 
HETATM   23  C   UNL     1      -8.444   6.508  65.510  1.00  0.00    -0.136 C  
HETATM   24  O   UNL     1      -6.805   5.551  66.956  1.00  0.00    -0.060 OA 
HETATM   25  H   UNL     1      -7.917   6.415  63.621  1.00  0.00     0.000 HD 
HETATM   26  O   UNL     1      -7.781   5.893  64.403  1.00  0.00    -0.085 OA 
HETATM   27  H   UNL     1      -6.370   5.119  66.230  1.00  0.00     0.000 HD 
HETATM   28  C   UNL     1      -7.950   7.957  65.717  1.00  0.00    -0.109 C  
BRANCH  19  29
HETATM   29  C   UNL     1      -8.779   5.596  69.263  1.00  0.00    -0.108 C  
HETATM   30  O   UNL     1      -7.502   5.877  69.837  1.00  0.00    -0.075 OA 
HETATM   31  H   UNL     1      -7.412   5.400  70.653  1.00  0.00     0.000 HD 
ENDBRANCH  19  29
ENDBRANCH  16  17
ENDBRANCH  10  16
ENDBRANCH   3   4
TORSDOF 5
ENDMDL
MODEL      229
REMARK 921   NORMALIZED FREE ENERGY PREDICTED BY IDOCK:   -2.92 KCAL/MOL
REMARK 922        TOTAL FREE ENERGY PREDICTED BY IDOCK:   -5.35 KCAL/MOL
REMARK 923 INTER-LIGAND FREE ENERGY PREDICTED BY IDOCK:   -4.56 KCAL/MOL
REMARK 924 INTRA-LIGAND FREE ENERGY PREDICTED BY IDOCK:   -0.79 KCAL/MOL
REMARK 927      BINDING AFFINITY PREDICTED BY RF-SCORE:    0.00 PKD
ROOT
HETATM    1  O   UNL     1      -7.055  10.438  65.388  1.00  0.00    -0.139 OA 
HETATM    2  H   UNL     1      -6.958  10.821  64.523  1.00  0.00     0.000 HD 
HETATM    3  C   UNL     1      -8.104   9.470  65.367  1.00  0.00    -0.125 C  
ENDROOT
BRANCH   3   4
HETATM    4  C   UNL     1      -8.261   8.853  66.759  1.00  0.00    -0.111 C  
HETATM    5  O   UNL     1      -9.239   9.601  67.507  1.00  0.00    -0.133 OA 
HETATM    6  C   UNL     1      -9.845   8.684  68.423  1.00  0.00    -0.172 C  
HETATM    7  O   UNL     1     -11.188   9.121  68.664  1.00  0.00    -0.448 OA 
HETATM    8  H   UNL     1     -11.126   6.349  66.527  1.00  0.00     0.000 HD 
HETATM    9  C   UNL     1      -9.874   7.325  67.711  1.00  0.00    -0.149 C  
HETATM   10  C   UNL     1      -8.729   7.394  66.700  1.00  0.00    -0.135 C  
HETATM   11  O   UNL     1     -11.107   7.191  66.967  1.00  0.00    -0.345 OA 
HETATM   12  H   UNL     1     -11.591   8.512  69.271  1.00  0.00     0.000 HD 
BRANCH   6  13
HETATM   13  C   UNL     1      -9.064   8.689  69.746  1.00  0.00    -0.150 C  
HETATM   14  H   UNL     1      -8.909   7.491  71.286  1.00  0.00     0.000 HD 
HETATM   15  O   UNL     1      -9.391   7.488  70.468  1.00  0.00    -0.160 OA 
ENDBRANCH   6  13
BRANCH  10  16
HETATM   16  O   UNL     1      -7.684   6.476  67.056  1.00  0.00    -0.097 OA 
BRANCH  16  17
HETATM   17  C   UNL     1      -7.723   5.256  66.299  1.00  0.00    -0.088 C  
HETATM   18  O   UNL     1      -9.026   5.061  65.738  1.00  0.00    -0.136 OA 
HETATM   19  C   UNL     1      -9.102   3.876  64.926  1.00  0.00    -0.141 C  
HETATM   20  C   UNL     1      -8.824   2.628  65.775  1.00  0.00    -0.134 C  
HETATM   21  H   UNL     1      -5.664   3.529  68.180  1.00  0.00     0.000 HD 
HETATM   22  O   UNL     1      -5.931   4.258  67.633  1.00  0.00    -0.022 OA 
HETATM   23  C   UNL     1      -7.422   2.759  66.381  1.00  0.00    -0.071 C  
HETATM   24  O   UNL     1      -9.741   2.480  66.869  1.00  0.00    -0.391 OA 
HETATM   25  H   UNL     1      -6.276   1.701  67.574  1.00  0.00     0.000 HD 
HETATM   26  O   UNL     1      -7.145   1.619  67.198  1.00  0.00    -0.038 OA 
HETATM   27  H   UNL     1      -9.569   1.708  67.396  1.00  0.00     0.000 HD 
HETATM   28  C   UNL     1      -7.289   4.067  67.190  1.00  0.00    -0.068 C  
BRANCH  19  29
HETATM   29  C   UNL     1     -10.478   3.842  64.257  1.00  0.00    -0.241 C  
HETATM   30  O   UNL     1     -11.448   4.404  65.142  1.00  0.00    -1.069 OA 
HETATM   31  H   UNL     1     -12.302   4.382  64.728  1.00  0.00     0.000 HD 
ENDBRANCH  19  29
ENDBRANCH  16  17
ENDBRANCH  10  16
ENDBRANCH   3   4
TORSDOF 5
ENDMDL
MODEL      230
REMARK 921   NORMALIZED FREE ENERGY PREDICTED BY IDOCK:   -2.90 KCAL/MOL
REMARK 922        TOTAL FREE ENERGY PREDICTED BY IDOCK:   -5.33 KCAL/MOL
REMARK 923 INTER-LIGAND FREE ENERGY PREDICTED BY IDOCK:   -5.54 KCAL/MOL
REMARK 924 INTRA-LIGAND FREE ENERGY PREDICTED BY IDOCK:    0.21 KCAL/MOL
REMARK 927      BINDING AFFINITY PREDICTED BY RF-SCORE:    0.00 PKD
ROOT
HETATM    1  O   UNL     1     -12.895  10.427  69.492  1.00  0.00    -0.632 OA 
HETATM    2  H   UNL     1     -13.447  10.000  70.137  1.00  0.00     0.000 HD 
HETATM    3  C   UNL     1     -11.524  10.157  69.780  1.00  0.00    -0.228 C  
ENDROOT
BRANCH   3   4
HETATM    4  C   UNL     1     -10.635  10.844  68.741  1.00  0.00    -0.201 C  
HETATM    5  O   UNL     1     -10.508   9.997  67.583  1.00  0.00    -0.211 OA 
HETATM    6  C   UNL     1     -10.313  10.861  66.461  1.00  0.00    -0.247 C  
HETATM    7  O   UNL     1     -10.855  10.215  65.303  1.00  0.00     0.208 OA 
HETATM    8  H   UNL     1     -12.962  12.776  66.420  1.00  0.00     0.000 HD 
HETATM    9  C   UNL     1     -11.119  12.134  66.754  1.00  0.00    -0.300 C  
HETATM   10  C   UNL     1     -11.211  12.188  68.280  1.00  0.00    -0.268 C  
HETATM   11  O   UNL     1     -12.463  11.988  66.239  1.00  0.00    -0.161 OA 
HETATM   12  H   UNL     1     -10.725  10.789  64.557  1.00  0.00     0.000 HD 
BRANCH   6  13
HETATM   13  C   UNL     1      -8.809  11.099  66.253  1.00  0.00    -0.185 C  
HETATM   14  H   UNL     1      -7.440  10.424  65.027  1.00  0.00     0.000 HD 
HETATM   15  O   UNL     1      -8.369  10.277  65.155  1.00  0.00    -0.151 OA 
ENDBRANCH   6  13
BRANCH  10  16
HETATM   16  O   UNL     1     -10.464  13.302  68.792  1.00  0.00    -0.232 OA 
BRANCH  16  17
HETATM   17  C   UNL     1     -10.931  14.569  68.302  1.00  0.00    -0.247 C  
HETATM   18  O   UNL     1     -10.851  14.607  66.873  1.00  0.00    -0.293 OA 
HETATM   19  C   UNL     1     -11.358  15.839  66.328  1.00  0.00     0.146 C  
HETATM   20  C   UNL     1     -10.519  17.025  66.822  1.00  0.00    -0.257 C  
HETATM   21  H   UNL     1      -9.845  16.409  70.791  1.00  0.00     0.000 HD 
HETATM   22  O   UNL     1     -10.337  15.704  70.387  1.00  0.00    -0.279 OA 
HETATM   23  C   UNL     1     -10.590  17.061  68.354  1.00  0.00    -0.375 C  
HETATM   24  O   UNL     1      -9.132  16.916  66.470  1.00  0.00    -0.244 OA 
HETATM   25  H   UNL     1      -9.840  18.166  69.793  1.00  0.00     0.000 HD 
HETATM   26  O   UNL     1      -9.796  18.145  68.845  1.00  0.00    -0.350 OA 
HETATM   27  H   UNL     1      -8.612  17.650  66.776  1.00  0.00     0.000 HD 
HETATM   28  C   UNL     1     -10.130  15.717  68.961  1.00  0.00    -0.225 C  
BRANCH  19  29
HETATM   29  C   UNL     1     -11.369  15.719  64.802  1.00  0.00    -0.314 C  
HETATM   30  O   UNL     1     -12.524  14.983  64.395  1.00  0.00    -0.498 OA 
HETATM   31  H   UNL     1     -12.532  14.908  63.448  1.00  0.00     0.000 HD 
ENDBRANCH  19  29
ENDBRANCH  16  17
ENDBRANCH  10  16
ENDBRANCH   3   4
TORSDOF 5
ENDMDL
MODEL      231
REMARK 921   NORMALIZED FREE ENERGY PREDICTED BY IDOCK:   -2.89 KCAL/MOL
REMARK 922        TOTAL FREE ENERGY PREDICTED BY IDOCK:   -5.32 KCAL/MOL
REMARK 923 INTER-LIGAND FREE ENERGY PREDICTED BY IDOCK:   -4.45 KCAL/MOL
REMARK 924 INTRA-LIGAND FREE ENERGY PREDICTED BY IDOCK:   -0.87 KCAL/MOL
REMARK 927      BINDING AFFINITY PREDICTED BY RF-SCORE:    0.00 PKD
ROOT
HETATM    1  O   UNL     1     -11.168   6.756  66.869  1.00  0.00    -0.618 OA 
HETATM    2  H   UNL     1     -12.110   6.657  66.944  1.00  0.00     0.000 HD 
HETATM    3  C   UNL     1     -10.632   7.198  68.115  1.00  0.00    -0.192 C  
ENDROOT
BRANCH   3   4
HETATM    4  C   UNL     1      -9.114   7.358  67.994  1.00  0.00    -0.130 C  
HETATM    5  O   UNL     1      -8.582   6.289  67.188  1.00  0.00    -0.108 OA 
HETATM    6  C   UNL     1      -7.413   6.802  66.545  1.00  0.00    -0.078 C  
HETATM    7  O   UNL     1      -7.258   6.118  65.295  1.00  0.00    -0.066 OA 
HETATM    8  H   UNL     1      -8.477   9.364  64.816  1.00  0.00     0.000 HD 
HETATM    9  C   UNL     1      -7.687   8.288  66.278  1.00  0.00    -0.097 C  
HETATM   10  C   UNL     1      -8.719   8.685  67.335  1.00  0.00    -0.134 C  
HETATM   11  O   UNL     1      -8.308   8.444  64.981  1.00  0.00    -0.155 OA 
HETATM   12  H   UNL     1      -6.481   6.459  64.868  1.00  0.00     0.000 HD 
BRANCH   6  13
HETATM   13  C   UNL     1      -6.184   6.534  67.426  1.00  0.00    -0.036 C  
HETATM   14  H   UNL     1      -4.458   7.409  67.729  1.00  0.00     0.000 HD 
HETATM   15  O   UNL     1      -5.218   7.575  67.185  1.00  0.00    -0.027 OA 
ENDBRANCH   6  13
BRANCH  10  16
HETATM   16  O   UNL     1      -8.150   9.608  68.276  1.00  0.00    -0.103 OA 
BRANCH  16  17
HETATM   17  C   UNL     1      -8.881  10.841  68.370  1.00  0.00    -0.146 C  
HETATM   18  O   UNL     1     -10.199  10.600  68.872  1.00  0.00    -0.182 OA 
HETATM   19  C   UNL     1     -10.956  11.813  69.034  1.00  0.00    -0.227 C  
HETATM   20  C   UNL     1     -11.148  12.506  67.678  1.00  0.00    -0.258 C  
HETATM   21  H   UNL     1      -7.571  12.305  65.742  1.00  0.00     0.000 HD 
HETATM   22  O   UNL     1      -7.558  11.871  66.587  1.00  0.00    -0.085 OA 
HETATM   23  C   UNL     1      -9.765  12.824  67.098  1.00  0.00    -0.216 C  
HETATM   24  O   UNL     1     -11.825  11.682  66.718  1.00  0.00    -0.557 OA 
HETATM   25  H   UNL     1      -9.056  13.647  65.462  1.00  0.00     0.000 HD 
HETATM   26  O   UNL     1      -9.913  13.451  65.821  1.00  0.00    -0.285 OA 
HETATM   27  H   UNL     1     -11.944  12.110  65.879  1.00  0.00     0.000 HD 
HETATM   28  C   UNL     1      -8.902  11.548  66.993  1.00  0.00    -0.173 C  
BRANCH  19  29
HETATM   29  C   UNL     1     -12.282  11.464  69.713  1.00  0.00    -0.265 C  
HETATM   30  O   UNL     1     -12.157  10.204  70.374  1.00  0.00    -0.313 OA 
HETATM   31  H   UNL     1     -12.980   9.987  70.795  1.00  0.00     0.000 HD 
ENDBRANCH  19  29
ENDBRANCH  16  17
ENDBRANCH  10  16
ENDBRANCH   3   4
TORSDOF 5
ENDMDL
MODEL      232
REMARK 921   NORMALIZED FREE ENERGY PREDICTED BY IDOCK:   -2.87 KCAL/MOL
REMARK 922        TOTAL FREE ENERGY PREDICTED BY IDOCK:   -5.29 KCAL/MOL
REMARK 923 INTER-LIGAND FREE ENERGY PREDICTED BY IDOCK:   -4.47 KCAL/MOL
REMARK 924 INTRA-LIGAND FREE ENERGY PREDICTED BY IDOCK:   -0.82 KCAL/MOL
REMARK 927      BINDING AFFINITY PREDICTED BY RF-SCORE:    0.00 PKD
ROOT
HETATM    1  O   UNL     1     -10.141   4.249  65.565  1.00  0.00    -0.217 OA 
HETATM    2  H   UNL     1     -10.919   3.754  65.335  1.00  0.00     0.000 HD 
HETATM    3  C   UNL     1     -10.505   5.367  66.372  1.00  0.00    -0.267 C  
ENDROOT
BRANCH   3   4
HETATM    4  C   UNL     1      -9.251   6.164  66.741  1.00  0.00    -0.135 C  
HETATM    5  O   UNL     1      -9.020   7.183  65.749  1.00  0.00    -0.118 OA 
HETATM    6  C   UNL     1      -8.359   8.262  66.415  1.00  0.00    -0.117 C  
HETATM    7  O   UNL     1      -8.714   9.479  65.747  1.00  0.00    -0.135 OA 
HETATM    8  H   UNL     1     -10.423   9.160  68.785  1.00  0.00     0.000 HD 
HETATM    9  C   UNL     1      -8.914   8.288  67.845  1.00  0.00    -0.134 C  
HETATM   10  C   UNL     1      -9.380   6.855  68.104  1.00  0.00    -0.124 C  
HETATM   11  O   UNL     1     -10.079   9.144  67.900  1.00  0.00    -0.177 OA 
HETATM   12  H   UNL     1      -8.275  10.196  66.189  1.00  0.00     0.000 HD 
BRANCH   6  13
HETATM   13  C   UNL     1      -6.838   8.061  66.330  1.00  0.00    -0.058 C  
HETATM   14  H   UNL     1      -5.443   8.458  65.014  1.00  0.00     0.000 HD 
HETATM   15  O   UNL     1      -6.383   8.582  65.067  1.00  0.00    -0.059 OA 
ENDBRANCH   6  13
BRANCH  10  16
HETATM   16  O   UNL     1      -8.564   6.231  69.107  1.00  0.00    -0.119 OA 
BRANCH  16  17
HETATM   17  C   UNL     1      -9.112   6.340  70.430  1.00  0.00    -0.154 C  
HETATM   18  O   UNL     1     -10.487   6.736  70.366  1.00  0.00    -0.199 OA 
HETATM   19  C   UNL     1     -11.098   6.809  71.667  1.00  0.00    -0.246 C  
HETATM   20  C   UNL     1     -10.400   7.872  72.525  1.00  0.00    -0.285 C  
HETATM   21  H   UNL     1      -6.398   7.419  71.922  1.00  0.00     0.000 HD 
HETATM   22  O   UNL     1      -6.919   6.818  71.404  1.00  0.00    -0.068 OA 
HETATM   23  C   UNL     1      -8.921   7.488  72.661  1.00  0.00    -0.144 C  
HETATM   24  O   UNL     1     -10.439   9.181  71.937  1.00  0.00    -0.348 OA 
HETATM   25  H   UNL     1      -7.324   8.238  73.521  1.00  0.00     0.000 HD 
HETATM   26  O   UNL     1      -8.239   8.476  73.438  1.00  0.00    -0.379 OA 
HETATM   27  H   UNL     1     -10.007   9.840  72.468  1.00  0.00     0.000 HD 
HETATM   28  C   UNL     1      -8.263   7.321  71.274  1.00  0.00    -0.106 C  
BRANCH  19  29
HETATM   29  C   UNL     1     -12.592   7.088  71.479  1.00  0.00    -0.385 C  
HETATM   30  O   UNL     1     -12.758   8.330  70.793  1.00  0.00    -0.493 OA 
HETATM   31  H   UNL     1     -13.684   8.504  70.676  1.00  0.00     0.000 HD 
ENDBRANCH  19  29
ENDBRANCH  16  17
ENDBRANCH  10  16
ENDBRANCH   3   4
TORSDOF 5
ENDMDL
MODEL      233
REMARK 921   NORMALIZED FREE ENERGY PREDICTED BY IDOCK:   -2.85 KCAL/MOL
REMARK 922        TOTAL FREE ENERGY PREDICTED BY IDOCK:   -5.26 KCAL/MOL
REMARK 923 INTER-LIGAND FREE ENERGY PREDICTED BY IDOCK:   -4.24 KCAL/MOL
REMARK 924 INTRA-LIGAND FREE ENERGY PREDICTED BY IDOCK:   -1.02 KCAL/MOL
REMARK 927      BINDING AFFINITY PREDICTED BY RF-SCORE:    0.00 PKD
ROOT
HETATM    1  O   UNL     1      -7.134   4.517  67.930  1.00  0.00    -0.062 OA 
HETATM    2  H   UNL     1      -7.076   3.633  68.274  1.00  0.00     0.000 HD 
HETATM    3  C   UNL     1      -7.454   5.422  68.986  1.00  0.00    -0.074 C  
ENDROOT
BRANCH   3   4
HETATM    4  C   UNL     1      -7.548   6.845  68.432  1.00  0.00    -0.111 C  
HETATM    5  O   UNL     1      -7.603   6.798  66.994  1.00  0.00    -0.092 OA 
HETATM    6  C   UNL     1      -8.348   7.944  66.573  1.00  0.00    -0.127 C  
HETATM    7  O   UNL     1      -9.007   7.617  65.344  1.00  0.00    -0.373 OA 
HETATM    8  H   UNL     1     -11.259   7.616  68.024  1.00  0.00     0.000 HD 
HETATM    9  C   UNL     1      -9.400   8.194  67.661  1.00  0.00    -0.140 C  
HETATM   10  C   UNL     1      -8.799   7.581  68.927  1.00  0.00    -0.135 C  
HETATM   11  O   UNL     1     -10.607   7.460  67.350  1.00  0.00    -0.264 OA 
HETATM   12  H   UNL     1      -9.502   8.378  65.064  1.00  0.00     0.000 HD 
BRANCH   6  13
HETATM   13  C   UNL     1      -7.389   9.120  66.337  1.00  0.00    -0.092 C  
HETATM   14  H   UNL     1      -7.559  11.068  66.229  1.00  0.00     0.000 HD 
HETATM   15  O   UNL     1      -8.152  10.340  66.375  1.00  0.00    -0.116 OA 
ENDBRANCH   6  13
BRANCH  10  16
HETATM   16  O   UNL     1      -8.483   8.604  69.884  1.00  0.00    -0.122 OA 
BRANCH  16  17
HETATM   17  C   UNL     1      -9.143   8.421  71.146  1.00  0.00    -0.174 C  
HETATM   18  O   UNL     1      -8.934   7.088  71.626  1.00  0.00    -0.135 OA 
HETATM   19  C   UNL     1      -9.533   6.869  72.916  1.00  0.00    -0.140 C  
HETATM   20  C   UNL     1     -11.055   7.046  72.833  1.00  0.00    -0.278 C  
HETATM   21  H   UNL     1     -11.728  10.352  70.552  1.00  0.00     0.000 HD 
HETATM   22  O   UNL     1     -10.805  10.143  70.636  1.00  0.00    -0.308 OA 
HETATM   23  C   UNL     1     -11.350   8.473  72.353  1.00  0.00    -0.342 C  
HETATM   24  O   UNL     1     -11.673   6.153  71.895  1.00  0.00    -0.309 OA 
HETATM   25  H   UNL     1     -12.946   9.542  71.946  1.00  0.00     0.000 HD 
HETATM   26  O   UNL     1     -12.764   8.659  72.244  1.00  0.00    -0.363 OA 
HETATM   27  H   UNL     1     -12.615   6.262  71.843  1.00  0.00     0.000 HD 
HETATM   28  C   UNL     1     -10.647   8.760  71.009  1.00  0.00    -0.230 C  
BRANCH  19  29
HETATM   29  C   UNL     1      -9.125   5.476  73.403  1.00  0.00    -0.129 C  
HETATM   30  O   UNL     1      -9.133   4.569  72.300  1.00  0.00    -0.123 OA 
HETATM   31  H   UNL     1      -8.880   3.705  72.602  1.00  0.00     0.000 HD 
ENDBRANCH  19  29
ENDBRANCH  16  17
ENDBRANCH  10  16
ENDBRANCH   3   4
TORSDOF 5
ENDMDL
MODEL      234
REMARK 921   NORMALIZED FREE ENERGY PREDICTED BY IDOCK:   -2.81 KCAL/MOL
REMARK 922        TOTAL FREE ENERGY PREDICTED BY IDOCK:   -5.21 KCAL/MOL
REMARK 923 INTER-LIGAND FREE ENERGY PREDICTED BY IDOCK:   -4.43 KCAL/MOL
REMARK 924 INTRA-LIGAND FREE ENERGY PREDICTED BY IDOCK:   -0.78 KCAL/MOL
REMARK 927      BINDING AFFINITY PREDICTED BY RF-SCORE:    0.00 PKD
ROOT
HETATM    1  O   UNL     1     -10.479   5.538  67.124  1.00  0.00    -0.227 OA 
HETATM    2  H   UNL     1     -10.741   5.043  66.356  1.00  0.00     0.000 HD 
HETATM    3  C   UNL     1     -10.849   6.906  66.960  1.00  0.00    -0.366 C  
ENDROOT
BRANCH   3   4
HETATM    4  C   UNL     1     -10.427   7.704  68.197  1.00  0.00    -0.181 C  
HETATM    5  O   UNL     1     -10.825   6.993  69.385  1.00  0.00    -0.235 OA 
HETATM    6  C   UNL     1      -9.886   7.340  70.406  1.00  0.00    -0.183 C  
HETATM    7  O   UNL     1      -9.785   6.232  71.309  1.00  0.00    -0.173 OA 
HETATM    8  H   UNL     1      -6.988   6.409  69.212  1.00  0.00     0.000 HD 
HETATM    9  C   UNL     1      -8.539   7.540  69.698  1.00  0.00    -0.136 C  
HETATM   10  C   UNL     1      -8.910   7.917  68.263  1.00  0.00    -0.129 C  
HETATM   11  O   UNL     1      -7.823   6.285  69.649  1.00  0.00    -0.102 OA 
HETATM   12  H   UNL     1      -9.160   6.462  71.987  1.00  0.00     0.000 HD 
BRANCH   6  13
HETATM   13  C   UNL     1     -10.390   8.574  71.169  1.00  0.00    -0.215 C  
HETATM   14  H   UNL     1      -9.622   9.839  72.451  1.00  0.00     0.000 HD 
HETATM   15  O   UNL     1      -9.310   9.076  71.978  1.00  0.00    -0.358 OA 
ENDBRANCH   6  13
BRANCH  10  16
HETATM   16  O   UNL     1      -8.542   9.277  67.986  1.00  0.00    -0.120 OA 
BRANCH  16  17
HETATM   17  C   UNL     1      -7.932   9.445  66.696  1.00  0.00    -0.108 C  
HETATM   18  O   UNL     1      -8.929   9.737  65.711  1.00  0.00    -0.145 OA 
HETATM   19  C   UNL     1      -8.361   9.966  64.408  1.00  0.00    -0.168 C  
HETATM   20  C   UNL     1      -7.642   8.705  63.910  1.00  0.00    -0.127 C  
HETATM   21  H   UNL     1      -5.539   7.233  67.071  1.00  0.00     0.000 HD 
HETATM   22  O   UNL     1      -6.046   8.005  67.293  1.00  0.00    -0.050 OA 
HETATM   23  C   UNL     1      -6.533   8.356  64.911  1.00  0.00    -0.064 C  
HETATM   24  O   UNL     1      -8.506   7.563  63.828  1.00  0.00    -0.367 OA 
HETATM   25  H   UNL     1      -5.174   6.953  65.104  1.00  0.00     0.000 HD 
HETATM   26  O   UNL     1      -5.860   7.169  64.483  1.00  0.00    -0.036 OA 
HETATM   27  H   UNL     1      -8.061   6.782  63.520  1.00  0.00     0.000 HD 
HETATM   28  C   UNL     1      -7.106   8.187  66.335  1.00  0.00    -0.075 C  
BRANCH  19  29
HETATM   29  C   UNL     1      -9.484  10.415  63.469  1.00  0.00    -0.312 C  
HETATM   30  O   UNL     1      -9.533   9.543  62.339  1.00  0.00    -0.553 OA 
HETATM   31  H   UNL     1     -10.230   9.822  61.757  1.00  0.00     0.000 HD 
ENDBRANCH  19  29
ENDBRANCH  16  17
ENDBRANCH  10  16
ENDBRANCH   3   4
TORSDOF 5
ENDMDL
MODEL      235
REMARK 921   NORMALIZED FREE ENERGY PREDICTED BY IDOCK:   -2.78 KCAL/MOL
REMARK 922        TOTAL FREE ENERGY PREDICTED BY IDOCK:   -5.18 KCAL/MOL
REMARK 923 INTER-LIGAND FREE ENERGY PREDICTED BY IDOCK:   -4.04 KCAL/MOL
REMARK 924 INTRA-LIGAND FREE ENERGY PREDICTED BY IDOCK:   -1.14 KCAL/MOL
REMARK 927      BINDING AFFINITY PREDICTED BY RF-SCORE:    0.00 PKD
ROOT
HETATM    1  O   UNL     1     -10.699   7.030  66.504  1.00  0.00    -0.515 OA 
HETATM    2  H   UNL     1     -11.137   6.678  65.737  1.00  0.00     0.000 HD 
HETATM    3  C   UNL     1     -11.145   6.337  67.669  1.00  0.00    -0.266 C  
ENDROOT
BRANCH   3   4
HETATM    4  C   UNL     1     -10.440   6.904  68.904  1.00  0.00    -0.208 C  
HETATM    5  O   UNL     1     -11.399   7.081  69.965  1.00  0.00    -0.281 OA 
HETATM    6  C   UNL     1     -10.685   6.928  71.194  1.00  0.00    -0.225 C  
HETATM    7  O   UNL     1     -11.595   6.412  72.174  1.00  0.00    -0.286 OA 
HETATM    8  H   UNL     1      -9.413   3.920  71.042  1.00  0.00     0.000 HD 
HETATM    9  C   UNL     1      -9.588   5.889  70.926  1.00  0.00    -0.170 C  
HETATM   10  C   UNL     1      -9.333   5.977  69.420  1.00  0.00    -0.131 C  
HETATM   11  O   UNL     1     -10.093   4.563  71.207  1.00  0.00    -0.192 OA 
HETATM   12  H   UNL     1     -11.120   6.310  72.991  1.00  0.00     0.000 HD 
BRANCH   6  13
HETATM   13  C   UNL     1     -10.162   8.296  71.657  1.00  0.00    -0.221 C  
HETATM   14  H   UNL     1     -10.826  10.137  71.617  1.00  0.00     0.000 HD 
HETATM   15  O   UNL     1     -11.150   9.291  71.332  1.00  0.00    -0.313 OA 
ENDBRANCH   6  13
BRANCH  10  16
HETATM   16  O   UNL     1      -8.022   6.501  69.158  1.00  0.00    -0.108 OA 
BRANCH  16  17
HETATM   17  C   UNL     1      -7.377   5.873  68.040  1.00  0.00    -0.080 C  
HETATM   18  O   UNL     1      -7.962   6.323  66.813  1.00  0.00    -0.106 OA 
HETATM   19  C   UNL     1      -7.314   5.761  65.657  1.00  0.00    -0.076 C  
HETATM   20  C   UNL     1      -7.462   4.234  65.652  1.00  0.00    -0.081 C  
HETATM   21  H   UNL     1      -6.783   2.979  69.466  1.00  0.00     0.000 HD 
HETATM   22  O   UNL     1      -6.742   3.924  69.376  1.00  0.00    -0.039 OA 
HETATM   23  C   UNL     1      -6.822   3.683  66.932  1.00  0.00    -0.054 C  
HETATM   24  O   UNL     1      -8.831   3.804  65.651  1.00  0.00    -0.115 OA 
HETATM   25  H   UNL     1      -6.570   1.920  67.759  1.00  0.00     0.000 HD 
HETATM   26  O   UNL     1      -6.967   2.261  66.965  1.00  0.00    -0.046 OA 
HETATM   27  H   UNL     1      -8.924   2.859  65.648  1.00  0.00     0.000 HD 
HETATM   28  C   UNL     1      -7.444   4.334  68.186  1.00  0.00    -0.068 C  
BRANCH  19  29
HETATM   29  C   UNL     1      -7.909   6.418  64.409  1.00  0.00    -0.115 C  
HETATM   30  O   UNL     1      -8.504   7.665  64.768  1.00  0.00    -0.342 OA 
HETATM   31  H   UNL     1      -8.873   8.073  63.994  1.00  0.00     0.000 HD 
ENDBRANCH  19  29
ENDBRANCH  16  17
ENDBRANCH  10  16
ENDBRANCH   3   4
TORSDOF 5
ENDMDL
MODEL      236
REMARK 921   NORMALIZED FREE ENERGY PREDICTED BY IDOCK:   -2.72 KCAL/MOL
REMARK 922        TOTAL FREE ENERGY PREDICTED BY IDOCK:   -5.10 KCAL/MOL
REMARK 923 INTER-LIGAND FREE ENERGY PREDICTED BY IDOCK:   -4.62 KCAL/MOL
REMARK 924 INTRA-LIGAND FREE ENERGY PREDICTED BY IDOCK:   -0.48 KCAL/MOL
REMARK 927      BINDING AFFINITY PREDICTED BY RF-SCORE:    0.00 PKD
ROOT
HETATM    1  O   UNL     1      -8.761  15.076  66.035  1.00  0.00    -0.432 OA 
HETATM    2  H   UNL     1      -9.308  15.453  65.355  1.00  0.00     0.000 HD 
HETATM    3  C   UNL     1      -9.411  13.936  66.596  1.00  0.00    -0.268 C  
ENDROOT
BRANCH   3   4
HETATM    4  C   UNL     1      -8.530  13.330  67.691  1.00  0.00    -0.191 C  
HETATM    5  O   UNL     1      -7.776  12.231  67.147  1.00  0.00    -0.160 OA 
HETATM    6  C   UNL     1      -6.559  12.157  67.893  1.00  0.00    -0.085 C  
HETATM    7  O   UNL     1      -5.543  11.624  67.035  1.00  0.00    -0.095 OA 
HETATM    8  H   UNL     1      -5.148  15.075  67.463  1.00  0.00     0.000 HD 
HETATM    9  C   UNL     1      -6.197  13.601  68.267  1.00  0.00    -0.107 C  
HETATM   10  C   UNL     1      -7.534  14.345  68.265  1.00  0.00    -0.123 C  
HETATM   11  O   UNL     1      -5.372  14.181  67.231  1.00  0.00    -0.294 OA 
HETATM   12  H   UNL     1      -4.734  11.575  67.531  1.00  0.00     0.000 HD 
BRANCH   6  13
HETATM   13  C   UNL     1      -6.750  11.221  69.096  1.00  0.00    -0.099 C  
HETATM   14  H   UNL     1      -5.630   9.945  70.072  1.00  0.00     0.000 HD 
HETATM   15  O   UNL     1      -5.512  10.524  69.328  1.00  0.00    -0.038 OA 
ENDBRANCH   6  13
BRANCH  10  16
HETATM   16  O   UNL     1      -7.886  14.757  69.595  1.00  0.00    -0.106 OA 
BRANCH  16  17
HETATM   17  C   UNL     1      -8.837  15.833  69.619  1.00  0.00    -0.062 C  
HETATM   18  O   UNL     1     -10.139  15.352  69.269  1.00  0.00    -0.223 OA 
HETATM   19  C   UNL     1     -11.140  16.385  69.330  1.00  0.00    -0.297 C  
HETATM   20  C   UNL     1     -10.822  17.496  68.320  1.00  0.00    -0.220 C  
HETATM   21  H   UNL     1      -6.820  18.201  68.578  1.00  0.00     0.000 HD 
HETATM   22  O   UNL     1      -7.108  17.500  69.150  1.00  0.00    -0.251 OA 
HETATM   23  C   UNL     1      -9.446  18.079  68.663  1.00  0.00    -0.309 C  
HETATM   24  O   UNL     1     -10.751  17.021  66.968  1.00  0.00    -0.265 OA 
HETATM   25  H   UNL     1      -8.260  19.464  67.934  1.00  0.00     0.000 HD 
HETATM   26  O   UNL     1      -9.113  19.103  67.722  1.00  0.00    -0.289 OA 
HETATM   27  H   UNL     1     -10.554  17.708  66.343  1.00  0.00     0.000 HD 
HETATM   28  C   UNL     1      -8.367  16.975  68.686  1.00  0.00    -0.264 C  
BRANCH  19  29
HETATM   29  C   UNL     1     -12.507  15.740  69.088  1.00  0.00     0.249 C  
HETATM   30  O   UNL     1     -13.298  15.850  70.273  1.00  0.00    -0.692 OA 
HETATM   31  H   UNL     1     -14.146  15.450  70.124  1.00  0.00     0.000 HD 
ENDBRANCH  19  29
ENDBRANCH  16  17
ENDBRANCH  10  16
ENDBRANCH   3   4
TORSDOF 5
ENDMDL
MODEL      237
REMARK 921   NORMALIZED FREE ENERGY PREDICTED BY IDOCK:   -2.69 KCAL/MOL
REMARK 922        TOTAL FREE ENERGY PREDICTED BY IDOCK:   -5.06 KCAL/MOL
REMARK 923 INTER-LIGAND FREE ENERGY PREDICTED BY IDOCK:   -3.90 KCAL/MOL
REMARK 924 INTRA-LIGAND FREE ENERGY PREDICTED BY IDOCK:   -1.16 KCAL/MOL
REMARK 927      BINDING AFFINITY PREDICTED BY RF-SCORE:    0.00 PKD
ROOT
HETATM    1  O   UNL     1     -10.020   5.189  70.398  1.00  0.00    -0.207 OA 
HETATM    2  H   UNL     1     -10.232   4.824  71.249  1.00  0.00     0.000 HD 
HETATM    3  C   UNL     1      -9.569   4.149  69.531  1.00  0.00    -0.204 C  
ENDROOT
BRANCH   3   4
HETATM    4  C   UNL     1      -9.226   4.736  68.160  1.00  0.00    -0.124 C  
HETATM    5  O   UNL     1     -10.029   4.096  67.149  1.00  0.00    -0.184 OA 
HETATM    6  C   UNL     1     -10.212   5.053  66.103  1.00  0.00    -0.255 C  
HETATM    7  O   UNL     1     -11.470   4.785  65.471  1.00  0.00    -0.935 OA 
HETATM    8  H   UNL     1     -11.675   7.593  67.551  1.00  0.00     0.000 HD 
HETATM    9  C   UNL     1     -10.270   6.428  66.784  1.00  0.00    -0.195 C  
HETATM   10  C   UNL     1      -9.493   6.244  68.088  1.00  0.00    -0.113 C  
HETATM   11  O   UNL     1     -11.639   6.742  67.130  1.00  0.00    -0.014 OA 
HETATM   12  H   UNL     1     -11.591   5.421  64.776  1.00  0.00     0.000 HD 
BRANCH   6  13
HETATM   13  C   UNL     1      -9.084   4.906  65.071  1.00  0.00    -0.131 C  
HETATM   14  H   UNL     1      -8.440   3.482  63.891  1.00  0.00     0.000 HD 
HETATM   15  O   UNL     1      -9.138   3.573  64.529  1.00  0.00    -0.120 OA 
ENDBRANCH   6  13
BRANCH  10  16
HETATM   16  O   UNL     1      -8.279   7.009  68.066  1.00  0.00    -0.117 OA 
BRANCH  16  17
HETATM   17  C   UNL     1      -8.339   8.189  68.882  1.00  0.00    -0.125 C  
HETATM   18  O   UNL     1      -8.139   9.358  68.080  1.00  0.00    -0.108 OA 
HETATM   19  C   UNL     1      -8.242  10.573  68.845  1.00  0.00    -0.141 C  
HETATM   20  C   UNL     1      -7.152  10.618  69.924  1.00  0.00    -0.129 C  
HETATM   21  H   UNL     1      -6.992   6.902  71.582  1.00  0.00     0.000 HD 
HETATM   22  O   UNL     1      -7.624   6.964  70.876  1.00  0.00    -0.084 OA 
HETATM   23  C   UNL     1      -7.332   9.403  70.843  1.00  0.00    -0.075 C  
HETATM   24  O   UNL     1      -5.825  10.541  69.384  1.00  0.00    -0.037 OA 
HETATM   25  H   UNL     1      -6.425   8.653  72.415  1.00  0.00     0.000 HD 
HETATM   26  O   UNL     1      -6.313   9.406  71.846  1.00  0.00    -0.273 OA 
HETATM   27  H   UNL     1      -5.150  10.568  70.052  1.00  0.00     0.000 HD 
HETATM   28  C   UNL     1      -7.309   8.089  70.033  1.00  0.00    -0.062 C  
BRANCH  19  29
HETATM   29  C   UNL     1      -8.165  11.756  67.877  1.00  0.00    -0.147 C  
HETATM   30  O   UNL     1      -6.941  11.688  67.144  1.00  0.00    -0.123 OA 
HETATM   31  H   UNL     1      -6.892  12.422  66.543  1.00  0.00     0.000 HD 
ENDBRANCH  19  29
ENDBRANCH  16  17
ENDBRANCH  10  16
ENDBRANCH   3   4
TORSDOF 5
ENDMDL
MODEL      238
REMARK 921   NORMALIZED FREE ENERGY PREDICTED BY IDOCK:   -2.67 KCAL/MOL
REMARK 922        TOTAL FREE ENERGY PREDICTED BY IDOCK:   -5.04 KCAL/MOL
REMARK 923 INTER-LIGAND FREE ENERGY PREDICTED BY IDOCK:   -3.98 KCAL/MOL
REMARK 924 INTRA-LIGAND FREE ENERGY PREDICTED BY IDOCK:   -1.06 KCAL/MOL
REMARK 927      BINDING AFFINITY PREDICTED BY RF-SCORE:    0.00 PKD
ROOT
HETATM    1  O   UNL     1      -8.450   4.571  67.950  1.00  0.00    -0.101 OA 
HETATM    2  H   UNL     1      -8.319   3.782  67.438  1.00  0.00     0.000 HD 
HETATM    3  C   UNL     1      -8.595   5.691  67.078  1.00  0.00    -0.109 C  
ENDROOT
BRANCH   3   4
HETATM    4  C   UNL     1      -8.806   6.962  67.904  1.00  0.00    -0.123 C  
HETATM    5  O   UNL     1      -7.861   7.967  67.488  1.00  0.00    -0.117 OA 
HETATM    6  C   UNL     1      -8.480   9.235  67.721  1.00  0.00    -0.116 C  
HETATM    7  O   UNL     1      -7.964  10.163  66.759  1.00  0.00    -0.113 OA 
HETATM    8  H   UNL     1     -11.213   9.161  65.927  1.00  0.00     0.000 HD 
HETATM    9  C   UNL     1      -9.981   9.031  67.472  1.00  0.00    -0.207 C  
HETATM   10  C   UNL     1     -10.216   7.542  67.730  1.00  0.00    -0.201 C  
HETATM   11  O   UNL     1     -10.283   9.287  66.081  1.00  0.00    -0.273 OA 
HETATM   12  H   UNL     1      -8.375  11.005  66.914  1.00  0.00     0.000 HD 
BRANCH   6  13
HETATM   13  C   UNL     1      -8.134   9.723  69.135  1.00  0.00    -0.107 C  
HETATM   14  H   UNL     1      -7.685  11.444  69.954  1.00  0.00     0.000 HD 
HETATM   15  O   UNL     1      -7.899  11.142  69.079  1.00  0.00    -0.138 OA 
ENDBRANCH   6  13
BRANCH  10  16
HETATM   16  O   UNL     1     -11.027   7.353  68.900  1.00  0.00    -0.110 OA 
BRANCH  16  17
HETATM   17  C   UNL     1     -10.286   6.857  70.026  1.00  0.00    -0.200 C  
HETATM   18  O   UNL     1     -10.413   5.434  70.116  1.00  0.00    -0.273 OA 
HETATM   19  C   UNL     1      -9.645   4.881  71.200  1.00  0.00    -0.170 C  
HETATM   20  C   UNL     1     -10.149   5.428  72.543  1.00  0.00    -0.175 C  
HETATM   21  H   UNL     1     -10.787   9.416  72.017  1.00  0.00     0.000 HD 
HETATM   22  O   UNL     1     -10.499   8.980  71.223  1.00  0.00    -0.256 OA 
HETATM   23  C   UNL     1     -10.008   6.955  72.525  1.00  0.00    -0.169 C  
HETATM   24  O   UNL     1     -11.534   5.139  72.782  1.00  0.00    -0.268 OA 
HETATM   25  H   UNL     1     -10.405   8.441  73.745  1.00  0.00     0.000 HD 
HETATM   26  O   UNL     1     -10.492   7.495  73.757  1.00  0.00    -0.317 OA 
HETATM   27  H   UNL     1     -11.846   5.477  73.613  1.00  0.00     0.000 HD 
HETATM   28  C   UNL     1     -10.755   7.566  71.319  1.00  0.00    -0.225 C  
BRANCH  19  29
HETATM   29  C   UNL     1      -9.727   3.355  71.116  1.00  0.00    -0.152 C  
HETATM   30  O   UNL     1      -8.655   2.869  70.306  1.00  0.00    -0.054 OA 
HETATM   31  H   UNL     1      -8.706   1.922  70.253  1.00  0.00     0.000 HD 
ENDBRANCH  19  29
ENDBRANCH  16  17
ENDBRANCH  10  16
ENDBRANCH   3   4
TORSDOF 5
ENDMDL
MODEL      239
REMARK 921   NORMALIZED FREE ENERGY PREDICTED BY IDOCK:   -2.64 KCAL/MOL
REMARK 922        TOTAL FREE ENERGY PREDICTED BY IDOCK:   -4.99 KCAL/MOL
REMARK 923 INTER-LIGAND FREE ENERGY PREDICTED BY IDOCK:   -4.15 KCAL/MOL
REMARK 924 INTRA-LIGAND FREE ENERGY PREDICTED BY IDOCK:   -0.84 KCAL/MOL
REMARK 927      BINDING AFFINITY PREDICTED BY RF-SCORE:    0.00 PKD
ROOT
HETATM    1  O   UNL     1     -10.090  16.140  65.028  1.00  0.00    -0.478 OA 
HETATM    2  H   UNL     1     -11.009  16.180  64.788  1.00  0.00     0.000 HD 
HETATM    3  C   UNL     1      -9.939  15.372  66.221  1.00  0.00    -0.288 C  
ENDROOT
BRANCH   3   4
HETATM    4  C   UNL     1      -8.460  15.309  66.608  1.00  0.00    -0.229 C  
HETATM    5  O   UNL     1      -8.061  16.565  67.189  1.00  0.00    -0.161 OA 
HETATM    6  C   UNL     1      -7.007  16.276  68.111  1.00  0.00    -0.128 C  
HETATM    7  O   UNL     1      -7.050  17.255  69.156  1.00  0.00    -0.244 OA 
HETATM    8  H   UNL     1      -8.329  14.185  70.248  1.00  0.00     0.000 HD 
HETATM    9  C   UNL     1      -7.319  14.893  68.699  1.00  0.00    -0.120 C  
HETATM   10  C   UNL     1      -8.172  14.204  67.632  1.00  0.00    -0.186 C  
HETATM   11  O   UNL     1      -8.136  15.041  69.883  1.00  0.00    -0.072 OA 
HETATM   12  H   UNL     1      -6.350  17.063  69.768  1.00  0.00     0.000 HD 
BRANCH   6  13
HETATM   13  C   UNL     1      -5.655  16.364  67.387  1.00  0.00    -0.147 C  
HETATM   14  H   UNL     1      -4.358  17.782  67.008  1.00  0.00     0.000 HD 
HETATM   15  O   UNL     1      -5.194  17.727  67.456  1.00  0.00    -0.127 OA 
ENDBRANCH   6  13
BRANCH  10  16
HETATM   16  O   UNL     1      -7.462  13.099  67.053  1.00  0.00    -0.029 OA 
BRANCH  16  17
HETATM   17  C   UNL     1      -8.297  11.955  66.814  1.00  0.00    -0.153 C  
HETATM   18  O   UNL     1      -9.297  11.850  67.833  1.00  0.00    -0.174 OA 
HETATM   19  C   UNL     1     -10.194  10.746  67.610  1.00  0.00    -0.189 C  
HETATM   20  C   UNL     1      -9.424   9.419  67.646  1.00  0.00    -0.132 C  
HETATM   21  H   UNL     1      -5.983  10.004  65.549  1.00  0.00     0.000 HD 
HETATM   22  O   UNL     1      -6.516  10.788  65.608  1.00  0.00    -0.114 OA 
HETATM   23  C   UNL     1      -8.352   9.454  66.550  1.00  0.00    -0.119 C  
HETATM   24  O   UNL     1      -8.744   9.199  68.890  1.00  0.00    -0.129 OA 
HETATM   25  H   UNL     1      -6.938   8.258  65.897  1.00  0.00     0.000 HD 
HETATM   26  O   UNL     1      -7.602   8.236  66.575  1.00  0.00    -0.089 OA 
HETATM   27  H   UNL     1      -8.267   8.377  68.913  1.00  0.00     0.000 HD 
HETATM   28  C   UNL     1      -7.427  10.678  66.719  1.00  0.00    -0.120 C  
BRANCH  19  29
HETATM   29  C   UNL     1     -11.306  10.813  68.660  1.00  0.00    -0.291 C  
HETATM   30  O   UNL     1     -11.560   9.501  69.163  1.00  0.00    -0.436 OA 
HETATM   31  H   UNL     1     -12.250   9.542  69.815  1.00  0.00     0.000 HD 
ENDBRANCH  19  29
ENDBRANCH  16  17
ENDBRANCH  10  16
ENDBRANCH   3   4
TORSDOF 5
ENDMDL
MODEL      240
REMARK 921   NORMALIZED FREE ENERGY PREDICTED BY IDOCK:   -2.63 KCAL/MOL
REMARK 922        TOTAL FREE ENERGY PREDICTED BY IDOCK:   -4.98 KCAL/MOL
REMARK 923 INTER-LIGAND FREE ENERGY PREDICTED BY IDOCK:   -4.47 KCAL/MOL
REMARK 924 INTRA-LIGAND FREE ENERGY PREDICTED BY IDOCK:   -0.52 KCAL/MOL
REMARK 927      BINDING AFFINITY PREDICTED BY RF-SCORE:    0.00 PKD
ROOT
HETATM    1  O   UNL     1      -7.337   6.340  71.069  1.00  0.00    -0.080 OA 
HETATM    2  H   UNL     1      -6.416   6.477  71.260  1.00  0.00     0.000 HD 
HETATM    3  C   UNL     1      -8.028   7.587  71.122  1.00  0.00    -0.095 C  
ENDROOT
BRANCH   3   4
HETATM    4  C   UNL     1      -9.511   7.366  70.815  1.00  0.00    -0.167 C  
HETATM    5  O   UNL     1     -10.266   7.405  72.041  1.00  0.00    -0.188 OA 
HETATM    6  C   UNL     1     -11.572   7.881  71.705  1.00  0.00    -0.272 C  
HETATM    7  O   UNL     1     -12.098   8.574  72.843  1.00  0.00    -0.421 OA 
HETATM    8  H   UNL     1     -11.061  10.819  70.366  1.00  0.00     0.000 HD 
HETATM    9  C   UNL     1     -11.382   8.874  70.550  1.00  0.00    -0.234 C  
HETATM   10  C   UNL     1     -10.079   8.439  69.878  1.00  0.00    -0.195 C  
HETATM   11  O   UNL     1     -11.178  10.204  71.080  1.00  0.00    -0.325 OA 
HETATM   12  H   UNL     1     -12.965   8.891  72.619  1.00  0.00     0.000 HD 
BRANCH   6  13
HETATM   13  C   UNL     1     -12.482   6.689  71.371  1.00  0.00    -0.251 C  
HETATM   14  H   UNL     1     -12.961   5.003  72.245  1.00  0.00     0.000 HD 
HETATM   15  O   UNL     1     -12.399   5.741  72.451  1.00  0.00    -0.159 OA 
ENDBRANCH   6  13
BRANCH  10  16
HETATM   16  O   UNL     1     -10.334   7.928  68.561  1.00  0.00    -0.203 OA 
BRANCH  16  17
HETATM   17  C   UNL     1      -9.191   8.003  67.695  1.00  0.00    -0.133 C  
HETATM   18  O   UNL     1      -9.022   9.340  67.212  1.00  0.00    -0.123 OA 
HETATM   19  C   UNL     1      -7.857   9.479  66.379  1.00  0.00    -0.097 C  
HETATM   20  C   UNL     1      -7.987   8.600  65.128  1.00  0.00    -0.127 C  
HETATM   21  H   UNL     1      -9.474   5.017  66.367  1.00  0.00     0.000 HD 
HETATM   22  O   UNL     1      -9.386   5.644  67.075  1.00  0.00    -0.115 OA 
HETATM   23  C   UNL     1      -8.140   7.142  65.578  1.00  0.00    -0.135 C  
HETATM   24  O   UNL     1      -9.143   8.917  64.338  1.00  0.00    -0.423 OA 
HETATM   25  H   UNL     1      -8.382   5.397  64.710  1.00  0.00     0.000 HD 
HETATM   26  O   UNL     1      -8.287   6.300  64.431  1.00  0.00    -0.086 OA 
HETATM   27  H   UNL     1      -9.224   8.373  63.564  1.00  0.00     0.000 HD 
HETATM   28  C   UNL     1      -9.336   6.982  66.541  1.00  0.00    -0.159 C  
BRANCH  19  29
HETATM   29  C   UNL     1      -7.682  10.963  66.043  1.00  0.00    -0.107 C  
HETATM   30  O   UNL     1      -8.494  11.290  64.914  1.00  0.00    -0.372 OA 
HETATM   31  H   UNL     1      -8.386  12.211  64.705  1.00  0.00     0.000 HD 
ENDBRANCH  19  29
ENDBRANCH  16  17
ENDBRANCH  10  16
ENDBRANCH   3   4
TORSDOF 5
ENDMDL
MODEL      241
REMARK 921   NORMALIZED FREE ENERGY PREDICTED BY IDOCK:   -2.63 KCAL/MOL
REMARK 922        TOTAL FREE ENERGY PREDICTED BY IDOCK:   -4.98 KCAL/MOL
REMARK 923 INTER-LIGAND FREE ENERGY PREDICTED BY IDOCK:   -3.91 KCAL/MOL
REMARK 924 INTRA-LIGAND FREE ENERGY PREDICTED BY IDOCK:   -1.08 KCAL/MOL
REMARK 927      BINDING AFFINITY PREDICTED BY RF-SCORE:    0.00 PKD
ROOT
HETATM    1  O   UNL     1     -12.041  13.477  63.967  1.00  0.00    -0.439 OA 
HETATM    2  H   UNL     1     -12.657  14.023  63.493  1.00  0.00     0.000 HD 
HETATM    3  C   UNL     1     -12.565  13.176  65.260  1.00  0.00    -0.472 C  
ENDROOT
BRANCH   3   4
HETATM    4  C   UNL     1     -11.573  12.297  66.025  1.00  0.00    -0.393 C  
HETATM    5  O   UNL     1     -11.530  10.987  65.426  1.00  0.00     0.168 OA 
HETATM    6  C   UNL     1     -10.217  10.471  65.658  1.00  0.00    -0.246 C  
HETATM    7  O   UNL     1      -9.892   9.585  64.580  1.00  0.00    -0.390 OA 
HETATM    8  H   UNL     1      -8.216  12.640  64.251  1.00  0.00     0.000 HD 
HETATM    9  C   UNL     1      -9.270  11.678  65.624  1.00  0.00    -0.138 C  
HETATM   10  C   UNL     1     -10.150  12.870  66.004  1.00  0.00    -0.285 C  
HETATM   11  O   UNL     1      -8.803  11.893  64.272  1.00  0.00     0.513 OA 
HETATM   12  H   UNL     1      -9.020   9.242  64.734  1.00  0.00     0.000 HD 
BRANCH   6  13
HETATM   13  C   UNL     1     -10.200   9.690  66.981  1.00  0.00    -0.244 C  
HETATM   14  H   UNL     1      -8.838   9.189  68.295  1.00  0.00     0.000 HD 
HETATM   15  O   UNL     1      -8.849   9.672  67.477  1.00  0.00    -0.125 OA 
ENDBRANCH   6  13
BRANCH  10  16
HETATM   16  O   UNL     1      -9.761  13.400  67.281  1.00  0.00    -0.222 OA 
BRANCH  16  17
HETATM   17  C   UNL     1      -8.345  13.337  67.510  1.00  0.00    -0.186 C  
HETATM   18  O   UNL     1      -8.062  12.508  68.642  1.00  0.00    -0.111 OA 
HETATM   19  C   UNL     1      -6.650  12.370  68.883  1.00  0.00    -0.095 C  
HETATM   20  C   UNL     1      -6.028  13.736  69.203  1.00  0.00    -0.087 C  
HETATM   21  H   UNL     1      -7.632  16.399  66.571  1.00  0.00     0.000 HD 
HETATM   22  O   UNL     1      -7.983  15.522  66.469  1.00  0.00    -0.181 OA 
HETATM   23  C   UNL     1      -6.269  14.668  68.009  1.00  0.00    -0.156 C  
HETATM   24  O   UNL     1      -6.619  14.366  70.350  1.00  0.00    -0.335 OA 
HETATM   25  H   UNL     1      -5.869  16.535  67.550  1.00  0.00     0.000 HD 
HETATM   26  O   UNL     1      -5.720  15.958  68.290  1.00  0.00    -0.099 OA 
HETATM   27  H   UNL     1      -6.235  15.211  70.549  1.00  0.00     0.000 HD 
HETATM   28  C   UNL     1      -7.774  14.766  67.678  1.00  0.00    -0.182 C  
BRANCH  19  29
HETATM   29  C   UNL     1      -6.453  11.352  70.009  1.00  0.00    -0.094 C  
HETATM   30  O   UNL     1      -5.252  11.659  70.719  1.00  0.00    -0.110 OA 
HETATM   31  H   UNL     1      -5.129  11.027  71.417  1.00  0.00     0.000 HD 
ENDBRANCH  19  29
ENDBRANCH  16  17
ENDBRANCH  10  16
ENDBRANCH   3   4
TORSDOF 5
ENDMDL
MODEL      242
REMARK 921   NORMALIZED FREE ENERGY PREDICTED BY IDOCK:   -2.61 KCAL/MOL
REMARK 922        TOTAL FREE ENERGY PREDICTED BY IDOCK:   -4.95 KCAL/MOL
REMARK 923 INTER-LIGAND FREE ENERGY PREDICTED BY IDOCK:   -4.10 KCAL/MOL
REMARK 924 INTRA-LIGAND FREE ENERGY PREDICTED BY IDOCK:   -0.86 KCAL/MOL
REMARK 927      BINDING AFFINITY PREDICTED BY RF-SCORE:    0.00 PKD
ROOT
HETATM    1  O   UNL     1     -11.306  12.135  66.759  1.00  0.00    -0.302 OA 
HETATM    2  H   UNL     1     -12.194  12.438  66.912  1.00  0.00     0.000 HD 
HETATM    3  C   UNL     1     -10.679  11.840  68.007  1.00  0.00    -0.208 C  
ENDROOT
BRANCH   3   4
HETATM    4  C   UNL     1      -9.249  11.352  67.760  1.00  0.00    -0.159 C  
HETATM    5  O   UNL     1      -8.332  12.141  68.542  1.00  0.00    -0.152 OA 
HETATM    6  C   UNL     1      -7.215  11.299  68.839  1.00  0.00    -0.112 C  
HETATM    7  O   UNL     1      -6.661  11.721  70.091  1.00  0.00    -0.421 OA 
HETATM    8  H   UNL     1      -8.499   8.765  70.457  1.00  0.00     0.000 HD 
HETATM    9  C   UNL     1      -7.777   9.878  68.987  1.00  0.00    -0.089 C  
HETATM   10  C   UNL     1      -9.060   9.882  68.154  1.00  0.00    -0.121 C  
HETATM   11  O   UNL     1      -8.151   9.644  70.365  1.00  0.00    -0.180 OA 
HETATM   12  H   UNL     1      -5.920  11.162  70.288  1.00  0.00     0.000 HD 
BRANCH   6  13
HETATM   13  C   UNL     1      -6.154  11.447  67.738  1.00  0.00    -0.049 C  
HETATM   14  H   UNL     1      -5.467  12.918  66.643  1.00  0.00     0.000 HD 
HETATM   15  O   UNL     1      -6.122  12.826  67.324  1.00  0.00    -0.241 OA 
ENDBRANCH   6  13
BRANCH  10  16
HETATM   16  O   UNL     1      -8.921   9.028  67.008  1.00  0.00    -0.124 OA 
BRANCH  16  17
HETATM   17  C   UNL     1      -9.739   7.850  67.080  1.00  0.00    -0.191 C  
HETATM   18  O   UNL     1     -10.132   7.601  68.434  1.00  0.00    -0.175 OA 
HETATM   19  C   UNL     1     -10.998   6.458  68.553  1.00  0.00    -0.319 C  
HETATM   20  C   UNL     1     -10.270   5.188  68.093  1.00  0.00    -0.111 C  
HETATM   21  H   UNL     1      -8.254   6.162  64.691  1.00  0.00     0.000 HD 
HETATM   22  O   UNL     1      -8.716   6.900  65.070  1.00  0.00     0.034 OA 
HETATM   23  C   UNL     1      -9.848   5.377  66.631  1.00  0.00    -0.174 C  
HETATM   24  O   UNL     1      -9.075   4.924  68.842  1.00  0.00    -0.103 OA 
HETATM   25  H   UNL     1      -8.883   4.333  65.276  1.00  0.00     0.000 HD 
HETATM   26  O   UNL     1      -9.145   4.215  66.181  1.00  0.00    -0.124 OA 
HETATM   27  H   UNL     1      -8.623   4.138  68.558  1.00  0.00     0.000 HD 
HETATM   28  C   UNL     1      -8.986   6.646  66.463  1.00  0.00    -0.145 C  
BRANCH  19  29
HETATM   29  C   UNL     1     -11.480   6.370  70.004  1.00  0.00    -0.428 C  
HETATM   30  O   UNL     1     -10.363   6.521  70.882  1.00  0.00    -0.202 OA 
HETATM   31  H   UNL     1     -10.662   6.466  71.782  1.00  0.00     0.000 HD 
ENDBRANCH  19  29
ENDBRANCH  16  17
ENDBRANCH  10  16
ENDBRANCH   3   4
TORSDOF 5
ENDMDL
MODEL      243
REMARK 921   NORMALIZED FREE ENERGY PREDICTED BY IDOCK:   -2.55 KCAL/MOL
REMARK 922        TOTAL FREE ENERGY PREDICTED BY IDOCK:   -4.88 KCAL/MOL
REMARK 923 INTER-LIGAND FREE ENERGY PREDICTED BY IDOCK:   -4.19 KCAL/MOL
REMARK 924 INTRA-LIGAND FREE ENERGY PREDICTED BY IDOCK:   -0.69 KCAL/MOL
REMARK 927      BINDING AFFINITY PREDICTED BY RF-SCORE:    0.00 PKD
ROOT
HETATM    1  O   UNL     1     -11.206   5.518  70.896  1.00  0.00    -0.136 OA 
HETATM    2  H   UNL     1     -11.977   5.600  71.446  1.00  0.00     0.000 HD 
HETATM    3  C   UNL     1     -10.715   6.815  70.562  1.00  0.00    -0.238 C  
ENDROOT
BRANCH   3   4
HETATM    4  C   UNL     1      -9.473   6.682  69.677  1.00  0.00    -0.142 C  
HETATM    5  O   UNL     1      -9.016   5.316  69.695  1.00  0.00    -0.105 OA 
HETATM    6  C   UNL     1      -8.380   5.080  68.436  1.00  0.00    -0.088 C  
HETATM    7  O   UNL     1      -8.533   3.691  68.116  1.00  0.00    -0.089 OA 
HETATM    8  H   UNL     1     -10.704   5.672  66.213  1.00  0.00     0.000 HD 
HETATM    9  C   UNL     1      -9.143   5.924  67.405  1.00  0.00    -0.110 C  
HETATM   10  C   UNL     1      -9.754   7.066  68.219  1.00  0.00    -0.135 C  
HETATM   11  O   UNL     1     -10.231   5.150  66.852  1.00  0.00    -0.199 OA 
HETATM   12  H   UNL     1      -8.111   3.534  67.279  1.00  0.00     0.000 HD 
BRANCH   6  13
HETATM   13  C   UNL     1      -6.885   5.414  68.545  1.00  0.00    -0.056 C  
HETATM   14  H   UNL     1      -5.207   4.448  68.247  1.00  0.00     0.000 HD 
HETATM   15  O   UNL     1      -6.132   4.242  68.179  1.00  0.00    -0.029 OA 
ENDBRANCH   6  13
BRANCH  10  16
HETATM   16  O   UNL     1      -9.151   8.319  67.863  1.00  0.00    -0.133 OA 
BRANCH  16  17
HETATM   17  C   UNL     1     -10.012   9.157  67.077  1.00  0.00    -0.230 C  
HETATM   18  O   UNL     1      -9.404   9.448  65.814  1.00  0.00    -0.202 OA 
HETATM   19  C   UNL     1     -10.252  10.243  64.966  1.00  0.00    -0.207 C  
HETATM   20  C   UNL     1     -10.529  11.605  65.617  1.00  0.00    -0.268 C  
HETATM   21  H   UNL     1     -11.287  10.890  69.553  1.00  0.00     0.000 HD 
HETATM   22  O   UNL     1     -11.073  10.101  69.070  1.00  0.00    -0.223 OA 
HETATM   23  C   UNL     1     -11.215  11.364  66.967  1.00  0.00    -0.283 C  
HETATM   24  O   UNL     1      -9.333  12.353  65.882  1.00  0.00    -0.389 OA 
HETATM   25  H   UNL     1     -11.888  12.469  68.444  1.00  0.00     0.000 HD 
HETATM   26  O   UNL     1     -11.464  12.619  67.608  1.00  0.00    -0.291 OA 
HETATM   27  H   UNL     1      -9.504  13.196  66.285  1.00  0.00     0.000 HD 
HETATM   28  C   UNL     1     -10.361  10.443  67.865  1.00  0.00    -0.190 C  
BRANCH  19  29
HETATM   29  C   UNL     1      -9.579  10.368  63.597  1.00  0.00    -0.310 C  
HETATM   30  O   UNL     1      -8.265   9.811  63.664  1.00  0.00    -0.136 OA 
HETATM   31  H   UNL     1      -7.847   9.889  62.814  1.00  0.00     0.000 HD 
ENDBRANCH  19  29
ENDBRANCH  16  17
ENDBRANCH  10  16
ENDBRANCH   3   4
TORSDOF 5
ENDMDL
MODEL      244
REMARK 921   NORMALIZED FREE ENERGY PREDICTED BY IDOCK:   -2.55 KCAL/MOL
REMARK 922        TOTAL FREE ENERGY PREDICTED BY IDOCK:   -4.88 KCAL/MOL
REMARK 923 INTER-LIGAND FREE ENERGY PREDICTED BY IDOCK:   -4.38 KCAL/MOL
REMARK 924 INTRA-LIGAND FREE ENERGY PREDICTED BY IDOCK:   -0.50 KCAL/MOL
REMARK 927      BINDING AFFINITY PREDICTED BY RF-SCORE:    0.00 PKD
ROOT
HETATM    1  O   UNL     1      -8.188   9.450  71.143  1.00  0.00    -0.314 OA 
HETATM    2  H   UNL     1      -8.049  10.374  71.316  1.00  0.00     0.000 HD 
HETATM    3  C   UNL     1      -9.289   9.292  70.249  1.00  0.00    -0.239 C  
ENDROOT
BRANCH   3   4
HETATM    4  C   UNL     1      -9.515   7.804  69.970  1.00  0.00    -0.161 C  
HETATM    5  O   UNL     1      -9.411   7.064  71.201  1.00  0.00    -0.165 OA 
HETATM    6  C   UNL     1     -10.254   5.917  71.064  1.00  0.00    -0.211 C  
HETATM    7  O   UNL     1     -10.731   5.558  72.367  1.00  0.00    -0.216 OA 
HETATM    8  H   UNL     1     -13.232   7.144  70.500  1.00  0.00     0.000 HD 
HETATM    9  C   UNL     1     -11.440   6.358  70.195  1.00  0.00    -0.417 C  
HETATM   10  C   UNL     1     -10.899   7.527  69.370  1.00  0.00    -0.150 C  
HETATM   11  O   UNL     1     -12.497   6.871  71.038  1.00  0.00    -0.382 OA 
HETATM   12  H   UNL     1     -11.291   4.797  72.275  1.00  0.00     0.000 HD 
BRANCH   6  13
HETATM   13  C   UNL     1      -9.443   4.750  70.481  1.00  0.00    -0.172 C  
HETATM   14  H   UNL     1      -9.169   2.866  70.939  1.00  0.00     0.000 HD 
HETATM   15  O   UNL     1      -9.671   3.588  71.299  1.00  0.00    -0.166 OA 
ENDBRANCH   6  13
BRANCH  10  16
HETATM   16  O   UNL     1     -10.825   7.174  67.980  1.00  0.00    -0.193 OA 
BRANCH  16  17
HETATM   17  C   UNL     1      -9.495   7.260  67.445  1.00  0.00    -0.132 C  
HETATM   18  O   UNL     1      -9.287   8.539  66.837  1.00  0.00    -0.153 OA 
HETATM   19  C   UNL     1      -7.949   8.695  66.331  1.00  0.00    -0.099 C  
HETATM   20  C   UNL     1      -7.672   7.662  65.230  1.00  0.00    -0.110 C  
HETATM   21  H   UNL     1      -9.206   4.122  66.533  1.00  0.00     0.000 HD 
HETATM   22  O   UNL     1      -9.357   4.836  67.141  1.00  0.00    -0.122 OA 
HETATM   23  C   UNL     1      -7.847   6.261  65.828  1.00  0.00    -0.103 C  
HETATM   24  O   UNL     1      -8.583   7.763  64.126  1.00  0.00    -0.372 OA 
HETATM   25  H   UNL     1      -7.727   4.409  65.186  1.00  0.00     0.000 HD 
HETATM   26  O   UNL     1      -7.618   5.277  64.816  1.00  0.00    -0.077 OA 
HETATM   27  H   UNL     1      -8.412   7.124  63.444  1.00  0.00     0.000 HD 
HETATM   28  C   UNL     1      -9.249   6.097  66.453  1.00  0.00    -0.152 C  
BRANCH  19  29
HETATM   29  C   UNL     1      -7.786  10.137  65.844  1.00  0.00    -0.127 C  
HETATM   30  O   UNL     1      -7.874  10.167  64.419  1.00  0.00    -0.143 OA 
HETATM   31  H   UNL     1      -7.773  11.062  64.116  1.00  0.00     0.000 HD 
ENDBRANCH  19  29
ENDBRANCH  16  17
ENDBRANCH  10  16
ENDBRANCH   3   4
TORSDOF 5
ENDMDL
MODEL      245
REMARK 921   NORMALIZED FREE ENERGY PREDICTED BY IDOCK:   -2.53 KCAL/MOL
REMARK 922        TOTAL FREE ENERGY PREDICTED BY IDOCK:   -4.85 KCAL/MOL
REMARK 923 INTER-LIGAND FREE ENERGY PREDICTED BY IDOCK:   -4.03 KCAL/MOL
REMARK 924 INTRA-LIGAND FREE ENERGY PREDICTED BY IDOCK:   -0.82 KCAL/MOL
REMARK 927      BINDING AFFINITY PREDICTED BY RF-SCORE:    0.00 PKD
ROOT
HETATM    1  O   UNL     1      -5.986   9.970  72.049  1.00  0.00    -0.292 OA 
HETATM    2  H   UNL     1      -5.095   9.775  72.317  1.00  0.00     0.000 HD 
HETATM    3  C   UNL     1      -6.099   9.846  70.632  1.00  0.00    -0.095 C  
ENDROOT
BRANCH   3   4
HETATM    4  C   UNL     1      -7.534  10.160  70.202  1.00  0.00    -0.133 C  
HETATM    5  O   UNL     1      -7.568  10.396  68.781  1.00  0.00    -0.084 OA 
HETATM    6  C   UNL     1      -8.867  10.003  68.330  1.00  0.00    -0.117 C  
HETATM    7  O   UNL     1      -8.750   9.560  66.973  1.00  0.00    -0.127 OA 
HETATM    8  H   UNL     1      -9.110   6.850  69.158  1.00  0.00     0.000 HD 
HETATM    9  C   UNL     1      -9.288   8.821  69.214  1.00  0.00    -0.149 C  
HETATM   10  C   UNL     1      -8.500   9.010  70.511  1.00  0.00    -0.200 C  
HETATM   11  O   UNL     1      -8.849   7.582  68.611  1.00  0.00    -0.128 OA 
HETATM   12  H   UNL     1      -9.612   9.299  66.673  1.00  0.00     0.000 HD 
BRANCH   6  13
HETATM   13  C   UNL     1      -9.817  11.208  68.391  1.00  0.00    -0.185 C  
HETATM   14  H   UNL     1     -11.714  11.519  68.016  1.00  0.00     0.000 HD 
HETATM   15  O   UNL     1     -11.126  10.773  67.979  1.00  0.00    -0.254 OA 
ENDBRANCH   6  13
BRANCH  10  16
HETATM   16  O   UNL     1      -9.383   9.321  71.599  1.00  0.00    -0.301 OA 
BRANCH  16  17
HETATM   17  C   UNL     1      -9.567   8.225  72.509  1.00  0.00    -0.295 C  
HETATM   18  O   UNL     1      -8.404   7.391  72.523  1.00  0.00    -0.105 OA 
HETATM   19  C   UNL     1      -8.518   6.305  73.460  1.00  0.00    -0.121 C  
HETATM   20  C   UNL     1      -9.683   5.386  73.070  1.00  0.00    -0.150 C  
HETATM   21  H   UNL     1     -12.783   7.806  72.015  1.00  0.00     0.000 HD 
HETATM   22  O   UNL     1     -11.999   8.291  72.246  1.00  0.00    -0.341 OA 
HETATM   23  C   UNL     1     -10.973   6.215  73.068  1.00  0.00    -0.249 C  
HETATM   24  O   UNL     1      -9.542   4.829  71.755  1.00  0.00    -0.143 OA 
HETATM   25  H   UNL     1     -12.873   5.902  72.684  1.00  0.00     0.000 HD 
HETATM   26  O   UNL     1     -12.074   5.387  72.685  1.00  0.00    -0.169 OA 
HETATM   27  H   UNL     1     -10.263   4.260  71.513  1.00  0.00     0.000 HD 
HETATM   28  C   UNL     1     -10.844   7.436  72.132  1.00  0.00    -0.235 C  
BRANCH  19  29
HETATM   29  C   UNL     1      -7.176   5.571  73.508  1.00  0.00    -0.087 C  
HETATM   30  O   UNL     1      -7.289   4.434  74.366  1.00  0.00    -0.070 OA 
HETATM   31  H   UNL     1      -6.457   3.979  74.396  1.00  0.00     0.000 HD 
ENDBRANCH  19  29
ENDBRANCH  16  17
ENDBRANCH  10  16
ENDBRANCH   3   4
TORSDOF 5
ENDMDL
MODEL      246
REMARK 921   NORMALIZED FREE ENERGY PREDICTED BY IDOCK:   -2.53 KCAL/MOL
REMARK 922        TOTAL FREE ENERGY PREDICTED BY IDOCK:   -4.85 KCAL/MOL
REMARK 923 INTER-LIGAND FREE ENERGY PREDICTED BY IDOCK:   -3.93 KCAL/MOL
REMARK 924 INTRA-LIGAND FREE ENERGY PREDICTED BY IDOCK:   -0.92 KCAL/MOL
REMARK 927      BINDING AFFINITY PREDICTED BY RF-SCORE:    0.00 PKD
ROOT
HETATM    1  O   UNL     1      -8.496   4.781  69.840  1.00  0.00    -0.074 OA 
HETATM    2  H   UNL     1      -8.511   4.413  70.716  1.00  0.00     0.000 HD 
HETATM    3  C   UNL     1      -8.688   3.742  68.881  1.00  0.00    -0.092 C  
ENDROOT
BRANCH   3   4
HETATM    4  C   UNL     1      -8.665   4.336  67.470  1.00  0.00    -0.106 C  
HETATM    5  O   UNL     1      -9.637   3.660  66.649  1.00  0.00    -0.199 OA 
HETATM    6  C   UNL     1     -10.072   4.604  65.668  1.00  0.00    -0.218 C  
HETATM    7  O   UNL     1     -11.424   4.284  65.314  1.00  0.00    -0.885 OA 
HETATM    8  H   UNL     1     -11.297   7.092  67.400  1.00  0.00     0.000 HD 
HETATM    9  C   UNL     1     -10.040   5.979  66.350  1.00  0.00    -0.086 C  
HETATM   10  C   UNL     1      -9.000   5.832  67.462  1.00  0.00    -0.107 C  
HETATM   11  O   UNL     1     -11.316   6.241  66.977  1.00  0.00    -0.263 OA 
HETATM   12  H   UNL     1     -11.713   4.911  64.662  1.00  0.00     0.000 HD 
BRANCH   6  13
HETATM   13  C   UNL     1      -9.182   4.496  64.421  1.00  0.00    -0.127 C  
HETATM   14  H   UNL     1      -8.181   5.751  63.299  1.00  0.00     0.000 HD 
HETATM   15  O   UNL     1      -8.731   5.818  64.071  1.00  0.00     0.039 OA 
ENDBRANCH   6  13
BRANCH  10  16
HETATM   16  O   UNL     1      -7.848   6.644  67.187  1.00  0.00    -0.102 OA 
BRANCH  16  17
HETATM   17  C   UNL     1      -7.822   7.863  67.945  1.00  0.00    -0.127 C  
HETATM   18  O   UNL     1      -9.154   8.267  68.280  1.00  0.00    -0.136 OA 
HETATM   19  C   UNL     1      -9.179   9.458  69.087  1.00  0.00    -0.155 C  
HETATM   20  C   UNL     1      -8.570  10.637  68.317  1.00  0.00    -0.128 C  
HETATM   21  H   UNL     1      -5.229   9.223  66.466  1.00  0.00     0.000 HD 
HETATM   22  O   UNL     1      -5.696   8.551  66.948  1.00  0.00    -0.040 OA 
HETATM   23  C   UNL     1      -7.123  10.280  67.954  1.00  0.00    -0.084 C  
HETATM   24  O   UNL     1      -9.253  10.915  67.086  1.00  0.00    -0.148 OA 
HETATM   25  H   UNL     1      -5.640  11.131  66.989  1.00  0.00     0.000 HD 
HETATM   26  O   UNL     1      -6.536  11.353  67.213  1.00  0.00    -0.084 OA 
HETATM   27  H   UNL     1      -8.876  11.645  66.608  1.00  0.00     0.000 HD 
HETATM   28  C   UNL     1      -7.062   8.958  67.159  1.00  0.00    -0.082 C  
BRANCH  19  29
HETATM   29  C   UNL     1     -10.627   9.716  69.514  1.00  0.00    -0.229 C  
HETATM   30  O   UNL     1     -11.474   9.672  68.365  1.00  0.00    -0.498 OA 
HETATM   31  H   UNL     1     -12.372   9.833  68.630  1.00  0.00     0.000 HD 
ENDBRANCH  19  29
ENDBRANCH  16  17
ENDBRANCH  10  16
ENDBRANCH   3   4
TORSDOF 5
ENDMDL
MODEL      247
REMARK 921   NORMALIZED FREE ENERGY PREDICTED BY IDOCK:   -2.51 KCAL/MOL
REMARK 922        TOTAL FREE ENERGY PREDICTED BY IDOCK:   -4.82 KCAL/MOL
REMARK 923 INTER-LIGAND FREE ENERGY PREDICTED BY IDOCK:   -4.08 KCAL/MOL
REMARK 924 INTRA-LIGAND FREE ENERGY PREDICTED BY IDOCK:   -0.75 KCAL/MOL
REMARK 927      BINDING AFFINITY PREDICTED BY RF-SCORE:    0.00 PKD
ROOT
HETATM    1  O   UNL     1     -12.284   6.409  71.489  1.00  0.00    -0.312 OA 
HETATM    2  H   UNL     1     -12.599   5.657  71.977  1.00  0.00     0.000 HD 
HETATM    3  C   UNL     1     -11.281   5.994  70.563  1.00  0.00    -0.292 C  
ENDROOT
BRANCH   3   4
HETATM    4  C   UNL     1     -10.774   7.206  69.778  1.00  0.00    -0.239 C  
HETATM    5  O   UNL     1     -11.545   8.368  70.137  1.00  0.00    -0.084 OA 
HETATM    6  C   UNL     1     -10.685   9.499  69.974  1.00  0.00    -0.243 C  
HETATM    7  O   UNL     1     -11.094  10.505  70.909  1.00  0.00    -0.350 OA 
HETATM    8  H   UNL     1      -8.163   8.913  71.969  1.00  0.00     0.000 HD 
HETATM    9  C   UNL     1      -9.273   9.018  70.333  1.00  0.00    -0.209 C  
HETATM   10  C   UNL     1      -9.299   7.512  70.068  1.00  0.00    -0.154 C  
HETATM   11  O   UNL     1      -9.037   9.210  71.747  1.00  0.00    -0.346 OA 
HETATM   12  H   UNL     1     -10.523  11.256  70.801  1.00  0.00     0.000 HD 
BRANCH   6  13
HETATM   13  C   UNL     1     -10.824  10.047  68.546  1.00  0.00    -0.231 C  
HETATM   14  H   UNL     1      -9.615  10.838  67.224  1.00  0.00     0.000 HD 
HETATM   15  O   UNL     1      -9.529  10.498  68.107  1.00  0.00    -0.146 OA 
ENDBRANCH   6  13
BRANCH  10  16
HETATM   16  O   UNL     1      -8.449   7.178  68.961  1.00  0.00    -0.128 OA 
BRANCH  16  17
HETATM   17  C   UNL     1      -9.018   6.189  68.090  1.00  0.00    -0.114 C  
HETATM   18  O   UNL     1      -8.660   4.875  68.531  1.00  0.00    -0.094 OA 
HETATM   19  C   UNL     1      -9.251   3.843  67.720  1.00  0.00    -0.166 C  
HETATM   20  C   UNL     1      -8.746   3.947  66.274  1.00  0.00    -0.115 C  
HETATM   21  H   UNL     1      -8.791   7.901  65.301  1.00  0.00     0.000 HD 
HETATM   22  O   UNL     1      -9.061   7.739  66.197  1.00  0.00    -0.173 OA 
HETATM   23  C   UNL     1      -9.129   5.328  65.728  1.00  0.00    -0.157 C  
HETATM   24  O   UNL     1      -7.319   3.837  66.169  1.00  0.00    -0.070 OA 
HETATM   25  H   UNL     1      -8.887   6.318  64.049  1.00  0.00     0.000 HD 
HETATM   26  O   UNL     1      -8.650   5.462  64.387  1.00  0.00    -0.132 OA 
HETATM   27  H   UNL     1      -7.006   3.902  65.274  1.00  0.00     0.000 HD 
HETATM   28  C   UNL     1      -8.577   6.453  66.630  1.00  0.00    -0.121 C  
BRANCH  19  29
HETATM   29  C   UNL     1      -8.933   2.489  68.360  1.00  0.00    -0.136 C  
HETATM   30  O   UNL     1      -8.802   2.654  69.773  1.00  0.00    -0.066 OA 
HETATM   31  H   UNL     1      -8.605   1.815  70.171  1.00  0.00     0.000 HD 
ENDBRANCH  19  29
ENDBRANCH  16  17
ENDBRANCH  10  16
ENDBRANCH   3   4
TORSDOF 5
ENDMDL
MODEL      248
REMARK 921   NORMALIZED FREE ENERGY PREDICTED BY IDOCK:   -2.45 KCAL/MOL
REMARK 922        TOTAL FREE ENERGY PREDICTED BY IDOCK:   -4.75 KCAL/MOL
REMARK 923 INTER-LIGAND FREE ENERGY PREDICTED BY IDOCK:   -3.90 KCAL/MOL
REMARK 924 INTRA-LIGAND FREE ENERGY PREDICTED BY IDOCK:   -0.85 KCAL/MOL
REMARK 927      BINDING AFFINITY PREDICTED BY RF-SCORE:    0.00 PKD
ROOT
HETATM    1  O   UNL     1     -10.106   5.617  70.079  1.00  0.00    -0.192 OA 
HETATM    2  H   UNL     1      -9.856   4.797  69.668  1.00  0.00     0.000 HD 
HETATM    3  C   UNL     1     -10.701   6.478  69.108  1.00  0.00    -0.275 C  
ENDROOT
BRANCH   3   4
HETATM    4  C   UNL     1     -11.104   7.797  69.771  1.00  0.00    -0.089 C  
HETATM    5  O   UNL     1     -12.251   7.580  70.614  1.00  0.00    -0.178 OA 
HETATM    6  C   UNL     1     -12.171   8.540  71.671  1.00  0.00    -0.322 C  
HETATM    7  O   UNL     1     -12.800   7.977  72.829  1.00  0.00    -0.562 OA 
HETATM    8  H   UNL     1      -9.313   7.923  73.133  1.00  0.00     0.000 HD 
HETATM    9  C   UNL     1     -10.677   8.743  71.954  1.00  0.00    -0.359 C  
HETATM   10  C   UNL     1      -9.983   8.378  70.641  1.00  0.00    -0.185 C  
HETATM   11  O   UNL     1     -10.239   7.798  72.958  1.00  0.00    -0.278 OA 
HETATM   12  H   UNL     1     -12.747   8.615  73.532  1.00  0.00     0.000 HD 
BRANCH   6  13
HETATM   13  C   UNL     1     -12.917   9.819  71.260  1.00  0.00    -0.380 C  
HETATM   14  H   UNL     1     -12.426  11.690  70.952  1.00  0.00     0.000 HD 
HETATM   15  O   UNL     1     -11.966  10.899  71.206  1.00  0.00    -0.279 OA 
ENDBRANCH   6  13
BRANCH  10  16
HETATM   16  O   UNL     1      -9.382   9.539  70.047  1.00  0.00    -0.201 OA 
BRANCH  16  17
HETATM   17  C   UNL     1      -7.949   9.469  69.994  1.00  0.00    -0.156 C  
HETATM   18  O   UNL     1      -7.453   8.647  71.057  1.00  0.00    -0.070 OA 
HETATM   19  C   UNL     1      -6.022   8.502  71.017  1.00  0.00    -0.036 C  
HETATM   20  C   UNL     1      -5.343   9.866  71.196  1.00  0.00    -0.069 C  
HETATM   21  H   UNL     1      -7.418  12.517  68.905  1.00  0.00     0.000 HD 
HETATM   22  O   UNL     1      -7.787  11.642  68.882  1.00  0.00    -0.118 OA 
HETATM   23  C   UNL     1      -5.809  10.789  70.063  1.00  0.00    -0.083 C  
HETATM   24  O   UNL     1      -5.693  10.509  72.430  1.00  0.00    -0.125 OA 
HETATM   25  H   UNL     1      -5.497  12.650  69.517  1.00  0.00     0.000 HD 
HETATM   26  O   UNL     1      -5.208  12.078  70.219  1.00  0.00    -0.083 OA 
HETATM   27  H   UNL     1      -5.273  11.354  72.542  1.00  0.00     0.000 HD 
HETATM   28  C   UNL     1      -7.348  10.895  70.033  1.00  0.00     0.235 C  
BRANCH  19  29
HETATM   29  C   UNL     1      -5.613   7.492  72.092  1.00  0.00    -0.036 C  
HETATM   30  O   UNL     1      -6.475   7.629  73.222  1.00  0.00    -0.063 OA 
HETATM   31  H   UNL     1      -6.222   7.003  73.890  1.00  0.00     0.000 HD 
ENDBRANCH  19  29
ENDBRANCH  16  17
ENDBRANCH  10  16
ENDBRANCH   3   4
TORSDOF 5
ENDMDL
MODEL      249
REMARK 921   NORMALIZED FREE ENERGY PREDICTED BY IDOCK:   -2.42 KCAL/MOL
REMARK 922        TOTAL FREE ENERGY PREDICTED BY IDOCK:   -4.71 KCAL/MOL
REMARK 923 INTER-LIGAND FREE ENERGY PREDICTED BY IDOCK:   -4.12 KCAL/MOL
REMARK 924 INTRA-LIGAND FREE ENERGY PREDICTED BY IDOCK:   -0.59 KCAL/MOL
REMARK 927      BINDING AFFINITY PREDICTED BY RF-SCORE:    0.00 PKD
ROOT
HETATM    1  O   UNL     1     -10.015   9.131  71.680  1.00  0.00    -0.316 OA 
HETATM    2  H   UNL     1     -10.478   9.041  72.505  1.00  0.00     0.000 HD 
HETATM    3  C   UNL     1     -10.449   8.118  70.774  1.00  0.00    -0.202 C  
ENDROOT
BRANCH   3   4
HETATM    4  C   UNL     1      -9.702   8.263  69.446  1.00  0.00    -0.177 C  
HETATM    5  O   UNL     1      -8.888   7.096  69.223  1.00  0.00    -0.136 OA 
HETATM    6  C   UNL     1      -8.785   6.931  67.807  1.00  0.00    -0.120 C  
HETATM    7  O   UNL     1      -8.628   5.533  67.534  1.00  0.00    -0.110 OA 
HETATM    8  H   UNL     1     -11.874   6.609  66.786  1.00  0.00     0.000 HD 
HETATM    9  C   UNL     1     -10.118   7.415  67.220  1.00  0.00    -0.228 C  
HETATM   10  C   UNL     1     -10.656   8.406  68.254  1.00  0.00    -0.109 C  
HETATM   11  O   UNL     1     -11.048   6.309  67.149  1.00  0.00    -0.358 OA 
HETATM   12  H   UNL     1      -8.560   5.423  66.592  1.00  0.00     0.000 HD 
BRANCH   6  13
HETATM   13  C   UNL     1      -7.554   7.691  67.290  1.00  0.00    -0.108 C  
HETATM   14  H   UNL     1      -5.635   7.681  67.679  1.00  0.00     0.000 HD 
HETATM   15  O   UNL     1      -6.396   7.211  67.998  1.00  0.00    -0.040 OA 
ENDBRANCH   6  13
BRANCH  10  16
HETATM   16  O   UNL     1     -10.662   9.739  67.721  1.00  0.00    -0.255 OA 
BRANCH  16  17
HETATM   17  C   UNL     1     -10.654  10.753  68.738  1.00  0.00    -0.200 C  
HETATM   18  O   UNL     1     -11.866  10.704  69.498  1.00  0.00    -0.286 OA 
HETATM   19  C   UNL     1     -11.884  11.669  70.565  1.00  0.00    -0.231 C  
HETATM   20  C   UNL     1     -11.807  13.093  69.998  1.00  0.00    -0.290 C  
HETATM   21  H   UNL     1      -9.002  13.028  67.047  1.00  0.00     0.000 HD 
HETATM   22  O   UNL     1      -9.142  12.175  67.441  1.00  0.00    -0.170 OA 
HETATM   23  C   UNL     1     -10.507  13.223  69.195  1.00  0.00     0.086 C  
HETATM   24  O   UNL     1     -12.885  13.397  69.101  1.00  0.00     0.269 OA 
HETATM   25  H   UNL     1      -9.615  14.616  68.136  1.00  0.00     0.000 HD 
HETATM   26  O   UNL     1     -10.421  14.536  68.634  1.00  0.00    -0.234 OA 
HETATM   27  H   UNL     1     -12.838  14.278  68.749  1.00  0.00     0.000 HD 
HETATM   28  C   UNL     1     -10.426  12.143  68.095  1.00  0.00    -0.211 C  
BRANCH  19  29
HETATM   29  C   UNL     1     -13.143  11.433  71.403  1.00  0.00    -0.276 C  
HETATM   30  O   UNL     1     -13.024  10.190  72.096  1.00  0.00    -0.415 OA 
HETATM   31  H   UNL     1     -13.806  10.043  72.615  1.00  0.00     0.000 HD 
ENDBRANCH  19  29
ENDBRANCH  16  17
ENDBRANCH  10  16
ENDBRANCH   3   4
TORSDOF 5
ENDMDL
MODEL      250
REMARK 921   NORMALIZED FREE ENERGY PREDICTED BY IDOCK:   -2.37 KCAL/MOL
REMARK 922        TOTAL FREE ENERGY PREDICTED BY IDOCK:   -4.65 KCAL/MOL
REMARK 923 INTER-LIGAND FREE ENERGY PREDICTED BY IDOCK:   -4.41 KCAL/MOL
REMARK 924 INTRA-LIGAND FREE ENERGY PREDICTED BY IDOCK:   -0.24 KCAL/MOL
REMARK 927      BINDING AFFINITY PREDICTED BY RF-SCORE:    0.00 PKD
ROOT
HETATM    1  O   UNL     1     -11.965  11.853  66.732  1.00  0.00    -0.613 OA 
HETATM    2  H   UNL     1     -12.602  12.557  66.717  1.00  0.00     0.000 HD 
HETATM    3  C   UNL     1     -11.260  11.870  67.972  1.00  0.00    -0.257 C  
ENDROOT
BRANCH   3   4
HETATM    4  C   UNL     1     -10.233  10.735  67.995  1.00  0.00    -0.178 C  
HETATM    5  O   UNL     1      -9.231  11.015  68.991  1.00  0.00    -0.151 OA 
HETATM    6  C   UNL     1      -8.754   9.752  69.461  1.00  0.00    -0.185 C  
HETATM    7  O   UNL     1      -8.335   9.914  70.821  1.00  0.00    -0.383 OA 
HETATM    8  H   UNL     1     -11.409   8.251  70.637  1.00  0.00     0.000 HD 
HETATM    9  C   UNL     1      -9.953   8.795  69.411  1.00  0.00    -0.196 C  
HETATM   10  C   UNL     1     -10.869   9.381  68.335  1.00  0.00    -0.109 C  
HETATM   11  O   UNL     1     -10.667   8.844  70.668  1.00  0.00    -0.212 OA 
HETATM   12  H   UNL     1      -8.018   9.074  71.134  1.00  0.00     0.000 HD 
BRANCH   6  13
HETATM   13  C   UNL     1      -7.554   9.308  68.610  1.00  0.00    -0.081 C  
HETATM   14  H   UNL     1      -6.429  10.132  67.235  1.00  0.00     0.000 HD 
HETATM   15  O   UNL     1      -7.170  10.406  67.762  1.00  0.00    -0.084 OA 
ENDBRANCH   6  13
BRANCH  10  16
HETATM   16  O   UNL     1     -10.932   8.511  67.195  1.00  0.00    -0.108 OA 
BRANCH  16  17
HETATM   17  C   UNL     1      -9.785   7.656  67.074  1.00  0.00    -0.195 C  
HETATM   18  O   UNL     1      -8.983   8.056  65.957  1.00  0.00    -0.168 OA 
HETATM   19  C   UNL     1      -7.791   7.261  65.824  1.00  0.00    -0.108 C  
HETATM   20  C   UNL     1      -8.156   5.793  65.567  1.00  0.00    -0.128 C  
HETATM   21  H   UNL     1     -11.215   4.887  68.098  1.00  0.00     0.000 HD 
HETATM   22  O   UNL     1     -10.938   5.793  68.164  1.00  0.00    -0.230 OA 
HETATM   23  C   UNL     1      -8.993   5.290  66.750  1.00  0.00    -0.111 C  
HETATM   24  O   UNL     1      -8.951   5.611  64.385  1.00  0.00    -0.360 OA 
HETATM   25  H   UNL     1      -9.886   3.617  67.258  1.00  0.00     0.000 HD 
HETATM   26  O   UNL     1      -9.368   3.928  66.526  1.00  0.00    -0.161 OA 
HETATM   27  H   UNL     1      -9.177   4.702  64.226  1.00  0.00     0.000 HD 
HETATM   28  C   UNL     1     -10.236   6.179  66.966  1.00  0.00    -0.202 C  
BRANCH  19  29
HETATM   29  C   UNL     1      -6.937   7.862  64.704  1.00  0.00    -0.067 C  
HETATM   30  O   UNL     1      -7.748   8.058  63.545  1.00  0.00    -0.126 OA 
HETATM   31  H   UNL     1      -7.218   8.431  62.850  1.00  0.00     0.000 HD 
ENDBRANCH  19  29
ENDBRANCH  16  17
ENDBRANCH  10  16
ENDBRANCH   3   4
TORSDOF 5
ENDMDL
MODEL      251
REMARK 921   NORMALIZED FREE ENERGY PREDICTED BY IDOCK:   -2.37 KCAL/MOL
REMARK 922        TOTAL FREE ENERGY PREDICTED BY IDOCK:   -4.64 KCAL/MOL
REMARK 923 INTER-LIGAND FREE ENERGY PREDICTED BY IDOCK:   -3.99 KCAL/MOL
REMARK 924 INTRA-LIGAND FREE ENERGY PREDICTED BY IDOCK:   -0.65 KCAL/MOL
REMARK 927      BINDING AFFINITY PREDICTED BY RF-SCORE:    0.00 PKD
ROOT
HETATM    1  O   UNL     1      -5.418  10.046  73.732  1.00  0.00    -0.332 OA 
HETATM    2  H   UNL     1      -4.810   9.930  74.453  1.00  0.00     0.000 HD 
HETATM    3  C   UNL     1      -5.325   8.934  72.843  1.00  0.00    -0.074 C  
ENDROOT
BRANCH   3   4
HETATM    4  C   UNL     1      -6.305   9.121  71.682  1.00  0.00    -0.037 C  
HETATM    5  O   UNL     1      -5.668   8.732  70.449  1.00  0.00    -0.027 OA 
HETATM    6  C   UNL     1      -6.704   8.265  69.582  1.00  0.00    -0.037 C  
HETATM    7  O   UNL     1      -6.138   7.280  68.707  1.00  0.00    -0.025 OA 
HETATM    8  H   UNL     1      -8.082   5.783  71.203  1.00  0.00     0.000 HD 
HETATM    9  C   UNL     1      -7.751   7.598  70.484  1.00  0.00    -0.089 C  
HETATM   10  C   UNL     1      -7.571   8.272  71.845  1.00  0.00    -0.108 C  
HETATM   11  O   UNL     1      -7.434   6.196  70.645  1.00  0.00    -0.083 OA 
HETATM   12  H   UNL     1      -6.826   6.969  68.131  1.00  0.00     0.000 HD 
BRANCH   6  13
HETATM   13  C   UNL     1      -7.242   9.436  68.747  1.00  0.00    -0.073 C  
HETATM   14  H   UNL     1      -7.123   9.995  66.874  1.00  0.00     0.000 HD 
HETATM   15  O   UNL     1      -6.790   9.270  67.390  1.00  0.00    -0.075 OA 
ENDBRANCH   6  13
BRANCH  10  16
HETATM   16  O   UNL     1      -8.720   9.069  72.171  1.00  0.00    -0.368 OA 
BRANCH  16  17
HETATM   17  C   UNL     1      -9.827   8.293  72.656  1.00  0.00    -0.287 C  
HETATM   18  O   UNL     1      -9.358   7.082  73.258  1.00  0.00    -0.136 OA 
HETATM   19  C   UNL     1     -10.428   6.292  73.807  1.00  0.00    -0.290 C  
HETATM   20  C   UNL     1     -11.393   5.856  72.697  1.00  0.00    -0.292 C  
HETATM   21  H   UNL     1     -11.968   9.102  70.306  1.00  0.00     0.000 HD 
HETATM   22  O   UNL     1     -11.355   9.268  71.012  1.00  0.00    -0.271 OA 
HETATM   23  C   UNL     1     -11.960   7.115  72.029  1.00  0.00    -0.295 C  
HETATM   24  O   UNL     1     -10.753   5.089  71.667  1.00  0.00    -0.165 OA 
HETATM   25  H   UNL     1     -13.198   7.519  70.559  1.00  0.00     0.000 HD 
HETATM   26  O   UNL     1     -12.847   6.738  70.973  1.00  0.00    -0.290 OA 
HETATM   27  H   UNL     1     -11.350   4.819  70.979  1.00  0.00     0.000 HD 
HETATM   28  C   UNL     1     -10.826   8.022  71.505  1.00  0.00    -0.232 C  
BRANCH  19  29
HETATM   29  C   UNL     1      -9.812   5.106  74.554  1.00  0.00    -0.201 C  
HETATM   30  O   UNL     1     -10.577   3.930  74.287  1.00  0.00    -0.203 OA 
HETATM   31  H   UNL     1     -10.196   3.194  74.750  1.00  0.00     0.000 HD 
ENDBRANCH  19  29
ENDBRANCH  16  17
ENDBRANCH  10  16
ENDBRANCH   3   4
TORSDOF 5
ENDMDL
MODEL      252
REMARK 921   NORMALIZED FREE ENERGY PREDICTED BY IDOCK:   -2.34 KCAL/MOL
REMARK 922        TOTAL FREE ENERGY PREDICTED BY IDOCK:   -4.61 KCAL/MOL
REMARK 923 INTER-LIGAND FREE ENERGY PREDICTED BY IDOCK:   -4.08 KCAL/MOL
REMARK 924 INTRA-LIGAND FREE ENERGY PREDICTED BY IDOCK:   -0.53 KCAL/MOL
REMARK 927      BINDING AFFINITY PREDICTED BY RF-SCORE:    0.00 PKD
ROOT
HETATM    1  O   UNL     1      -8.359   9.514  70.860  1.00  0.00    -0.280 OA 
HETATM    2  H   UNL     1      -8.099  10.298  71.329  1.00  0.00     0.000 HD 
HETATM    3  C   UNL     1      -9.360   9.841  69.898  1.00  0.00    -0.231 C  
ENDROOT
BRANCH   3   4
HETATM    4  C   UNL     1      -9.779   8.577  69.142  1.00  0.00    -0.170 C  
HETATM    5  O   UNL     1     -10.064   8.911  67.770  1.00  0.00    -0.185 OA 
HETATM    6  C   UNL     1      -9.770   7.746  66.994  1.00  0.00    -0.197 C  
HETATM    7  O   UNL     1      -9.366   8.174  65.688  1.00  0.00    -0.413 OA 
HETATM    8  H   UNL     1      -6.612   7.137  67.583  1.00  0.00     0.000 HD 
HETATM    9  C   UNL     1      -8.587   7.056  67.688  1.00  0.00    -0.122 C  
HETATM   10  C   UNL     1      -8.682   7.505  69.147  1.00  0.00    -0.136 C  
HETATM   11  O   UNL     1      -7.344   7.565  67.154  1.00  0.00    -0.089 OA 
HETATM   12  H   UNL     1      -9.170   7.401  65.172  1.00  0.00     0.000 HD 
BRANCH   6  13
HETATM   13  C   UNL     1     -11.030   6.876  66.876  1.00  0.00    -0.258 C  
HETATM   14  H   UNL     1     -11.419   5.041  66.316  1.00  0.00     0.000 HD 
HETATM   15  O   UNL     1     -10.640   5.579  66.389  1.00  0.00    -0.264 OA 
ENDBRANCH   6  13
BRANCH  10  16
HETATM   16  O   UNL     1      -9.013   6.397  69.998  1.00  0.00    -0.144 OA 
BRANCH  16  17
HETATM   17  C   UNL     1      -9.005   6.734  71.394  1.00  0.00    -0.142 C  
HETATM   18  O   UNL     1      -7.678   6.633  71.921  1.00  0.00    -0.095 OA 
HETATM   19  C   UNL     1      -7.608   7.012  73.307  1.00  0.00    -0.079 C  
HETATM   20  C   UNL     1      -8.467   6.070  74.162  1.00  0.00    -0.115 C  
HETATM   21  H   UNL     1     -11.956   5.509  72.138  1.00  0.00     0.000 HD 
HETATM   22  O   UNL     1     -11.341   6.060  71.668  1.00  0.00    -0.278 OA 
HETATM   23  C   UNL     1      -9.916   6.156  73.667  1.00  0.00    -0.203 C  
HETATM   24  O   UNL     1      -8.069   4.695  74.053  1.00  0.00    -0.099 OA 
HETATM   25  H   UNL     1     -11.634   5.323  74.124  1.00  0.00     0.000 HD 
HETATM   26  O   UNL     1     -10.736   5.269  74.431  1.00  0.00    -0.304 OA 
HETATM   27  H   UNL     1      -8.601   4.112  74.581  1.00  0.00     0.000 HD 
HETATM   28  C   UNL     1     -10.006   5.835  72.159  1.00  0.00    -0.176 C  
BRANCH  19  29
HETATM   29  C   UNL     1      -6.136   7.015  73.729  1.00  0.00    -0.062 C  
HETATM   30  O   UNL     1      -5.341   6.468  72.676  1.00  0.00    -0.035 OA 
HETATM   31  H   UNL     1      -4.428   6.470  72.937  1.00  0.00     0.000 HD 
ENDBRANCH  19  29
ENDBRANCH  16  17
ENDBRANCH  10  16
ENDBRANCH   3   4
TORSDOF 5
ENDMDL
MODEL      253
REMARK 921   NORMALIZED FREE ENERGY PREDICTED BY IDOCK:   -2.32 KCAL/MOL
REMARK 922        TOTAL FREE ENERGY PREDICTED BY IDOCK:   -4.58 KCAL/MOL
REMARK 923 INTER-LIGAND FREE ENERGY PREDICTED BY IDOCK:   -4.37 KCAL/MOL
REMARK 924 INTRA-LIGAND FREE ENERGY PREDICTED BY IDOCK:   -0.21 KCAL/MOL
REMARK 927      BINDING AFFINITY PREDICTED BY RF-SCORE:    0.00 PKD
ROOT
HETATM    1  O   UNL     1      -6.491  14.127  69.666  1.00  0.00    -0.125 OA 
HETATM    2  H   UNL     1      -5.922  14.465  70.347  1.00  0.00     0.000 HD 
HETATM    3  C   UNL     1      -6.212  12.744  69.452  1.00  0.00    -0.112 C  
ENDROOT
BRANCH   3   4
HETATM    4  C   UNL     1      -7.129  12.198  68.355  1.00  0.00    -0.089 C  
HETATM    5  O   UNL     1      -6.394  11.274  67.530  1.00  0.00    -0.060 OA 
HETATM    6  C   UNL     1      -7.340  10.327  67.029  1.00  0.00    -0.092 C  
HETATM    7  O   UNL     1      -6.657   9.084  66.824  1.00  0.00    -0.063 OA 
HETATM    8  H   UNL     1      -8.645   8.971  69.703  1.00  0.00     0.000 HD 
HETATM    9  C   UNL     1      -8.393  10.149  68.132  1.00  0.00    -0.117 C  
HETATM   10  C   UNL     1      -8.343  11.455  68.926  1.00  0.00    -0.039 C  
HETATM   11  O   UNL     1      -7.993   9.081  69.020  1.00  0.00    -0.098 OA 
HETATM   12  H   UNL     1      -7.286   8.454  66.491  1.00  0.00     0.000 HD 
BRANCH   6  13
HETATM   13  C   UNL     1      -7.904  10.824  65.690  1.00  0.00    -0.076 C  
HETATM   14  H   UNL     1      -9.099  10.102  64.317  1.00  0.00     0.000 HD 
HETATM   15  O   UNL     1      -8.751   9.794  65.146  1.00  0.00    -0.147 OA 
ENDBRANCH   6  13
BRANCH  10  16
HETATM   16  O   UNL     1      -9.560  12.197  68.758  1.00  0.00    -0.104 OA 
BRANCH  16  17
HETATM   17  C   UNL     1      -9.818  12.558  67.392  1.00  0.00    -0.201 C  
HETATM   18  O   UNL     1      -9.639  13.966  67.208  1.00  0.00    -0.230 OA 
HETATM   19  C   UNL     1      -9.834  14.371  65.841  1.00  0.00    -0.310 C  
HETATM   20  C   UNL     1     -11.273  14.074  65.398  1.00  0.00    -0.319 C  
HETATM   21  H   UNL     1     -12.196  10.372  66.821  1.00  0.00     0.000 HD 
HETATM   22  O   UNL     1     -11.326  10.657  67.073  1.00  0.00    -0.308 OA 
HETATM   23  C   UNL     1     -11.520  12.567  65.539  1.00  0.00    -0.350 C  
HETATM   24  O   UNL     1     -12.257  14.737  66.206  1.00  0.00    -0.205 OA 
HETATM   25  H   UNL     1     -13.017  11.331  65.243  1.00  0.00     0.000 HD 
HETATM   26  O   UNL     1     -12.864  12.264  65.155  1.00  0.00    -0.522 OA 
HETATM   27  H   UNL     1     -13.148  14.553  65.932  1.00  0.00     0.000 HD 
HETATM   28  C   UNL     1     -11.235  12.093  66.981  1.00  0.00    -0.314 C  
BRANCH  19  29
HETATM   29  C   UNL     1      -9.474  15.854  65.725  1.00  0.00    -0.281 C  
HETATM   30  O   UNL     1      -9.235  16.386  67.029  1.00  0.00    -0.211 OA 
HETATM   31  H   UNL     1      -9.012  17.307  66.957  1.00  0.00     0.000 HD 
ENDBRANCH  19  29
ENDBRANCH  16  17
ENDBRANCH  10  16
ENDBRANCH   3   4
TORSDOF 5
ENDMDL
MODEL      254
REMARK 921   NORMALIZED FREE ENERGY PREDICTED BY IDOCK:   -2.32 KCAL/MOL
REMARK 922        TOTAL FREE ENERGY PREDICTED BY IDOCK:   -4.58 KCAL/MOL
REMARK 923 INTER-LIGAND FREE ENERGY PREDICTED BY IDOCK:   -3.58 KCAL/MOL
REMARK 924 INTRA-LIGAND FREE ENERGY PREDICTED BY IDOCK:   -0.99 KCAL/MOL
REMARK 927      BINDING AFFINITY PREDICTED BY RF-SCORE:    0.00 PKD
ROOT
HETATM    1  O   UNL     1      -7.883   5.740  67.030  1.00  0.00    -0.100 OA 
HETATM    2  H   UNL     1      -7.988   4.884  66.631  1.00  0.00     0.000 HD 
HETATM    3  C   UNL     1      -8.593   6.714  66.265  1.00  0.00    -0.138 C  
ENDROOT
BRANCH   3   4
HETATM    4  C   UNL     1      -8.424   8.093  66.907  1.00  0.00    -0.119 C  
HETATM    5  O   UNL     1      -7.704   8.957  66.007  1.00  0.00    -0.095 OA 
HETATM    6  C   UNL     1      -8.148  10.290  66.273  1.00  0.00    -0.129 C  
HETATM    7  O   UNL     1      -8.043  11.044  65.059  1.00  0.00    -0.368 OA 
HETATM    8  H   UNL     1     -11.373  10.209  65.742  1.00  0.00     0.000 HD 
HETATM    9  C   UNL     1      -9.626  10.178  66.673  1.00  0.00    -0.183 C  
HETATM   10  C   UNL     1      -9.770   8.758  67.222  1.00  0.00    -0.183 C  
HETATM   11  O   UNL     1     -10.458  10.278  65.494  1.00  0.00    -0.206 OA 
HETATM   12  H   UNL     1      -8.338  11.929  65.236  1.00  0.00     0.000 HD 
BRANCH   6  13
HETATM   13  C   UNL     1      -7.249  10.925  67.345  1.00  0.00    -0.094 C  
HETATM   14  H   UNL     1      -5.478  11.761  67.374  1.00  0.00     0.000 HD 
HETATM   15  O   UNL     1      -6.034  11.368  66.711  1.00  0.00    -0.114 OA 
ENDBRANCH   6  13
BRANCH  10  16
HETATM   16  O   UNL     1     -10.044   8.786  68.631  1.00  0.00    -0.178 OA 
BRANCH  16  17
HETATM   17  C   UNL     1      -9.078   8.061  69.409  1.00  0.00    -0.148 C  
HETATM   18  O   UNL     1      -9.541   6.731  69.661  1.00  0.00    -0.149 OA 
HETATM   19  C   UNL     1      -8.583   5.946  70.394  1.00  0.00    -0.135 C  
HETATM   20  C   UNL     1      -8.331   6.566  71.774  1.00  0.00    -0.116 C  
HETATM   21  H   UNL     1      -8.011  10.586  71.211  1.00  0.00     0.000 HD 
HETATM   22  O   UNL     1      -8.200  10.115  70.408  1.00  0.00    -0.107 OA 
HETATM   23  C   UNL     1      -7.798   7.989  71.573  1.00  0.00    -0.100 C  
HETATM   24  O   UNL     1      -9.522   6.673  72.567  1.00  0.00    -0.148 OA 
HETATM   25  H   UNL     1      -7.246   9.483  72.722  1.00  0.00     0.000 HD 
HETATM   26  O   UNL     1      -7.575   8.601  72.847  1.00  0.00    -0.346 OA 
HETATM   27  H   UNL     1      -9.366   7.057  73.422  1.00  0.00     0.000 HD 
HETATM   28  C   UNL     1      -8.771   8.829  70.717  1.00  0.00    -0.189 C  
BRANCH  19  29
HETATM   29  C   UNL     1      -9.106   4.509  70.477  1.00  0.00    -0.115 C  
HETATM   30  O   UNL     1      -9.218   3.969  69.160  1.00  0.00    -0.124 OA 
HETATM   31  H   UNL     1      -9.542   3.078  69.211  1.00  0.00     0.000 HD 
ENDBRANCH  19  29
ENDBRANCH  16  17
ENDBRANCH  10  16
ENDBRANCH   3   4
TORSDOF 5
ENDMDL
MODEL      255
REMARK 921   NORMALIZED FREE ENERGY PREDICTED BY IDOCK:   -2.31 KCAL/MOL
REMARK 922        TOTAL FREE ENERGY PREDICTED BY IDOCK:   -4.57 KCAL/MOL
REMARK 923 INTER-LIGAND FREE ENERGY PREDICTED BY IDOCK:   -3.80 KCAL/MOL
REMARK 924 INTRA-LIGAND FREE ENERGY PREDICTED BY IDOCK:   -0.78 KCAL/MOL
REMARK 927      BINDING AFFINITY PREDICTED BY RF-SCORE:    0.00 PKD
ROOT
HETATM    1  O   UNL     1     -11.187   4.017  73.287  1.00  0.00    -0.222 OA 
HETATM    2  H   UNL     1     -11.823   3.313  73.331  1.00  0.00     0.000 HD 
HETATM    3  C   UNL     1     -11.805   5.187  72.752  1.00  0.00    -0.033 C  
ENDROOT
BRANCH   3   4
HETATM    4  C   UNL     1     -10.780   6.322  72.680  1.00  0.00    -0.232 C  
HETATM    5  O   UNL     1      -9.586   5.936  73.387  1.00  0.00    -0.142 OA 
HETATM    6  C   UNL     1      -8.498   6.619  72.759  1.00  0.00    -0.119 C  
HETATM    7  O   UNL     1      -7.323   5.812  72.908  1.00  0.00    -0.089 OA 
HETATM    8  H   UNL     1      -8.581   5.619  69.647  1.00  0.00     0.000 HD 
HETATM    9  C   UNL     1      -8.857   6.719  71.270  1.00  0.00    -0.136 C  
HETATM   10  C   UNL     1     -10.385   6.660  71.238  1.00  0.00    -0.205 C  
HETATM   11  O   UNL     1      -8.359   5.557  70.569  1.00  0.00    -0.111 OA 
HETATM   12  H   UNL     1      -6.600   6.266  72.490  1.00  0.00     0.000 HD 
BRANCH   6  13
HETATM   13  C   UNL     1      -8.275   7.973  73.449  1.00  0.00    -0.202 C  
HETATM   14  H   UNL     1      -7.230   8.613  74.976  1.00  0.00     0.000 HD 
HETATM   15  O   UNL     1      -7.367   7.776  74.549  1.00  0.00    -0.128 OA 
ENDBRANCH   6  13
BRANCH  10  16
HETATM   16  O   UNL     1     -10.931   7.916  70.806  1.00  0.00    -0.242 OA 
BRANCH  16  17
HETATM   17  C   UNL     1     -11.144   7.981  69.388  1.00  0.00     0.095 C  
HETATM   18  O   UNL     1     -10.793   6.736  68.775  1.00  0.00    -0.232 OA 
HETATM   19  C   UNL     1     -11.038   6.733  67.357  1.00  0.00    -0.295 C  
HETATM   20  C   UNL     1     -10.173   7.795  66.664  1.00  0.00    -0.218 C  
HETATM   21  H   UNL     1     -10.337  11.136  68.987  1.00  0.00     0.000 HD 
HETATM   22  O   UNL     1     -10.823  10.407  69.354  1.00  0.00    -0.215 OA 
HETATM   23  C   UNL     1     -10.526   9.165  67.255  1.00  0.00    -0.265 C  
HETATM   24  O   UNL     1      -8.767   7.598  66.876  1.00  0.00    -0.122 OA 
HETATM   25  H   UNL     1      -9.936  11.022  67.010  1.00  0.00     0.000 HD 
HETATM   26  O   UNL     1      -9.717  10.173  66.643  1.00  0.00    -0.176 OA 
HETATM   27  H   UNL     1      -8.231   8.255  66.448  1.00  0.00     0.000 HD 
HETATM   28  C   UNL     1     -10.351   9.168  68.789  1.00  0.00    -0.214 C  
BRANCH  19  29
HETATM   29  C   UNL     1     -10.776   5.320  66.829  1.00  0.00    -0.164 C  
HETATM   30  O   UNL     1      -9.461   4.910  67.206  1.00  0.00    -0.128 OA 
HETATM   31  H   UNL     1      -9.298   4.034  66.879  1.00  0.00     0.000 HD 
ENDBRANCH  19  29
ENDBRANCH  16  17
ENDBRANCH  10  16
ENDBRANCH   3   4
TORSDOF 5
ENDMDL
MODEL      256
REMARK 921   NORMALIZED FREE ENERGY PREDICTED BY IDOCK:   -2.31 KCAL/MOL
REMARK 922        TOTAL FREE ENERGY PREDICTED BY IDOCK:   -4.56 KCAL/MOL
REMARK 923 INTER-LIGAND FREE ENERGY PREDICTED BY IDOCK:   -3.95 KCAL/MOL
REMARK 924 INTRA-LIGAND FREE ENERGY PREDICTED BY IDOCK:   -0.62 KCAL/MOL
REMARK 927      BINDING AFFINITY PREDICTED BY RF-SCORE:    0.00 PKD
ROOT
HETATM    1  O   UNL     1      -9.866   2.749  69.556  1.00  0.00     0.053 OA 
HETATM    2  H   UNL     1     -10.259   2.468  70.374  1.00  0.00     0.000 HD 
HETATM    3  C   UNL     1      -9.578   4.146  69.617  1.00  0.00    -0.207 C  
ENDROOT
BRANCH   3   4
HETATM    4  C   UNL     1      -8.946   4.598  68.299  1.00  0.00    -0.114 C  
HETATM    5  O   UNL     1      -8.927   3.496  67.372  1.00  0.00    -0.120 OA 
HETATM    6  C   UNL     1      -9.005   4.060  66.061  1.00  0.00    -0.129 C  
HETATM    7  O   UNL     1      -9.662   3.113  65.210  1.00  0.00    -0.322 OA 
HETATM    8  H   UNL     1     -11.803   5.750  66.054  1.00  0.00     0.000 HD 
HETATM    9  C   UNL     1      -9.876   5.317  66.186  1.00  0.00    -0.165 C  
HETATM   10  C   UNL     1      -9.721   5.749  67.645  1.00  0.00    -0.119 C  
HETATM   11  O   UNL     1     -11.264   4.971  65.977  1.00  0.00    -0.053 OA 
HETATM   12  H   UNL     1      -9.715   3.487  64.338  1.00  0.00     0.000 HD 
BRANCH   6  13
HETATM   13  C   UNL     1      -7.588   4.322  65.530  1.00  0.00    -0.085 C  
HETATM   14  H   UNL     1      -6.113   3.218  64.866  1.00  0.00     0.000 HD 
HETATM   15  O   UNL     1      -6.989   3.056  65.195  1.00  0.00    -0.050 OA 
ENDBRANCH   6  13
BRANCH  10  16
HETATM   16  O   UNL     1      -9.015   6.996  67.732  1.00  0.00    -0.123 OA 
BRANCH  16  17
HETATM   17  C   UNL     1      -9.880   8.140  67.663  1.00  0.00    -0.169 C  
HETATM   18  O   UNL     1      -9.263   9.183  66.902  1.00  0.00    -0.140 OA 
HETATM   19  C   UNL     1     -10.113  10.336  66.758  1.00  0.00    -0.216 C  
HETATM   20  C   UNL     1     -10.416  10.948  68.132  1.00  0.00    -0.182 C  
HETATM   21  H   UNL     1     -11.206   7.846  70.650  1.00  0.00     0.000 HD 
HETATM   22  O   UNL     1     -10.975   7.561  69.773  1.00  0.00    -0.244 OA 
HETATM   23  C   UNL     1     -11.112   9.886  68.991  1.00  0.00    -0.146 C  
HETATM   24  O   UNL     1      -9.234  11.350  68.840  1.00  0.00    -0.347 OA 
HETATM   25  H   UNL     1     -11.817   9.765  70.820  1.00  0.00     0.000 HD 
HETATM   26  O   UNL     1     -11.386  10.423  70.288  1.00  0.00    -0.284 OA 
HETATM   27  H   UNL     1      -9.421  11.729  69.691  1.00  0.00     0.000 HD 
HETATM   28  C   UNL     1     -10.255   8.606  69.091  1.00  0.00    -0.208 C  
BRANCH  19  29
HETATM   29  C   UNL     1      -9.427  11.322  65.809  1.00  0.00    -0.227 C  
HETATM   30  O   UNL     1      -8.064  11.487  66.203  1.00  0.00    -0.351 OA 
HETATM   31  H   UNL     1      -7.638  12.099  65.615  1.00  0.00     0.000 HD 
ENDBRANCH  19  29
ENDBRANCH  16  17
ENDBRANCH  10  16
ENDBRANCH   3   4
TORSDOF 5
ENDMDL
MODEL      257
REMARK 921   NORMALIZED FREE ENERGY PREDICTED BY IDOCK:   -2.25 KCAL/MOL
REMARK 922        TOTAL FREE ENERGY PREDICTED BY IDOCK:   -4.49 KCAL/MOL
REMARK 923 INTER-LIGAND FREE ENERGY PREDICTED BY IDOCK:   -3.32 KCAL/MOL
REMARK 924 INTRA-LIGAND FREE ENERGY PREDICTED BY IDOCK:   -1.17 KCAL/MOL
REMARK 927      BINDING AFFINITY PREDICTED BY RF-SCORE:    0.00 PKD
ROOT
HETATM    1  O   UNL     1      -7.703   8.654  66.636  1.00  0.00    -0.094 OA 
HETATM    2  H   UNL     1      -7.550   9.022  65.774  1.00  0.00     0.000 HD 
HETATM    3  C   UNL     1      -8.484   9.561  67.414  1.00  0.00    -0.125 C  
ENDROOT
BRANCH   3   4
HETATM    4  C   UNL     1      -8.729   8.968  68.803  1.00  0.00    -0.136 C  
HETATM    5  O   UNL     1      -9.886   9.590  69.393  1.00  0.00    -0.170 OA 
HETATM    6  C   UNL     1     -10.470   8.623  70.270  1.00  0.00    -0.210 C  
HETATM    7  O   UNL     1     -11.880   8.872  70.327  1.00  0.00    -0.470 OA 
HETATM    8  H   UNL     1     -11.171   6.078  68.342  1.00  0.00     0.000 HD 
HETATM    9  C   UNL     1     -10.224   7.254  69.623  1.00  0.00    -0.211 C  
HETATM   10  C   UNL     1      -8.981   7.456  68.755  1.00  0.00    -0.129 C  
HETATM   11  O   UNL     1     -11.323   6.926  68.742  1.00  0.00    -0.080 OA 
HETATM   12  H   UNL     1     -12.269   8.229  70.909  1.00  0.00     0.000 HD 
BRANCH   6  13
HETATM   13  C   UNL     1      -9.870   8.776  71.675  1.00  0.00    -0.308 C  
HETATM   14  H   UNL     1      -9.296   7.555  73.095  1.00  0.00     0.000 HD 
HETATM   15  O   UNL     1      -9.667   7.461  72.226  1.00  0.00    -0.151 OA 
ENDBRANCH   6  13
BRANCH  10  16
HETATM   16  O   UNL     1      -7.873   6.705  69.275  1.00  0.00    -0.106 OA 
BRANCH  16  17
HETATM   17  C   UNL     1      -7.534   5.567  68.467  1.00  0.00    -0.076 C  
HETATM   18  O   UNL     1      -8.201   5.639  67.203  1.00  0.00    -0.102 OA 
HETATM   19  C   UNL     1      -7.852   4.545  66.335  1.00  0.00    -0.099 C  
HETATM   20  C   UNL     1      -8.287   3.211  66.958  1.00  0.00    -0.090 C  
HETATM   21  H   UNL     1      -7.291   3.382  70.903  1.00  0.00     0.000 HD 
HETATM   22  O   UNL     1      -7.086   4.183  70.436  1.00  0.00    -0.040 OA 
HETATM   23  C   UNL     1      -7.577   3.056  68.308  1.00  0.00    -0.052 C  
HETATM   24  O   UNL     1      -9.697   3.146  67.216  1.00  0.00    -0.371 OA 
HETATM   25  H   UNL     1      -7.543   1.735  69.760  1.00  0.00     0.000 HD 
HETATM   26  O   UNL     1      -7.982   1.830  68.924  1.00  0.00    -0.046 OA 
HETATM   27  H   UNL     1      -9.966   2.321  67.602  1.00  0.00     0.000 HD 
HETATM   28  C   UNL     1      -7.869   4.261  69.228  1.00  0.00    -0.057 C  
BRANCH  19  29
HETATM   29  C   UNL     1      -8.494   4.795  64.968  1.00  0.00    -0.137 C  
HETATM   30  O   UNL     1      -7.535   4.535  63.941  1.00  0.00    -0.057 OA 
HETATM   31  H   UNL     1      -7.933   4.690  63.093  1.00  0.00     0.000 HD 
ENDBRANCH  19  29
ENDBRANCH  16  17
ENDBRANCH  10  16
ENDBRANCH   3   4
TORSDOF 5
ENDMDL
MODEL      258
REMARK 921   NORMALIZED FREE ENERGY PREDICTED BY IDOCK:   -2.25 KCAL/MOL
REMARK 922        TOTAL FREE ENERGY PREDICTED BY IDOCK:   -4.48 KCAL/MOL
REMARK 923 INTER-LIGAND FREE ENERGY PREDICTED BY IDOCK:   -3.84 KCAL/MOL
REMARK 924 INTRA-LIGAND FREE ENERGY PREDICTED BY IDOCK:   -0.64 KCAL/MOL
REMARK 927      BINDING AFFINITY PREDICTED BY RF-SCORE:    0.00 PKD
ROOT
HETATM    1  O   UNL     1     -10.108   8.729  71.943  1.00  0.00    -0.295 OA 
HETATM    2  H   UNL     1     -10.413   8.462  72.803  1.00  0.00     0.000 HD 
HETATM    3  C   UNL     1     -10.982   8.210  70.943  1.00  0.00    -0.242 C  
ENDROOT
BRANCH   3   4
HETATM    4  C   UNL     1     -10.491   8.640  69.558  1.00  0.00    -0.220 C  
HETATM    5  O   UNL     1     -10.629  10.067  69.422  1.00  0.00    -0.204 OA 
HETATM    6  C   UNL     1      -9.605  10.495  68.521  1.00  0.00    -0.163 C  
HETATM    7  O   UNL     1      -9.244  11.838  68.866  1.00  0.00    -0.393 OA 
HETATM    8  H   UNL     1      -6.813   9.562  69.941  1.00  0.00     0.000 HD 
HETATM    9  C   UNL     1      -8.405   9.570  68.765  1.00  0.00    -0.117 C  
HETATM   10  C   UNL     1      -9.017   8.285  69.327  1.00  0.00    -0.147 C  
HETATM   11  O   UNL     1      -7.556  10.134  69.790  1.00  0.00    -0.141 OA 
HETATM   12  H   UNL     1      -8.563  12.122  68.267  1.00  0.00     0.000 HD 
BRANCH   6  13
HETATM   13  C   UNL     1     -10.143  10.467  67.082  1.00  0.00    -0.209 C  
HETATM   14  H   UNL     1      -9.812  11.484  65.442  1.00  0.00     0.000 HD 
HETATM   15  O   UNL     1      -9.480  11.501  66.332  1.00  0.00    -0.200 OA 
ENDBRANCH   6  13
BRANCH  10  16
HETATM   16  O   UNL     1      -8.860   7.202  68.399  1.00  0.00    -0.128 OA 
BRANCH  16  17
HETATM   17  C   UNL     1      -9.356   5.951  68.901  1.00  0.00    -0.126 C  
HETATM   18  O   UNL     1      -8.795   5.676  70.189  1.00  0.00    -0.133 OA 
HETATM   19  C   UNL     1      -9.303   4.456  70.759  1.00  0.00    -0.154 C  
HETATM   20  C   UNL     1      -8.926   3.258  69.878  1.00  0.00    -0.108 C  
HETATM   21  H   UNL     1      -9.567   4.395  66.020  1.00  0.00     0.000 HD 
HETATM   22  O   UNL     1      -9.746   5.089  66.644  1.00  0.00    -0.145 OA 
HETATM   23  C   UNL     1      -9.529   3.476  68.485  1.00  0.00    -0.141 C  
HETATM   24  O   UNL     1      -7.509   3.115  69.703  1.00  0.00    -0.044 OA 
HETATM   25  H   UNL     1      -9.546   2.519  66.770  1.00  0.00     0.000 HD 
HETATM   26  O   UNL     1      -9.173   2.383  67.633  1.00  0.00    -0.170 OA 
HETATM   27  H   UNL     1      -7.275   2.373  69.157  1.00  0.00     0.000 HD 
HETATM   28  C   UNL     1      -9.064   4.821  67.885  1.00  0.00    -0.116 C  
BRANCH  19  29
HETATM   29  C   UNL     1      -8.761   4.334  72.186  1.00  0.00    -0.108 C  
HETATM   30  O   UNL     1      -9.239   5.429  72.969  1.00  0.00    -0.134 OA 
HETATM   31  H   UNL     1      -8.904   5.353  73.854  1.00  0.00     0.000 HD 
ENDBRANCH  19  29
ENDBRANCH  16  17
ENDBRANCH  10  16
ENDBRANCH   3   4
TORSDOF 5
ENDMDL
MODEL      259
REMARK 921   NORMALIZED FREE ENERGY PREDICTED BY IDOCK:   -2.10 KCAL/MOL
REMARK 922        TOTAL FREE ENERGY PREDICTED BY IDOCK:   -4.30 KCAL/MOL
REMARK 923 INTER-LIGAND FREE ENERGY PREDICTED BY IDOCK:   -5.07 KCAL/MOL
REMARK 924 INTRA-LIGAND FREE ENERGY PREDICTED BY IDOCK:    0.77 KCAL/MOL
REMARK 927      BINDING AFFINITY PREDICTED BY RF-SCORE:    0.00 PKD
ROOT
HETATM    1  O   UNL     1      -8.886  10.392  64.810  1.00  0.00    -0.175 OA 
HETATM    2  H   UNL     1      -8.333   9.814  64.297  1.00  0.00     0.000 HD 
HETATM    3  C   UNL     1      -9.060  11.627  64.116  1.00  0.00     0.288 C  
ENDROOT
BRANCH   3   4
HETATM    4  C   UNL     1      -9.950  12.559  64.943  1.00  0.00    -0.167 C  
HETATM    5  O   UNL     1     -10.976  11.788  65.596  1.00  0.00    -0.293 OA 
HETATM    6  C   UNL     1     -11.304  12.481  66.803  1.00  0.00    -0.334 C  
HETATM    7  O   UNL     1     -11.736  11.512  67.766  1.00  0.00    -0.514 OA 
HETATM    8  H   UNL     1      -8.492  12.623  68.464  1.00  0.00     0.000 HD 
HETATM    9  C   UNL     1     -10.003  13.133  67.291  1.00  0.00    -0.230 C  
HETATM   10  C   UNL     1      -9.162  13.308  66.025  1.00  0.00     0.106 C  
HETATM   11  O   UNL     1      -9.297  12.220  68.162  1.00  0.00    -0.196 OA 
HETATM   12  H   UNL     1     -11.954  11.971  68.569  1.00  0.00     0.000 HD 
BRANCH   6  13
HETATM   13  C   UNL     1     -12.446  13.472  66.532  1.00  0.00    -0.253 C  
HETATM   14  H   UNL     1     -13.771  13.730  65.114  1.00  0.00     0.000 HD 
HETATM   15  O   UNL     1     -13.065  13.117  65.282  1.00  0.00    -0.678 OA 
ENDBRANCH   6  13
BRANCH  10  16
HETATM   16  O   UNL     1      -9.002  14.700  65.713  1.00  0.00     0.101 OA 
BRANCH  16  17
HETATM   17  C   UNL     1      -8.774  15.516  66.872  1.00  0.00    -0.250 C  
HETATM   18  O   UNL     1      -9.868  15.395  67.787  1.00  0.00    -0.219 OA 
HETATM   19  C   UNL     1      -9.663  16.155  68.992  1.00  0.00    -0.248 C  
HETATM   20  C   UNL     1      -9.557  17.651  68.667  1.00  0.00    -0.307 C  
HETATM   21  H   UNL     1      -7.203  17.966  65.359  1.00  0.00     0.000 HD 
HETATM   22  O   UNL     1      -7.352  17.066  65.621  1.00  0.00    -0.054 OA 
HETATM   23  C   UNL     1      -8.375  17.854  67.711  1.00  0.00    -0.241 C  
HETATM   24  O   UNL     1     -10.723  18.165  68.006  1.00  0.00    -0.374 OA 
HETATM   25  H   UNL     1      -7.535  19.365  66.779  1.00  0.00     0.000 HD 
HETATM   26  O   UNL     1      -8.267  19.240  67.372  1.00  0.00    -0.274 OA 
HETATM   27  H   UNL     1     -10.657  19.091  67.805  1.00  0.00     0.000 HD 
HETATM   28  C   UNL     1      -8.531  16.984  66.445  1.00  0.00    -0.283 C  
BRANCH  19  29
HETATM   29  C   UNL     1     -10.808  15.840  69.958  1.00  0.00    -0.342 C  
HETATM   30  O   UNL     1     -11.994  16.503  69.517  1.00  0.00    -0.132 OA 
HETATM   31  H   UNL     1     -12.705  16.307  70.116  1.00  0.00     0.000 HD 
ENDBRANCH  19  29
ENDBRANCH  16  17
ENDBRANCH  10  16
ENDBRANCH   3   4
TORSDOF 5
ENDMDL
MODEL      260
REMARK 921   NORMALIZED FREE ENERGY PREDICTED BY IDOCK:   -2.06 KCAL/MOL
REMARK 922        TOTAL FREE ENERGY PREDICTED BY IDOCK:   -4.24 KCAL/MOL
REMARK 923 INTER-LIGAND FREE ENERGY PREDICTED BY IDOCK:   -3.26 KCAL/MOL
REMARK 924 INTRA-LIGAND FREE ENERGY PREDICTED BY IDOCK:   -0.98 KCAL/MOL
REMARK 927      BINDING AFFINITY PREDICTED BY RF-SCORE:    0.00 PKD
ROOT
HETATM    1  O   UNL     1      -8.110   8.796  67.682  1.00  0.00    -0.105 OA 
HETATM    2  H   UNL     1      -7.850   9.049  66.804  1.00  0.00     0.000 HD 
HETATM    3  C   UNL     1      -9.246   9.561  68.084  1.00  0.00    -0.129 C  
ENDROOT
BRANCH   3   4
HETATM    4  C   UNL     1      -9.664   9.154  69.500  1.00  0.00    -0.173 C  
HETATM    5  O   UNL     1     -11.063   9.443  69.688  1.00  0.00    -0.222 OA 
HETATM    6  C   UNL     1     -11.554   8.492  70.637  1.00  0.00    -0.194 C  
HETATM    7  O   UNL     1     -12.940   8.262  70.357  1.00  0.00     0.033 OA 
HETATM    8  H   UNL     1     -10.972   5.581  69.267  1.00  0.00     0.000 HD 
HETATM    9  C   UNL     1     -10.767   7.197  70.393  1.00  0.00    -0.235 C  
HETATM   10  C   UNL     1      -9.452   7.658  69.762  1.00  0.00    -0.156 C  
HETATM   11  O   UNL     1     -11.458   6.383  69.418  1.00  0.00    -0.401 OA 
HETATM   12  H   UNL     1     -13.267   7.631  70.987  1.00  0.00     0.000 HD 
BRANCH   6  13
HETATM   13  C   UNL     1     -11.410   9.062  72.056  1.00  0.00    -0.324 C  
HETATM   14  H   UNL     1     -11.927   8.491  73.856  1.00  0.00     0.000 HD 
HETATM   15  O   UNL     1     -12.016   8.138  72.978  1.00  0.00    -0.269 OA 
ENDBRANCH   6  13
BRANCH  10  16
HETATM   16  O   UNL     1      -8.351   7.415  70.651  1.00  0.00    -0.124 OA 
BRANCH  16  17
HETATM   17  C   UNL     1      -7.757   6.120  70.471  1.00  0.00    -0.101 C  
HETATM   18  O   UNL     1      -7.822   5.731  69.095  1.00  0.00    -0.088 OA 
HETATM   19  C   UNL     1      -7.190   4.460  68.854  1.00  0.00    -0.052 C  
HETATM   20  C   UNL     1      -7.909   3.351  69.633  1.00  0.00    -0.050 C  
HETATM   21  H   UNL     1      -8.670   4.836  73.348  1.00  0.00     0.000 HD 
HETATM   22  O   UNL     1      -8.249   5.468  72.778  1.00  0.00    -0.109 OA 
HETATM   23  C   UNL     1      -7.846   3.693  71.127  1.00  0.00    -0.059 C  
HETATM   24  O   UNL     1      -9.298   3.234  69.289  1.00  0.00    -0.149 OA 
HETATM   25  H   UNL     1      -8.492   2.898  72.803  1.00  0.00     0.000 HD 
HETATM   26  O   UNL     1      -8.531   2.686  71.878  1.00  0.00    -0.057 OA 
HETATM   27  H   UNL     1      -9.743   2.547  69.772  1.00  0.00     0.000 HD 
HETATM   28  C   UNL     1      -8.443   5.090  71.401  1.00  0.00    -0.119 C  
BRANCH  19  29
HETATM   29  C   UNL     1      -7.180   4.210  67.343  1.00  0.00    -0.068 C  
HETATM   30  O   UNL     1      -8.475   4.490  66.809  1.00  0.00    -0.106 OA 
HETATM   31  H   UNL     1      -8.469   4.335  65.872  1.00  0.00     0.000 HD 
ENDBRANCH  19  29
ENDBRANCH  16  17
ENDBRANCH  10  16
ENDBRANCH   3   4
TORSDOF 5
ENDMDL
MODEL      261
REMARK 921   NORMALIZED FREE ENERGY PREDICTED BY IDOCK:   -1.92 KCAL/MOL
REMARK 922        TOTAL FREE ENERGY PREDICTED BY IDOCK:   -4.07 KCAL/MOL
REMARK 923 INTER-LIGAND FREE ENERGY PREDICTED BY IDOCK:   -3.57 KCAL/MOL
REMARK 924 INTRA-LIGAND FREE ENERGY PREDICTED BY IDOCK:   -0.50 KCAL/MOL
REMARK 927      BINDING AFFINITY PREDICTED BY RF-SCORE:    0.00 PKD
ROOT
HETATM    1  O   UNL     1      -9.093   5.147  66.113  1.00  0.00    -0.135 OA 
HETATM    2  H   UNL     1      -9.616   4.357  66.188  1.00  0.00     0.000 HD 
HETATM    3  C   UNL     1      -9.835   6.261  66.608  1.00  0.00    -0.154 C  
ENDROOT
BRANCH   3   4
HETATM    4  C   UNL     1      -8.992   7.533  66.486  1.00  0.00    -0.162 C  
HETATM    5  O   UNL     1      -8.970   7.964  65.112  1.00  0.00     0.051 OA 
HETATM    6  C   UNL     1      -8.818   9.386  65.130  1.00  0.00    -0.195 C  
HETATM    7  O   UNL     1      -9.455   9.914  63.960  1.00  0.00    -0.339 OA 
HETATM    8  H   UNL     1     -11.399  10.471  66.818  1.00  0.00     0.000 HD 
HETATM    9  C   UNL     1      -9.561   9.881  66.378  1.00  0.00    -0.200 C  
HETATM   10  C   UNL     1      -9.552   8.684  67.331  1.00  0.00    -0.159 C  
HETATM   11  O   UNL     1     -10.939  10.164  66.045  1.00  0.00     0.130 OA 
HETATM   12  H   UNL     1      -9.355  10.859  63.972  1.00  0.00     0.000 HD 
BRANCH   6  13
HETATM   13  C   UNL     1      -7.324   9.743  65.099  1.00  0.00    -0.122 C  
HETATM   14  H   UNL     1      -5.972   9.998  63.705  1.00  0.00     0.000 HD 
HETATM   15  O   UNL     1      -6.896   9.778  63.725  1.00  0.00    -0.109 OA 
ENDBRANCH   6  13
BRANCH  10  16
HETATM   16  O   UNL     1      -8.736   8.959  68.480  1.00  0.00    -0.132 OA 
BRANCH  16  17
HETATM   17  C   UNL     1      -9.143   8.230  69.649  1.00  0.00    -0.154 C  
HETATM   18  O   UNL     1      -8.590   6.909  69.626  1.00  0.00    -0.132 OA 
HETATM   19  C   UNL     1      -8.927   6.154  70.804  1.00  0.00    -0.143 C  
HETATM   20  C   UNL     1     -10.446   5.966  70.901  1.00  0.00    -0.244 C  
HETATM   21  H   UNL     1     -12.132   9.549  69.948  1.00  0.00     0.000 HD 
HETATM   22  O   UNL     1     -11.184   9.559  69.886  1.00  0.00    -0.234 OA 
HETATM   23  C   UNL     1     -11.101   7.352  70.962  1.00  0.00    -0.258 C  
HETATM   24  O   UNL     1     -11.002   5.291  69.763  1.00  0.00    -0.149 OA 
HETATM   25  H   UNL     1     -12.927   8.066  71.067  1.00  0.00     0.000 HD 
HETATM   26  O   UNL     1     -12.522   7.207  71.030  1.00  0.00    -0.357 OA 
HETATM   27  H   UNL     1     -11.943   5.175  69.822  1.00  0.00     0.000 HD 
HETATM   28  C   UNL     1     -10.687   8.213  69.750  1.00  0.00    -0.229 C  
BRANCH  19  29
HETATM   29  C   UNL     1      -8.169   4.824  70.753  1.00  0.00    -0.086 C  
HETATM   30  O   UNL     1      -7.381   4.775  69.562  1.00  0.00    -0.054 OA 
HETATM   31  H   UNL     1      -6.911   3.950  69.530  1.00  0.00     0.000 HD 
ENDBRANCH  19  29
ENDBRANCH  16  17
ENDBRANCH  10  16
ENDBRANCH   3   4
TORSDOF 5
ENDMDL
MODEL      262
REMARK 921   NORMALIZED FREE ENERGY PREDICTED BY IDOCK:   -1.85 KCAL/MOL
REMARK 922        TOTAL FREE ENERGY PREDICTED BY IDOCK:   -3.98 KCAL/MOL
REMARK 923 INTER-LIGAND FREE ENERGY PREDICTED BY IDOCK:   -3.72 KCAL/MOL
REMARK 924 INTRA-LIGAND FREE ENERGY PREDICTED BY IDOCK:   -0.26 KCAL/MOL
REMARK 927      BINDING AFFINITY PREDICTED BY RF-SCORE:    0.00 PKD
ROOT
HETATM    1  O   UNL     1     -10.030   4.385  65.591  1.00  0.00    -0.201 OA 
HETATM    2  H   UNL     1     -10.828   3.999  65.250  1.00  0.00     0.000 HD 
HETATM    3  C   UNL     1     -10.332   5.623  66.233  1.00  0.00    -0.121 C  
ENDROOT
BRANCH   3   4
HETATM    4  C   UNL     1      -9.045   6.245  66.782  1.00  0.00    -0.135 C  
HETATM    5  O   UNL     1      -8.452   7.088  65.775  1.00  0.00    -0.144 OA 
HETATM    6  C   UNL     1      -7.742   8.117  66.467  1.00  0.00    -0.093 C  
HETATM    7  O   UNL     1      -7.739   9.288  65.640  1.00  0.00    -0.093 OA 
HETATM    8  H   UNL     1     -10.013   9.614  68.281  1.00  0.00     0.000 HD 
HETATM    9  C   UNL     1      -8.540   8.404  67.747  1.00  0.00    -0.130 C  
HETATM   10  C   UNL     1      -9.299   7.105  68.026  1.00  0.00    -0.129 C  
HETATM   11  O   UNL     1      -9.519   9.436  67.489  1.00  0.00    -0.126 OA 
HETATM   12  H   UNL     1      -7.267   9.972  66.100  1.00  0.00     0.000 HD 
BRANCH   6  13
HETATM   13  C   UNL     1      -6.294   7.665  66.713  1.00  0.00    -0.049 C  
HETATM   14  H   UNL     1      -4.672   7.507  65.627  1.00  0.00     0.000 HD 
HETATM   15  O   UNL     1      -5.567   7.787  65.476  1.00  0.00    -0.035 OA 
ENDBRANCH   6  13
BRANCH  10  16
HETATM   16  O   UNL     1      -8.811   6.482  69.223  1.00  0.00    -0.132 OA 
BRANCH  16  17
HETATM   17  C   UNL     1      -9.381   7.035  70.420  1.00  0.00    -0.159 C  
HETATM   18  O   UNL     1      -8.443   6.956  71.499  1.00  0.00    -0.114 OA 
HETATM   19  C   UNL     1      -8.949   7.546  72.710  1.00  0.00    -0.148 C  
HETATM   20  C   UNL     1     -10.197   6.793  73.190  1.00  0.00    -0.230 C  
HETATM   21  H   UNL     1     -12.476   6.083  69.890  1.00  0.00     0.000 HD 
HETATM   22  O   UNL     1     -11.659   6.524  69.687  1.00  0.00    -0.376 OA 
HETATM   23  C   UNL     1     -11.259   6.868  72.086  1.00  0.00    -0.258 C  
HETATM   24  O   UNL     1      -9.950   5.401  73.439  1.00  0.00    -0.163 OA 
HETATM   25  H   UNL     1     -13.085   6.199  71.814  1.00  0.00     0.000 HD 
HETATM   26  O   UNL     1     -12.427   6.153  72.497  1.00  0.00    -0.096 OA 
HETATM   27  H   UNL     1     -10.722   4.934  73.735  1.00  0.00     0.000 HD 
HETATM   28  C   UNL     1     -10.712   6.317  70.752  1.00  0.00    -0.256 C  
BRANCH  19  29
HETATM   29  C   UNL     1      -7.823   7.548  73.748  1.00  0.00    -0.131 C  
HETATM   30  O   UNL     1      -7.396   8.890  73.980  1.00  0.00    -0.402 OA 
HETATM   31  H   UNL     1      -6.697   8.891  74.623  1.00  0.00     0.000 HD 
ENDBRANCH  19  29
ENDBRANCH  16  17
ENDBRANCH  10  16
ENDBRANCH   3   4
TORSDOF 5
ENDMDL
MODEL      263
REMARK 921   NORMALIZED FREE ENERGY PREDICTED BY IDOCK:   -1.77 KCAL/MOL
REMARK 922        TOTAL FREE ENERGY PREDICTED BY IDOCK:   -3.86 KCAL/MOL
REMARK 923 INTER-LIGAND FREE ENERGY PREDICTED BY IDOCK:   -4.20 KCAL/MOL
REMARK 924 INTRA-LIGAND FREE ENERGY PREDICTED BY IDOCK:    0.33 KCAL/MOL
REMARK 927      BINDING AFFINITY PREDICTED BY RF-SCORE:    0.00 PKD
ROOT
HETATM    1  O   UNL     1     -11.003  10.571  65.897  1.00  0.00     0.019 OA 
HETATM    2  H   UNL     1     -11.126   9.947  65.191  1.00  0.00     0.000 HD 
HETATM    3  C   UNL     1     -10.669  11.848  65.355  1.00  0.00    -0.283 C  
ENDROOT
BRANCH   3   4
HETATM    4  C   UNL     1     -10.471  12.853  66.492  1.00  0.00    -0.265 C  
HETATM    5  O   UNL     1     -11.644  12.868  67.328  1.00  0.00    -0.319 OA 
HETATM    6  C   UNL     1     -11.206  13.219  68.644  1.00  0.00    -0.274 C  
HETATM    7  O   UNL     1     -12.096  12.605  69.585  1.00  0.00    -0.283 OA 
HETATM    8  H   UNL     1      -9.041  10.901  69.438  1.00  0.00     0.000 HD 
HETATM    9  C   UNL     1      -9.804  12.615  68.804  1.00  0.00     0.029 C  
HETATM   10  C   UNL     1      -9.268  12.503  67.376  1.00  0.00    -0.186 C  
HETATM   11  O   UNL     1      -9.909  11.275  69.338  1.00  0.00     0.003 OA 
HETATM   12  H   UNL     1     -11.805  12.837  70.459  1.00  0.00     0.000 HD 
BRANCH   6  13
HETATM   13  C   UNL     1     -11.262  14.744  68.813  1.00  0.00    -0.270 C  
HETATM   14  H   UNL     1     -12.409  16.188  68.154  1.00  0.00     0.000 HD 
HETATM   15  O   UNL     1     -12.375  15.244  68.049  1.00  0.00     0.123 OA 
ENDBRANCH   6  13
BRANCH  10  16
HETATM   16  O   UNL     1      -8.169  13.404  67.176  1.00  0.00    -0.174 OA 
BRANCH  16  17
HETATM   17  C   UNL     1      -8.314  14.640  67.894  1.00  0.00    -0.152 C  
HETATM   18  O   UNL     1      -8.929  15.628  67.061  1.00  0.00    -0.198 OA 
HETATM   19  C   UNL     1      -9.145  16.872  67.752  1.00  0.00    -0.229 C  
HETATM   20  C   UNL     1      -7.805  17.476  68.193  1.00  0.00    -0.244 C  
HETATM   21  H   UNL     1      -5.572  14.413  69.680  1.00  0.00     0.000 HD 
HETATM   22  O   UNL     1      -6.416  14.128  69.351  1.00  0.00    -0.109 OA 
HETATM   23  C   UNL     1      -7.106  16.474  69.121  1.00  0.00    -0.227 C  
HETATM   24  O   UNL     1      -6.914  17.723  67.096  1.00  0.00    -0.165 OA 
HETATM   25  H   UNL     1      -5.409  16.382  70.103  1.00  0.00     0.000 HD 
HETATM   26  O   UNL     1      -5.842  17.003  69.529  1.00  0.00    -0.177 OA 
HETATM   27  H   UNL     1      -6.084  18.097  67.368  1.00  0.00     0.000 HD 
HETATM   28  C   UNL     1      -6.938  15.104  68.429  1.00  0.00    -0.108 C  
BRANCH  19  29
HETATM   29  C   UNL     1      -9.938  17.801  66.830  1.00  0.00    -0.333 C  
HETATM   30  O   UNL     1      -9.072  18.818  66.326  1.00  0.00    -0.374 OA 
HETATM   31  H   UNL     1      -9.563  19.395  65.753  1.00  0.00     0.000 HD 
ENDBRANCH  19  29
ENDBRANCH  16  17
ENDBRANCH  10  16
ENDBRANCH   3   4
TORSDOF 5
ENDMDL
MODEL      264
REMARK 921   NORMALIZED FREE ENERGY PREDICTED BY IDOCK:   -1.74 KCAL/MOL
REMARK 922        TOTAL FREE ENERGY PREDICTED BY IDOCK:   -3.83 KCAL/MOL
REMARK 923 INTER-LIGAND FREE ENERGY PREDICTED BY IDOCK:   -3.13 KCAL/MOL
REMARK 924 INTRA-LIGAND FREE ENERGY PREDICTED BY IDOCK:   -0.70 KCAL/MOL
REMARK 927      BINDING AFFINITY PREDICTED BY RF-SCORE:    0.00 PKD
ROOT
HETATM    1  O   UNL     1      -6.457  11.216  65.631  1.00  0.00    -0.367 OA 
HETATM    2  H   UNL     1      -6.423  11.876  64.948  1.00  0.00     0.000 HD 
HETATM    3  C   UNL     1      -7.491  10.277  65.339  1.00  0.00    -0.145 C  
ENDROOT
BRANCH   3   4
HETATM    4  C   UNL     1      -7.545   9.214  66.439  1.00  0.00    -0.093 C  
HETATM    5  O   UNL     1      -8.027   9.810  67.659  1.00  0.00    -0.104 OA 
HETATM    6  C   UNL     1      -8.696   8.777  68.386  1.00  0.00    -0.135 C  
HETATM    7  O   UNL     1      -9.726   9.385  69.174  1.00  0.00    -0.157 OA 
HETATM    8  H   UNL     1     -11.068   7.760  66.379  1.00  0.00     0.000 HD 
HETATM    9  C   UNL     1      -9.337   7.860  67.335  1.00  0.00    -0.141 C  
HETATM   10  C   UNL     1      -8.481   8.053  66.082  1.00  0.00    -0.135 C  
HETATM   11  O   UNL     1     -10.671   8.327  67.030  1.00  0.00    -0.307 OA 
HETATM   12  H   UNL     1     -10.171   8.698  69.657  1.00  0.00     0.000 HD 
BRANCH   6  13
HETATM   13  C   UNL     1      -7.695   8.072  69.314  1.00  0.00    -0.102 C  
HETATM   14  H   UNL     1      -6.310   8.643  70.574  1.00  0.00     0.000 HD 
HETATM   15  O   UNL     1      -6.929   9.079  70.000  1.00  0.00    -0.044 OA 
ENDBRANCH   6  13
BRANCH  10  16
HETATM   16  O   UNL     1      -7.760   6.852  65.771  1.00  0.00    -0.090 OA 
BRANCH  16  17
HETATM   17  C   UNL     1      -8.616   5.718  65.558  1.00  0.00    -0.151 C  
HETATM   18  O   UNL     1      -8.587   4.854  66.699  1.00  0.00    -0.110 OA 
HETATM   19  C   UNL     1      -9.471   3.727  66.556  1.00  0.00    -0.187 C  
HETATM   20  C   UNL     1      -9.039   2.859  65.367  1.00  0.00    -0.149 C  
HETATM   21  H   UNL     1      -8.108   5.409  62.332  1.00  0.00     0.000 HD 
HETATM   22  O   UNL     1      -8.361   5.860  63.129  1.00  0.00    -0.095 OA 
HETATM   23  C   UNL     1      -9.080   3.721  64.100  1.00  0.00    -0.128 C  
HETATM   24  O   UNL     1      -7.699   2.363  65.493  1.00  0.00    -0.074 OA 
HETATM   25  H   UNL     1      -8.684   3.477  62.192  1.00  0.00     0.000 HD 
HETATM   26  O   UNL     1      -8.659   2.942  62.977  1.00  0.00    -0.084 OA 
HETATM   27  H   UNL     1      -7.431   1.825  64.757  1.00  0.00     0.000 HD 
HETATM   28  C   UNL     1      -8.204   4.982  64.260  1.00  0.00    -0.128 C  
BRANCH  19  29
HETATM   29  C   UNL     1      -9.481   2.956  67.879  1.00  0.00    -0.148 C  
HETATM   30  O   UNL     1      -8.139   2.637  68.250  1.00  0.00    -0.057 OA 
HETATM   31  H   UNL     1      -8.145   2.158  69.071  1.00  0.00     0.000 HD 
ENDBRANCH  19  29
ENDBRANCH  16  17
ENDBRANCH  10  16
ENDBRANCH   3   4
TORSDOF 5
ENDMDL
MODEL      265
REMARK 921   NORMALIZED FREE ENERGY PREDICTED BY IDOCK:   -1.58 KCAL/MOL
REMARK 922        TOTAL FREE ENERGY PREDICTED BY IDOCK:   -3.63 KCAL/MOL
REMARK 923 INTER-LIGAND FREE ENERGY PREDICTED BY IDOCK:   -3.91 KCAL/MOL
REMARK 924 INTRA-LIGAND FREE ENERGY PREDICTED BY IDOCK:    0.28 KCAL/MOL
REMARK 927      BINDING AFFINITY PREDICTED BY RF-SCORE:    0.00 PKD
ROOT
HETATM    1  O   UNL     1     -10.088   9.156  71.762  1.00  0.00    -0.329 OA 
HETATM    2  H   UNL     1     -10.687   9.323  72.479  1.00  0.00     0.000 HD 
HETATM    3  C   UNL     1     -10.743   8.377  70.762  1.00  0.00    -0.212 C  
ENDROOT
BRANCH   3   4
HETATM    4  C   UNL     1      -9.776   8.106  69.606  1.00  0.00    -0.170 C  
HETATM    5  O   UNL     1      -9.371   6.725  69.633  1.00  0.00    -0.145 OA 
HETATM    6  C   UNL     1      -9.090   6.352  68.281  1.00  0.00    -0.114 C  
HETATM    7  O   UNL     1      -9.362   4.952  68.141  1.00  0.00    -0.118 OA 
HETATM    8  H   UNL     1     -11.890   6.882  66.679  1.00  0.00     0.000 HD 
HETATM    9  C   UNL     1     -10.067   7.148  67.405  1.00  0.00    -0.202 C  
HETATM   10  C   UNL     1     -10.412   8.383  68.238  1.00  0.00    -0.163 C  
HETATM   11  O   UNL     1     -11.284   6.390  67.222  1.00  0.00    -0.364 OA 
HETATM   12  H   UNL     1      -9.175   4.705  67.243  1.00  0.00     0.000 HD 
BRANCH   6  13
HETATM   13  C   UNL     1      -7.608   6.615  67.975  1.00  0.00    -0.107 C  
HETATM   14  H   UNL     1      -6.347   8.078  68.296  1.00  0.00     0.000 HD 
HETATM   15  O   UNL     1      -7.263   7.916  68.486  1.00  0.00    -0.081 OA 
ENDBRANCH   6  13
BRANCH  10  16
HETATM   16  O   UNL     1      -9.885   9.570  67.626  1.00  0.00    -0.153 OA 
BRANCH  16  17
HETATM   17  C   UNL     1      -9.773   9.467  66.198  1.00  0.00    -0.265 C  
HETATM   18  O   UNL     1      -8.440   9.094  65.831  1.00  0.00    -0.130 OA 
HETATM   19  C   UNL     1      -8.289   8.926  64.409  1.00  0.00    -0.168 C  
HETATM   20  C   UNL     1      -8.565  10.250  63.684  1.00  0.00    -0.195 C  
HETATM   21  H   UNL     1     -11.859  11.881  65.437  1.00  0.00     0.000 HD 
HETATM   22  O   UNL     1     -11.591  11.065  65.843  1.00  0.00     0.057 OA 
HETATM   23  C   UNL     1      -9.997  10.690  64.011  1.00  0.00    -0.337 C  
HETATM   24  O   UNL     1      -7.695  11.311  64.104  1.00  0.00     0.122 OA 
HETATM   25  H   UNL     1     -11.161  12.208  63.568  1.00  0.00     0.000 HD 
HETATM   26  O   UNL     1     -10.274  11.936  63.365  1.00  0.00    -0.413 OA 
HETATM   27  H   UNL     1      -7.865  12.131  63.655  1.00  0.00     0.000 HD 
HETATM   28  C   UNL     1     -10.209  10.796  65.536  1.00  0.00    -0.266 C  
BRANCH  19  29
HETATM   29  C   UNL     1      -6.883   8.385  64.138  1.00  0.00    -0.074 C  
HETATM   30  O   UNL     1      -6.780   8.003  62.766  1.00  0.00    -0.083 OA 
HETATM   31  H   UNL     1      -5.908   7.667  62.597  1.00  0.00     0.000 HD 
ENDBRANCH  19  29
ENDBRANCH  16  17
ENDBRANCH  10  16
ENDBRANCH   3   4
TORSDOF 5
ENDMDL
MODEL      266
REMARK 921   NORMALIZED FREE ENERGY PREDICTED BY IDOCK:   -1.54 KCAL/MOL
REMARK 922        TOTAL FREE ENERGY PREDICTED BY IDOCK:   -3.58 KCAL/MOL
REMARK 923 INTER-LIGAND FREE ENERGY PREDICTED BY IDOCK:   -3.25 KCAL/MOL
REMARK 924 INTRA-LIGAND FREE ENERGY PREDICTED BY IDOCK:   -0.33 KCAL/MOL
REMARK 927      BINDING AFFINITY PREDICTED BY RF-SCORE:    0.00 PKD
ROOT
HETATM    1  O   UNL     1      -6.319  11.418  66.245  1.00  0.00    -0.313 OA 
HETATM    2  H   UNL     1      -6.153  11.931  65.462  1.00  0.00     0.000 HD 
HETATM    3  C   UNL     1      -7.715  11.137  66.345  1.00  0.00    -0.124 C  
ENDROOT
BRANCH   3   4
HETATM    4  C   UNL     1      -7.983  10.312  67.606  1.00  0.00    -0.102 C  
HETATM    5  O   UNL     1      -8.722  11.108  68.552  1.00  0.00    -0.150 OA 
HETATM    6  C   UNL     1      -9.513  10.200  69.324  1.00  0.00    -0.218 C  
HETATM    7  O   UNL     1     -10.697  10.890  69.743  1.00  0.00    -0.385 OA 
HETATM    8  H   UNL     1     -11.389   8.666  67.130  1.00  0.00     0.000 HD 
HETATM    9  C   UNL     1      -9.901   9.057  68.376  1.00  0.00    -0.166 C  
HETATM   10  C   UNL     1      -8.803   9.049  67.312  1.00  0.00    -0.117 C  
HETATM   11  O   UNL     1     -11.148   9.374  67.716  1.00  0.00    -0.148 OA 
HETATM   12  H   UNL     1     -11.223  10.287  70.255  1.00  0.00     0.000 HD 
BRANCH   6  13
HETATM   13  C   UNL     1      -8.720   9.755  70.562  1.00  0.00     0.037 C  
HETATM   14  H   UNL     1      -6.831   9.714  71.077  1.00  0.00     0.000 HD 
HETATM   15  O   UNL     1      -7.322   9.990  70.312  1.00  0.00    -0.154 OA 
ENDBRANCH   6  13
BRANCH  10  16
HETATM   16  O   UNL     1      -8.012   7.855  67.411  1.00  0.00    -0.118 OA 
BRANCH  16  17
HETATM   17  C   UNL     1      -8.733   6.744  67.964  1.00  0.00    -0.118 C  
HETATM   18  O   UNL     1      -8.276   6.468  69.293  1.00  0.00    -0.119 OA 
HETATM   19  C   UNL     1      -9.006   5.393  69.912  1.00  0.00    -0.125 C  
HETATM   20  C   UNL     1      -8.806   4.091  69.125  1.00  0.00    -0.099 C  
HETATM   21  H   UNL     1      -9.097   5.050  65.178  1.00  0.00     0.000 HD 
HETATM   22  O   UNL     1      -9.178   5.805  65.748  1.00  0.00    -0.148 OA 
HETATM   23  C   UNL     1      -9.309   4.310  67.694  1.00  0.00    -0.161 C  
HETATM   24  O   UNL     1      -7.429   3.700  69.030  1.00  0.00    -0.053 OA 
HETATM   25  H   UNL     1      -9.425   3.253  66.043  1.00  0.00     0.000 HD 
HETATM   26  O   UNL     1      -9.113   3.116  66.930  1.00  0.00    -0.150 OA 
HETATM   27  H   UNL     1      -7.304   2.893  68.543  1.00  0.00     0.000 HD 
HETATM   28  C   UNL     1      -8.600   5.513  67.035  1.00  0.00    -0.109 C  
BRANCH  19  29
HETATM   29  C   UNL     1      -8.549   5.281  71.368  1.00  0.00    -0.129 C  
HETATM   30  O   UNL     1      -7.214   5.778  71.484  1.00  0.00    -0.077 OA 
HETATM   31  H   UNL     1      -6.930   5.708  72.388  1.00  0.00     0.000 HD 
ENDBRANCH  19  29
ENDBRANCH  16  17
ENDBRANCH  10  16
ENDBRANCH   3   4
TORSDOF 5
ENDMDL
MODEL      267
REMARK 921   NORMALIZED FREE ENERGY PREDICTED BY IDOCK:   -1.51 KCAL/MOL
REMARK 922        TOTAL FREE ENERGY PREDICTED BY IDOCK:   -3.54 KCAL/MOL
REMARK 923 INTER-LIGAND FREE ENERGY PREDICTED BY IDOCK:   -2.62 KCAL/MOL
REMARK 924 INTRA-LIGAND FREE ENERGY PREDICTED BY IDOCK:   -0.92 KCAL/MOL
REMARK 927      BINDING AFFINITY PREDICTED BY RF-SCORE:    0.00 PKD
ROOT
HETATM    1  O   UNL     1      -6.929   7.348  65.693  1.00  0.00    -0.058 OA 
HETATM    2  H   UNL     1      -7.168   7.366  64.774  1.00  0.00     0.000 HD 
HETATM    3  C   UNL     1      -6.921   8.677  66.213  1.00  0.00    -0.077 C  
ENDROOT
BRANCH   3   4
HETATM    4  C   UNL     1      -6.536   8.647  67.694  1.00  0.00    -0.061 C  
HETATM    5  O   UNL     1      -6.745   9.951  68.270  1.00  0.00    -0.059 OA 
HETATM    6  C   UNL     1      -7.050   9.745  69.652  1.00  0.00    -0.083 C  
HETATM    7  O   UNL     1      -7.902  10.814  70.082  1.00  0.00    -0.372 OA 
HETATM    8  H   UNL     1      -9.719   7.856  69.636  1.00  0.00     0.000 HD 
HETATM    9  C   UNL     1      -7.823   8.421  69.728  1.00  0.00    -0.099 C  
HETATM   10  C   UNL     1      -7.370   7.639  68.493  1.00  0.00    -0.095 C  
HETATM   11  O   UNL     1      -9.240   8.675  69.589  1.00  0.00    -0.153 OA 
HETATM   12  H   UNL     1      -8.105  10.677  71.000  1.00  0.00     0.000 HD 
BRANCH   6  13
HETATM   13  C   UNL     1      -5.752   9.767  70.473  1.00  0.00    -0.057 C  
HETATM   14  H   UNL     1      -5.277   9.491  72.352  1.00  0.00     0.000 HD 
HETATM   15  O   UNL     1      -6.079   9.476  71.844  1.00  0.00    -0.258 OA 
ENDBRANCH   6  13
BRANCH  10  16
HETATM   16  O   UNL     1      -6.606   6.486  68.876  1.00  0.00    -0.044 OA 
BRANCH  16  17
HETATM   17  C   UNL     1      -7.199   5.249  68.452  1.00  0.00    -0.067 C  
HETATM   18  O   UNL     1      -7.889   5.430  67.211  1.00  0.00    -0.099 OA 
HETATM   19  C   UNL     1      -8.458   4.205  66.715  1.00  0.00    -0.104 C  
HETATM   20  C   UNL     1      -9.506   3.667  67.699  1.00  0.00    -0.185 C  
HETATM   21  H   UNL     1      -7.935   4.091  71.432  1.00  0.00     0.000 HD 
HETATM   22  O   UNL     1      -7.364   4.427  70.751  1.00  0.00    -0.046 OA 
HETATM   23  C   UNL     1      -8.820   3.419  69.047  1.00  0.00    -0.107 C  
HETATM   24  O   UNL     1     -10.576   4.593  67.938  1.00  0.00     0.150 OA 
HETATM   25  H   UNL     1      -9.355   2.786  70.827  1.00  0.00     0.000 HD 
HETATM   26  O   UNL     1      -9.780   2.939  69.992  1.00  0.00    -0.100 OA 
HETATM   27  H   UNL     1     -11.226   4.261  68.547  1.00  0.00     0.000 HD 
HETATM   28  C   UNL     1      -8.129   4.701  69.561  1.00  0.00    -0.065 C  
BRANCH  19  29
HETATM   29  C   UNL     1      -9.036   4.474  65.323  1.00  0.00    -0.144 C  
HETATM   30  O   UNL     1     -10.426   4.780  65.440  1.00  0.00    -0.435 OA 
HETATM   31  H   UNL     1     -10.785   4.947  64.577  1.00  0.00     0.000 HD 
ENDBRANCH  19  29
ENDBRANCH  16  17
ENDBRANCH  10  16
ENDBRANCH   3   4
TORSDOF 5
ENDMDL
MODEL      268
REMARK 921   NORMALIZED FREE ENERGY PREDICTED BY IDOCK:   -1.51 KCAL/MOL
REMARK 922        TOTAL FREE ENERGY PREDICTED BY IDOCK:   -3.53 KCAL/MOL
REMARK 923 INTER-LIGAND FREE ENERGY PREDICTED BY IDOCK:   -3.31 KCAL/MOL
REMARK 924 INTRA-LIGAND FREE ENERGY PREDICTED BY IDOCK:   -0.22 KCAL/MOL
REMARK 927      BINDING AFFINITY PREDICTED BY RF-SCORE:    0.00 PKD
ROOT
HETATM    1  O   UNL     1      -9.620  17.109  64.867  1.00  0.00     0.954 OA 
HETATM    2  H   UNL     1      -9.512  17.719  64.146  1.00  0.00     0.000 HD 
HETATM    3  C   UNL     1     -10.845  16.395  64.711  1.00  0.00    -0.178 C  
ENDROOT
BRANCH   3   4
HETATM    4  C   UNL     1     -11.019  15.413  65.872  1.00  0.00    -0.293 C  
HETATM    5  O   UNL     1     -12.064  14.473  65.554  1.00  0.00    -0.357 OA 
HETATM    6  C   UNL     1     -11.748  13.260  66.241  1.00  0.00    -0.369 C  
HETATM    7  O   UNL     1     -12.277  12.168  65.477  1.00  0.00    -0.549 OA 
HETATM    8  H   UNL     1      -8.805  12.407  65.100  1.00  0.00     0.000 HD 
HETATM    9  C   UNL     1     -10.216  13.166  66.264  1.00  0.00    -0.293 C  
HETATM   10  C   UNL     1      -9.740  14.615  66.157  1.00  0.00    -0.319 C  
HETATM   11  O   UNL     1      -9.754  12.465  65.086  1.00  0.00    -0.179 OA 
HETATM   12  H   UNL     1     -12.067  11.362  65.933  1.00  0.00     0.000 HD 
BRANCH   6  13
HETATM   13  C   UNL     1     -12.402  13.271  67.630  1.00  0.00     0.052 C  
HETATM   14  H   UNL     1     -11.764  13.225  69.481  1.00  0.00     0.000 HD 
HETATM   15  O   UNL     1     -11.359  13.218  68.621  1.00  0.00    -0.250 OA 
ENDBRANCH   6  13
BRANCH  10  16
HETATM   16  O   UNL     1      -9.103  15.030  67.374  1.00  0.00    -0.177 OA 
BRANCH  16  17
HETATM   17  C   UNL     1      -7.746  14.573  67.486  1.00  0.00    -0.188 C  
HETATM   18  O   UNL     1      -7.674  13.167  67.226  1.00  0.00    -0.160 OA 
HETATM   19  C   UNL     1      -6.324  12.669  67.274  1.00  0.00    -0.094 C  
HETATM   20  C   UNL     1      -5.735  12.862  68.678  1.00  0.00    -0.068 C  
HETATM   21  H   UNL     1      -6.820  16.592  69.900  1.00  0.00     0.000 HD 
HETATM   22  O   UNL     1      -7.168  16.368  69.045  1.00  0.00    -0.191 OA 
HETATM   23  C   UNL     1      -5.753  14.360  69.006  1.00  0.00    -0.088 C  
HETATM   24  O   UNL     1      -6.493  12.200  69.701  1.00  0.00    -0.180 OA 
HETATM   25  H   UNL     1      -5.242  15.496  70.524  1.00  0.00     0.000 HD 
HETATM   26  O   UNL     1      -5.230  14.568  70.321  1.00  0.00    -0.094 OA 
HETATM   27  H   UNL     1      -6.129  12.320  70.570  1.00  0.00     0.000 HD 
HETATM   28  C   UNL     1      -7.179  14.937  68.879  1.00  0.00    -0.128 C  
BRANCH  19  29
HETATM   29  C   UNL     1      -6.339  11.202  66.836  1.00  0.00    -0.114 C  
HETATM   30  O   UNL     1      -5.474  10.446  67.685  1.00  0.00    -0.044 OA 
HETATM   31  H   UNL     1      -5.483   9.536  67.414  1.00  0.00     0.000 HD 
ENDBRANCH  19  29
ENDBRANCH  16  17
ENDBRANCH  10  16
ENDBRANCH   3   4
TORSDOF 5
ENDMDL
MODEL      269
REMARK 921   NORMALIZED FREE ENERGY PREDICTED BY IDOCK:   -1.35 KCAL/MOL
REMARK 922        TOTAL FREE ENERGY PREDICTED BY IDOCK:   -3.33 KCAL/MOL
REMARK 923 INTER-LIGAND FREE ENERGY PREDICTED BY IDOCK:   -3.35 KCAL/MOL
REMARK 924 INTRA-LIGAND FREE ENERGY PREDICTED BY IDOCK:    0.02 KCAL/MOL
REMARK 927      BINDING AFFINITY PREDICTED BY RF-SCORE:    0.00 PKD
ROOT
HETATM    1  O   UNL     1      -8.875   8.734  72.702  1.00  0.00    -0.394 OA 
HETATM    2  H   UNL     1      -9.666   8.587  73.208  1.00  0.00     0.000 HD 
HETATM    3  C   UNL     1      -9.174   8.640  71.310  1.00  0.00    -0.220 C  
ENDROOT
BRANCH   3   4
HETATM    4  C   UNL     1      -7.900   8.876  70.494  1.00  0.00    -0.112 C  
HETATM    5  O   UNL     1      -7.319  10.140  70.867  1.00  0.00    -0.238 OA 
HETATM    6  C   UNL     1      -5.909  10.020  70.663  1.00  0.00    -0.087 C  
HETATM    7  O   UNL     1      -5.250  10.881  71.601  1.00  0.00    -0.246 OA 
HETATM    8  H   UNL     1      -5.005   7.528  72.577  1.00  0.00     0.000 HD 
HETATM    9  C   UNL     1      -5.552   8.561  70.978  1.00  0.00    -0.033 C  
HETATM   10  C   UNL     1      -6.847   7.786  70.730  1.00  0.00    -0.042 C  
HETATM   11  O   UNL     1      -5.226   8.432  72.381  1.00  0.00    -0.036 OA 
HETATM   12  H   UNL     1      -4.313  10.801  71.465  1.00  0.00     0.000 HD 
BRANCH   6  13
HETATM   13  C   UNL     1      -5.558  10.463  69.235  1.00  0.00    -0.037 C  
HETATM   14  H   UNL     1      -5.380  12.175  68.301  1.00  0.00     0.000 HD 
HETATM   15  O   UNL     1      -5.597  11.901  69.185  1.00  0.00    -0.054 OA 
ENDBRANCH   6  13
BRANCH  10  16
HETATM   16  O   UNL     1      -6.706   6.915  69.598  1.00  0.00    -0.047 OA 
BRANCH  16  17
HETATM   17  C   UNL     1      -7.708   5.887  69.548  1.00  0.00    -0.097 C  
HETATM   18  O   UNL     1      -9.008   6.469  69.399  1.00  0.00    -0.132 OA 
HETATM   19  C   UNL     1     -10.044   5.476  69.291  1.00  0.00    -0.223 C  
HETATM   20  C   UNL     1     -10.112   4.635  70.572  1.00  0.00    -0.192 C  
HETATM   21  H   UNL     1      -6.268   3.794  71.624  1.00  0.00     0.000 HD 
HETATM   22  O   UNL     1      -6.328   4.342  70.850  1.00  0.00    -0.020 OA 
HETATM   23  C   UNL     1      -8.753   3.954  70.774  1.00  0.00    -0.073 C  
HETATM   24  O   UNL     1     -10.364   5.420  71.746  1.00  0.00    -0.199 OA 
HETATM   25  H   UNL     1      -7.937   2.758  72.101  1.00  0.00     0.000 HD 
HETATM   26  O   UNL     1      -8.779   3.179  71.976  1.00  0.00    -0.079 OA 
HETATM   27  H   UNL     1     -10.406   4.899  72.540  1.00  0.00     0.000 HD 
HETATM   28  C   UNL     1      -7.612   4.994  70.809  1.00  0.00    -0.074 C  
BRANCH  19  29
HETATM   29  C   UNL     1     -11.363   6.192  68.984  1.00  0.00    -0.183 C  
HETATM   30  O   UNL     1     -11.241   6.896  67.746  1.00  0.00    -0.534 OA 
HETATM   31  H   UNL     1     -12.059   7.340  67.556  1.00  0.00     0.000 HD 
ENDBRANCH  19  29
ENDBRANCH  16  17
ENDBRANCH  10  16
ENDBRANCH   3   4
TORSDOF 5
ENDMDL
MODEL      270
REMARK 921   NORMALIZED FREE ENERGY PREDICTED BY IDOCK:   -1.22 KCAL/MOL
REMARK 922        TOTAL FREE ENERGY PREDICTED BY IDOCK:   -3.15 KCAL/MOL
REMARK 923 INTER-LIGAND FREE ENERGY PREDICTED BY IDOCK:   -2.81 KCAL/MOL
REMARK 924 INTRA-LIGAND FREE ENERGY PREDICTED BY IDOCK:   -0.34 KCAL/MOL
REMARK 927      BINDING AFFINITY PREDICTED BY RF-SCORE:    0.00 PKD
ROOT
HETATM    1  O   UNL     1      -9.184   8.043  73.956  1.00  0.00    -0.356 OA 
HETATM    2  H   UNL     1      -9.760   7.871  74.692  1.00  0.00     0.000 HD 
HETATM    3  C   UNL     1      -9.899   7.866  72.735  1.00  0.00    -0.270 C  
ENDROOT
BRANCH   3   4
HETATM    4  C   UNL     1      -8.971   8.143  71.550  1.00  0.00    -0.158 C  
HETATM    5  O   UNL     1      -8.244   9.364  71.785  1.00  0.00    -0.200 OA 
HETATM    6  C   UNL     1      -6.994   9.236  71.102  1.00  0.00    -0.052 C  
HETATM    7  O   UNL     1      -6.020  10.010  71.813  1.00  0.00    -0.299 OA 
HETATM    8  H   UNL     1      -5.600   6.588  72.418  1.00  0.00     0.000 HD 
HETATM    9  C   UNL     1      -6.614   7.751  71.178  1.00  0.00    -0.038 C  
HETATM   10  C   UNL     1      -7.948   7.020  71.337  1.00  0.00    -0.103 C  
HETATM   11  O   UNL     1      -5.836   7.508  72.372  1.00  0.00    -0.040 OA 
HETATM   12  H   UNL     1      -5.189   9.925  71.359  1.00  0.00     0.000 HD 
BRANCH   6  13
HETATM   13  C   UNL     1      -7.132   9.782  69.673  1.00  0.00    -0.083 C  
HETATM   14  H   UNL     1      -8.605  10.424  68.554  1.00  0.00     0.000 HD 
HETATM   15  O   UNL     1      -8.520  10.087  69.438  1.00  0.00    -0.143 OA 
ENDBRANCH   6  13
BRANCH  10  16
HETATM   16  O   UNL     1      -8.238   6.237  70.170  1.00  0.00    -0.117 OA 
BRANCH  16  17
HETATM   17  C   UNL     1      -8.659   4.899  70.478  1.00  0.00    -0.107 C  
HETATM   18  O   UNL     1      -8.903   4.766  71.882  1.00  0.00    -0.121 OA 
HETATM   19  C   UNL     1      -9.378   3.455  72.235  1.00  0.00    -0.115 C  
HETATM   20  C   UNL     1      -8.321   2.395  71.896  1.00  0.00    -0.057 C  
HETATM   21  H   UNL     1      -6.836   3.357  68.228  1.00  0.00     0.000 HD 
HETATM   22  O   UNL     1      -7.483   3.979  68.539  1.00  0.00    -0.058 OA 
HETATM   23  C   UNL     1      -8.037   2.462  70.390  1.00  0.00    -0.041 C  
HETATM   24  O   UNL     1      -7.072   2.615  72.567  1.00  0.00    -0.030 OA 
HETATM   25  H   UNL     1      -6.860   1.542  69.116  1.00  0.00     0.000 HD 
HETATM   26  O   UNL     1      -7.036   1.500  70.049  1.00  0.00    -0.033 OA 
HETATM   27  H   UNL     1      -6.417   1.959  72.357  1.00  0.00     0.000 HD 
HETATM   28  C   UNL     1      -7.605   3.884  69.971  1.00  0.00    -0.048 C  
BRANCH  19  29
HETATM   29  C   UNL     1      -9.750   3.464  73.721  1.00  0.00    -0.103 C  
HETATM   30  O   UNL     1     -10.995   4.142  73.892  1.00  0.00    -0.241 OA 
HETATM   31  H   UNL     1     -11.226   4.149  74.813  1.00  0.00     0.000 HD 
ENDBRANCH  19  29
ENDBRANCH  16  17
ENDBRANCH  10  16
ENDBRANCH   3   4
TORSDOF 5
ENDMDL
MODEL      271
REMARK 921   NORMALIZED FREE ENERGY PREDICTED BY IDOCK:   -1.17 KCAL/MOL
REMARK 922        TOTAL FREE ENERGY PREDICTED BY IDOCK:   -3.10 KCAL/MOL
REMARK 923 INTER-LIGAND FREE ENERGY PREDICTED BY IDOCK:   -2.48 KCAL/MOL
REMARK 924 INTRA-LIGAND FREE ENERGY PREDICTED BY IDOCK:   -0.62 KCAL/MOL
REMARK 927      BINDING AFFINITY PREDICTED BY RF-SCORE:    0.00 PKD
ROOT
HETATM    1  O   UNL     1      -8.943   8.222  71.863  1.00  0.00    -0.149 OA 
HETATM    2  H   UNL     1      -9.598   7.940  72.491  1.00  0.00     0.000 HD 
HETATM    3  C   UNL     1      -9.546   8.380  70.579  1.00  0.00    -0.170 C  
ENDROOT
BRANCH   3   4
HETATM    4  C   UNL     1      -8.490   8.834  69.568  1.00  0.00    -0.128 C  
HETATM    5  O   UNL     1      -7.828  10.014  70.062  1.00  0.00    -0.166 OA 
HETATM    6  C   UNL     1      -6.503   9.998  69.525  1.00  0.00    -0.051 C  
HETATM    7  O   UNL     1      -5.641  10.668  70.452  1.00  0.00    -0.063 OA 
HETATM    8  H   UNL     1      -5.208   7.198  70.607  1.00  0.00     0.000 HD 
HETATM    9  C   UNL     1      -6.097   8.521  69.432  1.00  0.00    -0.037 C  
HETATM   10  C   UNL     1      -7.421   7.763  69.322  1.00  0.00    -0.093 C  
HETATM   11  O   UNL     1      -5.460   8.112  70.664  1.00  0.00    -0.025 OA 
HETATM   12  H   UNL     1      -4.760  10.657  70.095  1.00  0.00     0.000 HD 
BRANCH   6  13
HETATM   13  C   UNL     1      -6.485  10.744  68.183  1.00  0.00    -0.058 C  
HETATM   14  H   UNL     1      -7.445  12.268  67.412  1.00  0.00     0.000 HD 
HETATM   15  O   UNL     1      -7.456  11.806  68.242  1.00  0.00    -0.089 OA 
ENDBRANCH   6  13
BRANCH  10  16
HETATM   16  O   UNL     1      -7.550   7.155  68.028  1.00  0.00    -0.106 OA 
BRANCH  16  17
HETATM   17  C   UNL     1      -8.593   6.170  67.968  1.00  0.00    -0.115 C  
HETATM   18  O   UNL     1      -8.301   5.085  68.856  1.00  0.00    -0.084 OA 
HETATM   19  C   UNL     1      -9.344   4.093  68.872  1.00  0.00    -0.163 C  
HETATM   20  C   UNL     1      -9.501   3.462  67.482  1.00  0.00    -0.180 C  
HETATM   21  H   UNL     1      -9.310   6.507  64.785  1.00  0.00     0.000 HD 
HETATM   22  O   UNL     1      -9.191   6.800  65.681  1.00  0.00     0.023 OA 
HETATM   23  C   UNL     1      -9.849   4.573  66.484  1.00  0.00    -0.227 C  
HETATM   24  O   UNL     1      -8.298   2.838  67.010  1.00  0.00    -0.086 OA 
HETATM   25  H   UNL     1     -10.194   4.705  64.555  1.00  0.00     0.000 HD 
HETATM   26  O   UNL     1      -9.979   4.016  65.173  1.00  0.00    -0.193 OA 
HETATM   27  H   UNL     1      -8.394   2.448  66.150  1.00  0.00     0.000 HD 
HETATM   28  C   UNL     1      -8.786   5.692  66.509  1.00  0.00    -0.121 C  
BRANCH  19  29
HETATM   29  C   UNL     1      -9.009   3.063  69.954  1.00  0.00    -0.106 C  
HETATM   30  O   UNL     1      -8.952   3.714  71.224  1.00  0.00    -0.091 OA 
HETATM   31  H   UNL     1      -8.744   3.076  71.896  1.00  0.00     0.000 HD 
ENDBRANCH  19  29
ENDBRANCH  16  17
ENDBRANCH  10  16
ENDBRANCH   3   4
TORSDOF 5
ENDMDL
MODEL      272
REMARK 921   NORMALIZED FREE ENERGY PREDICTED BY IDOCK:   -1.06 KCAL/MOL
REMARK 922        TOTAL FREE ENERGY PREDICTED BY IDOCK:   -2.95 KCAL/MOL
REMARK 923 INTER-LIGAND FREE ENERGY PREDICTED BY IDOCK:   -2.25 KCAL/MOL
REMARK 924 INTRA-LIGAND FREE ENERGY PREDICTED BY IDOCK:   -0.70 KCAL/MOL
REMARK 927      BINDING AFFINITY PREDICTED BY RF-SCORE:    0.00 PKD
ROOT
HETATM    1  O   UNL     1      -9.648   4.275  65.499  1.00  0.00    -0.160 OA 
HETATM    2  H   UNL     1     -10.439   3.749  65.546  1.00  0.00     0.000 HD 
HETATM    3  C   UNL     1      -9.774   5.406  66.360  1.00  0.00    -0.166 C  
ENDROOT
BRANCH   3   4
HETATM    4  C   UNL     1      -8.501   6.253  66.285  1.00  0.00    -0.133 C  
HETATM    5  O   UNL     1      -8.527   7.052  65.086  1.00  0.00    -0.111 OA 
HETATM    6  C   UNL     1      -7.780   8.238  65.367  1.00  0.00    -0.103 C  
HETATM    7  O   UNL     1      -8.316   9.299  64.567  1.00  0.00    -0.145 OA 
HETATM    8  H   UNL     1      -9.323   9.604  67.906  1.00  0.00     0.000 HD 
HETATM    9  C   UNL     1      -8.018   8.553  66.851  1.00  0.00    -0.095 C  
HETATM   10  C   UNL     1      -8.362   7.203  67.481  1.00  0.00    -0.116 C  
HETATM   11  O   UNL     1      -9.176   9.409  66.988  1.00  0.00    -0.138 OA 
HETATM   12  H   UNL     1      -7.820  10.088  64.754  1.00  0.00     0.000 HD 
BRANCH   6  13
HETATM   13  C   UNL     1      -6.307   8.017  64.995  1.00  0.00    -0.048 C  
HETATM   14  H   UNL     1      -5.264   8.013  63.338  1.00  0.00     0.000 HD 
HETATM   15  O   UNL     1      -6.175   8.151  63.568  1.00  0.00    -0.070 OA 
ENDBRANCH   6  13
BRANCH  10  16
HETATM   16  O   UNL     1      -7.328   6.788  68.385  1.00  0.00    -0.082 OA 
BRANCH  16  17
HETATM   17  C   UNL     1      -7.725   6.848  69.764  1.00  0.00    -0.113 C  
HETATM   18  O   UNL     1      -6.761   7.582  70.526  1.00  0.00    -0.046 OA 
HETATM   19  C   UNL     1      -7.140   7.715  71.908  1.00  0.00    -0.064 C  
HETATM   20  C   UNL     1      -7.231   6.335  72.572  1.00  0.00    -0.084 C  
HETATM   21  H   UNL     1      -9.125   3.886  69.927  1.00  0.00     0.000 HD 
HETATM   22  O   UNL     1      -8.995   4.764  69.589  1.00  0.00    -0.087 OA 
HETATM   23  C   UNL     1      -8.277   5.505  71.818  1.00  0.00    -0.119 C  
HETATM   24  O   UNL     1      -5.997   5.604  72.515  1.00  0.00    -0.036 OA 
HETATM   25  H   UNL     1      -9.014   3.688  71.935  1.00  0.00     0.000 HD 
HETATM   26  O   UNL     1      -8.366   4.202  72.402  1.00  0.00    -0.096 OA 
HETATM   27  H   UNL     1      -6.052   4.749  72.926  1.00  0.00     0.000 HD 
HETATM   28  C   UNL     1      -7.936   5.417  70.315  1.00  0.00    -0.092 C  
BRANCH  19  29
HETATM   29  C   UNL     1      -6.129   8.637  72.595  1.00  0.00    -0.077 C  
HETATM   30  O   UNL     1      -5.757   8.075  73.855  1.00  0.00    -0.063 OA 
HETATM   31  H   UNL     1      -5.130   8.647  74.281  1.00  0.00     0.000 HD 
ENDBRANCH  19  29
ENDBRANCH  16  17
ENDBRANCH  10  16
ENDBRANCH   3   4
TORSDOF 5
ENDMDL
MODEL      273
REMARK 921   NORMALIZED FREE ENERGY PREDICTED BY IDOCK:   -0.82 KCAL/MOL
REMARK 922        TOTAL FREE ENERGY PREDICTED BY IDOCK:   -2.65 KCAL/MOL
REMARK 923 INTER-LIGAND FREE ENERGY PREDICTED BY IDOCK:   -5.48 KCAL/MOL
REMARK 924 INTRA-LIGAND FREE ENERGY PREDICTED BY IDOCK:    2.83 KCAL/MOL
REMARK 927      BINDING AFFINITY PREDICTED BY RF-SCORE:    0.00 PKD
ROOT
HETATM    1  O   UNL     1      -7.568   6.421  71.038  1.00  0.00    -0.086 OA 
HETATM    2  H   UNL     1      -6.799   5.905  70.827  1.00  0.00     0.000 HD 
HETATM    3  C   UNL     1      -8.712   5.861  70.396  1.00  0.00    -0.139 C  
ENDROOT
BRANCH   3   4
HETATM    4  C   UNL     1      -9.951   6.693  70.734  1.00  0.00    -0.184 C  
HETATM    5  O   UNL     1     -11.036   5.816  71.090  1.00  0.00    -0.256 OA 
HETATM    6  C   UNL     1     -11.863   6.536  72.008  1.00  0.00    -0.329 C  
HETATM    7  O   UNL     1     -12.486   5.588  72.883  1.00  0.00    -0.500 OA 
HETATM    8  H   UNL     1      -9.880   7.275  74.501  1.00  0.00     0.000 HD 
HETATM    9  C   UNL     1     -10.919   7.432  72.823  1.00  0.00    -0.339 C  
HETATM   10  C   UNL     1      -9.709   7.645  71.912  1.00  0.00    -0.164 C  
HETATM   11  O   UNL     1     -10.464   6.720  73.996  1.00  0.00    -0.364 OA 
HETATM   12  H   UNL     1     -13.034   6.066  73.493  1.00  0.00     0.000 HD 
BRANCH   6  13
HETATM   13  C   UNL     1     -12.947   7.300  71.232  1.00  0.00    -0.328 C  
HETATM   14  H   UNL     1     -13.794   9.060  71.371  1.00  0.00     0.000 HD 
HETATM   15  O   UNL     1     -13.123   8.588  71.851  1.00  0.00    -0.331 OA 
ENDBRANCH   6  13
BRANCH  10  16
HETATM   16  O   UNL     1      -9.626   9.015  71.493  1.00  0.00    -0.282 OA 
BRANCH  16  17
HETATM   17  C   UNL     1      -9.347   9.162  70.092  1.00  0.00    -0.209 C  
HETATM   18  O   UNL     1      -9.966   8.105  69.351  1.00  0.00    -0.180 OA 
HETATM   19  C   UNL     1      -9.760   8.235  67.932  1.00  0.00    -0.161 C  
HETATM   20  C   UNL     1      -8.264   8.154  67.601  1.00  0.00    -0.127 C  
HETATM   21  H   UNL     1      -6.324  10.399  70.390  1.00  0.00     0.000 HD 
HETATM   22  O   UNL     1      -7.262  10.364  70.533  1.00  0.00    -0.276 OA 
HETATM   23  C   UNL     1      -7.544   9.287  68.342  1.00  0.00    -0.086 C  
HETATM   24  O   UNL     1      -7.661   6.924  68.029  1.00  0.00    -0.108 OA 
HETATM   25  H   UNL     1      -5.695   9.922  68.530  1.00  0.00     0.000 HD 
HETATM   26  O   UNL     1      -6.141   9.221  68.070  1.00  0.00    -0.049 OA 
HETATM   27  H   UNL     1      -6.735   6.873  67.825  1.00  0.00     0.000 HD 
HETATM   28  C   UNL     1      -7.818   9.217  69.860  1.00  0.00    -0.109 C  
BRANCH  19  29
HETATM   29  C   UNL     1     -10.581   7.153  67.227  1.00  0.00    -0.327 C  
HETATM   30  O   UNL     1     -11.582   6.661  68.121  1.00  0.00    -0.543 OA 
HETATM   31  H   UNL     1     -12.091   5.989  67.684  1.00  0.00     0.000 HD 
ENDBRANCH  19  29
ENDBRANCH  16  17
ENDBRANCH  10  16
ENDBRANCH   3   4
TORSDOF 5
ENDMDL
MODEL      274
REMARK 921   NORMALIZED FREE ENERGY PREDICTED BY IDOCK:   -0.78 KCAL/MOL
REMARK 922        TOTAL FREE ENERGY PREDICTED BY IDOCK:   -2.60 KCAL/MOL
REMARK 923 INTER-LIGAND FREE ENERGY PREDICTED BY IDOCK:   -1.99 KCAL/MOL
REMARK 924 INTRA-LIGAND FREE ENERGY PREDICTED BY IDOCK:   -0.60 KCAL/MOL
REMARK 927      BINDING AFFINITY PREDICTED BY RF-SCORE:    0.00 PKD
ROOT
HETATM    1  O   UNL     1      -5.518  14.472  69.608  1.00  0.00    -0.091 OA 
HETATM    2  H   UNL     1      -5.469  15.350  69.970  1.00  0.00     0.000 HD 
HETATM    3  C   UNL     1      -6.231  14.503  68.372  1.00  0.00    -0.103 C  
ENDROOT
BRANCH   3   4
HETATM    4  C   UNL     1      -6.310  13.089  67.790  1.00  0.00    -0.149 C  
HETATM    5  O   UNL     1      -5.289  12.266  68.387  1.00  0.00    -0.050 OA 
HETATM    6  C   UNL     1      -5.789  10.927  68.385  1.00  0.00    -0.043 C  
HETATM    7  O   UNL     1      -5.214  10.238  69.502  1.00  0.00    -0.038 OA 
HETATM    8  H   UNL     1      -8.557  11.073  70.118  1.00  0.00     0.000 HD 
HETATM    9  C   UNL     1      -7.307  11.034  68.583  1.00  0.00    -0.104 C  
HETATM   10  C   UNL     1      -7.666  12.425  68.057  1.00  0.00    -0.135 C  
HETATM   11  O   UNL     1      -7.617  11.007  69.995  1.00  0.00     0.112 OA 
HETATM   12  H   UNL     1      -5.546   9.347  69.501  1.00  0.00     0.000 HD 
BRANCH   6  13
HETATM   13  C   UNL     1      -5.368  10.225  67.085  1.00  0.00    -0.041 C  
HETATM   14  H   UNL     1      -6.037   8.721  66.024  1.00  0.00     0.000 HD 
HETATM   15  O   UNL     1      -6.297   9.155  66.827  1.00  0.00    -0.064 OA 
ENDBRANCH   6  13
BRANCH  10  16
HETATM   16  O   UNL     1      -8.464  12.325  66.867  1.00  0.00    -0.187 OA 
BRANCH  16  17
HETATM   17  C   UNL     1      -9.559  13.254  66.842  1.00  0.00    -0.249 C  
HETATM   18  O   UNL     1      -9.227  14.432  67.585  1.00  0.00    -0.187 OA 
HETATM   19  C   UNL     1     -10.274  15.419  67.547  1.00  0.00    -0.244 C  
HETATM   20  C   UNL     1     -11.551  14.866  68.194  1.00  0.00    -0.334 C  
HETATM   21  H   UNL     1     -11.984  11.045  66.852  1.00  0.00     0.000 HD 
HETATM   22  O   UNL     1     -11.197  11.464  66.525  1.00  0.00    -0.296 OA 
HETATM   23  C   UNL     1     -11.981  13.614  67.420  1.00  0.00    -0.376 C  
HETATM   24  O   UNL     1     -11.360  14.468  69.560  1.00  0.00    -0.254 OA 
HETATM   25  H   UNL     1     -13.424  12.287  67.537  1.00  0.00     0.000 HD 
HETATM   26  O   UNL     1     -13.158  13.063  68.017  1.00  0.00     1.608 OA 
HETATM   27  H   UNL     1     -12.150  14.126  69.961  1.00  0.00     0.000 HD 
HETATM   28  C   UNL     1     -10.842  12.572  67.375  1.00  0.00    -0.240 C  
BRANCH  19  29
HETATM   29  C   UNL     1      -9.763  16.687  68.236  1.00  0.00    -0.244 C  
HETATM   30  O   UNL     1     -10.870  17.530  68.556  1.00  0.00    -0.284 OA 
HETATM   31  H   UNL     1     -10.554  18.316  68.984  1.00  0.00     0.000 HD 
ENDBRANCH  19  29
ENDBRANCH  16  17
ENDBRANCH  10  16
ENDBRANCH   3   4
TORSDOF 5
ENDMDL
MODEL      275
REMARK 921   NORMALIZED FREE ENERGY PREDICTED BY IDOCK:   -0.65 KCAL/MOL
REMARK 922        TOTAL FREE ENERGY PREDICTED BY IDOCK:   -2.43 KCAL/MOL
REMARK 923 INTER-LIGAND FREE ENERGY PREDICTED BY IDOCK:   -5.20 KCAL/MOL
REMARK 924 INTRA-LIGAND FREE ENERGY PREDICTED BY IDOCK:    2.77 KCAL/MOL
REMARK 927      BINDING AFFINITY PREDICTED BY RF-SCORE:    0.00 PKD
ROOT
HETATM    1  O   UNL     1      -8.449  15.115  65.849  1.00  0.00    -0.182 OA 
HETATM    2  H   UNL     1      -8.539  15.739  65.138  1.00  0.00     0.000 HD 
HETATM    3  C   UNL     1      -9.741  14.667  66.257  1.00  0.00    -0.307 C  
ENDROOT
BRANCH   3   4
HETATM    4  C   UNL     1      -9.598  13.662  67.402  1.00  0.00    -0.226 C  
HETATM    5  O   UNL     1     -10.327  12.462  67.082  1.00  0.00    -0.218 OA 
HETATM    6  C   UNL     1      -9.657  11.385  67.741  1.00  0.00    -0.172 C  
HETATM    7  O   UNL     1      -9.858  10.197  66.966  1.00  0.00    -0.176 OA 
HETATM    8  H   UNL     1      -6.616  11.447  66.544  1.00  0.00     0.000 HD 
HETATM    9  C   UNL     1      -8.165  11.743  67.741  1.00  0.00    -0.144 C  
HETATM   10  C   UNL     1      -8.136  13.270  67.654  1.00  0.00    -0.174 C  
HETATM   11  O   UNL     1      -7.540  11.225  66.544  1.00  0.00    -0.145 OA 
HETATM   12  H   UNL     1      -9.412   9.481  67.403  1.00  0.00     0.000 HD 
BRANCH   6  13
HETATM   13  C   UNL     1     -10.260  11.185  69.140  1.00  0.00    -0.141 C  
HETATM   14  H   UNL     1     -10.265   9.751  70.473  1.00  0.00     0.000 HD 
HETATM   15  O   UNL     1      -9.892   9.874  69.608  1.00  0.00    -0.206 OA 
ENDBRANCH   6  13
BRANCH  10  16
HETATM   16  O   UNL     1      -7.626  13.837  68.870  1.00  0.00    -0.113 OA 
BRANCH  16  17
HETATM   17  C   UNL     1      -8.363  14.988  69.310  1.00  0.00    -0.169 C  
HETATM   18  O   UNL     1      -9.770  14.736  69.232  1.00  0.00    -0.181 OA 
HETATM   19  C   UNL     1     -10.553  15.844  69.712  1.00  0.00    -0.322 C  
HETATM   20  C   UNL     1     -10.306  17.087  68.847  1.00  0.00    -0.337 C  
HETATM   21  H   UNL     1      -6.292  17.269  68.181  1.00  0.00     0.000 HD 
HETATM   22  O   UNL     1      -6.548  16.507  68.688  1.00  0.00    -0.135 OA 
HETATM   23  C   UNL     1      -8.813  17.432  68.914  1.00  0.00    -0.153 C  
HETATM   24  O   UNL     1     -10.624  16.879  67.463  1.00  0.00    -0.326 OA 
HETATM   25  H   UNL     1      -7.624  18.788  68.139  1.00  0.00     0.000 HD 
HETATM   26  O   UNL     1      -8.548  18.575  68.097  1.00  0.00    -0.286 OA 
HETATM   27  H   UNL     1     -10.471  17.648  66.927  1.00  0.00     0.000 HD 
HETATM   28  C   UNL     1      -7.947  16.229  68.483  1.00  0.00    -0.184 C  
BRANCH  19  29
HETATM   29  C   UNL     1     -12.024  15.418  69.728  1.00  0.00    -0.358 C  
HETATM   30  O   UNL     1     -12.253  14.470  68.685  1.00  0.00    -0.545 OA 
HETATM   31  H   UNL     1     -13.165  14.206  68.695  1.00  0.00     0.000 HD 
ENDBRANCH  19  29
ENDBRANCH  16  17
ENDBRANCH  10  16
ENDBRANCH   3   4
TORSDOF 5
ENDMDL
MODEL      276
REMARK 921   NORMALIZED FREE ENERGY PREDICTED BY IDOCK:   -0.02 KCAL/MOL
REMARK 922        TOTAL FREE ENERGY PREDICTED BY IDOCK:   -1.61 KCAL/MOL
REMARK 923 INTER-LIGAND FREE ENERGY PREDICTED BY IDOCK:   -4.29 KCAL/MOL
REMARK 924 INTRA-LIGAND FREE ENERGY PREDICTED BY IDOCK:    2.69 KCAL/MOL
REMARK 927      BINDING AFFINITY PREDICTED BY RF-SCORE:    0.00 PKD
ROOT
HETATM    1  O   UNL     1      -5.517  14.470  69.607  1.00  0.00    -0.091 OA 
HETATM    2  H   UNL     1      -5.480  15.348  69.969  1.00  0.00     0.000 HD 
HETATM    3  C   UNL     1      -6.227  14.491  68.369  1.00  0.00    -0.103 C  
ENDROOT
BRANCH   3   4
HETATM    4  C   UNL     1      -6.285  13.077  67.787  1.00  0.00    -0.149 C  
HETATM    5  O   UNL     1      -5.251  12.270  68.381  1.00  0.00    -0.050 OA 
HETATM    6  C   UNL     1      -5.729  10.922  68.379  1.00  0.00    -0.043 C  
HETATM    7  O   UNL     1      -5.142  10.242  69.495  1.00  0.00    -0.039 OA 
HETATM    8  H   UNL     1      -8.496  11.025  70.118  1.00  0.00     0.000 HD 
HETATM    9  C   UNL     1      -7.248  11.006  68.580  1.00  0.00    -0.091 C  
HETATM   10  C   UNL     1      -7.630  12.391  68.056  1.00  0.00    -0.128 C  
HETATM   11  O   UNL     1      -7.555  10.974  69.993  1.00  0.00     0.112 OA 
HETATM   12  H   UNL     1      -5.459   9.347  69.494  1.00  0.00     0.000 HD 
BRANCH   6  13
HETATM   13  C   UNL     1      -5.300  10.227  67.078  1.00  0.00    -0.041 C  
HETATM   14  H   UNL     1      -5.948   8.714  66.018  1.00  0.00     0.000 HD 
HETATM   15  O   UNL     1      -6.213   9.144  66.822  1.00  0.00    -0.063 OA 
ENDBRANCH   6  13
BRANCH  10  16
HETATM   16  O   UNL     1      -8.428  12.280  66.868  1.00  0.00    -0.187 OA 
BRANCH  16  17
HETATM   17  C   UNL     1      -9.550  13.176  66.855  1.00  0.00    -0.248 C  
HETATM   18  O   UNL     1     -10.209  13.128  65.585  1.00  0.00    -0.281 OA 
HETATM   19  C   UNL     1     -11.374  13.972  65.539  1.00  0.00    -0.313 C  
HETATM   20  C   UNL     1     -10.977  15.440  65.745  1.00  0.00    -0.309 C  
HETATM   21  H   UNL     1      -8.251  15.502  68.770  1.00  0.00     0.000 HD 
HETATM   22  O   UNL     1      -8.536  14.623  68.548  1.00  0.00    -0.150 OA 
HETATM   23  C   UNL     1     -10.291  15.567  67.111  1.00  0.00    -0.272 C  
HETATM   24  O   UNL     1     -10.044  15.911  64.763  1.00  0.00    -0.412 OA 
HETATM   25  H   UNL     1      -9.464  17.001  68.166  1.00  0.00     0.000 HD 
HETATM   26  O   UNL     1      -9.889  16.923  67.320  1.00  0.00    -0.253 OA 
HETATM   27  H   UNL     1      -9.797  16.820  64.890  1.00  0.00     0.000 HD 
HETATM   28  C   UNL     1      -9.086  14.608  67.216  1.00  0.00    -0.206 C  
BRANCH  19  29
HETATM   29  C   UNL     1     -12.085  13.734  64.204  1.00  0.00    -0.433 C  
HETATM   30  O   UNL     1     -12.997  14.805  63.957  1.00  0.00    -0.544 OA 
HETATM   31  H   UNL     1     -13.439  14.657  63.129  1.00  0.00     0.000 HD 
ENDBRANCH  19  29
ENDBRANCH  16  17
ENDBRANCH  10  16
ENDBRANCH   3   4
TORSDOF 5
ENDMDL
MODEL      277
REMARK 921   NORMALIZED FREE ENERGY PREDICTED BY IDOCK:    0.54 KCAL/MOL
REMARK 922        TOTAL FREE ENERGY PREDICTED BY IDOCK:   -0.88 KCAL/MOL
REMARK 923 INTER-LIGAND FREE ENERGY PREDICTED BY IDOCK:   -0.73 KCAL/MOL
REMARK 924 INTRA-LIGAND FREE ENERGY PREDICTED BY IDOCK:   -0.16 KCAL/MOL
REMARK 927      BINDING AFFINITY PREDICTED BY RF-SCORE:    0.00 PKD
ROOT
HETATM    1  O   UNL     1      -6.452  18.522  65.367  1.00  0.00    -0.301 OA 
HETATM    2  H   UNL     1      -6.007  18.762  64.563  1.00  0.00     0.000 HD 
HETATM    3  C   UNL     1      -7.864  18.567  65.165  1.00  0.00     1.624 C  
ENDROOT
BRANCH   3   4
HETATM    4  C   UNL     1      -8.580  18.180  66.461  1.00  0.00    -0.263 C  
HETATM    5  O   UNL     1      -9.250  19.335  67.003  1.00  0.00    -0.292 OA 
HETATM    6  C   UNL     1     -10.387  18.851  67.722  1.00  0.00    -0.421 C  
HETATM    7  O   UNL     1     -11.403  19.860  67.675  1.00  0.00     0.060 OA 
HETATM    8  H   UNL     1     -12.141  17.222  65.496  1.00  0.00     0.000 HD 
HETATM    9  C   UNL     1     -10.874  17.606  66.968  1.00  0.00    -0.064 C  
HETATM   10  C   UNL     1      -9.633  17.086  66.241  1.00  0.00    -0.267 C  
HETATM   11  O   UNL     1     -11.840  17.993  65.963  1.00  0.00     2.190 OA 
HETATM   12  H   UNL     1     -12.159  19.538  68.153  1.00  0.00     0.000 HD 
BRANCH   6  13
HETATM   13  C   UNL     1      -9.996  18.592  69.185  1.00  0.00    -0.184 C  
HETATM   14  H   UNL     1      -8.807  19.439  70.490  1.00  0.00     0.000 HD 
HETATM   15  O   UNL     1      -9.049  19.600  69.585  1.00  0.00     0.059 OA 
ENDBRANCH   6  13
BRANCH  10  16
HETATM   16  O   UNL     1      -9.222  15.822  66.783  1.00  0.00    -0.214 OA 
BRANCH  16  17
HETATM   17  C   UNL     1     -10.325  14.972  67.133  1.00  0.00    -0.257 C  
HETATM   18  O   UNL     1     -10.802  15.293  68.444  1.00  0.00    -0.242 OA 
HETATM   19  C   UNL     1     -11.944  14.502  68.822  1.00  0.00    -0.280 C  
HETATM   20  C   UNL     1     -11.570  13.015  68.869  1.00  0.00    -0.311 C  
HETATM   21  H   UNL     1      -9.289  12.276  65.577  1.00  0.00     0.000 HD 
HETATM   22  O   UNL     1      -9.546  13.188  65.650  1.00  0.00    -0.145 OA 
HETATM   23  C   UNL     1     -11.079  12.597  67.477  1.00  0.00    -0.272 C  
HETATM   24  O   UNL     1     -10.506  12.733  69.789  1.00  0.00    -0.016 OA 
HETATM   25  H   UNL     1     -10.397  10.959  66.636  1.00  0.00     0.000 HD 
HETATM   26  O   UNL     1     -10.701  11.217  67.498  1.00  0.00    -0.206 OA 
HETATM   27  H   UNL     1     -10.274  11.812  69.819  1.00  0.00     0.000 HD 
HETATM   28  C   UNL     1      -9.906  13.487  67.013  1.00  0.00    -0.251 C  
BRANCH  19  29
HETATM   29  C   UNL     1     -12.464  15.024  70.164  1.00  0.00    -0.311 C  
HETATM   30  O   UNL     1     -11.614  16.075  70.624  1.00  0.00    -0.365 OA 
HETATM   31  H   UNL     1     -11.936  16.398  71.457  1.00  0.00     0.000 HD 
ENDBRANCH  19  29
ENDBRANCH  16  17
ENDBRANCH  10  16
ENDBRANCH   3   4
TORSDOF 5
ENDMDL
MODEL      278
REMARK 921   NORMALIZED FREE ENERGY PREDICTED BY IDOCK:    0.65 KCAL/MOL
REMARK 922        TOTAL FREE ENERGY PREDICTED BY IDOCK:   -0.75 KCAL/MOL
REMARK 923 INTER-LIGAND FREE ENERGY PREDICTED BY IDOCK:   -3.31 KCAL/MOL
REMARK 924 INTRA-LIGAND FREE ENERGY PREDICTED BY IDOCK:    2.56 KCAL/MOL
REMARK 927      BINDING AFFINITY PREDICTED BY RF-SCORE:    0.00 PKD
ROOT
HETATM    1  O   UNL     1      -7.249   9.600  71.196  1.00  0.00    -0.328 OA 
HETATM    2  H   UNL     1      -7.051  10.519  71.057  1.00  0.00     0.000 HD 
HETATM    3  C   UNL     1      -8.495   9.281  70.578  1.00  0.00    -0.216 C  
ENDROOT
BRANCH   3   4
HETATM    4  C   UNL     1      -8.815   7.801  70.803  1.00  0.00    -0.139 C  
HETATM    5  O   UNL     1      -8.676   7.486  72.201  1.00  0.00    -0.111 OA 
HETATM    6  C   UNL     1      -9.585   6.417  72.475  1.00  0.00    -0.152 C  
HETATM    7  O   UNL     1      -9.999   6.526  73.842  1.00  0.00    -0.214 OA 
HETATM    8  H   UNL     1     -12.522   7.603  71.667  1.00  0.00     0.000 HD 
HETATM    9  C   UNL     1     -10.796   6.639  71.559  1.00  0.00    -0.239 C  
HETATM   10  C   UNL     1     -10.245   7.443  70.380  1.00  0.00    -0.198 C  
HETATM   11  O   UNL     1     -11.772   7.465  72.234  1.00  0.00    -0.286 OA 
HETATM   12  H   UNL     1     -10.604   5.815  74.023  1.00  0.00     0.000 HD 
BRANCH   6  13
HETATM   13  C   UNL     1      -8.872   5.072  72.266  1.00  0.00    -0.128 C  
HETATM   14  H   UNL     1      -9.410   3.271  71.718  1.00  0.00     0.000 HD 
HETATM   15  O   UNL     1      -9.850   4.102  71.846  1.00  0.00    -0.165 OA 
ENDBRANCH   6  13
BRANCH  10  16
HETATM   16  O   UNL     1     -10.275   6.662  69.176  1.00  0.00    -0.165 OA 
BRANCH  16  17
HETATM   17  C   UNL     1      -9.024   6.662  68.472  1.00  0.00    -0.120 C  
HETATM   18  O   UNL     1      -7.933   6.680  69.398  1.00  0.00    -0.111 OA 
HETATM   19  C   UNL     1      -6.653   6.628  68.741  1.00  0.00    -0.051 C  
HETATM   20  C   UNL     1      -6.462   7.863  67.850  1.00  0.00    -0.052 C  
HETATM   21  H   UNL     1      -9.988   8.462  65.904  1.00  0.00     0.000 HD 
HETATM   22  O   UNL     1     -10.020   7.729  66.508  1.00  0.00    -0.230 OA 
HETATM   23  C   UNL     1      -7.586   7.885  66.808  1.00  0.00    -0.098 C  
HETATM   24  O   UNL     1      -6.541   9.097  68.579  1.00  0.00    -0.054 OA 
HETATM   25  H   UNL     1      -8.143   9.055  65.332  1.00  0.00     0.000 HD 
HETATM   26  O   UNL     1      -7.446   9.041  65.977  1.00  0.00    -0.092 OA 
HETATM   27  H   UNL     1      -6.423   9.862  68.028  1.00  0.00     0.000 HD 
HETATM   28  C   UNL     1      -8.972   7.857  67.489  1.00  0.00    -0.127 C  
BRANCH  19  29
HETATM   29  C   UNL     1      -5.569   6.498  69.814  1.00  0.00    -0.014 C  
HETATM   30  O   UNL     1      -5.884   5.404  70.675  1.00  0.00    -0.019 OA 
HETATM   31  H   UNL     1      -5.212   5.323  71.341  1.00  0.00     0.000 HD 
ENDBRANCH  19  29
ENDBRANCH  16  17
ENDBRANCH  10  16
ENDBRANCH   3   4
TORSDOF 5
ENDMDL
MODEL      279
REMARK 921   NORMALIZED FREE ENERGY PREDICTED BY IDOCK:    2.05 KCAL/MOL
REMARK 922        TOTAL FREE ENERGY PREDICTED BY IDOCK:    1.06 KCAL/MOL
REMARK 923 INTER-LIGAND FREE ENERGY PREDICTED BY IDOCK:   -1.16 KCAL/MOL
REMARK 924 INTRA-LIGAND FREE ENERGY PREDICTED BY IDOCK:    2.23 KCAL/MOL
REMARK 927      BINDING AFFINITY PREDICTED BY RF-SCORE:    0.00 PKD
ROOT
HETATM    1  O   UNL     1      -5.773  14.403  70.126  1.00  0.00    -0.109 OA 
HETATM    2  H   UNL     1      -5.038  13.932  70.501  1.00  0.00     0.000 HD 
HETATM    3  C   UNL     1      -6.082  13.865  68.841  1.00  0.00    -0.087 C  
ENDROOT
BRANCH   3   4
HETATM    4  C   UNL     1      -7.265  14.625  68.237  1.00  0.00    -0.117 C  
HETATM    5  O   UNL     1      -7.730  13.934  67.062  1.00  0.00    -0.050 OA 
HETATM    6  C   UNL     1      -9.128  14.212  66.947  1.00  0.00    -0.245 C  
HETATM    7  O   UNL     1      -9.751  13.094  66.302  1.00  0.00    -0.271 OA 
HETATM    8  H   UNL     1     -10.422  13.103  69.738  1.00  0.00     0.000 HD 
HETATM    9  C   UNL     1      -9.661  14.329  68.382  1.00  0.00    -0.221 C  
HETATM   10  C   UNL     1      -8.443  14.739  69.212  1.00  0.00    -0.043 C  
HETATM   11  O   UNL     1     -10.092  13.031  68.849  1.00  0.00    -0.109 OA 
HETATM   12  H   UNL     1     -10.680  13.279  66.227  1.00  0.00     0.000 HD 
BRANCH   6  13
HETATM   13  C   UNL     1      -9.333  15.471  66.092  1.00  0.00    -0.345 C  
HETATM   14  H   UNL     1     -10.843  16.638  65.653  1.00  0.00     0.000 HD 
HETATM   15  O   UNL     1     -10.716  15.860  66.182  1.00  0.00    -0.314 OA 
ENDBRANCH   6  13
BRANCH  10  16
HETATM   16  O   UNL     1      -8.601  16.074  69.717  1.00  0.00    -0.012 OA 
BRANCH  16  17
HETATM   17  C   UNL     1      -8.472  17.081  68.701  1.00  0.00    -0.262 C  
HETATM   18  O   UNL     1      -7.401  16.752  67.810  1.00  0.00    -0.145 OA 
HETATM   19  C   UNL     1      -7.265  17.705  66.740  1.00  0.00    -0.212 C  
HETATM   20  C   UNL     1      -6.925  19.092  67.303  1.00  0.00    -0.207 C  
HETATM   21  H   UNL     1      -9.316  19.655  70.551  1.00  0.00     0.000 HD 
HETATM   22  O   UNL     1      -9.434  18.803  70.149  1.00  0.00     1.031 OA 
HETATM   23  C   UNL     1      -8.056  19.520  68.246  1.00  0.00    -0.334 C  
HETATM   24  O   UNL     1      -5.713  19.104  68.071  1.00  0.00    -0.190 OA 
HETATM   25  H   UNL     1      -8.455  21.066  69.389  1.00  0.00     0.000 HD 
HETATM   26  O   UNL     1      -7.754  20.802  68.804  1.00  0.00     0.480 OA 
HETATM   27  H   UNL     1      -5.502  19.962  68.420  1.00  0.00     0.000 HD 
HETATM   28  C   UNL     1      -8.279  18.470  69.356  1.00  0.00     0.358 C  
BRANCH  19  29
HETATM   29  C   UNL     1      -6.202  17.185  65.768  1.00  0.00     0.577 C  
HETATM   30  O   UNL     1      -5.188  16.497  66.501  1.00  0.00    -0.337 OA 
HETATM   31  H   UNL     1      -4.528  16.174  65.898  1.00  0.00     0.000 HD 
ENDBRANCH  19  29
ENDBRANCH  16  17
ENDBRANCH  10  16
ENDBRANCH   3   4
TORSDOF 5
ENDMDL
MODEL      280
REMARK 921   NORMALIZED FREE ENERGY PREDICTED BY IDOCK:    2.58 KCAL/MOL
REMARK 922        TOTAL FREE ENERGY PREDICTED BY IDOCK:    1.75 KCAL/MOL
REMARK 923 INTER-LIGAND FREE ENERGY PREDICTED BY IDOCK:    2.40 KCAL/MOL
REMARK 924 INTRA-LIGAND FREE ENERGY PREDICTED BY IDOCK:   -0.64 KCAL/MOL
REMARK 927      BINDING AFFINITY PREDICTED BY RF-SCORE:    0.00 PKD
ROOT
HETATM    1  O   UNL     1     -11.912  16.677  71.544  1.00  0.00    -0.562 OA 
HETATM    2  H   UNL     1     -11.725  17.551  71.866  1.00  0.00     0.000 HD 
HETATM    3  C   UNL     1     -10.740  16.126  70.945  1.00  0.00     0.269 C  
ENDROOT
BRANCH   3   4
HETATM    4  C   UNL     1     -11.041  14.718  70.426  1.00  0.00    -0.118 C  
HETATM    5  O   UNL     1     -12.452  14.595  70.165  1.00  0.00    -0.333 OA 
HETATM    6  C   UNL     1     -12.593  13.640  69.110  1.00  0.00     0.379 C  
HETATM    7  O   UNL     1     -13.775  13.969  68.370  1.00  0.00     3.800 OA 
HETATM    8  H   UNL     1     -10.890  14.902  66.621  1.00  0.00     0.000 HD 
HETATM    9  C   UNL     1     -11.365  13.815  68.206  1.00  0.00    -0.285 C  
HETATM   10  C   UNL     1     -10.293  14.405  69.124  1.00  0.00    -0.154 C  
HETATM   11  O   UNL     1     -11.650  14.793  67.181  1.00  0.00    -0.370 OA 
HETATM   12  H   UNL     1     -13.869  13.335  67.668  1.00  0.00     0.000 HD 
BRANCH   6  13
HETATM   13  C   UNL     1     -12.743  12.233  69.708  1.00  0.00     0.515 C  
HETATM   14  H   UNL     1     -12.682  10.402  69.017  1.00  0.00     0.000 HD 
HETATM   15  O   UNL     1     -12.588  11.272  68.647  1.00  0.00    -0.295 OA 
ENDBRANCH   6  13
BRANCH  10  16
HETATM   16  O   UNL     1      -9.226  13.466  69.325  1.00  0.00     0.463 OA 
BRANCH  16  17
HETATM   17  C   UNL     1      -8.668  12.974  68.096  1.00  0.00    -0.190 C  
HETATM   18  O   UNL     1      -8.944  11.576  67.951  1.00  0.00    -0.148 OA 
HETATM   19  C   UNL     1      -8.450  11.045  66.708  1.00  0.00    -0.148 C  
HETATM   20  C   UNL     1      -6.923  11.175  66.643  1.00  0.00    -0.142 C  
HETATM   21  H   UNL     1      -6.002  14.885  68.049  1.00  0.00     0.000 HD 
HETATM   22  O   UNL     1      -6.933  14.699  68.079  1.00  0.00    -0.108 OA 
HETATM   23  C   UNL     1      -6.560  12.661  66.760  1.00  0.00     0.638 C  
HETATM   24  O   UNL     1      -6.256  10.496  67.716  1.00  0.00    -0.054 OA 
HETATM   25  H   UNL     1      -4.913  13.730  66.798  1.00  0.00     0.000 HD 
HETATM   26  O   UNL     1      -5.138  12.810  66.725  1.00  0.00    -0.269 OA 
HETATM   27  H   UNL     1      -5.310  10.576  67.676  1.00  0.00     0.000 HD 
HETATM   28  C   UNL     1      -7.151  13.275  68.047  1.00  0.00    -0.122 C  
BRANCH  19  29
HETATM   29  C   UNL     1      -8.926   9.596  66.584  1.00  0.00    -0.146 C  
HETATM   30  O   UNL     1      -9.210   9.307  65.214  1.00  0.00    -0.224 OA 
HETATM   31  H   UNL     1      -9.505   8.407  65.137  1.00  0.00     0.000 HD 
ENDBRANCH  19  29
ENDBRANCH  16  17
ENDBRANCH  10  16
ENDBRANCH   3   4
TORSDOF 5
ENDMDL
MODEL      281
REMARK 921   NORMALIZED FREE ENERGY PREDICTED BY IDOCK:   10.98 KCAL/MOL
REMARK 922        TOTAL FREE ENERGY PREDICTED BY IDOCK:   12.61 KCAL/MOL
REMARK 923 INTER-LIGAND FREE ENERGY PREDICTED BY IDOCK:   11.23 KCAL/MOL
REMARK 924 INTRA-LIGAND FREE ENERGY PREDICTED BY IDOCK:    1.38 KCAL/MOL
REMARK 927      BINDING AFFINITY PREDICTED BY RF-SCORE:    0.00 PKD
ROOT
HETATM    1  O   UNL     1      -8.872  14.167  72.558  1.00  0.00     6.189 OA 
HETATM    2  H   UNL     1      -9.414  14.373  73.310  1.00  0.00     0.000 HD 
HETATM    3  C   UNL     1      -9.227  15.013  71.465  1.00  0.00     3.825 C  
ENDROOT
BRANCH   3   4
HETATM    4  C   UNL     1      -8.354  14.680  70.253  1.00  0.00     1.189 C  
HETATM    5  O   UNL     1      -7.796  15.895  69.715  1.00  0.00    -0.080 OA 
HETATM    6  C   UNL     1      -6.547  15.544  69.116  1.00  0.00    -0.136 C  
HETATM    7  O   UNL     1      -5.680  16.681  69.199  1.00  0.00    -0.136 OA 
HETATM    8  H   UNL     1      -4.797  14.247  71.554  1.00  0.00     0.000 HD 
HETATM    9  C   UNL     1      -5.969  14.404  69.966  1.00  0.00    -0.141 C  
HETATM   10  C   UNL     1      -7.190  13.747  70.611  1.00  0.00     1.637 C  
HETATM   11  O   UNL     1      -5.155  14.953  71.028  1.00  0.00    -0.123 OA 
HETATM   12  H   UNL     1      -4.849  16.448  68.801  1.00  0.00     0.000 HD 
BRANCH   6  13
HETATM   13  C   UNL     1      -6.769  15.182  67.639  1.00  0.00    -0.176 C  
HETATM   14  H   UNL     1      -6.502  16.080  65.920  1.00  0.00     0.000 HD 
HETATM   15  O   UNL     1      -6.364  16.303  66.833  1.00  0.00    -0.277 OA 
ENDBRANCH   6  13
BRANCH  10  16
HETATM   16  O   UNL     1      -7.382  12.421  70.098  1.00  0.00     0.904 OA 
BRANCH  16  17
HETATM   17  C   UNL     1      -7.552  12.386  68.672  1.00  0.00    -0.082 C  
HETATM   18  O   UNL     1      -8.724  11.637  68.330  1.00  0.00    -0.158 OA 
HETATM   19  C   UNL     1      -8.968  11.617  66.912  1.00  0.00    -0.191 C  
HETATM   20  C   UNL     1      -7.808  10.928  66.181  1.00  0.00    -0.144 C  
HETATM   21  H   UNL     1      -4.372  12.316  67.871  1.00  0.00     0.000 HD 
HETATM   22  O   UNL     1      -5.153  12.667  68.282  1.00  0.00    -0.056 OA 
HETATM   23  C   UNL     1      -6.520  11.706  66.481  1.00  0.00     0.019 C  
HETATM   24  O   UNL     1      -7.593   9.578  66.618  1.00  0.00    -0.096 OA 
HETATM   25  H   UNL     1      -4.618  11.553  66.016  1.00  0.00     0.000 HD 
HETATM   26  O   UNL     1      -5.416  11.071  65.830  1.00  0.00    -0.141 OA 
HETATM   27  H   UNL     1      -6.874   9.152  66.166  1.00  0.00     0.000 HD 
HETATM   28  C   UNL     1      -6.280  11.814  68.002  1.00  0.00    -0.052 C  
BRANCH  19  29
HETATM   29  C   UNL     1     -10.313  10.928  66.668  1.00  0.00    -0.239 C  
HETATM   30  O   UNL     1     -11.372  11.851  66.928  1.00  0.00    -0.306 OA 
HETATM   31  H   UNL     1     -12.206  11.423  66.777  1.00  0.00     0.000 HD 
ENDBRANCH  19  29
ENDBRANCH  16  17
ENDBRANCH  10  16
ENDBRANCH   3   4
TORSDOF 5
ENDMDL
MODEL      282
REMARK 921   NORMALIZED FREE ENERGY PREDICTED BY IDOCK:   19.85 KCAL/MOL
REMARK 922        TOTAL FREE ENERGY PREDICTED BY IDOCK:   24.06 KCAL/MOL
REMARK 923 INTER-LIGAND FREE ENERGY PREDICTED BY IDOCK:   23.47 KCAL/MOL
REMARK 924 INTRA-LIGAND FREE ENERGY PREDICTED BY IDOCK:    0.59 KCAL/MOL
REMARK 927      BINDING AFFINITY PREDICTED BY RF-SCORE:    0.00 PKD
ROOT
HETATM    1  O   UNL     1      -7.688  13.423  71.544  1.00  0.00     4.594 OA 
HETATM    2  H   UNL     1      -7.678  12.472  71.544  1.00  0.00     0.000 HD 
HETATM    3  C   UNL     1      -8.336  13.895  70.364  1.00  0.00     2.946 C  
ENDROOT
BRANCH   3   4
HETATM    4  C   UNL     1      -8.353  15.425  70.364  1.00  0.00     1.165 C  
HETATM    5  O   UNL     1      -7.357  15.916  71.282  1.00  0.00     2.680 OA 
HETATM    6  C   UNL     1      -6.927  17.185  70.783  1.00  0.00     2.809 C  
HETATM    7  O   UNL     1      -5.566  17.381  71.184  1.00  0.00    -0.013 OA 
HETATM    8  H   UNL     1      -5.774  16.547  67.791  1.00  0.00     0.000 HD 
HETATM    9  C   UNL     1      -6.995  17.089  69.252  1.00  0.00    -0.198 C  
HETATM   10  C   UNL     1      -8.047  16.012  68.981  1.00  0.00    -0.226 C  
HETATM   11  O   UNL     1      -5.732  16.607  68.738  1.00  0.00    -0.124 OA 
HETATM   12  H   UNL     1      -5.280  18.224  70.852  1.00  0.00     0.000 HD 
BRANCH   6  13
HETATM   13  C   UNL     1      -7.799  18.296  71.386  1.00  0.00     7.466 C  
HETATM   14  H   UNL     1      -8.036  20.215  71.079  1.00  0.00     0.000 HD 
HETATM   15  O   UNL     1      -7.497  19.528  70.705  1.00  0.00     0.923 OA 
ENDBRANCH   6  13
BRANCH  10  16
HETATM   16  O   UNL     1      -9.211  16.585  68.366  1.00  0.00    -0.208 OA 
BRANCH  16  17
HETATM   17  C   UNL     1      -8.962  17.084  67.042  1.00  0.00    -0.221 C  
HETATM   18  O   UNL     1      -7.650  17.650  66.964  1.00  0.00    -0.189 OA 
HETATM   19  C   UNL     1      -7.332  18.119  65.641  1.00  0.00    -0.025 C  
HETATM   20  C   UNL     1      -8.293  19.242  65.228  1.00  0.00     1.272 C  
HETATM   21  H   UNL     1     -12.019  18.077  66.387  1.00  0.00     0.000 HD 
HETATM   22  O   UNL     1     -11.346  17.453  66.630  1.00  0.00     0.484 OA 
HETATM   23  C   UNL     1      -9.723  18.688  65.260  1.00  0.00     1.539 C  
HETATM   24  O   UNL     1      -8.260  20.365  66.121  1.00  0.00    -0.529 OA 
HETATM   25  H   UNL     1     -11.530  19.378  64.921  1.00  0.00     0.000 HD 
HETATM   26  O   UNL     1     -10.644  19.722  64.901  1.00  0.00     0.075 OA 
HETATM   27  H   UNL     1      -8.855  21.060  65.866  1.00  0.00     0.000 HD 
HETATM   28  C   UNL     1     -10.059  18.102  66.648  1.00  0.00    -0.373 C  
BRANCH  19  29
HETATM   29  C   UNL     1      -5.866  18.562  65.629  1.00  0.00    -0.208 C  
HETATM   30  O   UNL     1      -5.801  19.976  65.439  1.00  0.00    -0.171 OA 
HETATM   31  H   UNL     1      -4.892  20.251  65.431  1.00  0.00     0.000 HD 
ENDBRANCH  19  29
ENDBRANCH  16  17
ENDBRANCH  10  16
ENDBRANCH   3   4
TORSDOF 5
ENDMDL
