MODEL        1
REMARK 921   NORMALIZED FREE ENERGY PREDICTED BY IDOCK:   -6.82 KCAL/MOL
REMARK 922        TOTAL FREE ENERGY PREDICTED BY IDOCK:   -9.72 KCAL/MOL
REMARK 923 INTER-LIGAND FREE ENERGY PREDICTED BY IDOCK:   -8.42 KCAL/MOL
REMARK 924 INTRA-LIGAND FREE ENERGY PREDICTED BY IDOCK:   -1.31 KCAL/MOL
REMARK 927      BINDING AFFINITY PREDICTED BY RF-SCORE:    0.00 PKD
ROOT
HETATM    1  O   UNL     1     -11.782  16.350  63.768  1.00  0.00    -1.553 OA 
HETATM    2  H   UNL     1     -12.370  17.086  63.878  1.00  0.00     0.000 HD 
HETATM    3  C   UNL     1     -12.385  15.154  64.267  1.00  0.00    -0.178 C  
ENDROOT
BRANCH   3   4
HETATM    4  C   UNL     1     -11.428  13.956  64.087  1.00  0.00    -0.249 C  
HETATM    5  O   UNL     1     -10.059  14.281  64.389  1.00  0.00    -0.162 OA 
HETATM    6  C   UNL     1      -9.687  14.284  65.770  1.00  0.00    -0.234 C  
HETATM    7  H   UNL     1     -13.215  13.179  66.965  1.00  0.00     0.000 HD 
HETATM    8  C   UNL     1      -9.961  12.901  66.401  1.00  0.00    -0.267 C  
HETATM    9  O   UNL     1      -9.172  11.873  65.790  1.00  0.00    -0.355 OA 
HETATM   10  H   UNL     1     -13.589  11.684  65.122  1.00  0.00     0.000 HD 
HETATM   11  C   UNL     1     -11.446  12.558  66.248  1.00  0.00    -0.370 C  
HETATM   12  C   UNL     1     -11.887  12.655  64.781  1.00  0.00    -0.380 C  
HETATM   13  O   UNL     1     -12.294  13.391  67.060  1.00  0.00    -0.311 OA 
HETATM   14  H   UNL     1      -9.340  11.022  66.177  1.00  0.00     0.000 HD 
HETATM   15  O   UNL     1     -13.306  12.485  64.696  1.00  0.00    -0.804 OA 
BRANCH   6  16
HETATM   16  O   UNL     1     -10.337  15.367  66.434  1.00  0.00    -0.276 OA 
BRANCH  16  17
HETATM   17  C   UNL     1      -9.796  15.829  67.688  1.00  0.00    -0.232 C  
HETATM   18  O   UNL     1      -8.142  17.256  68.795  1.00  0.00    -0.266 OA 
HETATM   19  C   UNL     1      -8.749  16.944  67.533  1.00  0.00    -0.208 C  
HETATM   20  H   UNL     1      -7.495  17.946  68.699  1.00  0.00     0.000 HD 
HETATM   21  C   UNL     1     -10.579  18.629  67.863  1.00  0.00    -0.349 C  
HETATM   22  O   UNL     1      -9.817  17.991  65.609  1.00  0.00    -0.494 OA 
HETATM   23  C   UNL     1      -9.399  18.209  66.959  1.00  0.00    -0.270 C  
HETATM   24  O   UNL     1     -10.151  19.128  69.121  1.00  0.00    -0.521 OA 
HETATM   25  O   UNL     1     -11.529  17.572  68.025  1.00  0.00     0.197 OA 
HETATM   26  H   UNL     1     -10.220  18.774  65.253  1.00  0.00     0.000 HD 
HETATM   27  H   UNL     1     -10.876  19.386  69.677  1.00  0.00     0.000 HD 
HETATM   28  C   UNL     1     -11.016  16.324  68.506  1.00  0.00    -0.345 C  
BRANCH  28  29
HETATM   29  C   UNL     1     -10.807  16.305  70.028  1.00  0.00    -0.329 C  
HETATM   30  O   UNL     1      -9.927  15.246  70.401  1.00  0.00    -0.461 OA 
HETATM   31  H   UNL     1      -9.798  15.234  71.342  1.00  0.00     0.000 HD 
ENDBRANCH  28  29
ENDBRANCH  16  17
ENDBRANCH   6  16
ENDBRANCH   3   4
TORSDOF 4
ENDMDL
MODEL        2
REMARK 921   NORMALIZED FREE ENERGY PREDICTED BY IDOCK:   -6.66 KCAL/MOL
REMARK 922        TOTAL FREE ENERGY PREDICTED BY IDOCK:   -9.53 KCAL/MOL
REMARK 923 INTER-LIGAND FREE ENERGY PREDICTED BY IDOCK:   -8.39 KCAL/MOL
REMARK 924 INTRA-LIGAND FREE ENERGY PREDICTED BY IDOCK:   -1.14 KCAL/MOL
REMARK 927      BINDING AFFINITY PREDICTED BY RF-SCORE:    0.00 PKD
ROOT
HETATM    1  O   UNL     1     -12.521  10.675  68.811  1.00  0.00    -0.795 OA 
HETATM    2  H   UNL     1     -13.044  11.272  69.333  1.00  0.00     0.000 HD 
HETATM    3  C   UNL     1     -11.179  10.633  69.298  1.00  0.00    -0.273 C  
ENDROOT
BRANCH   3   4
HETATM    4  C   UNL     1     -10.330   9.663  68.449  1.00  0.00    -0.204 C  
HETATM    5  O   UNL     1     -10.732   9.628  67.068  1.00  0.00    -0.230 OA 
HETATM    6  C   UNL     1     -10.246  10.680  66.229  1.00  0.00    -0.245 C  
HETATM    7  H   UNL     1      -8.184  12.322  69.084  1.00  0.00     0.000 HD 
HETATM    8  C   UNL     1      -8.702  10.702  66.239  1.00  0.00    -0.156 C  
HETATM    9  O   UNL     1      -8.150   9.493  65.702  1.00  0.00    -0.108 OA 
HETATM   10  H   UNL     1      -7.508  10.237  70.064  1.00  0.00     0.000 HD 
HETATM   11  C   UNL     1      -8.205  10.892  67.675  1.00  0.00    -0.116 C  
HETATM   12  C   UNL     1      -8.804   9.832  68.611  1.00  0.00    -0.126 C  
HETATM   13  O   UNL     1      -8.491  12.204  68.192  1.00  0.00    -0.162 OA 
HETATM   14  H   UNL     1      -7.200   9.507  65.708  1.00  0.00     0.000 HD 
HETATM   15  O   UNL     1      -8.447  10.133  69.964  1.00  0.00    -0.160 OA 
BRANCH   6  16
HETATM   16  O   UNL     1     -10.849  11.914  66.618  1.00  0.00    -0.251 OA 
BRANCH  16  17
HETATM   17  C   UNL     1     -11.872  12.476  65.772  1.00  0.00    -0.437 C  
HETATM   18  O   UNL     1     -13.581  14.212  65.513  1.00  0.00    -0.685 OA 
HETATM   19  C   UNL     1     -12.472  13.783  66.316  1.00  0.00    -0.391 C  
HETATM   20  H   UNL     1     -13.951  15.019  65.850  1.00  0.00     0.000 HD 
HETATM   21  C   UNL     1     -10.817  15.055  64.923  1.00  0.00    -0.411 C  
HETATM   22  O   UNL     1     -10.396  14.590  67.305  1.00  0.00    -0.257 OA 
HETATM   23  C   UNL     1     -11.409  14.888  66.341  1.00  0.00    -0.308 C  
HETATM   24  O   UNL     1     -11.742  15.630  64.012  1.00  0.00    -0.899 OA 
HETATM   25  O   UNL     1     -10.293  13.825  64.416  1.00  0.00    -0.415 OA 
HETATM   26  H   UNL     1      -9.737  15.274  67.320  1.00  0.00     0.000 HD 
HETATM   27  H   UNL     1     -11.378  15.733  63.141  1.00  0.00     0.000 HD 
HETATM   28  C   UNL     1     -11.190  12.709  64.400  1.00  0.00    -0.346 C  
BRANCH  28  29
HETATM   29  C   UNL     1     -12.159  12.732  63.208  1.00  0.00    -0.439 C  
HETATM   30  O   UNL     1     -12.649  11.421  62.933  1.00  0.00    -0.970 OA 
HETATM   31  H   UNL     1     -13.247  11.435  62.196  1.00  0.00     0.000 HD 
ENDBRANCH  28  29
ENDBRANCH  16  17
ENDBRANCH   6  16
ENDBRANCH   3   4
TORSDOF 4
ENDMDL
MODEL        3
REMARK 921   NORMALIZED FREE ENERGY PREDICTED BY IDOCK:   -6.57 KCAL/MOL
REMARK 922        TOTAL FREE ENERGY PREDICTED BY IDOCK:   -9.41 KCAL/MOL
REMARK 923 INTER-LIGAND FREE ENERGY PREDICTED BY IDOCK:   -8.41 KCAL/MOL
REMARK 924 INTRA-LIGAND FREE ENERGY PREDICTED BY IDOCK:   -1.00 KCAL/MOL
REMARK 927      BINDING AFFINITY PREDICTED BY RF-SCORE:    0.00 PKD
ROOT
HETATM    1  O   UNL     1     -12.025  16.124  63.651  1.00  0.00    -1.375 OA 
HETATM    2  H   UNL     1     -12.800  16.667  63.570  1.00  0.00     0.000 HD 
HETATM    3  C   UNL     1     -12.282  15.021  64.522  1.00  0.00    -0.331 C  
ENDROOT
BRANCH   3   4
HETATM    4  C   UNL     1     -11.023  14.137  64.655  1.00  0.00    -0.382 C  
HETATM    5  O   UNL     1      -9.801  14.897  64.647  1.00  0.00    -0.042 OA 
HETATM    6  C   UNL     1      -9.418  15.511  65.880  1.00  0.00    -0.342 C  
HETATM    7  H   UNL     1     -12.448  14.050  67.823  1.00  0.00     0.000 HD 
HETATM    8  C   UNL     1      -9.266  14.443  66.985  1.00  0.00    -0.234 C  
HETATM    9  O   UNL     1      -8.225  13.506  66.679  1.00  0.00    -0.401 OA 
HETATM   10  H   UNL     1     -12.411  11.935  66.686  1.00  0.00     0.000 HD 
HETATM   11  C   UNL     1     -10.590  13.692  67.152  1.00  0.00    -0.272 C  
HETATM   12  C   UNL     1     -11.071  13.117  65.813  1.00  0.00    -0.273 C  
HETATM   13  O   UNL     1     -11.626  14.515  67.720  1.00  0.00    -0.330 OA 
HETATM   14  H   UNL     1      -8.132  12.849  67.358  1.00  0.00     0.000 HD 
HETATM   15  O   UNL     1     -12.381  12.562  65.973  1.00  0.00    -0.615 OA 
BRANCH   6  16
HETATM   16  O   UNL     1     -10.340  16.552  66.199  1.00  0.00    -0.319 OA 
BRANCH  16  17
HETATM   17  C   UNL     1      -9.871  17.916  66.177  1.00  0.00    -0.249 C  
HETATM   18  O   UNL     1     -10.162  20.188  67.044  1.00  0.00    -0.432 OA 
HETATM   19  C   UNL     1     -10.559  18.820  67.213  1.00  0.00    -0.442 C  
HETATM   20  H   UNL     1     -10.587  20.746  67.685  1.00  0.00     0.000 HD 
HETATM   21  C   UNL     1      -8.670  18.344  68.796  1.00  0.00    -0.221 C  
HETATM   22  O   UNL     1     -10.785  17.086  68.911  1.00  0.00    -0.335 OA 
HETATM   23  C   UNL     1     -10.207  18.364  68.635  1.00  0.00    -0.339 C  
HETATM   24  O   UNL     1      -8.108  19.648  68.814  1.00  0.00    -0.340 OA 
HETATM   25  O   UNL     1      -8.041  17.527  67.806  1.00  0.00    -0.213 OA 
HETATM   26  H   UNL     1     -10.567  16.804  69.791  1.00  0.00     0.000 HD 
HETATM   27  H   UNL     1      -7.163  19.635  68.913  1.00  0.00     0.000 HD 
HETATM   28  C   UNL     1      -8.346  17.833  66.440  1.00  0.00    -0.248 C  
BRANCH  28  29
HETATM   29  C   UNL     1      -7.544  19.024  65.896  1.00  0.00    -0.195 C  
HETATM   30  O   UNL     1      -6.581  18.587  64.938  1.00  0.00    -0.480 OA 
HETATM   31  H   UNL     1      -6.085  19.324  64.602  1.00  0.00     0.000 HD 
ENDBRANCH  28  29
ENDBRANCH  16  17
ENDBRANCH   6  16
ENDBRANCH   3   4
TORSDOF 4
ENDMDL
MODEL        4
REMARK 921   NORMALIZED FREE ENERGY PREDICTED BY IDOCK:   -6.55 KCAL/MOL
REMARK 922        TOTAL FREE ENERGY PREDICTED BY IDOCK:   -9.40 KCAL/MOL
REMARK 923 INTER-LIGAND FREE ENERGY PREDICTED BY IDOCK:   -8.45 KCAL/MOL
REMARK 924 INTRA-LIGAND FREE ENERGY PREDICTED BY IDOCK:   -0.95 KCAL/MOL
REMARK 927      BINDING AFFINITY PREDICTED BY RF-SCORE:    0.00 PKD
ROOT
HETATM    1  O   UNL     1      -8.048  16.438  68.774  1.00  0.00    -0.209 OA 
HETATM    2  H   UNL     1      -7.753  15.644  69.203  1.00  0.00     0.000 HD 
HETATM    3  C   UNL     1      -7.322  16.645  67.560  1.00  0.00    -0.149 C  
ENDROOT
BRANCH   3   4
HETATM    4  C   UNL     1      -7.802  17.937  66.862  1.00  0.00    -0.221 C  
HETATM    5  O   UNL     1      -8.703  17.682  65.770  1.00  0.00    -0.511 OA 
HETATM    6  C   UNL     1     -10.071  17.437  66.108  1.00  0.00    -0.300 C  
HETATM    7  H   UNL     1      -9.471  17.960  69.911  1.00  0.00     0.000 HD 
HETATM    8  C   UNL     1     -10.652  18.636  66.889  1.00  0.00    -0.385 C  
HETATM    9  O   UNL     1     -10.656  19.832  66.099  1.00  0.00    -0.480 OA 
HETATM   10  H   UNL     1      -7.899  19.753  69.618  1.00  0.00     0.000 HD 
HETATM   11  C   UNL     1      -9.822  18.868  68.155  1.00  0.00    -0.368 C  
HETATM   12  C   UNL     1      -8.333  19.026  67.818  1.00  0.00    -0.288 C  
HETATM   13  O   UNL     1      -9.985  17.817  69.125  1.00  0.00    -0.291 OA 
HETATM   14  H   UNL     1     -11.013  20.570  66.579  1.00  0.00     0.000 HD 
HETATM   15  O   UNL     1      -7.572  19.082  69.030  1.00  0.00    -0.330 OA 
BRANCH   6  16
HETATM   16  O   UNL     1     -10.174  16.190  66.793  1.00  0.00    -0.267 OA 
BRANCH  16  17
HETATM   17  C   UNL     1     -10.186  14.976  66.015  1.00  0.00    -0.301 C  
HETATM   18  O   UNL     1      -9.406  12.662  65.830  1.00  0.00    -0.426 OA 
HETATM   19  C   UNL     1      -9.493  13.792  66.709  1.00  0.00    -0.275 C  
HETATM   20  H   UNL     1      -8.978  11.930  66.260  1.00  0.00     0.000 HD 
HETATM   21  C   UNL     1     -11.729  13.079  67.598  1.00  0.00    -0.366 C  
HETATM   22  O   UNL     1     -10.178  14.419  68.963  1.00  0.00    -0.267 OA 
HETATM   23  C   UNL     1     -10.264  13.391  67.974  1.00  0.00    -0.243 C  
HETATM   24  O   UNL     1     -11.856  11.881  66.847  1.00  0.00    -0.590 OA 
HETATM   25  O   UNL     1     -12.352  14.176  66.923  1.00  0.00    -0.419 OA 
HETATM   26  H   UNL     1     -10.655  14.171  69.745  1.00  0.00     0.000 HD 
HETATM   27  H   UNL     1     -12.757  11.689  66.616  1.00  0.00     0.000 HD 
HETATM   28  C   UNL     1     -11.683  14.667  65.755  1.00  0.00    -0.302 C  
BRANCH  28  29
HETATM   29  C   UNL     1     -11.946  13.813  64.506  1.00  0.00    -0.427 C  
HETATM   30  O   UNL     1     -12.597  14.584  63.498  1.00  0.00    -1.034 OA 
HETATM   31  H   UNL     1     -12.759  14.056  62.726  1.00  0.00     0.000 HD 
ENDBRANCH  28  29
ENDBRANCH  16  17
ENDBRANCH   6  16
ENDBRANCH   3   4
TORSDOF 4
ENDMDL
MODEL        5
REMARK 921   NORMALIZED FREE ENERGY PREDICTED BY IDOCK:   -6.54 KCAL/MOL
REMARK 922        TOTAL FREE ENERGY PREDICTED BY IDOCK:   -9.38 KCAL/MOL
REMARK 923 INTER-LIGAND FREE ENERGY PREDICTED BY IDOCK:   -8.38 KCAL/MOL
REMARK 924 INTRA-LIGAND FREE ENERGY PREDICTED BY IDOCK:   -1.00 KCAL/MOL
REMARK 927      BINDING AFFINITY PREDICTED BY RF-SCORE:    0.00 PKD
ROOT
HETATM    1  O   UNL     1      -9.909  17.835  65.876  1.00  0.00    -0.524 OA 
HETATM    2  H   UNL     1     -10.331  18.142  65.083  1.00  0.00     0.000 HD 
HETATM    3  C   UNL     1     -10.661  18.232  67.025  1.00  0.00    -0.349 C  
ENDROOT
BRANCH   3   4
HETATM    4  C   UNL     1      -9.975  17.732  68.314  1.00  0.00    -0.355 C  
HETATM    5  O   UNL     1     -10.677  16.640  68.936  1.00  0.00    -0.302 OA 
HETATM    6  C   UNL     1     -10.453  15.337  68.391  1.00  0.00    -0.236 C  
HETATM    7  H   UNL     1      -7.889  16.618  65.767  1.00  0.00     0.000 HD 
HETATM    8  C   UNL     1      -8.950  14.985  68.449  1.00  0.00    -0.179 C  
HETATM    9  O   UNL     1      -8.468  14.929  69.798  1.00  0.00    -0.442 OA 
HETATM   10  H   UNL     1      -6.896  18.238  67.235  1.00  0.00     0.000 HD 
HETATM   11  C   UNL     1      -8.151  16.034  67.670  1.00  0.00    -0.149 C  
HETATM   12  C   UNL     1      -8.464  17.451  68.172  1.00  0.00    -0.241 C  
HETATM   13  O   UNL     1      -8.384  15.967  66.251  1.00  0.00    -0.308 OA 
HETATM   14  H   UNL     1      -7.545  14.712  69.833  1.00  0.00     0.000 HD 
HETATM   15  O   UNL     1      -7.826  18.411  67.323  1.00  0.00    -0.226 OA 
BRANCH   6  16
HETATM   16  O   UNL     1     -11.018  15.266  67.083  1.00  0.00    -0.324 OA 
BRANCH  16  17
HETATM   17  C   UNL     1     -11.696  14.055  66.693  1.00  0.00    -0.399 C  
HETATM   18  O   UNL     1     -13.282  13.012  65.145  1.00  0.00    -0.703 OA 
HETATM   19  C   UNL     1     -12.516  14.197  65.399  1.00  0.00    -0.472 C  
HETATM   20  H   UNL     1     -13.788  13.101  64.345  1.00  0.00     0.000 HD 
HETATM   21  C   UNL     1     -10.537  13.336  64.118  1.00  0.00    -0.309 C  
HETATM   22  O   UNL     1     -10.975  15.751  64.325  1.00  0.00    -0.821 OA 
HETATM   23  C   UNL     1     -11.588  14.465  64.207  1.00  0.00    -0.262 C  
HETATM   24  O   UNL     1     -11.101  12.098  63.713  1.00  0.00    -0.360 OA 
HETATM   25  O   UNL     1      -9.805  13.192  65.338  1.00  0.00    -0.217 OA 
HETATM   26  H   UNL     1     -10.400  15.917  63.588  1.00  0.00     0.000 HD 
HETATM   27  H   UNL     1     -10.455  11.404  63.658  1.00  0.00     0.000 HD 
HETATM   28  C   UNL     1     -10.580  12.992  66.526  1.00  0.00    -0.282 C  
BRANCH  28  29
HETATM   29  C   UNL     1     -11.057  11.542  66.697  1.00  0.00    -0.295 C  
HETATM   30  O   UNL     1     -12.121  11.471  67.645  1.00  0.00    -0.623 OA 
HETATM   31  H   UNL     1     -12.415  10.574  67.751  1.00  0.00     0.000 HD 
ENDBRANCH  28  29
ENDBRANCH  16  17
ENDBRANCH   6  16
ENDBRANCH   3   4
TORSDOF 4
ENDMDL
MODEL        6
REMARK 921   NORMALIZED FREE ENERGY PREDICTED BY IDOCK:   -6.50 KCAL/MOL
REMARK 922        TOTAL FREE ENERGY PREDICTED BY IDOCK:   -9.33 KCAL/MOL
REMARK 923 INTER-LIGAND FREE ENERGY PREDICTED BY IDOCK:   -8.67 KCAL/MOL
REMARK 924 INTRA-LIGAND FREE ENERGY PREDICTED BY IDOCK:   -0.67 KCAL/MOL
REMARK 927      BINDING AFFINITY PREDICTED BY RF-SCORE:    0.00 PKD
ROOT
HETATM    1  O   UNL     1     -10.392  19.761  69.417  1.00  0.00    -0.638 OA 
HETATM    2  H   UNL     1     -11.338  19.802  69.491  1.00  0.00     0.000 HD 
HETATM    3  C   UNL     1      -9.990  18.505  68.869  1.00  0.00    -0.347 C  
ENDROOT
BRANCH   3   4
HETATM    4  C   UNL     1      -8.452  18.440  68.747  1.00  0.00    -0.228 C  
HETATM    5  O   UNL     1      -7.928  17.118  68.966  1.00  0.00    -0.229 OA 
HETATM    6  C   UNL     1      -7.987  16.211  67.862  1.00  0.00    -0.141 C  
HETATM    7  H   UNL     1      -9.537  18.852  65.471  1.00  0.00     0.000 HD 
HETATM    8  C   UNL     1      -7.224  16.793  66.651  1.00  0.00    -0.254 C  
HETATM    9  O   UNL     1      -5.830  16.968  66.935  1.00  0.00    -0.161 OA 
HETATM   10  H   UNL     1      -8.244  20.683  66.334  1.00  0.00     0.000 HD 
HETATM   11  C   UNL     1      -7.835  18.143  66.266  1.00  0.00    -0.245 C  
HETATM   12  C   UNL     1      -7.879  19.093  67.472  1.00  0.00    -0.245 C  
HETATM   13  O   UNL     1      -9.157  18.015  65.710  1.00  0.00    -0.482 OA 
HETATM   14  H   UNL     1      -5.361  17.326  66.191  1.00  0.00     0.000 HD 
HETATM   15  O   UNL     1      -8.596  20.281  67.119  1.00  0.00    -0.331 OA 
BRANCH   6  16
HETATM   16  O   UNL     1      -9.348  15.882  67.589  1.00  0.00    -0.214 OA 
BRANCH  16  17
HETATM   17  C   UNL     1      -9.640  15.064  66.438  1.00  0.00    -0.289 C  
HETATM   18  O   UNL     1      -9.541  12.826  65.446  1.00  0.00    -0.459 OA 
HETATM   19  C   UNL     1      -9.376  13.565  66.665  1.00  0.00    -0.245 C  
HETATM   20  H   UNL     1      -9.379  11.900  65.587  1.00  0.00     0.000 HD 
HETATM   21  C   UNL     1     -11.790  13.295  67.295  1.00  0.00    -0.372 C  
HETATM   22  O   UNL     1     -10.042  13.570  69.009  1.00  0.00    -0.420 OA 
HETATM   23  C   UNL     1     -10.334  13.010  67.726  1.00  0.00    -0.226 C  
HETATM   24  O   UNL     1     -12.189  12.515  66.178  1.00  0.00    -0.609 OA 
HETATM   25  O   UNL     1     -12.013  14.687  67.056  1.00  0.00    -0.382 OA 
HETATM   26  H   UNL     1     -10.636  13.227  69.666  1.00  0.00     0.000 HD 
HETATM   27  H   UNL     1     -13.085  12.690  65.913  1.00  0.00     0.000 HD 
HETATM   28  C   UNL     1     -11.134  15.320  66.118  1.00  0.00    -0.280 C  
BRANCH  28  29
HETATM   29  C   UNL     1     -11.523  15.057  64.656  1.00  0.00    -0.381 C  
HETATM   30  O   UNL     1     -11.587  16.280  63.924  1.00  0.00    -1.489 OA 
HETATM   31  H   UNL     1     -11.828  16.117  63.020  1.00  0.00     0.000 HD 
ENDBRANCH  28  29
ENDBRANCH  16  17
ENDBRANCH   6  16
ENDBRANCH   3   4
TORSDOF 4
ENDMDL
MODEL        7
REMARK 921   NORMALIZED FREE ENERGY PREDICTED BY IDOCK:   -6.34 KCAL/MOL
REMARK 922        TOTAL FREE ENERGY PREDICTED BY IDOCK:   -9.13 KCAL/MOL
REMARK 923 INTER-LIGAND FREE ENERGY PREDICTED BY IDOCK:   -7.77 KCAL/MOL
REMARK 924 INTRA-LIGAND FREE ENERGY PREDICTED BY IDOCK:   -1.36 KCAL/MOL
REMARK 927      BINDING AFFINITY PREDICTED BY RF-SCORE:    0.00 PKD
ROOT
HETATM    1  O   UNL     1      -7.842  13.087  66.997  1.00  0.00    -0.366 OA 
HETATM    2  H   UNL     1      -7.365  13.481  66.276  1.00  0.00     0.000 HD 
HETATM    3  C   UNL     1      -7.616  11.677  67.028  1.00  0.00    -0.154 C  
ENDROOT
BRANCH   3   4
HETATM    4  C   UNL     1      -8.391  11.036  68.201  1.00  0.00    -0.130 C  
HETATM    5  O   UNL     1      -9.552  11.793  68.585  1.00  0.00    -0.186 OA 
HETATM    6  C   UNL     1     -10.730  11.610  67.795  1.00  0.00    -0.204 C  
HETATM    7  H   UNL     1      -9.066   8.947  65.506  1.00  0.00     0.000 HD 
HETATM    8  C   UNL     1     -11.151  10.123  67.799  1.00  0.00    -0.227 C  
HETATM    9  O   UNL     1     -11.493   9.671  69.115  1.00  0.00    -0.456 OA 
HETATM   10  H   UNL     1      -7.812   7.919  67.278  1.00  0.00     0.000 HD 
HETATM   11  C   UNL     1     -10.003   9.269  67.253  1.00  0.00    -0.207 C  
HETATM   12  C   UNL     1      -8.702   9.535  68.022  1.00  0.00    -0.120 C  
HETATM   13  O   UNL     1      -9.778   9.477  65.846  1.00  0.00    -0.245 OA 
HETATM   14  H   UNL     1     -11.751   8.757  69.117  1.00  0.00     0.000 HD 
HETATM   15  O   UNL     1      -7.621   8.843  67.388  1.00  0.00    -0.088 OA 
BRANCH   6  16
HETATM   16  O   UNL     1     -10.518  12.152  66.493  1.00  0.00    -0.219 OA 
BRANCH  16  17
HETATM   17  C   UNL     1     -11.662  12.602  65.740  1.00  0.00    -0.419 C  
HETATM   18  O   UNL     1     -13.538  14.173  65.622  1.00  0.00    -0.671 OA 
HETATM   19  C   UNL     1     -12.325  13.862  66.322  1.00  0.00    -0.449 C  
HETATM   20  H   UNL     1     -13.947  14.951  65.982  1.00  0.00     0.000 HD 
HETATM   21  C   UNL     1     -10.930  15.247  64.763  1.00  0.00    -0.386 C  
HETATM   22  O   UNL     1     -10.248  14.872  67.100  1.00  0.00    -0.243 OA 
HETATM   23  C   UNL     1     -11.369  15.057  66.232  1.00  0.00    -0.273 C  
HETATM   24  O   UNL     1     -11.984  15.717  63.936  1.00  0.00    -1.008 OA 
HETATM   25  O   UNL     1     -10.346  14.058  64.223  1.00  0.00    -0.253 OA 
HETATM   26  H   UNL     1      -9.655  15.612  67.043  1.00  0.00     0.000 HD 
HETATM   27  H   UNL     1     -11.714  15.834  63.033  1.00  0.00     0.000 HD 
HETATM   28  C   UNL     1     -11.136  12.866  64.307  1.00  0.00    -0.378 C  
BRANCH  28  29
HETATM   29  C   UNL     1     -12.209  12.777  63.212  1.00  0.00    -0.410 C  
HETATM   30  O   UNL     1     -13.305  11.973  63.646  1.00  0.00    -0.676 OA 
HETATM   31  H   UNL     1     -13.968  11.918  62.969  1.00  0.00     0.000 HD 
ENDBRANCH  28  29
ENDBRANCH  16  17
ENDBRANCH   6  16
ENDBRANCH   3   4
TORSDOF 4
ENDMDL
MODEL        8
REMARK 921   NORMALIZED FREE ENERGY PREDICTED BY IDOCK:   -6.29 KCAL/MOL
REMARK 922        TOTAL FREE ENERGY PREDICTED BY IDOCK:   -9.07 KCAL/MOL
REMARK 923 INTER-LIGAND FREE ENERGY PREDICTED BY IDOCK:   -8.03 KCAL/MOL
REMARK 924 INTRA-LIGAND FREE ENERGY PREDICTED BY IDOCK:   -1.04 KCAL/MOL
REMARK 927      BINDING AFFINITY PREDICTED BY RF-SCORE:    0.00 PKD
ROOT
HETATM    1  O   UNL     1     -11.996  14.945  63.891  1.00  0.00    -0.847 OA 
HETATM    2  H   UNL     1     -12.485  15.621  63.439  1.00  0.00     0.000 HD 
HETATM    3  C   UNL     1     -11.145  15.526  64.882  1.00  0.00    -0.416 C  
ENDROOT
BRANCH   3   4
HETATM    4  C   UNL     1     -10.350  14.426  65.618  1.00  0.00    -0.342 C  
HETATM    5  O   UNL     1      -9.071  14.881  66.093  1.00  0.00    -0.266 OA 
HETATM    6  C   UNL     1      -9.064  15.614  67.321  1.00  0.00    -0.205 C  
HETATM    7  H   UNL     1     -12.898  15.247  67.834  1.00  0.00     0.000 HD 
HETATM    8  C   UNL     1      -9.679  14.764  68.455  1.00  0.00    -0.218 C  
HETATM    9  O   UNL     1      -8.912  13.579  68.707  1.00  0.00    -0.371 OA 
HETATM   10  H   UNL     1     -12.997  13.002  66.985  1.00  0.00     0.000 HD 
HETATM   11  C   UNL     1     -11.109  14.369  68.076  1.00  0.00    -0.272 C  
HETATM   12  C   UNL     1     -11.147  13.676  66.707  1.00  0.00    -0.307 C  
HETATM   13  O   UNL     1     -12.011  15.491  68.070  1.00  0.00    -0.195 OA 
HETATM   14  H   UNL     1      -9.289  13.056  69.403  1.00  0.00     0.000 HD 
HETATM   15  O   UNL     1     -12.507  13.464  66.315  1.00  0.00    -0.370 OA 
BRANCH   6  16
HETATM   16  O   UNL     1      -9.705  16.874  67.126  1.00  0.00    -0.242 OA 
BRANCH  16  17
HETATM   17  C   UNL     1      -9.334  17.974  67.982  1.00  0.00    -0.272 C  
HETATM   18  O   UNL     1      -7.500  19.273  68.957  1.00  0.00    -0.352 OA 
HETATM   19  C   UNL     1      -7.825  18.274  67.980  1.00  0.00    -0.265 C  
HETATM   20  H   UNL     1      -6.568  19.458  68.955  1.00  0.00     0.000 HD 
HETATM   21  C   UNL     1      -8.225  19.985  66.189  1.00  0.00    -0.272 C  
HETATM   22  O   UNL     1      -7.483  17.702  65.636  1.00  0.00    -0.508 OA 
HETATM   23  C   UNL     1      -7.380  18.757  66.594  1.00  0.00    -0.225 C  
HETATM   24  O   UNL     1      -7.917  21.137  66.958  1.00  0.00    -0.625 OA 
HETATM   25  O   UNL     1      -9.627  19.702  66.226  1.00  0.00    -0.368 OA 
HETATM   26  H   UNL     1      -7.208  18.001  64.778  1.00  0.00     0.000 HD 
HETATM   27  H   UNL     1      -8.437  21.892  66.708  1.00  0.00     0.000 HD 
HETATM   28  C   UNL     1     -10.140  19.191  67.462  1.00  0.00    -0.376 C  
BRANCH  28  29
HETATM   29  C   UNL     1     -10.382  20.285  68.513  1.00  0.00    -0.123 C  
HETATM   30  O   UNL     1     -10.400  19.727  69.825  1.00  0.00    -0.591 OA 
HETATM   31  H   UNL     1     -10.549  20.403  70.475  1.00  0.00     0.000 HD 
ENDBRANCH  28  29
ENDBRANCH  16  17
ENDBRANCH   6  16
ENDBRANCH   3   4
TORSDOF 4
ENDMDL
MODEL        9
REMARK 921   NORMALIZED FREE ENERGY PREDICTED BY IDOCK:   -6.29 KCAL/MOL
REMARK 922        TOTAL FREE ENERGY PREDICTED BY IDOCK:   -9.06 KCAL/MOL
REMARK 923 INTER-LIGAND FREE ENERGY PREDICTED BY IDOCK:   -7.87 KCAL/MOL
REMARK 924 INTRA-LIGAND FREE ENERGY PREDICTED BY IDOCK:   -1.20 KCAL/MOL
REMARK 927      BINDING AFFINITY PREDICTED BY RF-SCORE:    0.00 PKD
ROOT
HETATM    1  O   UNL     1     -12.440  14.799  69.270  1.00  0.00    -0.562 OA 
HETATM    2  H   UNL     1     -12.211  14.959  70.178  1.00  0.00     0.000 HD 
HETATM    3  C   UNL     1     -11.717  13.675  68.767  1.00  0.00    -0.348 C  
ENDROOT
BRANCH   3   4
HETATM    4  C   UNL     1     -12.090  13.413  67.291  1.00  0.00    -0.304 C  
HETATM    5  O   UNL     1     -12.294  14.624  66.542  1.00  0.00    -0.265 OA 
HETATM    6  C   UNL     1     -11.123  15.287  66.058  1.00  0.00    -0.278 C  
HETATM    7  H   UNL     1      -8.722  12.576  67.466  1.00  0.00     0.000 HD 
HETATM    8  C   UNL     1     -10.309  14.338  65.150  1.00  0.00    -0.415 C  
HETATM    9  O   UNL     1     -11.047  13.955  63.983  1.00  0.00    -0.576 OA 
HETATM   10  H   UNL     1     -10.184  10.737  66.966  1.00  0.00     0.000 HD 
HETATM   11  C   UNL     1      -9.925  13.084  65.941  1.00  0.00    -0.267 C  
HETATM   12  C   UNL     1     -11.163  12.420  66.559  1.00  0.00    -0.319 C  
HETATM   13  O   UNL     1      -8.960  13.354  66.975  1.00  0.00    -0.217 OA 
HETATM   14  H   UNL     1     -10.547  13.372  63.426  1.00  0.00     0.000 HD 
HETATM   15  O   UNL     1     -10.754  11.349  67.416  1.00  0.00    -0.207 OA 
BRANCH   6  16
HETATM   16  O   UNL     1     -10.386  15.814  67.160  1.00  0.00    -0.278 OA 
BRANCH  16  17
HETATM   17  C   UNL     1     -10.571  17.200  67.510  1.00  0.00    -0.323 C  
HETATM   18  O   UNL     1     -10.208  18.948  69.188  1.00  0.00    -0.526 OA 
HETATM   19  C   UNL     1      -9.866  17.605  68.816  1.00  0.00    -0.334 C  
HETATM   20  H   UNL     1      -9.772  19.197  69.995  1.00  0.00     0.000 HD 
HETATM   21  C   UNL     1      -7.897  18.356  67.454  1.00  0.00    -0.234 C  
HETATM   22  O   UNL     1      -7.951  16.130  68.506  1.00  0.00    -0.158 OA 
HETATM   23  C   UNL     1      -8.345  17.496  68.656  1.00  0.00    -0.258 C  
HETATM   24  O   UNL     1      -8.015  19.748  67.706  1.00  0.00    -0.286 OA 
HETATM   25  O   UNL     1      -8.584  17.992  66.253  1.00  0.00    -0.391 OA 
HETATM   26  H   UNL     1      -7.009  16.062  68.407  1.00  0.00     0.000 HD 
HETATM   27  H   UNL     1      -7.740  20.277  66.967  1.00  0.00     0.000 HD 
HETATM   28  C   UNL     1     -10.015  18.007  66.309  1.00  0.00    -0.337 C  
BRANCH  28  29
HETATM   29  C   UNL     1     -10.609  19.416  66.164  1.00  0.00    -0.477 C  
HETATM   30  O   UNL     1      -9.709  20.270  65.459  1.00  0.00    -0.505 OA 
HETATM   31  H   UNL     1     -10.076  21.142  65.370  1.00  0.00     0.000 HD 
ENDBRANCH  28  29
ENDBRANCH  16  17
ENDBRANCH   6  16
ENDBRANCH   3   4
TORSDOF 4
ENDMDL
MODEL       10
REMARK 921   NORMALIZED FREE ENERGY PREDICTED BY IDOCK:   -6.25 KCAL/MOL
REMARK 922        TOTAL FREE ENERGY PREDICTED BY IDOCK:   -9.02 KCAL/MOL
REMARK 923 INTER-LIGAND FREE ENERGY PREDICTED BY IDOCK:   -8.23 KCAL/MOL
REMARK 924 INTRA-LIGAND FREE ENERGY PREDICTED BY IDOCK:   -0.78 KCAL/MOL
REMARK 927      BINDING AFFINITY PREDICTED BY RF-SCORE:    0.00 PKD
ROOT
HETATM    1  O   UNL     1     -11.815  16.160  63.741  1.00  0.00    -1.408 OA 
HETATM    2  H   UNL     1     -12.421  16.868  63.921  1.00  0.00     0.000 HD 
HETATM    3  C   UNL     1     -12.275  14.948  64.343  1.00  0.00    -0.381 C  
ENDROOT
BRANCH   3   4
HETATM    4  C   UNL     1     -11.289  13.796  64.050  1.00  0.00    -0.155 C  
HETATM    5  O   UNL     1      -9.947  14.083  64.484  1.00  0.00    -0.237 OA 
HETATM    6  C   UNL     1      -9.663  13.884  65.871  1.00  0.00    -0.214 C  
HETATM    7  H   UNL     1     -13.241  12.589  66.659  1.00  0.00     0.000 HD 
HETATM    8  C   UNL     1      -9.954  12.420  66.272  1.00  0.00    -0.246 C  
HETATM    9  O   UNL     1      -9.111  11.499  65.568  1.00  0.00    -0.330 OA 
HETATM   10  H   UNL     1     -13.474  11.382  64.596  1.00  0.00     0.000 HD 
HETATM   11  C   UNL     1     -11.420  12.093  65.974  1.00  0.00    -0.370 C  
HETATM   12  C   UNL     1     -11.770  12.404  64.513  1.00  0.00    -0.362 C  
HETATM   13  O   UNL     1     -12.331  12.791  66.844  1.00  0.00    -0.412 OA 
HETATM   14  H   UNL     1      -9.289  10.600  65.814  1.00  0.00     0.000 HD 
HETATM   15  O   UNL     1     -13.178  12.238  64.312  1.00  0.00    -0.785 OA 
BRANCH   6  16
HETATM   16  O   UNL     1     -10.372  14.851  66.645  1.00  0.00    -0.273 OA 
BRANCH  16  17
HETATM   17  C   UNL     1      -9.724  16.105  66.938  1.00  0.00    -0.236 C  
HETATM   18  O   UNL     1      -9.487  17.959  68.521  1.00  0.00    -0.295 OA 
HETATM   19  C   UNL     1     -10.035  16.645  68.344  1.00  0.00    -0.255 C  
HETATM   20  H   UNL     1      -9.679  18.292  69.390  1.00  0.00     0.000 HD 
HETATM   21  C   UNL     1      -7.943  15.532  69.171  1.00  0.00    -0.222 C  
HETATM   22  O   UNL     1     -10.146  14.455  69.408  1.00  0.00    -0.420 OA 
HETATM   23  C   UNL     1      -9.459  15.708  69.413  1.00  0.00    -0.279 C  
HETATM   24  O   UNL     1      -7.205  16.709  69.458  1.00  0.00    -0.196 OA 
HETATM   25  O   UNL     1      -7.666  15.061  67.849  1.00  0.00    -0.115 OA 
HETATM   26  H   UNL     1      -9.789  13.875  70.070  1.00  0.00     0.000 HD 
HETATM   27  H   UNL     1      -6.273  16.601  69.308  1.00  0.00     0.000 HD 
HETATM   28  C   UNL     1      -8.207  15.835  66.771  1.00  0.00    -0.267 C  
BRANCH  28  29
HETATM   29  C   UNL     1      -7.373  17.083  66.449  1.00  0.00    -0.293 C  
HETATM   30  O   UNL     1      -8.217  18.160  66.045  1.00  0.00    -0.482 OA 
HETATM   31  H   UNL     1      -7.701  18.933  65.845  1.00  0.00     0.000 HD 
ENDBRANCH  28  29
ENDBRANCH  16  17
ENDBRANCH   6  16
ENDBRANCH   3   4
TORSDOF 4
ENDMDL
MODEL       11
REMARK 921   NORMALIZED FREE ENERGY PREDICTED BY IDOCK:   -6.21 KCAL/MOL
REMARK 922        TOTAL FREE ENERGY PREDICTED BY IDOCK:   -8.97 KCAL/MOL
REMARK 923 INTER-LIGAND FREE ENERGY PREDICTED BY IDOCK:   -7.71 KCAL/MOL
REMARK 924 INTRA-LIGAND FREE ENERGY PREDICTED BY IDOCK:   -1.25 KCAL/MOL
REMARK 927      BINDING AFFINITY PREDICTED BY RF-SCORE:    0.00 PKD
ROOT
HETATM    1  O   UNL     1      -5.863  18.470  67.646  1.00  0.00    -0.163 OA 
HETATM    2  H   UNL     1      -5.405  18.003  68.334  1.00  0.00     0.000 HD 
HETATM    3  C   UNL     1      -7.165  17.916  67.450  1.00  0.00    -0.184 C  
ENDROOT
BRANCH   3   4
HETATM    4  C   UNL     1      -7.909  18.676  66.330  1.00  0.00    -0.283 C  
HETATM    5  O   UNL     1      -8.965  17.902  65.734  1.00  0.00    -0.492 OA 
HETATM    6  C   UNL     1     -10.209  17.861  66.439  1.00  0.00    -0.372 C  
HETATM    7  H   UNL     1      -8.965  20.238  69.249  1.00  0.00     0.000 HD 
HETATM    8  C   UNL     1     -10.763  19.290  66.631  1.00  0.00    -0.410 C  
HETATM    9  O   UNL     1     -11.049  19.922  65.377  1.00  0.00    -0.338 OA 
HETATM   10  H   UNL     1      -7.686  21.637  67.774  1.00  0.00     0.000 HD 
HETATM   11  C   UNL     1      -9.740  20.132  67.400  1.00  0.00    -0.426 C  
HETATM   12  C   UNL     1      -8.368  20.098  66.713  1.00  0.00    -0.301 C  
HETATM   13  O   UNL     1      -9.599  19.716  68.772  1.00  0.00    -0.383 OA 
HETATM   14  H   UNL     1     -11.389  20.800  65.495  1.00  0.00     0.000 HD 
HETATM   15  O   UNL     1      -7.404  20.761  67.538  1.00  0.00    -0.336 OA 
BRANCH   6  16
HETATM   16  O   UNL     1     -10.042  17.132  67.654  1.00  0.00    -0.284 OA 
BRANCH  16  17
HETATM   17  C   UNL     1     -11.071  16.201  68.045  1.00  0.00    -0.317 C  
HETATM   18  O   UNL     1     -12.370  14.218  67.429  1.00  0.00    -0.600 OA 
HETATM   19  C   UNL     1     -11.239  15.024  67.069  1.00  0.00    -0.328 C  
HETATM   20  H   UNL     1     -12.473  13.491  66.825  1.00  0.00     0.000 HD 
HETATM   21  C   UNL     1      -9.677  13.685  68.505  1.00  0.00    -0.184 C  
HETATM   22  O   UNL     1      -8.875  14.865  66.497  1.00  0.00    -0.341 OA 
HETATM   23  C   UNL     1      -9.977  14.152  67.064  1.00  0.00    -0.260 C  
HETATM   24  O   UNL     1     -10.623  12.739  68.980  1.00  0.00    -0.401 OA 
HETATM   25  O   UNL     1      -9.556  14.787  69.409  1.00  0.00    -0.125 OA 
HETATM   26  H   UNL     1      -8.094  14.325  66.494  1.00  0.00     0.000 HD 
HETATM   27  H   UNL     1     -10.438  12.451  69.866  1.00  0.00     0.000 HD 
HETATM   28  C   UNL     1     -10.660  15.699  69.452  1.00  0.00    -0.253 C  
BRANCH  28  29
HETATM   29  C   UNL     1     -11.829  15.188  70.308  1.00  0.00    -0.311 C  
HETATM   30  O   UNL     1     -13.060  15.759  69.869  1.00  0.00    -0.623 OA 
HETATM   31  H   UNL     1     -13.783  15.443  70.398  1.00  0.00     0.000 HD 
ENDBRANCH  28  29
ENDBRANCH  16  17
ENDBRANCH   6  16
ENDBRANCH   3   4
TORSDOF 4
ENDMDL
MODEL       12
REMARK 921   NORMALIZED FREE ENERGY PREDICTED BY IDOCK:   -6.16 KCAL/MOL
REMARK 922        TOTAL FREE ENERGY PREDICTED BY IDOCK:   -8.91 KCAL/MOL
REMARK 923 INTER-LIGAND FREE ENERGY PREDICTED BY IDOCK:   -7.94 KCAL/MOL
REMARK 924 INTRA-LIGAND FREE ENERGY PREDICTED BY IDOCK:   -0.98 KCAL/MOL
REMARK 927      BINDING AFFINITY PREDICTED BY RF-SCORE:    0.00 PKD
ROOT
HETATM    1  O   UNL     1      -6.360  18.355  64.734  1.00  0.00    -0.370 OA 
HETATM    2  H   UNL     1      -5.638  17.770  64.538  1.00  0.00     0.000 HD 
HETATM    3  C   UNL     1      -6.219  18.893  66.051  1.00  0.00    -0.196 C  
ENDROOT
BRANCH   3   4
HETATM    4  C   UNL     1      -7.393  19.844  66.370  1.00  0.00    -0.272 C  
HETATM    5  O   UNL     1      -8.655  19.364  65.871  1.00  0.00    -0.429 OA 
HETATM    6  C   UNL     1      -9.326  18.379  66.660  1.00  0.00    -0.305 C  
HETATM    7  H   UNL     1      -6.612  18.415  69.440  1.00  0.00     0.000 HD 
HETATM    8  C   UNL     1      -9.592  18.923  68.082  1.00  0.00    -0.338 C  
HETATM    9  O   UNL     1     -10.462  20.062  68.061  1.00  0.00    -0.396 OA 
HETATM   10  H   UNL     1      -6.231  20.783  69.314  1.00  0.00     0.000 HD 
HETATM   11  C   UNL     1      -8.262  19.314  68.733  1.00  0.00    -0.355 C  
HETATM   12  C   UNL     1      -7.478  20.290  67.845  1.00  0.00    -0.256 C  
HETATM   13  O   UNL     1      -7.437  18.173  69.036  1.00  0.00    -0.253 OA 
HETATM   14  H   UNL     1     -10.625  20.396  68.935  1.00  0.00     0.000 HD 
HETATM   15  O   UNL     1      -6.179  20.509  68.406  1.00  0.00    -0.290 OA 
BRANCH   6  16
HETATM   16  O   UNL     1      -8.584  17.161  66.632  1.00  0.00    -0.221 OA 
BRANCH  16  17
HETATM   17  C   UNL     1      -9.168  16.015  65.981  1.00  0.00    -0.340 C  
HETATM   18  O   UNL     1      -9.283  13.571  65.865  1.00  0.00    -0.484 OA 
HETATM   19  C   UNL     1      -8.798  14.676  66.640  1.00  0.00    -0.209 C  
HETATM   20  H   UNL     1      -9.053  12.744  66.273  1.00  0.00     0.000 HD 
HETATM   21  C   UNL     1     -10.913  14.817  67.982  1.00  0.00    -0.271 C  
HETATM   22  O   UNL     1      -8.754  15.549  68.915  1.00  0.00    -0.174 OA 
HETATM   23  C   UNL     1      -9.386  14.598  68.055  1.00  0.00    -0.198 C  
HETATM   24  O   UNL     1     -11.592  13.726  67.378  1.00  0.00    -0.322 OA 
HETATM   25  O   UNL     1     -11.245  16.049  67.338  1.00  0.00    -0.226 OA 
HETATM   26  H   UNL     1      -9.118  15.501  69.791  1.00  0.00     0.000 HD 
HETATM   27  H   UNL     1     -12.531  13.861  67.333  1.00  0.00     0.000 HD 
HETATM   28  C   UNL     1     -10.700  16.250  66.028  1.00  0.00    -0.214 C  
BRANCH  28  29
HETATM   29  C   UNL     1     -11.487  15.519  64.930  1.00  0.00    -0.279 C  
HETATM   30  O   UNL     1     -11.554  16.314  63.747  1.00  0.00    -1.539 OA 
HETATM   31  H   UNL     1     -12.041  15.862  63.068  1.00  0.00     0.000 HD 
ENDBRANCH  28  29
ENDBRANCH  16  17
ENDBRANCH   6  16
ENDBRANCH   3   4
TORSDOF 4
ENDMDL
MODEL       13
REMARK 921   NORMALIZED FREE ENERGY PREDICTED BY IDOCK:   -6.12 KCAL/MOL
REMARK 922        TOTAL FREE ENERGY PREDICTED BY IDOCK:   -8.86 KCAL/MOL
REMARK 923 INTER-LIGAND FREE ENERGY PREDICTED BY IDOCK:   -7.55 KCAL/MOL
REMARK 924 INTRA-LIGAND FREE ENERGY PREDICTED BY IDOCK:   -1.31 KCAL/MOL
REMARK 927      BINDING AFFINITY PREDICTED BY RF-SCORE:    0.00 PKD
ROOT
HETATM    1  O   UNL     1     -11.120  19.696  66.958  1.00  0.00    -0.412 OA 
HETATM    2  H   UNL     1     -11.837  19.608  66.341  1.00  0.00     0.000 HD 
HETATM    3  C   UNL     1      -9.894  19.932  66.263  1.00  0.00    -0.461 C  
ENDROOT
BRANCH   3   4
HETATM    4  C   UNL     1      -8.729  20.076  67.266  1.00  0.00    -0.343 C  
HETATM    5  O   UNL     1      -8.934  19.323  68.475  1.00  0.00    -0.347 OA 
HETATM    6  C   UNL     1      -8.630  17.927  68.424  1.00  0.00    -0.293 C  
HETATM    7  H   UNL     1      -7.420  18.085  64.736  1.00  0.00     0.000 HD 
HETATM    8  C   UNL     1      -7.155  17.715  68.018  1.00  0.00    -0.200 C  
HETATM    9  O   UNL     1      -6.253  18.273  68.983  1.00  0.00    -0.216 OA 
HETATM   10  H   UNL     1      -6.366  20.232  64.965  1.00  0.00     0.000 HD 
HETATM   11  C   UNL     1      -6.904  18.367  66.655  1.00  0.00    -0.198 C  
HETATM   12  C   UNL     1      -7.328  19.842  66.662  1.00  0.00    -0.250 C  
HETATM   13  O   UNL     1      -7.575  17.681  65.581  1.00  0.00    -0.521 OA 
HETATM   14  H   UNL     1      -5.346  18.144  68.733  1.00  0.00     0.000 HD 
HETATM   15  O   UNL     1      -7.229  20.375  65.337  1.00  0.00    -0.258 OA 
BRANCH   6  16
HETATM   16  O   UNL     1      -9.568  17.267  67.575  1.00  0.00    -0.252 OA 
BRANCH  16  17
HETATM   17  C   UNL     1     -10.565  16.420  68.180  1.00  0.00    -0.318 C  
HETATM   18  O   UNL     1     -12.190  14.618  67.843  1.00  0.00    -0.593 OA 
HETATM   19  C   UNL     1     -11.102  15.330  67.237  1.00  0.00    -0.325 C  
HETATM   20  H   UNL     1     -12.521  13.945  67.259  1.00  0.00     0.000 HD 
HETATM   21  C   UNL     1      -9.391  13.753  68.179  1.00  0.00    -0.211 C  
HETATM   22  O   UNL     1      -8.988  14.974  66.077  1.00  0.00    -0.477 OA 
HETATM   23  C   UNL     1      -9.987  14.339  66.879  1.00  0.00    -0.263 C  
HETATM   24  O   UNL     1     -10.290  12.877  68.843  1.00  0.00    -0.400 OA 
HETATM   25  O   UNL     1      -8.926  14.778  69.061  1.00  0.00    -0.186 OA 
HETATM   26  H   UNL     1      -8.297  14.360  65.856  1.00  0.00     0.000 HD 
HETATM   27  H   UNL     1      -9.923  12.518  69.642  1.00  0.00     0.000 HD 
HETATM   28  C   UNL     1      -9.876  15.790  69.418  1.00  0.00    -0.286 C  
BRANCH  28  29
HETATM   29  C   UNL     1     -10.844  15.345  70.524  1.00  0.00    -0.300 C  
HETATM   30  O   UNL     1     -12.020  16.153  70.517  1.00  0.00    -0.444 OA 
HETATM   31  H   UNL     1     -12.619  15.878  71.201  1.00  0.00     0.000 HD 
ENDBRANCH  28  29
ENDBRANCH  16  17
ENDBRANCH   6  16
ENDBRANCH   3   4
TORSDOF 4
ENDMDL
MODEL       14
REMARK 921   NORMALIZED FREE ENERGY PREDICTED BY IDOCK:   -6.11 KCAL/MOL
REMARK 922        TOTAL FREE ENERGY PREDICTED BY IDOCK:   -8.85 KCAL/MOL
REMARK 923 INTER-LIGAND FREE ENERGY PREDICTED BY IDOCK:   -7.86 KCAL/MOL
REMARK 924 INTRA-LIGAND FREE ENERGY PREDICTED BY IDOCK:   -0.99 KCAL/MOL
REMARK 927      BINDING AFFINITY PREDICTED BY RF-SCORE:    0.00 PKD
ROOT
HETATM    1  O   UNL     1      -8.533  16.608  69.022  1.00  0.00    -0.233 OA 
HETATM    2  H   UNL     1      -8.162  16.158  69.771  1.00  0.00     0.000 HD 
HETATM    3  C   UNL     1      -7.499  17.002  68.118  1.00  0.00    -0.195 C  
ENDROOT
BRANCH   3   4
HETATM    4  C   UNL     1      -8.102  17.733  66.899  1.00  0.00    -0.228 C  
HETATM    5  O   UNL     1      -8.353  16.855  65.787  1.00  0.00    -0.472 OA 
HETATM    6  C   UNL     1      -9.556  16.084  65.834  1.00  0.00    -0.335 C  
HETATM    7  H   UNL     1     -10.705  17.650  69.200  1.00  0.00     0.000 HD 
HETATM    8  C   UNL     1     -10.784  17.015  65.948  1.00  0.00    -0.139 C  
HETATM    9  O   UNL     1     -10.914  17.865  64.801  1.00  0.00    -0.783 OA 
HETATM   10  H   UNL     1      -9.903  19.853  68.677  1.00  0.00     0.000 HD 
HETATM   11  C   UNL     1     -10.652  17.878  67.206  1.00  0.00    -0.332 C  
HETATM   12  C   UNL     1      -9.315  18.631  67.222  1.00  0.00    -0.287 C  
HETATM   13  O   UNL     1     -10.787  17.115  68.419  1.00  0.00    -0.367 OA 
HETATM   14  H   UNL     1     -11.668  18.437  64.871  1.00  0.00     0.000 HD 
HETATM   15  O   UNL     1      -9.157  19.300  68.478  1.00  0.00    -0.351 OA 
BRANCH   6  16
HETATM   16  O   UNL     1      -9.459  15.117  66.879  1.00  0.00    -0.219 OA 
BRANCH  16  17
HETATM   17  C   UNL     1      -9.753  13.740  66.571  1.00  0.00    -0.293 C  
HETATM   18  O   UNL     1      -9.608  11.408  67.306  1.00  0.00    -0.173 OA 
HETATM   19  C   UNL     1      -9.437  12.770  67.722  1.00  0.00    -0.205 C  
HETATM   20  H   UNL     1      -9.413  10.809  68.017  1.00  0.00     0.000 HD 
HETATM   21  C   UNL     1     -11.826  12.967  68.467  1.00  0.00    -0.313 C  
HETATM   22  O   UNL     1     -10.047  14.322  69.499  1.00  0.00    -0.424 OA 
HETATM   23  C   UNL     1     -10.352  13.051  68.921  1.00  0.00    -0.045 C  
HETATM   24  O   UNL     1     -12.227  11.640  68.162  1.00  0.00    -0.537 OA 
HETATM   25  O   UNL     1     -12.098  13.849  67.374  1.00  0.00    -0.392 OA 
HETATM   26  H   UNL     1     -10.613  14.496  70.242  1.00  0.00     0.000 HD 
HETATM   27  H   UNL     1     -13.133  11.588  67.882  1.00  0.00     0.000 HD 
HETATM   28  C   UNL     1     -11.262  13.709  66.219  1.00  0.00    -0.305 C  
BRANCH  28  29
HETATM   29  C   UNL     1     -11.677  12.539  65.314  1.00  0.00    -0.386 C  
HETATM   30  O   UNL     1     -13.043  12.668  64.921  1.00  0.00    -0.850 OA 
HETATM   31  H   UNL     1     -13.300  11.945  64.362  1.00  0.00     0.000 HD 
ENDBRANCH  28  29
ENDBRANCH  16  17
ENDBRANCH   6  16
ENDBRANCH   3   4
TORSDOF 4
ENDMDL
MODEL       15
REMARK 921   NORMALIZED FREE ENERGY PREDICTED BY IDOCK:   -6.10 KCAL/MOL
REMARK 922        TOTAL FREE ENERGY PREDICTED BY IDOCK:   -8.83 KCAL/MOL
REMARK 923 INTER-LIGAND FREE ENERGY PREDICTED BY IDOCK:   -7.53 KCAL/MOL
REMARK 924 INTRA-LIGAND FREE ENERGY PREDICTED BY IDOCK:   -1.30 KCAL/MOL
REMARK 927      BINDING AFFINITY PREDICTED BY RF-SCORE:    0.00 PKD
ROOT
HETATM    1  O   UNL     1      -8.767  10.784  67.083  1.00  0.00    -0.130 OA 
HETATM    2  H   UNL     1      -7.855  10.864  67.336  1.00  0.00     0.000 HD 
HETATM    3  C   UNL     1      -8.919  11.049  65.687  1.00  0.00    -0.199 C  
ENDROOT
BRANCH   3   4
HETATM    4  C   UNL     1     -10.401  10.918  65.274  1.00  0.00    -0.268 C  
HETATM    5  O   UNL     1     -11.311  11.250  66.338  1.00  0.00    -0.279 OA 
HETATM    6  C   UNL     1     -11.564  12.640  66.558  1.00  0.00    -0.381 C  
HETATM    7  H   UNL     1      -9.311  13.760  63.598  1.00  0.00     0.000 HD 
HETATM    8  C   UNL     1     -12.130  13.289  65.275  1.00  0.00    -0.418 C  
HETATM    9  O   UNL     1     -13.391  12.719  64.902  1.00  0.00    -0.736 OA 
HETATM   10  H   UNL     1      -9.941  11.937  62.168  1.00  0.00     0.000 HD 
HETATM   11  C   UNL     1     -11.132  13.103  64.128  1.00  0.00    -0.394 C  
HETATM   12  C   UNL     1     -10.765  11.623  63.951  1.00  0.00    -0.398 C  
HETATM   13  O   UNL     1      -9.930  13.876  64.308  1.00  0.00    -0.110 OA 
HETATM   14  H   UNL     1     -13.738  13.118  64.114  1.00  0.00     0.000 HD 
HETATM   15  O   UNL     1      -9.717  11.503  62.982  1.00  0.00    -0.382 OA 
BRANCH   6  16
HETATM   16  O   UNL     1     -10.383  13.266  67.055  1.00  0.00    -0.244 OA 
BRANCH  16  17
HETATM   17  C   UNL     1     -10.394  13.786  68.400  1.00  0.00    -0.247 C  
HETATM   18  O   UNL     1      -9.235  15.151  70.071  1.00  0.00    -0.439 OA 
HETATM   19  C   UNL     1      -9.261  14.786  68.684  1.00  0.00    -0.194 C  
HETATM   20  H   UNL     1      -8.534  15.769  70.245  1.00  0.00     0.000 HD 
HETATM   21  C   UNL     1     -10.836  16.650  68.099  1.00  0.00    -0.348 C  
HETATM   22  O   UNL     1      -9.246  15.751  66.446  1.00  0.00    -0.256 OA 
HETATM   23  C   UNL     1      -9.438  16.048  67.831  1.00  0.00    -0.210 C  
HETATM   24  O   UNL     1     -10.946  17.216  69.396  1.00  0.00    -0.325 OA 
HETATM   25  O   UNL     1     -11.879  15.700  67.863  1.00  0.00    -0.205 OA 
HETATM   26  H   UNL     1      -9.356  16.533  65.918  1.00  0.00     0.000 HD 
HETATM   27  H   UNL     1     -11.805  17.586  69.561  1.00  0.00     0.000 HD 
HETATM   28  C   UNL     1     -11.780  14.458  68.571  1.00  0.00    -0.335 C  
BRANCH  28  29
HETATM   29  C   UNL     1     -12.263  14.554  70.026  1.00  0.00    -0.342 C  
HETATM   30  O   UNL     1     -13.304  15.521  70.147  1.00  0.00    -0.691 OA 
HETATM   31  H   UNL     1     -13.602  15.581  71.047  1.00  0.00     0.000 HD 
ENDBRANCH  28  29
ENDBRANCH  16  17
ENDBRANCH   6  16
ENDBRANCH   3   4
TORSDOF 4
ENDMDL
MODEL       16
REMARK 921   NORMALIZED FREE ENERGY PREDICTED BY IDOCK:   -6.03 KCAL/MOL
REMARK 922        TOTAL FREE ENERGY PREDICTED BY IDOCK:   -8.75 KCAL/MOL
REMARK 923 INTER-LIGAND FREE ENERGY PREDICTED BY IDOCK:   -7.74 KCAL/MOL
REMARK 924 INTRA-LIGAND FREE ENERGY PREDICTED BY IDOCK:   -1.01 KCAL/MOL
REMARK 927      BINDING AFFINITY PREDICTED BY RF-SCORE:    0.00 PKD
ROOT
HETATM    1  O   UNL     1      -5.942  17.350  68.578  1.00  0.00    -0.156 OA 
HETATM    2  H   UNL     1      -5.602  16.683  69.162  1.00  0.00     0.000 HD 
HETATM    3  C   UNL     1      -7.131  16.886  67.935  1.00  0.00    -0.152 C  
ENDROOT
BRANCH   3   4
HETATM    4  C   UNL     1      -7.685  17.971  66.985  1.00  0.00    -0.216 C  
HETATM    5  O   UNL     1      -8.432  17.423  65.884  1.00  0.00    -0.530 OA 
HETATM    6  C   UNL     1      -9.789  17.055  66.147  1.00  0.00    -0.278 C  
HETATM    7  H   UNL     1      -9.651  18.266  69.836  1.00  0.00     0.000 HD 
HETATM    8  C   UNL     1     -10.586  18.276  66.656  1.00  0.00    -0.298 C  
HETATM    9  O   UNL     1     -10.650  19.317  65.673  1.00  0.00    -0.492 OA 
HETATM   10  H   UNL     1      -8.281  20.181  69.365  1.00  0.00     0.000 HD 
HETATM   11  C   UNL     1      -9.925  18.821  67.926  1.00  0.00    -0.354 C  
HETATM   12  C   UNL     1      -8.438  19.119  67.690  1.00  0.00    -0.291 C  
HETATM   13  O   UNL     1     -10.062  17.929  69.048  1.00  0.00    -0.359 OA 
HETATM   14  H   UNL     1     -11.139  20.068  65.986  1.00  0.00     0.000 HD 
HETATM   15  O   UNL     1      -7.818  19.474  68.931  1.00  0.00    -0.356 OA 
BRANCH   6  16
HETATM   16  O   UNL     1      -9.815  15.934  67.029  1.00  0.00    -0.226 OA 
BRANCH  16  17
HETATM   17  C   UNL     1     -11.080  15.294  67.291  1.00  0.00    -0.325 C  
HETATM   18  O   UNL     1     -13.008  14.117  66.344  1.00  0.00    -0.416 OA 
HETATM   19  C   UNL     1     -11.688  14.603  66.060  1.00  0.00    -0.306 C  
HETATM   20  H   UNL     1     -13.383  13.690  65.582  1.00  0.00     0.000 HD 
HETATM   21  C   UNL     1     -10.611  12.461  66.801  1.00  0.00    -0.226 C  
HETATM   22  O   UNL     1      -9.553  13.909  65.112  1.00  0.00    -0.559 OA 
HETATM   23  C   UNL     1     -10.803  13.432  65.615  1.00  0.00    -0.283 C  
HETATM   24  O   UNL     1     -11.800  11.756  67.126  1.00  0.00    -0.599 OA 
HETATM   25  O   UNL     1     -10.076  13.123  67.950  1.00  0.00    -0.220 OA 
HETATM   26  H   UNL     1      -9.005  13.183  64.837  1.00  0.00     0.000 HD 
HETATM   27  H   UNL     1     -11.682  11.160  67.856  1.00  0.00     0.000 HD 
HETATM   28  C   UNL     1     -10.798  14.269  68.419  1.00  0.00    -0.253 C  
BRANCH  28  29
HETATM   29  C   UNL     1     -12.028  13.902  69.263  1.00  0.00    -0.357 C  
HETATM   30  O   UNL     1     -11.737  12.801  70.122  1.00  0.00    -0.494 OA 
HETATM   31  H   UNL     1     -12.497  12.574  70.644  1.00  0.00     0.000 HD 
ENDBRANCH  28  29
ENDBRANCH  16  17
ENDBRANCH   6  16
ENDBRANCH   3   4
TORSDOF 4
ENDMDL
MODEL       17
REMARK 921   NORMALIZED FREE ENERGY PREDICTED BY IDOCK:   -6.01 KCAL/MOL
REMARK 922        TOTAL FREE ENERGY PREDICTED BY IDOCK:   -8.72 KCAL/MOL
REMARK 923 INTER-LIGAND FREE ENERGY PREDICTED BY IDOCK:   -7.79 KCAL/MOL
REMARK 924 INTRA-LIGAND FREE ENERGY PREDICTED BY IDOCK:   -0.93 KCAL/MOL
REMARK 927      BINDING AFFINITY PREDICTED BY RF-SCORE:    0.00 PKD
ROOT
HETATM    1  O   UNL     1     -11.174   6.982  67.230  1.00  0.00    -0.590 OA 
HETATM    2  H   UNL     1     -11.913   6.745  66.682  1.00  0.00     0.000 HD 
HETATM    3  C   UNL     1     -10.650   8.251  66.836  1.00  0.00    -0.232 C  
ENDROOT
BRANCH   3   4
HETATM    4  C   UNL     1      -9.448   8.635  67.727  1.00  0.00    -0.142 C  
HETATM    5  O   UNL     1      -8.593   9.620  67.120  1.00  0.00    -0.130 OA 
HETATM    6  C   UNL     1      -9.013  10.984  67.215  1.00  0.00    -0.138 C  
HETATM    7  H   UNL     1     -12.170  10.112  69.304  1.00  0.00     0.000 HD 
HETATM    8  C   UNL     1      -9.175  11.392  68.696  1.00  0.00    -0.146 C  
HETATM    9  O   UNL     1      -7.932  11.320  69.406  1.00  0.00    -0.361 OA 
HETATM   10  H   UNL     1     -11.094   8.384  70.579  1.00  0.00     0.000 HD 
HETATM   11  C   UNL     1     -10.196  10.471  69.369  1.00  0.00    -0.221 C  
HETATM   12  C   UNL     1      -9.816   8.995  69.182  1.00  0.00    -0.175 C  
HETATM   13  O   UNL     1     -11.536  10.684  68.888  1.00  0.00    -0.274 OA 
HETATM   14  H   UNL     1      -8.031  11.571  70.316  1.00  0.00     0.000 HD 
HETATM   15  O   UNL     1     -10.868   8.163  69.683  1.00  0.00    -0.232 OA 
BRANCH   6  16
HETATM   16  O   UNL     1     -10.187  11.175  66.426  1.00  0.00    -0.219 OA 
BRANCH  16  17
HETATM   17  C   UNL     1     -10.497  12.506  65.967  1.00  0.00    -0.258 C  
HETATM   18  O   UNL     1     -10.161  14.193  64.223  1.00  0.00    -0.648 OA 
HETATM   19  C   UNL     1      -9.951  12.815  64.563  1.00  0.00    -0.149 C  
HETATM   20  H   UNL     1      -9.823  14.384  63.356  1.00  0.00     0.000 HD 
HETATM   21  C   UNL     1     -12.167  12.121  63.610  1.00  0.00    -0.562 C  
HETATM   22  O   UNL     1     -10.264  10.559  63.696  1.00  0.00    -0.464 OA 
HETATM   23  C   UNL     1     -10.637  11.927  63.517  1.00  0.00    -0.453 C  
HETATM   24  O   UNL     1     -12.583  13.398  63.154  1.00  0.00    -0.770 OA 
HETATM   25  O   UNL     1     -12.657  11.862  64.929  1.00  0.00    -0.305 OA 
HETATM   26  H   UNL     1     -10.688  10.009  63.048  1.00  0.00     0.000 HD 
HETATM   27  H   UNL     1     -13.523  13.517  63.211  1.00  0.00     0.000 HD 
HETATM   28  C   UNL     1     -12.043  12.601  65.992  1.00  0.00    -0.364 C  
BRANCH  28  29
HETATM   29  C   UNL     1     -12.588  14.031  66.123  1.00  0.00    -0.367 C  
HETATM   30  O   UNL     1     -12.440  14.505  67.461  1.00  0.00    -0.590 OA 
HETATM   31  H   UNL     1     -12.777  15.389  67.542  1.00  0.00     0.000 HD 
ENDBRANCH  28  29
ENDBRANCH  16  17
ENDBRANCH   6  16
ENDBRANCH   3   4
TORSDOF 4
ENDMDL
MODEL       18
REMARK 921   NORMALIZED FREE ENERGY PREDICTED BY IDOCK:   -5.96 KCAL/MOL
REMARK 922        TOTAL FREE ENERGY PREDICTED BY IDOCK:   -8.67 KCAL/MOL
REMARK 923 INTER-LIGAND FREE ENERGY PREDICTED BY IDOCK:   -7.70 KCAL/MOL
REMARK 924 INTRA-LIGAND FREE ENERGY PREDICTED BY IDOCK:   -0.97 KCAL/MOL
REMARK 927      BINDING AFFINITY PREDICTED BY RF-SCORE:    0.00 PKD
ROOT
HETATM    1  O   UNL     1     -12.765  11.523  62.849  1.00  0.00    -0.947 OA 
HETATM    2  H   UNL     1     -12.287  11.077  62.161  1.00  0.00     0.000 HD 
HETATM    3  C   UNL     1     -11.874  11.927  63.890  1.00  0.00    -0.411 C  
ENDROOT
BRANCH   3   4
HETATM    4  C   UNL     1     -12.651  12.653  65.010  1.00  0.00    -0.430 C  
HETATM    5  O   UNL     1     -12.365  12.131  66.320  1.00  0.00    -0.507 OA 
HETATM    6  C   UNL     1     -11.165  12.589  66.948  1.00  0.00    -0.303 C  
HETATM    7  H   UNL     1     -10.257  14.966  64.012  1.00  0.00     0.000 HD 
HETATM    8  C   UNL     1     -11.185  14.128  67.082  1.00  0.00    -0.317 C  
HETATM    9  O   UNL     1     -12.256  14.574  67.922  1.00  0.00    -0.599 OA 
HETATM   10  H   UNL     1     -12.525  15.628  63.585  1.00  0.00     0.000 HD 
HETATM   11  C   UNL     1     -11.335  14.756  65.693  1.00  0.00    -0.343 C  
HETATM   12  C   UNL     1     -12.561  14.193  64.961  1.00  0.00    -0.380 C  
HETATM   13  O   UNL     1     -10.164  14.577  64.874  1.00  0.00    -0.405 OA 
HETATM   14  H   UNL     1     -12.269  15.520  68.004  1.00  0.00     0.000 HD 
HETATM   15  O   UNL     1     -12.580  14.681  63.615  1.00  0.00    -0.773 OA 
BRANCH   6  16
HETATM   16  O   UNL     1     -10.035  12.080  66.241  1.00  0.00    -0.216 OA 
BRANCH  16  17
HETATM   17  C   UNL     1      -9.670  10.698  66.432  1.00  0.00    -0.196 C  
HETATM   18  O   UNL     1      -7.963   8.973  66.098  1.00  0.00    -0.100 OA 
HETATM   19  C   UNL     1      -8.220  10.382  66.027  1.00  0.00    -0.144 C  
HETATM   20  H   UNL     1      -7.067   8.778  65.848  1.00  0.00     0.000 HD 
HETATM   21  C   UNL     1      -7.535  10.748  68.413  1.00  0.00    -0.095 C  
HETATM   22  O   UNL     1      -7.315  12.533  66.731  1.00  0.00    -0.377 OA 
HETATM   23  C   UNL     1      -7.238  11.122  66.944  1.00  0.00    -0.138 C  
HETATM   24  O   UNL     1      -7.184   9.406  68.715  1.00  0.00    -0.071 OA 
HETATM   25  O   UNL     1      -8.895  11.015  68.767  1.00  0.00    -0.161 OA 
HETATM   26  H   UNL     1      -6.707  12.991  67.299  1.00  0.00     0.000 HD 
HETATM   27  H   UNL     1      -7.367   9.176  69.618  1.00  0.00     0.000 HD 
HETATM   28  C   UNL     1      -9.898  10.415  67.939  1.00  0.00    -0.154 C  
BRANCH  28  29
HETATM   29  C   UNL     1     -10.152   8.938  68.274  1.00  0.00    -0.187 C  
HETATM   30  O   UNL     1     -10.811   8.283  67.192  1.00  0.00    -0.449 OA 
HETATM   31  H   UNL     1     -10.968   7.370  67.400  1.00  0.00     0.000 HD 
ENDBRANCH  28  29
ENDBRANCH  16  17
ENDBRANCH   6  16
ENDBRANCH   3   4
TORSDOF 4
ENDMDL
MODEL       19
REMARK 921   NORMALIZED FREE ENERGY PREDICTED BY IDOCK:   -5.95 KCAL/MOL
REMARK 922        TOTAL FREE ENERGY PREDICTED BY IDOCK:   -8.65 KCAL/MOL
REMARK 923 INTER-LIGAND FREE ENERGY PREDICTED BY IDOCK:   -7.75 KCAL/MOL
REMARK 924 INTRA-LIGAND FREE ENERGY PREDICTED BY IDOCK:   -0.90 KCAL/MOL
REMARK 927      BINDING AFFINITY PREDICTED BY RF-SCORE:    0.00 PKD
ROOT
HETATM    1  O   UNL     1     -12.386  11.533  62.977  1.00  0.00    -0.975 OA 
HETATM    2  H   UNL     1     -11.854  11.035  62.368  1.00  0.00     0.000 HD 
HETATM    3  C   UNL     1     -11.660  11.782  64.182  1.00  0.00    -0.307 C  
ENDROOT
BRANCH   3   4
HETATM    4  C   UNL     1     -12.525  12.593  65.172  1.00  0.00    -0.463 C  
HETATM    5  O   UNL     1     -12.345  12.183  66.539  1.00  0.00    -0.474 OA 
HETATM    6  C   UNL     1     -11.199  12.702  67.221  1.00  0.00    -0.298 C  
HETATM    7  H   UNL     1     -10.063  14.835  64.178  1.00  0.00     0.000 HD 
HETATM    8  C   UNL     1     -11.232  14.246  67.223  1.00  0.00    -0.318 C  
HETATM    9  O   UNL     1     -12.369  14.752  67.935  1.00  0.00    -0.582 OA 
HETATM   10  H   UNL     1     -12.291  15.440  63.518  1.00  0.00     0.000 HD 
HETATM   11  C   UNL     1     -11.271  14.756  65.779  1.00  0.00    -0.337 C  
HETATM   12  C   UNL     1     -12.434  14.124  65.002  1.00  0.00    -0.419 C  
HETATM   13  O   UNL     1     -10.039  14.519  65.074  1.00  0.00    -0.393 OA 
HETATM   14  H   UNL     1     -12.389  15.702  67.936  1.00  0.00     0.000 HD 
HETATM   15  O   UNL     1     -12.347  14.498  63.622  1.00  0.00    -0.704 OA 
BRANCH   6  16
HETATM   16  O   UNL     1     -10.016  12.145  66.651  1.00  0.00    -0.201 OA 
BRANCH  16  17
HETATM   17  C   UNL     1      -8.916  11.827  67.527  1.00  0.00    -0.168 C  
HETATM   18  O   UNL     1      -8.206  10.718  69.593  1.00  0.00    -0.380 OA 
HETATM   19  C   UNL     1      -9.297  10.879  68.676  1.00  0.00    -0.187 C  
HETATM   20  H   UNL     1      -8.442  10.133  70.302  1.00  0.00     0.000 HD 
HETATM   21  C   UNL     1      -8.546   8.949  67.258  1.00  0.00    -0.118 C  
HETATM   22  O   UNL     1     -10.919   9.598  67.383  1.00  0.00    -0.363 OA 
HETATM   23  C   UNL     1      -9.699   9.505  68.123  1.00  0.00    -0.147 C  
HETATM   24  O   UNL     1      -7.415   8.578  68.032  1.00  0.00    -0.094 OA 
HETATM   25  O   UNL     1      -8.178   9.855  66.214  1.00  0.00    -0.112 OA 
HETATM   26  H   UNL     1     -11.167   8.748  67.040  1.00  0.00     0.000 HD 
HETATM   27  H   UNL     1      -6.706   8.236  67.500  1.00  0.00     0.000 HD 
HETATM   28  C   UNL     1      -7.836  11.187  66.617  1.00  0.00    -0.155 C  
BRANCH  28  29
HETATM   29  C   UNL     1      -6.403  11.303  67.157  1.00  0.00    -0.096 C  
HETATM   30  O   UNL     1      -5.781  12.494  66.677  1.00  0.00    -0.458 OA 
HETATM   31  H   UNL     1      -4.894  12.566  67.010  1.00  0.00     0.000 HD 
ENDBRANCH  28  29
ENDBRANCH  16  17
ENDBRANCH   6  16
ENDBRANCH   3   4
TORSDOF 4
ENDMDL
MODEL       20
REMARK 921   NORMALIZED FREE ENERGY PREDICTED BY IDOCK:   -5.94 KCAL/MOL
REMARK 922        TOTAL FREE ENERGY PREDICTED BY IDOCK:   -8.63 KCAL/MOL
REMARK 923 INTER-LIGAND FREE ENERGY PREDICTED BY IDOCK:   -7.66 KCAL/MOL
REMARK 924 INTRA-LIGAND FREE ENERGY PREDICTED BY IDOCK:   -0.97 KCAL/MOL
REMARK 927      BINDING AFFINITY PREDICTED BY RF-SCORE:    0.00 PKD
ROOT
HETATM    1  O   UNL     1     -11.944  16.284  70.303  1.00  0.00    -0.383 OA 
HETATM    2  H   UNL     1     -12.891  16.354  70.337  1.00  0.00     0.000 HD 
HETATM    3  C   UNL     1     -11.473  16.568  68.985  1.00  0.00    -0.109 C  
ENDROOT
BRANCH   3   4
HETATM    4  C   UNL     1      -9.934  16.454  68.929  1.00  0.00    -0.257 C  
HETATM    5  O   UNL     1      -9.484  15.234  68.313  1.00  0.00    -0.199 OA 
HETATM    6  C   UNL     1      -9.471  15.201  66.884  1.00  0.00    -0.238 C  
HETATM    7  H   UNL     1     -10.683  18.878  66.554  1.00  0.00     0.000 HD 
HETATM    8  C   UNL     1      -8.574  16.331  66.331  1.00  0.00    -0.326 C  
HETATM    9  O   UNL     1      -7.208  16.171  66.735  1.00  0.00    -0.214 OA 
HETATM   10  H   UNL     1      -9.410  19.675  68.428  1.00  0.00     0.000 HD 
HETATM   11  C   UNL     1      -9.094  17.683  66.830  1.00  0.00    -0.260 C  
HETATM   12  C   UNL     1      -9.217  17.697  68.360  1.00  0.00    -0.288 C  
HETATM   13  O   UNL     1     -10.360  18.040  66.244  1.00  0.00    -0.380 OA 
HETATM   14  H   UNL     1      -6.657  16.866  66.396  1.00  0.00     0.000 HD 
HETATM   15  O   UNL     1      -9.851  18.911  68.778  1.00  0.00    -0.379 OA 
BRANCH   6  16
HETATM   16  O   UNL     1     -10.811  15.230  66.396  1.00  0.00    -0.315 OA 
BRANCH  16  17
HETATM   17  C   UNL     1     -11.532  13.986  66.292  1.00  0.00    -0.351 C  
HETATM   18  O   UNL     1     -13.526  12.847  65.440  1.00  0.00    -0.189 OA 
HETATM   19  C   UNL     1     -12.771  14.066  65.385  1.00  0.00    -0.471 C  
HETATM   20  H   UNL     1     -14.292  12.897  64.879  1.00  0.00     0.000 HD 
HETATM   21  C   UNL     1     -11.360  13.246  63.479  1.00  0.00    -0.054 C  
HETATM   22  O   UNL     1     -11.797  15.648  63.808  1.00  0.00    -0.971 OA 
HETATM   23  C   UNL     1     -12.354  14.337  63.934  1.00  0.00    -0.133 C  
HETATM   24  O   UNL     1     -11.978  11.978  63.320  1.00  0.00    -0.681 OA 
HETATM   25  O   UNL     1     -10.228  13.160  64.350  1.00  0.00    -0.382 OA 
HETATM   26  H   UNL     1     -11.538  15.816  62.910  1.00  0.00     0.000 HD 
HETATM   27  H   UNL     1     -11.367  11.307  63.040  1.00  0.00     0.000 HD 
HETATM   28  C   UNL     1     -10.508  12.961  65.741  1.00  0.00    -0.278 C  
BRANCH  28  29
HETATM   29  C   UNL     1     -10.826  11.499  66.088  1.00  0.00    -0.278 C  
HETATM   30  O   UNL     1     -11.563  11.421  67.307  1.00  0.00    -0.523 OA 
HETATM   31  H   UNL     1     -11.759  10.517  67.522  1.00  0.00     0.000 HD 
ENDBRANCH  28  29
ENDBRANCH  16  17
ENDBRANCH   6  16
ENDBRANCH   3   4
TORSDOF 4
ENDMDL
MODEL       21
REMARK 921   NORMALIZED FREE ENERGY PREDICTED BY IDOCK:   -5.91 KCAL/MOL
REMARK 922        TOTAL FREE ENERGY PREDICTED BY IDOCK:   -8.61 KCAL/MOL
REMARK 923 INTER-LIGAND FREE ENERGY PREDICTED BY IDOCK:   -7.25 KCAL/MOL
REMARK 924 INTRA-LIGAND FREE ENERGY PREDICTED BY IDOCK:   -1.36 KCAL/MOL
REMARK 927      BINDING AFFINITY PREDICTED BY RF-SCORE:    0.00 PKD
ROOT
HETATM    1  O   UNL     1     -12.437  14.502  69.307  1.00  0.00    -0.556 OA 
HETATM    2  H   UNL     1     -12.179  14.565  70.219  1.00  0.00     0.000 HD 
HETATM    3  C   UNL     1     -11.952  13.285  68.737  1.00  0.00    -0.300 C  
ENDROOT
BRANCH   3   4
HETATM    4  C   UNL     1     -12.371  13.183  67.254  1.00  0.00    -0.008 C  
HETATM    5  O   UNL     1     -12.366  14.456  66.582  1.00  0.00    -0.409 OA 
HETATM    6  C   UNL     1     -11.100  14.936  66.122  1.00  0.00    -0.335 C  
HETATM    7  H   UNL     1      -9.196  11.772  67.330  1.00  0.00     0.000 HD 
HETATM    8  C   UNL     1     -10.464  13.920  65.147  1.00  0.00    -0.393 C  
HETATM    9  O   UNL     1     -11.262  13.741  63.970  1.00  0.00    -0.580 OA 
HETATM   10  H   UNL     1     -10.954  10.246  66.741  1.00  0.00     0.000 HD 
HETATM   11  C   UNL     1     -10.299  12.571  65.855  1.00  0.00    -0.263 C  
HETATM   12  C   UNL     1     -11.631  12.093  66.450  1.00  0.00    -0.364 C  
HETATM   13  O   UNL     1      -9.298  12.608  66.890  1.00  0.00    -0.215 OA 
HETATM   14  H   UNL     1     -10.872  13.117  63.371  1.00  0.00     0.000 HD 
HETATM   15  O   UNL     1     -11.409  10.917  67.236  1.00  0.00    -0.415 OA 
BRANCH   6  16
HETATM   16  O   UNL     1     -10.279  15.260  67.243  1.00  0.00    -0.243 OA 
BRANCH  16  17
HETATM   17  C   UNL     1     -10.031  16.650  67.535  1.00  0.00    -0.264 C  
HETATM   18  O   UNL     1      -8.717  18.261  68.829  1.00  0.00    -0.300 OA 
HETATM   19  C   UNL     1      -8.822  16.880  68.456  1.00  0.00    -0.251 C  
HETATM   20  H   UNL     1      -7.969  18.403  69.398  1.00  0.00     0.000 HD 
HETATM   21  C   UNL     1      -7.399  17.200  66.414  1.00  0.00    -0.299 C  
HETATM   22  O   UNL     1      -7.508  15.028  67.571  1.00  0.00    -0.168 OA 
HETATM   23  C   UNL     1      -7.528  16.445  67.756  1.00  0.00    -0.142 C  
HETATM   24  O   UNL     1      -7.127  18.582  66.590  1.00  0.00    -0.195 OA 
HETATM   25  O   UNL     1      -8.545  17.004  65.580  1.00  0.00    -0.456 OA 
HETATM   26  H   UNL     1      -6.707  14.759  67.137  1.00  0.00     0.000 HD 
HETATM   27  H   UNL     1      -7.047  19.045  65.764  1.00  0.00     0.000 HD 
HETATM   28  C   UNL     1      -9.815  17.328  66.158  1.00  0.00    -0.253 C  
BRANCH  28  29
HETATM   29  C   UNL     1     -10.119  18.834  66.139  1.00  0.00    -0.384 C  
HETATM   30  O   UNL     1     -11.036  19.175  67.177  1.00  0.00    -0.453 OA 
HETATM   31  H   UNL     1     -11.224  20.105  67.166  1.00  0.00     0.000 HD 
ENDBRANCH  28  29
ENDBRANCH  16  17
ENDBRANCH   6  16
ENDBRANCH   3   4
TORSDOF 4
ENDMDL
MODEL       22
REMARK 921   NORMALIZED FREE ENERGY PREDICTED BY IDOCK:   -5.90 KCAL/MOL
REMARK 922        TOTAL FREE ENERGY PREDICTED BY IDOCK:   -8.59 KCAL/MOL
REMARK 923 INTER-LIGAND FREE ENERGY PREDICTED BY IDOCK:   -7.57 KCAL/MOL
REMARK 924 INTRA-LIGAND FREE ENERGY PREDICTED BY IDOCK:   -1.03 KCAL/MOL
REMARK 927      BINDING AFFINITY PREDICTED BY RF-SCORE:    0.00 PKD
ROOT
HETATM    1  O   UNL     1     -10.105  17.795  65.906  1.00  0.00    -0.526 OA 
HETATM    2  H   UNL     1     -10.740  18.000  65.230  1.00  0.00     0.000 HD 
HETATM    3  C   UNL     1     -10.742  17.737  67.184  1.00  0.00    -0.216 C  
ENDROOT
BRANCH   3   4
HETATM    4  C   UNL     1      -9.710  17.404  68.283  1.00  0.00    -0.299 C  
HETATM    5  O   UNL     1      -9.746  16.023  68.686  1.00  0.00    -0.203 OA 
HETATM    6  C   UNL     1      -9.056  15.091  67.850  1.00  0.00    -0.180 C  
HETATM    7  H   UNL     1      -7.781  17.847  65.426  1.00  0.00     0.000 HD 
HETATM    8  C   UNL     1      -7.565  15.478  67.734  1.00  0.00    -0.145 C  
HETATM    9  O   UNL     1      -6.901  15.425  69.003  1.00  0.00    -0.120 OA 
HETATM   10  H   UNL     1      -7.391  19.467  67.156  1.00  0.00     0.000 HD 
HETATM   11  C   UNL     1      -7.450  16.894  67.162  1.00  0.00    -0.175 C  
HETATM   12  C   UNL     1      -8.275  17.891  67.987  1.00  0.00    -0.257 C  
HETATM   13  O   UNL     1      -7.851  16.968  65.781  1.00  0.00    -0.397 OA 
HETATM   14  H   UNL     1      -5.985  15.662  68.932  1.00  0.00     0.000 HD 
HETATM   15  O   UNL     1      -8.274  19.167  67.337  1.00  0.00    -0.271 OA 
BRANCH   6  16
HETATM   16  O   UNL     1      -9.730  14.987  66.597  1.00  0.00    -0.237 OA 
BRANCH  16  17
HETATM   17  C   UNL     1     -10.027  13.673  66.083  1.00  0.00    -0.306 C  
HETATM   18  O   UNL     1     -11.170  11.541  66.466  1.00  0.00    -0.310 OA 
HETATM   19  C   UNL     1     -11.030  12.887  66.943  1.00  0.00    -0.266 C  
HETATM   20  H   UNL     1     -11.790  11.056  66.998  1.00  0.00     0.000 HD 
HETATM   21  C   UNL     1     -12.873  13.730  65.463  1.00  0.00    -0.419 C  
HETATM   22  O   UNL     1     -12.340  14.834  67.599  1.00  0.00    -0.551 OA 
HETATM   23  C   UNL     1     -12.401  13.575  66.926  1.00  0.00    -0.238 C  
HETATM   24  O   UNL     1     -13.218  12.488  64.868  1.00  0.00    -0.787 OA 
HETATM   25  O   UNL     1     -11.916  14.434  64.666  1.00  0.00    -0.417 OA 
HETATM   26  H   UNL     1     -13.189  15.260  67.589  1.00  0.00     0.000 HD 
HETATM   27  H   UNL     1     -13.508  12.583  63.968  1.00  0.00     0.000 HD 
HETATM   28  C   UNL     1     -10.585  13.905  64.656  1.00  0.00    -0.412 C  
BRANCH  28  29
HETATM   29  C   UNL     1     -10.420  12.707  63.709  1.00  0.00    -0.379 C  
HETATM   30  O   UNL     1      -9.355  11.864  64.146  1.00  0.00    -0.459 OA 
HETATM   31  H   UNL     1      -9.253  11.123  63.560  1.00  0.00     0.000 HD 
ENDBRANCH  28  29
ENDBRANCH  16  17
ENDBRANCH   6  16
ENDBRANCH   3   4
TORSDOF 4
ENDMDL
MODEL       23
REMARK 921   NORMALIZED FREE ENERGY PREDICTED BY IDOCK:   -5.89 KCAL/MOL
REMARK 922        TOTAL FREE ENERGY PREDICTED BY IDOCK:   -8.58 KCAL/MOL
REMARK 923 INTER-LIGAND FREE ENERGY PREDICTED BY IDOCK:   -7.62 KCAL/MOL
REMARK 924 INTRA-LIGAND FREE ENERGY PREDICTED BY IDOCK:   -0.96 KCAL/MOL
REMARK 927      BINDING AFFINITY PREDICTED BY RF-SCORE:    0.00 PKD
ROOT
HETATM    1  O   UNL     1     -12.543  14.370  68.952  1.00  0.00    -0.555 OA 
HETATM    2  H   UNL     1     -12.177  14.514  69.817  1.00  0.00     0.000 HD 
HETATM    3  C   UNL     1     -11.686  13.520  68.187  1.00  0.00    -0.361 C  
ENDROOT
BRANCH   3   4
HETATM    4  C   UNL     1     -12.280  13.286  66.781  1.00  0.00    -0.280 C  
HETATM    5  O   UNL     1     -12.232  14.459  65.949  1.00  0.00    -0.392 OA 
HETATM    6  C   UNL     1     -10.987  14.740  65.303  1.00  0.00    -0.374 C  
HETATM    7  H   UNL     1      -9.267  11.556  66.718  1.00  0.00     0.000 HD 
HETATM    8  C   UNL     1     -10.568  13.550  64.412  1.00  0.00    -0.377 C  
HETATM    9  O   UNL     1     -11.509  13.319  63.356  1.00  0.00    -0.640 OA 
HETATM   10  H   UNL     1     -11.218  10.171  66.518  1.00  0.00     0.000 HD 
HETATM   11  C   UNL     1     -10.451  12.287  65.271  1.00  0.00    -0.282 C  
HETATM   12  C   UNL     1     -11.745  12.032  66.056  1.00  0.00    -0.241 C  
HETATM   13  O   UNL     1      -9.339  12.339  66.184  1.00  0.00    -0.230 OA 
HETATM   14  H   UNL     1     -11.251  12.587  62.808  1.00  0.00     0.000 HD 
HETATM   15  O   UNL     1     -11.547  10.942  66.963  1.00  0.00    -0.383 OA 
BRANCH   6  16
HETATM   16  O   UNL     1     -10.016  15.105  66.282  1.00  0.00    -0.257 OA 
BRANCH  16  17
HETATM   17  C   UNL     1      -9.264  16.319  66.084  1.00  0.00    -0.341 C  
HETATM   18  O   UNL     1      -9.341  18.761  65.897  1.00  0.00    -0.466 OA 
HETATM   19  C   UNL     1     -10.103  17.598  66.251  1.00  0.00    -0.341 C  
HETATM   20  H   UNL     1      -9.859  19.550  66.001  1.00  0.00     0.000 HD 
HETATM   21  C   UNL     1      -9.368  17.699  68.648  1.00  0.00    -0.270 C  
HETATM   22  O   UNL     1     -11.530  16.704  68.012  1.00  0.00    -0.167 OA 
HETATM   23  C   UNL     1     -10.587  17.732  67.700  1.00  0.00    -0.379 C  
HETATM   24  O   UNL     1      -8.570  18.869  68.551  1.00  0.00    -0.329 OA 
HETATM   25  O   UNL     1      -8.579  16.521  68.460  1.00  0.00    -0.204 OA 
HETATM   26  H   UNL     1     -11.830  16.787  68.910  1.00  0.00     0.000 HD 
HETATM   27  H   UNL     1      -7.821  18.848  69.134  1.00  0.00     0.000 HD 
HETATM   28  C   UNL     1      -8.118  16.270  67.127  1.00  0.00    -0.188 C  
BRANCH  28  29
HETATM   29  C   UNL     1      -6.883  17.100  66.750  1.00  0.00    -0.224 C  
HETATM   30  O   UNL     1      -5.700  16.307  66.832  1.00  0.00    -0.342 OA 
HETATM   31  H   UNL     1      -4.935  16.820  66.600  1.00  0.00     0.000 HD 
ENDBRANCH  28  29
ENDBRANCH  16  17
ENDBRANCH   6  16
ENDBRANCH   3   4
TORSDOF 4
ENDMDL
MODEL       24
REMARK 921   NORMALIZED FREE ENERGY PREDICTED BY IDOCK:   -5.88 KCAL/MOL
REMARK 922        TOTAL FREE ENERGY PREDICTED BY IDOCK:   -8.57 KCAL/MOL
REMARK 923 INTER-LIGAND FREE ENERGY PREDICTED BY IDOCK:   -7.27 KCAL/MOL
REMARK 924 INTRA-LIGAND FREE ENERGY PREDICTED BY IDOCK:   -1.30 KCAL/MOL
REMARK 927      BINDING AFFINITY PREDICTED BY RF-SCORE:    0.00 PKD
ROOT
HETATM    1  O   UNL     1      -9.597  12.267  68.880  1.00  0.00    -0.408 OA 
HETATM    2  H   UNL     1      -8.695  12.312  69.174  1.00  0.00     0.000 HD 
HETATM    3  C   UNL     1      -9.649  12.073  67.466  1.00  0.00    -0.177 C  
ENDROOT
BRANCH   3   4
HETATM    4  C   UNL     1     -11.115  12.001  66.987  1.00  0.00    -0.298 C  
HETATM    5  O   UNL     1     -11.970  12.947  67.655  1.00  0.00    -0.352 OA 
HETATM    6  C   UNL     1     -11.947  14.291  67.167  1.00  0.00    -0.417 C  
HETATM    7  H   UNL     1      -9.434  13.465  64.321  1.00  0.00     0.000 HD 
HETATM    8  C   UNL     1     -12.336  14.323  65.672  1.00  0.00    -0.405 C  
HETATM    9  O   UNL     1     -13.674  13.856  65.460  1.00  0.00    -0.469 OA 
HETATM   10  H   UNL     1     -10.375  11.307  63.845  1.00  0.00     0.000 HD 
HETATM   11  C   UNL     1     -11.363  13.449  64.875  1.00  0.00    -0.328 C  
HETATM   12  C   UNL     1     -11.294  12.029  65.455  1.00  0.00    -0.321 C  
HETATM   13  O   UNL     1     -10.038  14.007  64.815  1.00  0.00    -0.375 OA 
HETATM   14  H   UNL     1     -13.913  13.876  64.542  1.00  0.00     0.000 HD 
HETATM   15  O   UNL     1     -10.265  11.290  64.789  1.00  0.00    -0.254 OA 
BRANCH   6  16
HETATM   16  O   UNL     1     -10.679  14.878  67.452  1.00  0.00    -0.279 OA 
BRANCH  16  17
HETATM   17  C   UNL     1     -10.617  16.300  67.682  1.00  0.00    -0.311 C  
HETATM   18  O   UNL     1     -10.344  18.091  69.332  1.00  0.00    -0.397 OA 
HETATM   19  C   UNL     1     -10.245  16.674  69.127  1.00  0.00    -0.309 C  
HETATM   20  H   UNL     1     -10.114  18.321  70.224  1.00  0.00     0.000 HD 
HETATM   21  C   UNL     1      -7.845  16.827  68.409  1.00  0.00    -0.214 C  
HETATM   22  O   UNL     1      -8.737  14.789  69.467  1.00  0.00    -0.408 OA 
HETATM   23  C   UNL     1      -8.816  16.217  69.444  1.00  0.00    -0.111 C  
HETATM   24  O   UNL     1      -7.691  18.229  68.567  1.00  0.00    -0.289 OA 
HETATM   25  O   UNL     1      -8.221  16.499  67.068  1.00  0.00    -0.167 OA 
HETATM   26  H   UNL     1      -7.852  14.506  69.663  1.00  0.00     0.000 HD 
HETATM   27  H   UNL     1      -7.094  18.604  67.930  1.00  0.00     0.000 HD 
HETATM   28  C   UNL     1      -9.560  16.834  66.683  1.00  0.00    -0.258 C  
BRANCH  28  29
HETATM   29  C   UNL     1      -9.727  18.317  66.316  1.00  0.00    -0.291 C  
HETATM   30  O   UNL     1      -8.525  18.833  65.748  1.00  0.00    -0.436 OA 
HETATM   31  H   UNL     1      -8.628  19.749  65.522  1.00  0.00     0.000 HD 
ENDBRANCH  28  29
ENDBRANCH  16  17
ENDBRANCH   6  16
ENDBRANCH   3   4
TORSDOF 4
ENDMDL
MODEL       25
REMARK 921   NORMALIZED FREE ENERGY PREDICTED BY IDOCK:   -5.82 KCAL/MOL
REMARK 922        TOTAL FREE ENERGY PREDICTED BY IDOCK:   -8.49 KCAL/MOL
REMARK 923 INTER-LIGAND FREE ENERGY PREDICTED BY IDOCK:   -7.44 KCAL/MOL
REMARK 924 INTRA-LIGAND FREE ENERGY PREDICTED BY IDOCK:   -1.05 KCAL/MOL
REMARK 927      BINDING AFFINITY PREDICTED BY RF-SCORE:    0.00 PKD
ROOT
HETATM    1  O   UNL     1      -8.031   9.917  65.780  1.00  0.00    -0.113 OA 
HETATM    2  H   UNL     1      -7.616  10.160  64.961  1.00  0.00     0.000 HD 
HETATM    3  C   UNL     1      -7.617  10.798  66.826  1.00  0.00    -0.129 C  
ENDROOT
BRANCH   3   4
HETATM    4  C   UNL     1      -8.292  10.403  68.158  1.00  0.00    -0.117 C  
HETATM    5  O   UNL     1      -9.418  11.237  68.484  1.00  0.00    -0.182 OA 
HETATM    6  C   UNL     1     -10.657  10.925  67.841  1.00  0.00    -0.207 C  
HETATM    7  H   UNL     1      -9.186   7.852  65.974  1.00  0.00     0.000 HD 
HETATM    8  C   UNL     1     -11.075   9.473  68.162  1.00  0.00     0.006 C  
HETATM    9  O   UNL     1     -11.307   9.284  69.564  1.00  0.00    -0.435 OA 
HETATM   10  H   UNL     1      -7.789   7.160  67.802  1.00  0.00     0.000 HD 
HETATM   11  C   UNL     1      -9.976   8.513  67.697  1.00  0.00    -0.198 C  
HETATM   12  C   UNL     1      -8.616   8.900  68.294  1.00  0.00    -0.134 C  
HETATM   13  O   UNL     1      -9.868   8.446  66.263  1.00  0.00    -0.245 OA 
HETATM   14  H   UNL     1     -11.564   8.391  69.761  1.00  0.00     0.000 HD 
HETATM   15  O   UNL     1      -7.590   8.085  67.717  1.00  0.00    -0.098 OA 
BRANCH   6  16
HETATM   16  O   UNL     1     -10.553  11.206  66.447  1.00  0.00    -0.252 OA 
BRANCH  16  17
HETATM   17  C   UNL     1     -10.667  12.576  66.012  1.00  0.00    -0.262 C  
HETATM   18  O   UNL     1      -9.997  14.256  64.360  1.00  0.00    -0.634 OA 
HETATM   19  C   UNL     1      -9.978  12.855  64.666  1.00  0.00    -0.129 C  
HETATM   20  H   UNL     1      -9.570  14.428  63.528  1.00  0.00     0.000 HD 
HETATM   21  C   UNL     1     -12.175  12.454  63.522  1.00  0.00    -0.563 C  
HETATM   22  O   UNL     1     -10.481  10.675  63.698  1.00  0.00    -0.500 OA 
HETATM   23  C   UNL     1     -10.676  12.082  63.539  1.00  0.00    -0.455 C  
HETATM   24  O   UNL     1     -12.401  13.784  63.079  1.00  0.00    -1.089 OA 
HETATM   25  O   UNL     1     -12.797  12.222  64.789  1.00  0.00    -0.661 OA 
HETATM   26  H   UNL     1     -10.913  10.196  63.001  1.00  0.00     0.000 HD 
HETATM   27  H   UNL     1     -13.323  14.012  63.069  1.00  0.00     0.000 HD 
HETATM   28  C   UNL     1     -12.189  12.855  65.921  1.00  0.00    -0.407 C  
BRANCH  28  29
HETATM   29  C   UNL     1     -12.571  14.336  66.060  1.00  0.00    -0.309 C  
HETATM   30  O   UNL     1     -11.637  15.020  66.893  1.00  0.00    -0.323 OA 
HETATM   31  H   UNL     1     -11.873  15.936  66.979  1.00  0.00     0.000 HD 
ENDBRANCH  28  29
ENDBRANCH  16  17
ENDBRANCH   6  16
ENDBRANCH   3   4
TORSDOF 4
ENDMDL
MODEL       26
REMARK 921   NORMALIZED FREE ENERGY PREDICTED BY IDOCK:   -5.81 KCAL/MOL
REMARK 922        TOTAL FREE ENERGY PREDICTED BY IDOCK:   -8.48 KCAL/MOL
REMARK 923 INTER-LIGAND FREE ENERGY PREDICTED BY IDOCK:   -7.27 KCAL/MOL
REMARK 924 INTRA-LIGAND FREE ENERGY PREDICTED BY IDOCK:   -1.21 KCAL/MOL
REMARK 927      BINDING AFFINITY PREDICTED BY RF-SCORE:    0.00 PKD
ROOT
HETATM    1  O   UNL     1     -10.469  18.714  65.744  1.00  0.00    -0.586 OA 
HETATM    2  H   UNL     1     -11.154  18.761  65.087  1.00  0.00     0.000 HD 
HETATM    3  C   UNL     1     -10.936  19.242  66.986  1.00  0.00    -0.312 C  
ENDROOT
BRANCH   3   4
HETATM    4  C   UNL     1      -9.823  19.165  68.054  1.00  0.00    -0.356 C  
HETATM    5  O   UNL     1      -9.936  18.005  68.898  1.00  0.00    -0.370 OA 
HETATM    6  C   UNL     1      -9.427  16.776  68.374  1.00  0.00    -0.241 C  
HETATM    7  H   UNL     1      -8.187  18.420  65.080  1.00  0.00     0.000 HD 
HETATM    8  C   UNL     1      -7.929  16.923  68.025  1.00  0.00    -0.185 C  
HETATM    9  O   UNL     1      -7.138  17.207  69.186  1.00  0.00    -0.241 OA 
HETATM   10  H   UNL     1      -7.469  20.456  66.133  1.00  0.00     0.000 HD 
HETATM   11  C   UNL     1      -7.754  18.052  67.005  1.00  0.00    -0.216 C  
HETATM   12  C   UNL     1      -8.392  19.354  67.507  1.00  0.00    -0.291 C  
HETATM   13  O   UNL     1      -8.295  17.720  65.713  1.00  0.00    -0.529 OA 
HETATM   14  H   UNL     1      -6.218  17.298  68.972  1.00  0.00     0.000 HD 
HETATM   15  O   UNL     1      -8.350  20.339  66.469  1.00  0.00    -0.278 OA 
BRANCH   6  16
HETATM   16  O   UNL     1     -10.240  16.351  67.282  1.00  0.00    -0.267 OA 
BRANCH  16  17
HETATM   17  C   UNL     1     -11.035  15.159  67.440  1.00  0.00    -0.314 C  
HETATM   18  O   UNL     1     -12.905  13.824  66.589  1.00  0.00    -0.318 OA 
HETATM   19  C   UNL     1     -12.047  14.938  66.303  1.00  0.00     0.025 C  
HETATM   20  H   UNL     1     -13.530  13.688  65.886  1.00  0.00     0.000 HD 
HETATM   21  C   UNL     1     -10.352  13.488  65.153  1.00  0.00    -0.353 C  
HETATM   22  O   UNL     1     -10.624  15.861  64.552  1.00  0.00    -0.745 OA 
HETATM   23  C   UNL     1     -11.314  14.684  64.979  1.00  0.00    -0.390 C  
HETATM   24  O   UNL     1     -11.037  12.252  65.291  1.00  0.00    -0.298 OA 
HETATM   25  O   UNL     1      -9.438  13.691  66.235  1.00  0.00    -0.260 OA 
HETATM   26  H   UNL     1     -10.170  15.703  63.733  1.00  0.00     0.000 HD 
HETATM   27  H   UNL     1     -10.446  11.517  65.398  1.00  0.00     0.000 HD 
HETATM   28  C   UNL     1     -10.018  13.991  67.510  1.00  0.00    -0.236 C  
BRANCH  28  29
HETATM   29  C   UNL     1     -10.535  12.745  68.245  1.00  0.00    -0.241 C  
HETATM   30  O   UNL     1     -11.447  13.113  69.278  1.00  0.00    -0.273 OA 
HETATM   31  H   UNL     1     -11.766  12.342  69.732  1.00  0.00     0.000 HD 
ENDBRANCH  28  29
ENDBRANCH  16  17
ENDBRANCH   6  16
ENDBRANCH   3   4
TORSDOF 4
ENDMDL
MODEL       27
REMARK 921   NORMALIZED FREE ENERGY PREDICTED BY IDOCK:   -5.81 KCAL/MOL
REMARK 922        TOTAL FREE ENERGY PREDICTED BY IDOCK:   -8.48 KCAL/MOL
REMARK 923 INTER-LIGAND FREE ENERGY PREDICTED BY IDOCK:   -7.47 KCAL/MOL
REMARK 924 INTRA-LIGAND FREE ENERGY PREDICTED BY IDOCK:   -1.01 KCAL/MOL
REMARK 927      BINDING AFFINITY PREDICTED BY RF-SCORE:    0.00 PKD
ROOT
HETATM    1  O   UNL     1     -11.016  18.172  67.702  1.00  0.00    -0.324 OA 
HETATM    2  H   UNL     1     -11.960  18.090  67.765  1.00  0.00     0.000 HD 
HETATM    3  C   UNL     1     -10.400  17.776  68.929  1.00  0.00    -0.300 C  
ENDROOT
BRANCH   3   4
HETATM    4  C   UNL     1      -8.865  17.908  68.826  1.00  0.00    -0.199 C  
HETATM    5  O   UNL     1      -8.203  16.643  68.654  1.00  0.00    -0.222 OA 
HETATM    6  C   UNL     1      -8.178  16.104  67.330  1.00  0.00    -0.177 C  
HETATM    7  H   UNL     1     -10.021  19.163  65.798  1.00  0.00     0.000 HD 
HETATM    8  C   UNL     1      -7.492  17.095  66.363  1.00  0.00    -0.306 C  
HETATM    9  O   UNL     1      -6.122  17.321  66.716  1.00  0.00    -0.163 OA 
HETATM   10  H   UNL     1      -8.918  20.777  67.193  1.00  0.00     0.000 HD 
HETATM   11  C   UNL     1      -8.246  18.429  66.383  1.00  0.00    -0.257 C  
HETATM   12  C   UNL     1      -8.377  18.967  67.815  1.00  0.00    -0.288 C  
HETATM   13  O   UNL     1      -9.553  18.336  65.785  1.00  0.00    -0.478 OA 
HETATM   14  H   UNL     1      -5.701  17.930  66.122  1.00  0.00     0.000 HD 
HETATM   15  O   UNL     1      -9.218  20.125  67.815  1.00  0.00    -0.342 OA 
BRANCH   6  16
HETATM   16  O   UNL     1      -9.499  15.732  66.943  1.00  0.00    -0.216 OA 
BRANCH  16  17
HETATM   17  C   UNL     1      -9.687  14.480  66.253  1.00  0.00    -0.309 C  
HETATM   18  O   UNL     1      -9.446  12.044  66.343  1.00  0.00    -0.221 OA 
HETATM   19  C   UNL     1      -9.387  13.247  67.122  1.00  0.00    -0.240 C  
HETATM   20  H   UNL     1      -9.260  11.283  66.881  1.00  0.00     0.000 HD 
HETATM   21  C   UNL     1     -11.826  13.133  67.702  1.00  0.00    -0.359 C  
HETATM   22  O   UNL     1     -10.204  14.229  69.198  1.00  0.00    -0.364 OA 
HETATM   23  C   UNL     1     -10.392  13.152  68.277  1.00  0.00    -0.252 C  
HETATM   24  O   UNL     1     -12.124  11.924  67.022  1.00  0.00    -0.600 OA 
HETATM   25  O   UNL     1     -12.081  14.268  66.870  1.00  0.00    -0.431 OA 
HETATM   26  H   UNL     1     -10.826  14.171  69.913  1.00  0.00     0.000 HD 
HETATM   27  H   UNL     1     -13.005  11.912  66.668  1.00  0.00     0.000 HD 
HETATM   28  C   UNL     1     -11.166  14.483  65.788  1.00  0.00    -0.334 C  
BRANCH  28  29
HETATM   29  C   UNL     1     -11.449  13.587  64.573  1.00  0.00    -0.381 C  
HETATM   30  O   UNL     1     -10.245  13.316  63.857  1.00  0.00    -0.707 OA 
HETATM   31  H   UNL     1     -10.420  12.763  63.105  1.00  0.00     0.000 HD 
ENDBRANCH  28  29
ENDBRANCH  16  17
ENDBRANCH   6  16
ENDBRANCH   3   4
TORSDOF 4
ENDMDL
MODEL       28
REMARK 921   NORMALIZED FREE ENERGY PREDICTED BY IDOCK:   -5.78 KCAL/MOL
REMARK 922        TOTAL FREE ENERGY PREDICTED BY IDOCK:   -8.44 KCAL/MOL
REMARK 923 INTER-LIGAND FREE ENERGY PREDICTED BY IDOCK:   -7.58 KCAL/MOL
REMARK 924 INTRA-LIGAND FREE ENERGY PREDICTED BY IDOCK:   -0.86 KCAL/MOL
REMARK 927      BINDING AFFINITY PREDICTED BY RF-SCORE:    0.00 PKD
ROOT
HETATM    1  O   UNL     1      -9.308  11.751  68.845  1.00  0.00    -0.393 OA 
HETATM    2  H   UNL     1      -8.968  12.076  69.670  1.00  0.00     0.000 HD 
HETATM    3  C   UNL     1     -10.674  11.359  68.991  1.00  0.00    -0.205 C  
ENDROOT
BRANCH   3   4
HETATM    4  C   UNL     1     -11.227  10.830  67.650  1.00  0.00    -0.299 C  
HETATM    5  O   UNL     1     -12.148  11.741  67.025  1.00  0.00    -0.575 OA 
HETATM    6  C   UNL     1     -11.580  12.825  66.286  1.00  0.00    -0.379 C  
HETATM    7  H   UNL     1      -7.930  11.660  66.931  1.00  0.00     0.000 HD 
HETATM    8  C   UNL     1     -10.663  12.286  65.165  1.00  0.00    -0.293 C  
HETATM    9  O   UNL     1     -11.395  11.507  64.209  1.00  0.00    -0.323 OA 
HETATM   10  H   UNL     1      -8.434   9.319  66.746  1.00  0.00     0.000 HD 
HETATM   11  C   UNL     1      -9.559  11.423  65.782  1.00  0.00    -0.233 C  
HETATM   12  C   UNL     1     -10.152  10.318  66.668  1.00  0.00    -0.223 C  
HETATM   13  O   UNL     1      -8.615  12.195  66.547  1.00  0.00    -0.165 OA 
HETATM   14  H   UNL     1     -10.832  11.176  63.521  1.00  0.00     0.000 HD 
HETATM   15  O   UNL     1      -9.095   9.634  67.350  1.00  0.00    -0.130 OA 
BRANCH   6  16
HETATM   16  O   UNL     1     -10.933  13.725  67.184  1.00  0.00    -0.283 OA 
BRANCH  16  17
HETATM   17  C   UNL     1     -11.110  15.142  66.985  1.00  0.00    -0.328 C  
HETATM   18  O   UNL     1     -10.886  17.383  67.948  1.00  0.00    -0.375 OA 
HETATM   19  C   UNL     1     -10.549  16.000  68.131  1.00  0.00    -0.286 C  
HETATM   20  H   UNL     1     -10.539  17.913  68.657  1.00  0.00     0.000 HD 
HETATM   21  C   UNL     1      -8.411  16.228  66.836  1.00  0.00    -0.224 C  
HETATM   22  O   UNL     1      -8.661  14.535  68.607  1.00  0.00    -0.173 OA 
HETATM   23  C   UNL     1      -9.024  15.858  68.205  1.00  0.00    -0.184 C  
HETATM   24  O   UNL     1      -8.511  17.616  66.552  1.00  0.00    -0.247 OA 
HETATM   25  O   UNL     1      -8.966  15.446  65.775  1.00  0.00    -0.197 OA 
HETATM   26  H   UNL     1      -7.716  14.446  68.653  1.00  0.00     0.000 HD 
HETATM   27  H   UNL     1      -8.135  17.843  65.711  1.00  0.00     0.000 HD 
HETATM   28  C   UNL     1     -10.393  15.464  65.649  1.00  0.00    -0.372 C  
BRANCH  28  29
HETATM   29  C   UNL     1     -10.919  16.718  64.935  1.00  0.00    -0.087 C  
HETATM   30  O   UNL     1     -11.604  16.362  63.735  1.00  0.00    -1.605 OA 
HETATM   31  H   UNL     1     -11.928  17.137  63.292  1.00  0.00     0.000 HD 
ENDBRANCH  28  29
ENDBRANCH  16  17
ENDBRANCH   6  16
ENDBRANCH   3   4
TORSDOF 4
ENDMDL
MODEL       29
REMARK 921   NORMALIZED FREE ENERGY PREDICTED BY IDOCK:   -5.73 KCAL/MOL
REMARK 922        TOTAL FREE ENERGY PREDICTED BY IDOCK:   -8.38 KCAL/MOL
REMARK 923 INTER-LIGAND FREE ENERGY PREDICTED BY IDOCK:   -7.19 KCAL/MOL
REMARK 924 INTRA-LIGAND FREE ENERGY PREDICTED BY IDOCK:   -1.19 KCAL/MOL
REMARK 927      BINDING AFFINITY PREDICTED BY RF-SCORE:    0.00 PKD
ROOT
HETATM    1  O   UNL     1     -10.416  11.693  62.934  1.00  0.00    -0.653 OA 
HETATM    2  H   UNL     1      -9.829  11.906  62.219  1.00  0.00     0.000 HD 
HETATM    3  C   UNL     1     -10.079  12.452  64.096  1.00  0.00    -0.295 C  
ENDROOT
BRANCH   3   4
HETATM    4  C   UNL     1     -11.034  12.105  65.259  1.00  0.00    -0.304 C  
HETATM    5  O   UNL     1     -10.469  12.388  66.552  1.00  0.00    -0.227 OA 
HETATM    6  C   UNL     1     -10.529  13.746  66.997  1.00  0.00    -0.274 C  
HETATM    7  H   UNL     1     -12.444  14.944  63.836  1.00  0.00     0.000 HD 
HETATM    8  C   UNL     1     -11.995  14.230  67.041  1.00  0.00    -0.433 C  
HETATM    9  O   UNL     1     -12.775  13.479  67.980  1.00  0.00     0.068 OA 
HETATM   10  H   UNL     1     -13.790  12.963  63.656  1.00  0.00     0.000 HD 
HETATM   11  C   UNL     1     -12.616  14.096  65.647  1.00  0.00    -0.470 C  
HETATM   12  C   UNL     1     -12.463  12.667  65.109  1.00  0.00    -0.463 C  
HETATM   13  O   UNL     1     -12.059  15.027  64.700  1.00  0.00    -0.399 OA 
HETATM   14  H   UNL     1     -13.676  13.776  68.007  1.00  0.00     0.000 HD 
HETATM   15  O   UNL     1     -12.910  12.618  63.749  1.00  0.00    -0.710 OA 
BRANCH   6  16
HETATM   16  O   UNL     1      -9.674  14.550  66.186  1.00  0.00    -0.294 OA 
BRANCH  16  17
HETATM   17  C   UNL     1      -8.548  15.200  66.808  1.00  0.00    -0.262 C  
HETATM   18  O   UNL     1      -6.899  17.006  66.666  1.00  0.00    -0.201 OA 
HETATM   19  C   UNL     1      -8.108  16.489  66.093  1.00  0.00    -0.207 C  
HETATM   20  H   UNL     1      -6.628  17.802  66.224  1.00  0.00     0.000 HD 
HETATM   21  C   UNL     1      -9.556  17.793  67.674  1.00  0.00    -0.266 C  
HETATM   22  O   UNL     1     -10.356  17.159  65.432  1.00  0.00    -0.619 OA 
HETATM   23  C   UNL     1      -9.208  17.553  66.188  1.00  0.00    -0.135 C  
HETATM   24  O   UNL     1      -8.517  18.456  68.376  1.00  0.00    -0.310 OA 
HETATM   25  O   UNL     1      -9.932  16.582  68.335  1.00  0.00    -0.233 OA 
HETATM   26  H   UNL     1     -11.038  17.818  65.491  1.00  0.00     0.000 HD 
HETATM   27  H   UNL     1      -8.730  18.604  69.290  1.00  0.00     0.000 HD 
HETATM   28  C   UNL     1      -8.996  15.499  68.261  1.00  0.00    -0.185 C  
BRANCH  28  29
HETATM   29  C   UNL     1      -7.840  15.633  69.265  1.00  0.00    -0.230 C  
HETATM   30  O   UNL     1      -6.730  14.833  68.862  1.00  0.00    -0.089 OA 
HETATM   31  H   UNL     1      -6.016  14.915  69.483  1.00  0.00     0.000 HD 
ENDBRANCH  28  29
ENDBRANCH  16  17
ENDBRANCH   6  16
ENDBRANCH   3   4
TORSDOF 4
ENDMDL
MODEL       30
REMARK 921   NORMALIZED FREE ENERGY PREDICTED BY IDOCK:   -5.73 KCAL/MOL
REMARK 922        TOTAL FREE ENERGY PREDICTED BY IDOCK:   -8.38 KCAL/MOL
REMARK 923 INTER-LIGAND FREE ENERGY PREDICTED BY IDOCK:   -7.59 KCAL/MOL
REMARK 924 INTRA-LIGAND FREE ENERGY PREDICTED BY IDOCK:   -0.80 KCAL/MOL
REMARK 927      BINDING AFFINITY PREDICTED BY RF-SCORE:    0.00 PKD
ROOT
HETATM    1  O   UNL     1     -11.478  14.861  69.797  1.00  0.00    -0.264 OA 
HETATM    2  H   UNL     1     -12.422  14.768  69.829  1.00  0.00     0.000 HD 
HETATM    3  C   UNL     1     -11.120  16.225  69.572  1.00  0.00    -0.330 C  
ENDROOT
BRANCH   3   4
HETATM    4  C   UNL     1      -9.584  16.376  69.520  1.00  0.00    -0.045 C  
HETATM    5  O   UNL     1      -8.920  15.186  69.057  1.00  0.00    -0.197 OA 
HETATM    6  C   UNL     1      -8.880  14.979  67.643  1.00  0.00    -0.179 C  
HETATM    7  H   UNL     1     -10.708  18.319  66.867  1.00  0.00     0.000 HD 
HETATM    8  C   UNL     1      -8.185  16.171  66.947  1.00  0.00    -0.238 C  
HETATM    9  O   UNL     1      -6.819  16.303  67.358  1.00  0.00    -0.144 OA 
HETATM   10  H   UNL     1      -9.620  19.551  68.618  1.00  0.00     0.000 HD 
HETATM   11  C   UNL     1      -8.940  17.463  67.278  1.00  0.00    -0.236 C  
HETATM   12  C   UNL     1      -9.086  17.644  68.795  1.00  0.00    -0.206 C  
HETATM   13  O   UNL     1     -10.240  17.518  66.662  1.00  0.00    -0.311 OA 
HETATM   14  H   UNL     1      -6.392  17.035  66.931  1.00  0.00     0.000 HD 
HETATM   15  O   UNL     1      -9.927  18.771  69.063  1.00  0.00    -0.388 OA 
BRANCH   6  16
HETATM   16  O   UNL     1     -10.198  14.714  67.164  1.00  0.00    -0.252 OA 
BRANCH  16  17
HETATM   17  C   UNL     1     -10.393  14.543  65.746  1.00  0.00    -0.331 C  
HETATM   18  O   UNL     1     -10.068  13.089  63.801  1.00  0.00    -0.710 OA 
HETATM   19  C   UNL     1      -9.993  13.149  65.233  1.00  0.00    -0.168 C  
HETATM   20  H   UNL     1      -9.821  12.228  63.485  1.00  0.00     0.000 HD 
HETATM   21  C   UNL     1     -12.381  12.426  65.507  1.00  0.00    -0.176 C  
HETATM   22  O   UNL     1     -10.695  11.959  67.240  1.00  0.00    -0.220 OA 
HETATM   23  C   UNL     1     -10.912  12.077  65.832  1.00  0.00    -0.298 C  
HETATM   24  O   UNL     1     -12.687  12.265  64.130  1.00  0.00    -0.607 OA 
HETATM   25  O   UNL     1     -12.730  13.737  65.960  1.00  0.00    -0.444 OA 
HETATM   26  H   UNL     1     -11.264  11.295  67.612  1.00  0.00     0.000 HD 
HETATM   27  H   UNL     1     -13.590  12.480  63.930  1.00  0.00     0.000 HD 
HETATM   28  C   UNL     1     -11.900  14.811  65.502  1.00  0.00    -0.231 C  
BRANCH  28  29
HETATM   29  C   UNL     1     -12.238  15.267  64.074  1.00  0.00     0.005 C  
HETATM   30  O   UNL     1     -11.546  16.473  63.755  1.00  0.00    -1.617 OA 
HETATM   31  H   UNL     1     -11.756  16.755  62.872  1.00  0.00     0.000 HD 
ENDBRANCH  28  29
ENDBRANCH  16  17
ENDBRANCH   6  16
ENDBRANCH   3   4
TORSDOF 4
ENDMDL
MODEL       31
REMARK 921   NORMALIZED FREE ENERGY PREDICTED BY IDOCK:   -5.73 KCAL/MOL
REMARK 922        TOTAL FREE ENERGY PREDICTED BY IDOCK:   -8.37 KCAL/MOL
REMARK 923 INTER-LIGAND FREE ENERGY PREDICTED BY IDOCK:   -7.54 KCAL/MOL
REMARK 924 INTRA-LIGAND FREE ENERGY PREDICTED BY IDOCK:   -0.83 KCAL/MOL
REMARK 927      BINDING AFFINITY PREDICTED BY RF-SCORE:    0.00 PKD
ROOT
HETATM    1  O   UNL     1     -12.798  11.343  62.848  1.00  0.00    -0.881 OA 
HETATM    2  H   UNL     1     -12.319  10.942  62.133  1.00  0.00     0.000 HD 
HETATM    3  C   UNL     1     -11.928  12.163  63.630  1.00  0.00    -0.534 C  
ENDROOT
BRANCH   3   4
HETATM    4  C   UNL     1     -12.708  12.817  64.792  1.00  0.00    -0.393 C  
HETATM    5  O   UNL     1     -12.534  12.125  66.042  1.00  0.00    -0.421 OA 
HETATM    6  C   UNL     1     -11.338  12.407  66.773  1.00  0.00    -0.335 C  
HETATM    7  H   UNL     1     -10.094  15.026  64.187  1.00  0.00     0.000 HD 
HETATM    8  C   UNL     1     -11.249  13.917  67.089  1.00  0.00    -0.313 C  
HETATM    9  O   UNL     1     -12.328  14.350  67.927  1.00  0.00    -0.615 OA 
HETATM   10  H   UNL     1     -12.279  15.917  63.740  1.00  0.00     0.000 HD 
HETATM   11  C   UNL     1     -11.275  14.712  65.780  1.00  0.00    -0.336 C  
HETATM   12  C   UNL     1     -12.498  14.339  64.932  1.00  0.00    -0.390 C  
HETATM   13  O   UNL     1     -10.078  14.533  64.999  1.00  0.00    -0.393 OA 
HETATM   14  H   UNL     1     -12.273  15.278  68.121  1.00  0.00     0.000 HD 
HETATM   15  O   UNL     1     -12.408  14.979  63.654  1.00  0.00    -0.568 OA 
BRANCH   6  16
HETATM   16  O   UNL     1     -10.214  11.893  66.062  1.00  0.00    -0.217 OA 
BRANCH  16  17
HETATM   17  C   UNL     1      -9.776  10.549  66.347  1.00  0.00    -0.198 C  
HETATM   18  O   UNL     1      -9.293   8.324  65.443  1.00  0.00    -0.412 OA 
HETATM   19  C   UNL     1      -9.582   9.685  65.090  1.00  0.00    -0.254 C  
HETATM   20  H   UNL     1      -9.174   7.791  64.666  1.00  0.00     0.000 HD 
HETATM   21  C   UNL     1      -7.156  10.326  65.093  1.00  0.00    -0.121 C  
HETATM   22  O   UNL     1      -8.791  11.509  63.681  1.00  0.00    -0.420 OA 
HETATM   23  C   UNL     1      -8.437  10.239  64.234  1.00  0.00    -0.179 C  
HETATM   24  O   UNL     1      -6.625   9.048  65.410  1.00  0.00    -0.067 OA 
HETATM   25  O   UNL     1      -7.359  11.105  66.276  1.00  0.00    -0.127 OA 
HETATM   26  H   UNL     1      -8.082  11.852  63.151  1.00  0.00     0.000 HD 
HETATM   27  H   UNL     1      -5.838   9.101  65.938  1.00  0.00     0.000 HD 
HETATM   28  C   UNL     1      -8.443  10.705  67.123  1.00  0.00    -0.128 C  
BRANCH  28  29
HETATM   29  C   UNL     1      -8.093   9.513  68.026  1.00  0.00    -0.102 C  
HETATM   30  O   UNL     1      -9.252   8.721  68.284  1.00  0.00    -0.140 OA 
HETATM   31  H   UNL     1      -9.035   7.984  68.843  1.00  0.00     0.000 HD 
ENDBRANCH  28  29
ENDBRANCH  16  17
ENDBRANCH   6  16
ENDBRANCH   3   4
TORSDOF 4
ENDMDL
MODEL       32
REMARK 921   NORMALIZED FREE ENERGY PREDICTED BY IDOCK:   -5.72 KCAL/MOL
REMARK 922        TOTAL FREE ENERGY PREDICTED BY IDOCK:   -8.36 KCAL/MOL
REMARK 923 INTER-LIGAND FREE ENERGY PREDICTED BY IDOCK:   -7.18 KCAL/MOL
REMARK 924 INTRA-LIGAND FREE ENERGY PREDICTED BY IDOCK:   -1.19 KCAL/MOL
REMARK 927      BINDING AFFINITY PREDICTED BY RF-SCORE:    0.00 PKD
ROOT
HETATM    1  O   UNL     1     -12.600  13.992  65.889  1.00  0.00    -0.488 OA 
HETATM    2  H   UNL     1     -13.229  14.464  65.356  1.00  0.00     0.000 HD 
HETATM    3  C   UNL     1     -11.435  14.791  66.105  1.00  0.00    -0.311 C  
ENDROOT
BRANCH   3   4
HETATM    4  C   UNL     1     -10.412  14.025  66.971  1.00  0.00    -0.275 C  
HETATM    5  O   UNL     1      -9.081  14.562  66.874  1.00  0.00    -0.232 OA 
HETATM    6  C   UNL     1      -8.793  15.714  67.671  1.00  0.00    -0.175 C  
HETATM    7  H   UNL     1     -12.327  15.776  69.283  1.00  0.00     0.000 HD 
HETATM    8  C   UNL     1      -9.036  15.406  69.165  1.00  0.00    -0.245 C  
HETATM    9  O   UNL     1      -8.163  14.375  69.644  1.00  0.00    -0.359 OA 
HETATM   10  H   UNL     1     -12.519  13.387  69.433  1.00  0.00     0.000 HD 
HETATM   11  C   UNL     1     -10.491  14.970  69.364  1.00  0.00    -0.247 C  
HETATM   12  C   UNL     1     -10.849  13.801  68.435  1.00  0.00    -0.252 C  
HETATM   13  O   UNL     1     -11.425  16.047  69.160  1.00  0.00    -0.339 OA 
HETATM   14  H   UNL     1      -8.313  14.185  70.562  1.00  0.00     0.000 HD 
HETATM   15  O   UNL     1     -12.250  13.525  68.532  1.00  0.00    -0.320 OA 
BRANCH   6  16
HETATM   16  O   UNL     1      -9.533  16.830  67.179  1.00  0.00    -0.226 OA 
BRANCH  16  17
HETATM   17  C   UNL     1      -8.814  17.903  66.538  1.00  0.00    -0.261 C  
HETATM   18  O   UNL     1      -8.766  20.292  66.000  1.00  0.00    -0.572 OA 
HETATM   19  C   UNL     1      -9.434  19.290  66.779  1.00  0.00    -0.329 C  
HETATM   20  H   UNL     1      -9.150  21.149  66.149  1.00  0.00     0.000 HD 
HETATM   21  C   UNL     1      -7.872  19.589  68.720  1.00  0.00    -0.342 C  
HETATM   22  O   UNL     1     -10.186  18.811  69.047  1.00  0.00    -0.491 OA 
HETATM   23  C   UNL     1      -9.346  19.663  68.264  1.00  0.00    -0.349 C  
HETATM   24  O   UNL     1      -7.077  20.625  68.163  1.00  0.00    -0.240 OA 
HETATM   25  O   UNL     1      -7.297  18.305  68.460  1.00  0.00    -0.267 OA 
HETATM   26  H   UNL     1     -10.131  19.041  69.967  1.00  0.00     0.000 HD 
HETATM   27  H   UNL     1      -6.171  20.579  68.443  1.00  0.00     0.000 HD 
HETATM   28  C   UNL     1      -7.375  17.834  67.110  1.00  0.00    -0.186 C  
BRANCH  28  29
HETATM   29  C   UNL     1      -6.301  18.445  66.197  1.00  0.00    -0.207 C  
HETATM   30  O   UNL     1      -6.749  18.472  64.842  1.00  0.00    -0.463 OA 
HETATM   31  H   UNL     1      -6.085  18.850  64.278  1.00  0.00     0.000 HD 
ENDBRANCH  28  29
ENDBRANCH  16  17
ENDBRANCH   6  16
ENDBRANCH   3   4
TORSDOF 4
ENDMDL
MODEL       33
REMARK 921   NORMALIZED FREE ENERGY PREDICTED BY IDOCK:   -5.66 KCAL/MOL
REMARK 922        TOTAL FREE ENERGY PREDICTED BY IDOCK:   -8.30 KCAL/MOL
REMARK 923 INTER-LIGAND FREE ENERGY PREDICTED BY IDOCK:   -6.89 KCAL/MOL
REMARK 924 INTRA-LIGAND FREE ENERGY PREDICTED BY IDOCK:   -1.40 KCAL/MOL
REMARK 927      BINDING AFFINITY PREDICTED BY RF-SCORE:    0.00 PKD
ROOT
HETATM    1  O   UNL     1      -9.600  14.913  65.287  1.00  0.00    -0.427 OA 
HETATM    2  H   UNL     1      -8.793  14.579  64.914  1.00  0.00     0.000 HD 
HETATM    3  C   UNL     1      -9.315  15.869  66.310  1.00  0.00    -0.322 C  
ENDROOT
BRANCH   3   4
HETATM    4  C   UNL     1     -10.628  16.413  66.916  1.00  0.00    -0.252 C  
HETATM    5  O   UNL     1     -11.649  15.406  67.035  1.00  0.00    -0.194 OA 
HETATM    6  C   UNL     1     -11.566  14.536  68.167  1.00  0.00    -0.331 C  
HETATM    7  H   UNL     1      -8.433  16.325  69.609  1.00  0.00     0.000 HD 
HETATM    8  C   UNL     1     -11.600  15.356  69.476  1.00  0.00    -0.332 C  
HETATM    9  O   UNL     1     -12.834  16.069  69.625  1.00  0.00    -0.506 OA 
HETATM   10  H   UNL     1      -9.155  18.527  68.980  1.00  0.00     0.000 HD 
HETATM   11  C   UNL     1     -10.436  16.352  69.481  1.00  0.00    -0.301 C  
HETATM   12  C   UNL     1     -10.449  17.223  68.217  1.00  0.00    -0.385 C  
HETATM   13  O   UNL     1      -9.155  15.707  69.606  1.00  0.00    -0.273 OA 
HETATM   14  H   UNL     1     -12.854  16.573  70.429  1.00  0.00     0.000 HD 
HETATM   15  O   UNL     1      -9.265  18.028  68.180  1.00  0.00    -0.265 OA 
BRANCH   6  16
HETATM   16  O   UNL     1     -10.422  13.695  68.036  1.00  0.00    -0.237 OA 
BRANCH  16  17
HETATM   17  C   UNL     1     -10.557  12.295  68.356  1.00  0.00    -0.235 C  
HETATM   18  O   UNL     1     -11.841  10.238  68.012  1.00  0.00    -0.708 OA 
HETATM   19  C   UNL     1     -11.654  11.582  67.547  1.00  0.00    -0.246 C  
HETATM   20  H   UNL     1     -12.519   9.797  67.512  1.00  0.00     0.000 HD 
HETATM   21  C   UNL     1      -9.901  10.889  65.890  1.00  0.00    -0.236 C  
HETATM   22  O   UNL     1     -11.309  12.874  65.510  1.00  0.00    -0.294 OA 
HETATM   23  C   UNL     1     -11.285  11.554  66.058  1.00  0.00    -0.178 C  
HETATM   24  O   UNL     1      -9.930   9.496  66.157  1.00  0.00    -0.259 OA 
HETATM   25  O   UNL     1      -8.897  11.542  66.672  1.00  0.00    -0.176 OA 
HETATM   26  H   UNL     1     -11.081  12.858  64.588  1.00  0.00     0.000 HD 
HETATM   27  H   UNL     1      -9.079   9.087  66.054  1.00  0.00     0.000 HD 
HETATM   28  C   UNL     1      -9.167  11.671  68.074  1.00  0.00    -0.178 C  
BRANCH  28  29
HETATM   29  C   UNL     1      -8.878  10.385  68.863  1.00  0.00    -0.161 C  
HETATM   30  O   UNL     1      -9.709  10.309  70.020  1.00  0.00    -0.395 OA 
HETATM   31  H   UNL     1      -9.530   9.514  70.509  1.00  0.00     0.000 HD 
ENDBRANCH  28  29
ENDBRANCH  16  17
ENDBRANCH   6  16
ENDBRANCH   3   4
TORSDOF 4
ENDMDL
MODEL       34
REMARK 921   NORMALIZED FREE ENERGY PREDICTED BY IDOCK:   -5.58 KCAL/MOL
REMARK 922        TOTAL FREE ENERGY PREDICTED BY IDOCK:   -8.19 KCAL/MOL
REMARK 923 INTER-LIGAND FREE ENERGY PREDICTED BY IDOCK:   -7.09 KCAL/MOL
REMARK 924 INTRA-LIGAND FREE ENERGY PREDICTED BY IDOCK:   -1.10 KCAL/MOL
REMARK 927      BINDING AFFINITY PREDICTED BY RF-SCORE:    0.00 PKD
ROOT
HETATM    1  O   UNL     1     -13.238  12.666  65.038  1.00  0.00    -0.753 OA 
HETATM    2  H   UNL     1     -14.003  13.220  64.948  1.00  0.00     0.000 HD 
HETATM    3  C   UNL     1     -12.224  13.339  65.787  1.00  0.00    -0.456 C  
ENDROOT
BRANCH   3   4
HETATM    4  C   UNL     1     -10.979  12.437  65.935  1.00  0.00    -0.288 C  
HETATM    5  O   UNL     1      -9.765  13.086  65.517  1.00  0.00    -0.182 OA 
HETATM    6  C   UNL     1      -9.152  13.973  66.457  1.00  0.00    -0.150 C  
HETATM    7  H   UNL     1     -11.806  13.271  69.206  1.00  0.00     0.000 HD 
HETATM    8  C   UNL     1      -8.822  13.220  67.765  1.00  0.00    -0.197 C  
HETATM    9  O   UNL     1      -7.872  12.168  67.548  1.00  0.00    -0.141 OA 
HETATM   10  H   UNL     1     -12.017  10.935  68.686  1.00  0.00     0.000 HD 
HETATM   11  C   UNL     1     -10.108  12.628  68.349  1.00  0.00    -0.222 C  
HETATM   12  C   UNL     1     -10.835  11.759  67.314  1.00  0.00    -0.253 C  
HETATM   13  O   UNL     1     -11.007  13.637  68.844  1.00  0.00    -0.245 OA 
HETATM   14  H   UNL     1      -7.670  11.706  68.352  1.00  0.00     0.000 HD 
HETATM   15  O   UNL     1     -12.105  11.353  67.838  1.00  0.00    -0.646 OA 
BRANCH   6  16
HETATM   16  O   UNL     1      -9.980  15.120  66.638  1.00  0.00    -0.239 OA 
BRANCH  16  17
HETATM   17  C   UNL     1      -9.506  16.393  66.155  1.00  0.00    -0.329 C  
HETATM   18  O   UNL     1     -10.024  18.760  65.792  1.00  0.00    -0.492 OA 
HETATM   19  C   UNL     1     -10.479  17.554  66.423  1.00  0.00    -0.277 C  
HETATM   20  H   UNL     1     -10.626  19.476  65.958  1.00  0.00     0.000 HD 
HETATM   21  C   UNL     1      -9.221  18.045  68.538  1.00  0.00    -0.288 C  
HETATM   22  O   UNL     1     -11.279  16.691  68.557  1.00  0.00    -0.344 OA 
HETATM   23  C   UNL     1     -10.619  17.794  67.931  1.00  0.00    -0.382 C  
HETATM   24  O   UNL     1      -8.672  19.294  68.144  1.00  0.00    -0.308 OA 
HETATM   25  O   UNL     1      -8.317  16.974  68.254  1.00  0.00    -0.212 OA 
HETATM   26  H   UNL     1     -11.366  16.840  69.491  1.00  0.00     0.000 HD 
HETATM   27  H   UNL     1      -7.812  19.447  68.517  1.00  0.00     0.000 HD 
HETATM   28  C   UNL     1      -8.153  16.629  66.873  1.00  0.00    -0.214 C  
BRANCH  28  29
HETATM   29  C   UNL     1      -7.196  17.570  66.126  1.00  0.00    -0.308 C  
HETATM   30  O   UNL     1      -6.336  18.243  67.044  1.00  0.00    -0.169 OA 
HETATM   31  H   UNL     1      -5.744  18.826  66.583  1.00  0.00     0.000 HD 
ENDBRANCH  28  29
ENDBRANCH  16  17
ENDBRANCH   6  16
ENDBRANCH   3   4
TORSDOF 4
ENDMDL
MODEL       35
REMARK 921   NORMALIZED FREE ENERGY PREDICTED BY IDOCK:   -5.48 KCAL/MOL
REMARK 922        TOTAL FREE ENERGY PREDICTED BY IDOCK:   -8.07 KCAL/MOL
REMARK 923 INTER-LIGAND FREE ENERGY PREDICTED BY IDOCK:   -6.79 KCAL/MOL
REMARK 924 INTRA-LIGAND FREE ENERGY PREDICTED BY IDOCK:   -1.28 KCAL/MOL
REMARK 927      BINDING AFFINITY PREDICTED BY RF-SCORE:    0.00 PKD
ROOT
HETATM    1  O   UNL     1     -11.070   9.981  69.073  1.00  0.00    -0.280 OA 
HETATM    2  H   UNL     1     -11.227  10.578  69.795  1.00  0.00     0.000 HD 
HETATM    3  C   UNL     1      -9.668   9.764  68.904  1.00  0.00    -0.171 C  
ENDROOT
BRANCH   3   4
HETATM    4  C   UNL     1      -9.413   8.794  67.730  1.00  0.00    -0.142 C  
HETATM    5  O   UNL     1     -10.375   8.932  66.669  1.00  0.00    -0.271 OA 
HETATM    6  C   UNL     1     -10.163  10.000  65.743  1.00  0.00    -0.200 C  
HETATM    7  H   UNL     1      -6.863  11.138  67.450  1.00  0.00     0.000 HD 
HETATM    8  C   UNL     1      -8.780   9.858  65.069  1.00  0.00    -0.174 C  
HETATM    9  O   UNL     1      -8.687   8.653  64.299  1.00  0.00    -0.388 OA 
HETATM   10  H   UNL     1      -6.121   8.910  67.951  1.00  0.00     0.000 HD 
HETATM   11  C   UNL     1      -7.689   9.857  66.143  1.00  0.00    -0.107 C  
HETATM   12  C   UNL     1      -7.961   8.784  67.207  1.00  0.00    -0.097 C  
HETATM   13  O   UNL     1      -7.540  11.138  66.783  1.00  0.00    -0.134 OA 
HETATM   14  H   UNL     1      -7.837   8.565  63.884  1.00  0.00     0.000 HD 
HETATM   15  O   UNL     1      -7.014   8.916  68.273  1.00  0.00    -0.074 OA 
BRANCH   6  16
HETATM   16  O   UNL     1     -10.362  11.249  66.405  1.00  0.00    -0.229 OA 
BRANCH  16  17
HETATM   17  C   UNL     1     -11.412  12.117  65.932  1.00  0.00    -0.363 C  
HETATM   18  O   UNL     1     -12.717  14.150  66.338  1.00  0.00    -0.529 OA 
HETATM   19  C   UNL     1     -11.568  13.403  66.762  1.00  0.00    -0.365 C  
HETATM   20  H   UNL     1     -12.813  14.944  66.851  1.00  0.00     0.000 HD 
HETATM   21  C   UNL     1     -10.060  14.570  65.131  1.00  0.00    -0.327 C  
HETATM   22  O   UNL     1      -9.192  13.650  67.245  1.00  0.00    -0.213 OA 
HETATM   23  C   UNL     1     -10.317  14.279  66.627  1.00  0.00    -0.279 C  
HETATM   24  O   UNL     1     -11.029  15.443  64.572  1.00  0.00    -0.651 OA 
HETATM   25  O   UNL     1      -9.950  13.367  64.366  1.00  0.00    -0.258 OA 
HETATM   26  H   UNL     1      -8.417  14.192  67.161  1.00  0.00     0.000 HD 
HETATM   27  H   UNL     1     -10.871  15.622  63.653  1.00  0.00     0.000 HD 
HETATM   28  C   UNL     1     -11.044  12.448  64.464  1.00  0.00    -0.316 C  
BRANCH  28  29
HETATM   29  C   UNL     1     -12.241  12.841  63.584  1.00  0.00    -0.512 C  
HETATM   30  O   UNL     1     -13.401  12.097  63.953  1.00  0.00    -0.711 OA 
HETATM   31  H   UNL     1     -14.141  12.339  63.409  1.00  0.00     0.000 HD 
ENDBRANCH  28  29
ENDBRANCH  16  17
ENDBRANCH   6  16
ENDBRANCH   3   4
TORSDOF 4
ENDMDL
MODEL       36
REMARK 921   NORMALIZED FREE ENERGY PREDICTED BY IDOCK:   -5.44 KCAL/MOL
REMARK 922        TOTAL FREE ENERGY PREDICTED BY IDOCK:   -8.02 KCAL/MOL
REMARK 923 INTER-LIGAND FREE ENERGY PREDICTED BY IDOCK:   -7.11 KCAL/MOL
REMARK 924 INTRA-LIGAND FREE ENERGY PREDICTED BY IDOCK:   -0.91 KCAL/MOL
REMARK 927      BINDING AFFINITY PREDICTED BY RF-SCORE:    0.00 PKD
ROOT
HETATM    1  O   UNL     1     -12.128  16.242  63.849  1.00  0.00    -1.283 OA 
HETATM    2  H   UNL     1     -12.815  16.865  64.052  1.00  0.00     0.000 HD 
HETATM    3  C   UNL     1     -12.506  14.931  64.273  1.00  0.00    -0.157 C  
ENDROOT
BRANCH   3   4
HETATM    4  C   UNL     1     -11.389  13.918  63.943  1.00  0.00     0.061 C  
HETATM    5  O   UNL     1     -10.090  14.353  64.381  1.00  0.00    -0.117 OA 
HETATM    6  C   UNL     1      -9.774  14.149  65.761  1.00  0.00    -0.217 C  
HETATM    7  H   UNL     1     -13.162  12.403  66.520  1.00  0.00     0.000 HD 
HETATM    8  C   UNL     1      -9.881  12.649  66.118  1.00  0.00    -0.259 C  
HETATM    9  O   UNL     1      -8.937  11.860  65.384  1.00  0.00    -0.419 OA 
HETATM   10  H   UNL     1     -13.259  11.239  64.421  1.00  0.00     0.000 HD 
HETATM   11  C   UNL     1     -11.299  12.155  65.815  1.00  0.00    -0.354 C  
HETATM   12  C   UNL     1     -11.693  12.464  64.364  1.00  0.00    -0.366 C  
HETATM   13  O   UNL     1     -12.283  12.710  66.708  1.00  0.00    -0.506 OA 
HETATM   14  H   UNL     1      -9.003  10.938  65.603  1.00  0.00     0.000 HD 
HETATM   15  O   UNL     1     -13.072  12.133  64.162  1.00  0.00    -0.694 OA 
BRANCH   6  16
HETATM   16  O   UNL     1     -10.591  14.998  66.566  1.00  0.00    -0.292 OA 
BRANCH  16  17
HETATM   17  C   UNL     1      -9.969  15.734  67.639  1.00  0.00    -0.239 C  
HETATM   18  O   UNL     1     -10.274  17.368  69.438  1.00  0.00    -0.256 OA 
HETATM   19  C   UNL     1     -10.963  16.546  68.486  1.00  0.00    -0.350 C  
HETATM   20  H   UNL     1     -10.888  17.870  69.961  1.00  0.00     0.000 HD 
HETATM   21  C   UNL     1     -11.100  14.611  70.078  1.00  0.00    -0.164 C  
HETATM   22  O   UNL     1     -12.782  14.934  68.308  1.00  0.00    -0.166 OA 
HETATM   23  C   UNL     1     -11.921  15.607  69.230  1.00  0.00    -0.320 C  
HETATM   24  O   UNL     1     -10.463  15.233  71.184  1.00  0.00    -0.396 OA 
HETATM   25  O   UNL     1     -10.156  13.886  69.284  1.00  0.00    -0.001 OA 
HETATM   26  H   UNL     1     -13.375  14.352  68.768  1.00  0.00     0.000 HD 
HETATM   27  H   UNL     1      -9.958  14.621  71.706  1.00  0.00     0.000 HD 
HETATM   28  C   UNL     1      -9.246  14.670  68.503  1.00  0.00    -0.193 C  
BRANCH  28  29
HETATM   29  C   UNL     1      -8.066  15.215  69.322  1.00  0.00    -0.217 C  
HETATM   30  O   UNL     1      -7.525  14.197  70.162  1.00  0.00    -0.207 OA 
HETATM   31  H   UNL     1      -6.795  14.534  70.669  1.00  0.00     0.000 HD 
ENDBRANCH  28  29
ENDBRANCH  16  17
ENDBRANCH   6  16
ENDBRANCH   3   4
TORSDOF 4
ENDMDL
MODEL       37
REMARK 921   NORMALIZED FREE ENERGY PREDICTED BY IDOCK:   -5.33 KCAL/MOL
REMARK 922        TOTAL FREE ENERGY PREDICTED BY IDOCK:   -7.89 KCAL/MOL
REMARK 923 INTER-LIGAND FREE ENERGY PREDICTED BY IDOCK:   -7.15 KCAL/MOL
REMARK 924 INTRA-LIGAND FREE ENERGY PREDICTED BY IDOCK:   -0.74 KCAL/MOL
REMARK 927      BINDING AFFINITY PREDICTED BY RF-SCORE:    0.00 PKD
ROOT
HETATM    1  O   UNL     1     -11.006  19.733  66.952  1.00  0.00    -0.433 OA 
HETATM    2  H   UNL     1     -11.768  19.562  66.411  1.00  0.00     0.000 HD 
HETATM    3  C   UNL     1      -9.841  19.874  66.138  1.00  0.00    -0.458 C  
ENDROOT
BRANCH   3   4
HETATM    4  C   UNL     1      -8.602  20.152  67.017  1.00  0.00    -0.336 C  
HETATM    5  O   UNL     1      -8.753  19.672  68.365  1.00  0.00    -0.340 OA 
HETATM    6  C   UNL     1      -8.511  18.279  68.583  1.00  0.00    -0.282 C  
HETATM    7  H   UNL     1      -7.559  17.624  64.874  1.00  0.00     0.000 HD 
HETATM    8  C   UNL     1      -7.078  17.910  68.140  1.00  0.00    -0.224 C  
HETATM    9  O   UNL     1      -6.088  18.601  68.913  1.00  0.00    -0.209 OA 
HETATM   10  H   UNL     1      -6.404  19.711  64.594  1.00  0.00     0.000 HD 
HETATM   11  C   UNL     1      -6.898  18.258  66.660  1.00  0.00    -0.200 C  
HETATM   12  C   UNL     1      -7.258  19.725  66.390  1.00  0.00    -0.255 C  
HETATM   13  O   UNL     1      -7.670  17.408  65.792  1.00  0.00    -0.508 OA 
HETATM   14  H   UNL     1      -5.207  18.374  68.641  1.00  0.00     0.000 HD 
HETATM   15  O   UNL     1      -7.231  19.973  64.980  1.00  0.00    -0.318 OA 
BRANCH   6  16
HETATM   16  O   UNL     1      -9.533  17.515  67.946  1.00  0.00    -0.266 OA 
BRANCH  16  17
HETATM   17  C   UNL     1      -9.419  16.077  67.949  1.00  0.00    -0.210 C  
HETATM   18  O   UNL     1      -9.175  14.052  69.306  1.00  0.00    -0.374 OA 
HETATM   19  C   UNL     1      -9.441  15.461  69.358  1.00  0.00    -0.267 C  
HETATM   20  H   UNL     1      -9.189  13.672  70.176  1.00  0.00     0.000 HD 
HETATM   21  C   UNL     1     -11.915  15.125  69.111  1.00  0.00    -0.274 C  
HETATM   22  O   UNL     1     -11.001  17.084  70.291  1.00  0.00    -0.340 OA 
HETATM   23  C   UNL     1     -10.804  15.694  70.021  1.00  0.00    -0.330 C  
HETATM   24  O   UNL     1     -11.908  13.706  69.065  1.00  0.00    -0.310 OA 
HETATM   25  O   UNL     1     -11.863  15.681  67.795  1.00  0.00    -0.153 OA 
HETATM   26  H   UNL     1     -11.845  17.229  70.701  1.00  0.00     0.000 HD 
HETATM   27  H   UNL     1     -12.591  13.356  68.506  1.00  0.00     0.000 HD 
HETATM   28  C   UNL     1     -10.613  15.567  67.104  1.00  0.00    -0.300 C  
BRANCH  28  29
HETATM   29  C   UNL     1     -10.398  14.182  66.475  1.00  0.00    -0.284 C  
HETATM   30  O   UNL     1      -9.017  13.971  66.185  1.00  0.00    -0.479 OA 
HETATM   31  H   UNL     1      -8.883  13.115  65.796  1.00  0.00     0.000 HD 
ENDBRANCH  28  29
ENDBRANCH  16  17
ENDBRANCH   6  16
ENDBRANCH   3   4
TORSDOF 4
ENDMDL
MODEL       38
REMARK 921   NORMALIZED FREE ENERGY PREDICTED BY IDOCK:   -5.31 KCAL/MOL
REMARK 922        TOTAL FREE ENERGY PREDICTED BY IDOCK:   -7.87 KCAL/MOL
REMARK 923 INTER-LIGAND FREE ENERGY PREDICTED BY IDOCK:   -6.82 KCAL/MOL
REMARK 924 INTRA-LIGAND FREE ENERGY PREDICTED BY IDOCK:   -1.04 KCAL/MOL
REMARK 927      BINDING AFFINITY PREDICTED BY RF-SCORE:    0.00 PKD
ROOT
HETATM    1  O   UNL     1     -10.031   7.161  70.264  1.00  0.00    -0.186 OA 
HETATM    2  H   UNL     1      -9.321   7.146  69.634  1.00  0.00     0.000 HD 
HETATM    3  C   UNL     1      -9.609   7.798  71.472  1.00  0.00    -0.155 C  
ENDROOT
BRANCH   3   4
HETATM    4  C   UNL     1     -10.764   7.823  72.497  1.00  0.00    -0.314 C  
HETATM    5  O   UNL     1     -11.433   9.095  72.557  1.00  0.00    -0.046 OA 
HETATM    6  C   UNL     1     -12.412   9.356  71.548  1.00  0.00    -0.366 C  
HETATM    7  H   UNL     1     -11.988   5.862  69.902  1.00  0.00     0.000 HD 
HETATM    8  C   UNL     1     -13.516   8.275  71.583  1.00  0.00    -0.331 C  
HETATM    9  O   UNL     1     -14.228   8.283  72.826  1.00  0.00    -0.702 OA 
HETATM   10  H   UNL     1     -11.695   4.697  71.981  1.00  0.00     0.000 HD 
HETATM   11  C   UNL     1     -12.884   6.896  71.370  1.00  0.00    -0.311 C  
HETATM   12  C   UNL     1     -11.755   6.645  72.379  1.00  0.00    -0.225 C  
HETATM   13  O   UNL     1     -12.380   6.717  70.034  1.00  0.00    -0.081 OA 
HETATM   14  H   UNL     1     -14.907   7.619  72.848  1.00  0.00     0.000 HD 
HETATM   15  O   UNL     1     -11.085   5.422  72.053  1.00  0.00    -0.218 OA 
BRANCH   6  16
HETATM   16  O   UNL     1     -11.767   9.489  70.283  1.00  0.00    -0.223 OA 
BRANCH  16  17
HETATM   17  C   UNL     1     -11.009  10.687  70.020  1.00  0.00    -0.259 C  
HETATM   18  O   UNL     1      -8.970  11.642  69.056  1.00  0.00    -0.379 OA 
HETATM   19  C   UNL     1      -9.758  10.448  69.158  1.00  0.00    -0.220 C  
HETATM   20  H   UNL     1      -8.197  11.494  68.523  1.00  0.00     0.000 HD 
HETATM   21  C   UNL     1     -11.116  11.031  67.129  1.00  0.00    -0.267 C  
HETATM   22  O   UNL     1     -10.755   8.688  67.798  1.00  0.00    -0.418 OA 
HETATM   23  C   UNL     1     -10.161   9.988  67.751  1.00  0.00    -0.192 C  
HETATM   24  O   UNL     1     -10.459  12.247  66.807  1.00  0.00    -0.216 OA 
HETATM   25  O   UNL     1     -12.258  11.268  67.957  1.00  0.00    -0.621 OA 
HETATM   26  H   UNL     1     -11.004   8.403  66.927  1.00  0.00     0.000 HD 
HETATM   27  H   UNL     1     -11.046  12.888  66.425  1.00  0.00     0.000 HD 
HETATM   28  C   UNL     1     -11.994  11.651  69.312  1.00  0.00    -0.317 C  
BRANCH  28  29
HETATM   29  C   UNL     1     -11.639  13.139  69.459  1.00  0.00    -0.283 C  
HETATM   30  O   UNL     1     -12.370  13.925  68.519  1.00  0.00    -0.494 OA 
HETATM   31  H   UNL     1     -12.150  14.844  68.609  1.00  0.00     0.000 HD 
ENDBRANCH  28  29
ENDBRANCH  16  17
ENDBRANCH   6  16
ENDBRANCH   3   4
TORSDOF 4
ENDMDL
MODEL       39
REMARK 921   NORMALIZED FREE ENERGY PREDICTED BY IDOCK:   -5.31 KCAL/MOL
REMARK 922        TOTAL FREE ENERGY PREDICTED BY IDOCK:   -7.87 KCAL/MOL
REMARK 923 INTER-LIGAND FREE ENERGY PREDICTED BY IDOCK:   -6.58 KCAL/MOL
REMARK 924 INTRA-LIGAND FREE ENERGY PREDICTED BY IDOCK:   -1.28 KCAL/MOL
REMARK 927      BINDING AFFINITY PREDICTED BY RF-SCORE:    0.00 PKD
ROOT
HETATM    1  O   UNL     1     -10.690  15.928  64.213  1.00  0.00    -0.769 OA 
HETATM    2  H   UNL     1     -11.243  16.600  63.834  1.00  0.00     0.000 HD 
HETATM    3  C   UNL     1     -11.402  15.214  65.226  1.00  0.00    -0.318 C  
ENDROOT
BRANCH   3   4
HETATM    4  C   UNL     1     -10.503  14.121  65.844  1.00  0.00    -0.306 C  
HETATM    5  O   UNL     1      -9.115  14.498  65.893  1.00  0.00    -0.081 OA 
HETATM    6  C   UNL     1      -8.716  15.343  66.976  1.00  0.00    -0.229 C  
HETATM    7  H   UNL     1     -12.266  15.390  68.556  1.00  0.00     0.000 HD 
HETATM    8  C   UNL     1      -9.039  14.669  68.328  1.00  0.00    -0.189 C  
HETATM    9  O   UNL     1      -8.308  13.448  68.500  1.00  0.00    -0.227 OA 
HETATM   10  H   UNL     1     -12.742  13.093  68.042  1.00  0.00     0.000 HD 
HETATM   11  C   UNL     1     -10.540  14.375  68.404  1.00  0.00    -0.247 C  
HETATM   12  C   UNL     1     -11.005  13.559  67.190  1.00  0.00    -0.291 C  
HETATM   13  O   UNL     1     -11.334  15.572  68.509  1.00  0.00    -0.313 OA 
HETATM   14  H   UNL     1      -8.507  13.033  69.331  1.00  0.00     0.000 HD 
HETATM   15  O   UNL     1     -12.432  13.439  67.213  1.00  0.00    -0.194 OA 
BRANCH   6  16
HETATM   16  O   UNL     1      -9.305  16.633  66.814  1.00  0.00    -0.225 OA 
BRANCH  16  17
HETATM   17  C   UNL     1      -8.496  17.796  67.081  1.00  0.00    -0.228 C  
HETATM   18  O   UNL     1      -7.556  19.876  66.193  1.00  0.00    -0.298 OA 
HETATM   19  C   UNL     1      -8.489  18.819  65.932  1.00  0.00     0.135 C  
HETATM   20  H   UNL     1      -7.552  20.508  65.483  1.00  0.00     0.000 HD 
HETATM   21  C   UNL     1     -10.364  20.032  67.077  1.00  0.00    -0.421 C  
HETATM   22  O   UNL     1     -10.799  18.423  65.263  1.00  0.00    -0.624 OA 
HETATM   23  C   UNL     1      -9.889  19.416  65.742  1.00  0.00    -0.043 C  
HETATM   24  O   UNL     1      -9.645  21.206  67.422  1.00  0.00    -0.592 OA 
HETATM   25  O   UNL     1     -10.334  19.079  68.144  1.00  0.00    -0.376 OA 
HETATM   26  H   UNL     1     -11.666  18.793  65.146  1.00  0.00     0.000 HD 
HETATM   27  H   UNL     1      -9.937  21.584  68.243  1.00  0.00     0.000 HD 
HETATM   28  C   UNL     1      -9.084  18.419  68.373  1.00  0.00    -0.320 C  
BRANCH  28  29
HETATM   29  C   UNL     1      -8.089  19.274  69.173  1.00  0.00    -0.163 C  
HETATM   30  O   UNL     1      -6.746  18.919  68.847  1.00  0.00    -0.264 OA 
HETATM   31  H   UNL     1      -6.131  19.447  69.341  1.00  0.00     0.000 HD 
ENDBRANCH  28  29
ENDBRANCH  16  17
ENDBRANCH   6  16
ENDBRANCH   3   4
TORSDOF 4
ENDMDL
MODEL       40
REMARK 921   NORMALIZED FREE ENERGY PREDICTED BY IDOCK:   -5.31 KCAL/MOL
REMARK 922        TOTAL FREE ENERGY PREDICTED BY IDOCK:   -7.86 KCAL/MOL
REMARK 923 INTER-LIGAND FREE ENERGY PREDICTED BY IDOCK:   -6.45 KCAL/MOL
REMARK 924 INTRA-LIGAND FREE ENERGY PREDICTED BY IDOCK:   -1.41 KCAL/MOL
REMARK 927      BINDING AFFINITY PREDICTED BY RF-SCORE:    0.00 PKD
ROOT
HETATM    1  O   UNL     1     -11.489  12.055  69.973  1.00  0.00    -0.490 OA 
HETATM    2  H   UNL     1     -11.149  12.295  70.827  1.00  0.00     0.000 HD 
HETATM    3  C   UNL     1     -10.665  11.053  69.374  1.00  0.00    -0.205 C  
ENDROOT
BRANCH   3   4
HETATM    4  C   UNL     1     -11.219  10.663  67.986  1.00  0.00    -0.307 C  
HETATM    5  O   UNL     1     -11.782  11.778  67.273  1.00  0.00    -0.546 OA 
HETATM    6  C   UNL     1     -10.864  12.636  66.591  1.00  0.00    -0.258 C  
HETATM    7  H   UNL     1      -7.770  10.508  67.588  1.00  0.00     0.000 HD 
HETATM    8  C   UNL     1     -10.039  11.828  65.565  1.00  0.00    -0.249 C  
HETATM    9  O   UNL     1     -10.870  11.260  64.545  1.00  0.00    -0.329 OA 
HETATM   10  H   UNL     1      -8.898   8.400  67.360  1.00  0.00     0.000 HD 
HETATM   11  C   UNL     1      -9.286  10.707  66.288  1.00  0.00    -0.171 C  
HETATM   12  C   UNL     1     -10.247   9.840  67.114  1.00  0.00    -0.228 C  
HETATM   13  O   UNL     1      -8.237  11.203  67.139  1.00  0.00    -0.128 OA 
HETATM   14  H   UNL     1     -10.363  10.763  63.914  1.00  0.00     0.000 HD 
HETATM   15  O   UNL     1      -9.496   8.906  67.897  1.00  0.00    -0.140 OA 
BRANCH   6  16
HETATM   16  O   UNL     1     -10.074  13.343  67.547  1.00  0.00    -0.223 OA 
BRANCH  16  17
HETATM   17  C   UNL     1      -9.684  14.698  67.248  1.00  0.00    -0.231 C  
HETATM   18  O   UNL     1     -10.425  16.941  66.600  1.00  0.00    -0.307 OA 
HETATM   19  C   UNL     1     -10.873  15.650  67.038  1.00  0.00    -0.294 C  
HETATM   20  H   UNL     1     -11.161  17.529  66.470  1.00  0.00     0.000 HD 
HETATM   21  C   UNL     1     -10.717  16.287  69.460  1.00  0.00    -0.323 C  
HETATM   22  O   UNL     1     -12.314  14.579  68.686  1.00  0.00    -0.578 OA 
HETATM   23  C   UNL     1     -11.667  15.806  68.341  1.00  0.00    -0.271 C  
HETATM   24  O   UNL     1     -10.292  17.628  69.274  1.00  0.00    -0.347 OA 
HETATM   25  O   UNL     1      -9.598  15.411  69.623  1.00  0.00    -0.262 OA 
HETATM   26  H   UNL     1     -12.805  14.675  69.493  1.00  0.00     0.000 HD 
HETATM   27  H   UNL     1      -9.708  17.924  69.962  1.00  0.00     0.000 HD 
HETATM   28  C   UNL     1      -8.817  15.152  68.450  1.00  0.00    -0.174 C  
BRANCH  28  29
HETATM   29  C   UNL     1      -7.826  16.279  68.126  1.00  0.00    -0.155 C  
HETATM   30  O   UNL     1      -7.325  16.868  69.325  1.00  0.00    -0.238 OA 
HETATM   31  H   UNL     1      -6.712  17.566  69.125  1.00  0.00     0.000 HD 
ENDBRANCH  28  29
ENDBRANCH  16  17
ENDBRANCH   6  16
ENDBRANCH   3   4
TORSDOF 4
ENDMDL
MODEL       41
REMARK 921   NORMALIZED FREE ENERGY PREDICTED BY IDOCK:   -5.31 KCAL/MOL
REMARK 922        TOTAL FREE ENERGY PREDICTED BY IDOCK:   -7.86 KCAL/MOL
REMARK 923 INTER-LIGAND FREE ENERGY PREDICTED BY IDOCK:   -7.61 KCAL/MOL
REMARK 924 INTRA-LIGAND FREE ENERGY PREDICTED BY IDOCK:   -0.24 KCAL/MOL
REMARK 927      BINDING AFFINITY PREDICTED BY RF-SCORE:    0.00 PKD
ROOT
HETATM    1  O   UNL     1      -6.343  17.115  67.003  1.00  0.00    -0.148 OA 
HETATM    2  H   UNL     1      -5.743  16.436  66.722  1.00  0.00     0.000 HD 
HETATM    3  C   UNL     1      -7.093  17.607  65.891  1.00  0.00    -0.215 C  
ENDROOT
BRANCH   3   4
HETATM    4  C   UNL     1      -8.069  18.713  66.349  1.00  0.00    -0.281 C  
HETATM    5  O   UNL     1      -9.360  18.616  65.720  1.00  0.00    -0.416 OA 
HETATM    6  C   UNL     1     -10.277  17.670  66.274  1.00  0.00    -0.362 C  
HETATM    7  H   UNL     1      -7.835  16.606  69.103  1.00  0.00     0.000 HD 
HETATM    8  C   UNL     1     -10.535  17.985  67.765  1.00  0.00    -0.408 C  
HETATM    9  O   UNL     1     -11.150  19.268  67.938  1.00  0.00    -0.321 OA 
HETATM   10  H   UNL     1      -6.970  18.818  69.460  1.00  0.00     0.000 HD 
HETATM   11  C   UNL     1      -9.208  17.953  68.528  1.00  0.00    -0.284 C  
HETATM   12  C   UNL     1      -8.175  18.885  67.879  1.00  0.00    -0.277 C  
HETATM   13  O   UNL     1      -8.658  16.626  68.630  1.00  0.00    -0.233 OA 
HETATM   14  H   UNL     1     -11.308  19.462  68.854  1.00  0.00     0.000 HD 
HETATM   15  O   UNL     1      -6.906  18.712  68.518  1.00  0.00    -0.246 OA 
BRANCH   6  16
HETATM   16  O   UNL     1      -9.799  16.347  66.033  1.00  0.00    -0.307 OA 
BRANCH  16  17
HETATM   17  C   UNL     1     -10.554  15.237  66.558  1.00  0.00    -0.304 C  
HETATM   18  O   UNL     1     -12.752  14.174  66.756  1.00  0.00    -0.510 OA 
HETATM   19  C   UNL     1     -12.018  15.209  66.087  1.00  0.00     0.194 C  
HETATM   20  H   UNL     1     -13.657  14.158  66.464  1.00  0.00     0.000 HD 
HETATM   21  C   UNL     1     -11.328  13.678  64.222  1.00  0.00    -0.350 C  
HETATM   22  O   UNL     1     -11.557  16.104  63.867  1.00  0.00    -1.369 OA 
HETATM   23  C   UNL     1     -12.085  14.978  64.572  1.00  0.00    -0.363 C  
HETATM   24  O   UNL     1     -12.005  12.515  64.674  1.00  0.00    -0.363 OA 
HETATM   25  O   UNL     1      -9.978  13.703  64.695  1.00  0.00    -0.277 OA 
HETATM   26  H   UNL     1     -11.598  15.961  62.929  1.00  0.00     0.000 HD 
HETATM   27  H   UNL     1     -11.539  11.715  64.459  1.00  0.00     0.000 HD 
HETATM   28  C   UNL     1      -9.798  13.967  66.092  1.00  0.00    -0.302 C  
BRANCH  28  29
HETATM   29  C   UNL     1     -10.033  12.731  66.973  1.00  0.00    -0.231 C  
HETATM   30  O   UNL     1     -10.323  13.118  68.315  1.00  0.00    -0.240 OA 
HETATM   31  H   UNL     1     -10.468  12.354  68.860  1.00  0.00     0.000 HD 
ENDBRANCH  28  29
ENDBRANCH  16  17
ENDBRANCH   6  16
ENDBRANCH   3   4
TORSDOF 4
ENDMDL
MODEL       42
REMARK 921   NORMALIZED FREE ENERGY PREDICTED BY IDOCK:   -5.28 KCAL/MOL
REMARK 922        TOTAL FREE ENERGY PREDICTED BY IDOCK:   -7.82 KCAL/MOL
REMARK 923 INTER-LIGAND FREE ENERGY PREDICTED BY IDOCK:   -7.09 KCAL/MOL
REMARK 924 INTRA-LIGAND FREE ENERGY PREDICTED BY IDOCK:   -0.73 KCAL/MOL
REMARK 927      BINDING AFFINITY PREDICTED BY RF-SCORE:    0.00 PKD
ROOT
HETATM    1  O   UNL     1     -10.522  18.842  65.935  1.00  0.00    -0.508 OA 
HETATM    2  H   UNL     1     -10.383  18.857  64.996  1.00  0.00     0.000 HD 
HETATM    3  C   UNL     1     -10.406  17.507  66.432  1.00  0.00    -0.334 C  
ENDROOT
BRANCH   3   4
HETATM    4  C   UNL     1     -10.632  17.482  67.959  1.00  0.00    -0.384 C  
HETATM    5  O   UNL     1     -11.644  16.541  68.361  1.00  0.00    -0.231 OA 
HETATM    6  C   UNL     1     -11.245  15.172  68.465  1.00  0.00    -0.293 C  
HETATM    7  H   UNL     1      -7.549  15.933  67.539  1.00  0.00     0.000 HD 
HETATM    8  C   UNL     1     -10.083  15.028  69.473  1.00  0.00    -0.166 C  
HETATM    9  O   UNL     1     -10.476  15.419  70.795  1.00  0.00    -0.437 OA 
HETATM   10  H   UNL     1      -7.468  18.011  68.741  1.00  0.00     0.000 HD 
HETATM   11  C   UNL     1      -8.905  15.895  69.019  1.00  0.00    -0.243 C  
HETATM   12  C   UNL     1      -9.342  17.349  68.798  1.00  0.00    -0.244 C  
HETATM   13  O   UNL     1      -8.279  15.396  67.822  1.00  0.00    -0.139 OA 
HETATM   14  H   UNL     1      -9.762  15.330  71.415  1.00  0.00     0.000 HD 
HETATM   15  O   UNL     1      -8.261  18.092  68.225  1.00  0.00    -0.273 OA 
BRANCH   6  16
HETATM   16  O   UNL     1     -10.953  14.662  67.165  1.00  0.00    -0.300 OA 
BRANCH  16  17
HETATM   17  C   UNL     1     -10.752  13.242  67.012  1.00  0.00    -0.260 C  
HETATM   18  O   UNL     1     -11.803  11.059  66.653  1.00  0.00    -0.080 OA 
HETATM   19  C   UNL     1     -12.033  12.475  66.644  1.00  0.00    -0.281 C  
HETATM   20  H   UNL     1     -12.594  10.585  66.425  1.00  0.00     0.000 HD 
HETATM   21  C   UNL     1     -11.396  12.684  64.226  1.00  0.00    -0.363 C  
HETATM   22  O   UNL     1     -12.978  14.255  65.273  1.00  0.00    -0.679 OA 
HETATM   23  C   UNL     1     -12.528  12.898  65.255  1.00  0.00    -0.493 C  
HETATM   24  O   UNL     1     -11.134  11.310  63.982  1.00  0.00    -0.404 OA 
HETATM   25  O   UNL     1     -10.200  13.376  64.597  1.00  0.00    -0.376 OA 
HETATM   26  H   UNL     1     -13.284  14.517  64.413  1.00  0.00     0.000 HD 
HETATM   27  H   UNL     1     -10.438  11.179  63.349  1.00  0.00     0.000 HD 
HETATM   28  C   UNL     1      -9.681  13.095  65.902  1.00  0.00    -0.178 C  
BRANCH  28  29
HETATM   29  C   UNL     1      -8.883  11.784  65.963  1.00  0.00    -0.057 C  
HETATM   30  O   UNL     1      -7.555  12.024  66.426  1.00  0.00    -0.374 OA 
HETATM   31  H   UNL     1      -7.062  11.214  66.463  1.00  0.00     0.000 HD 
ENDBRANCH  28  29
ENDBRANCH  16  17
ENDBRANCH   6  16
ENDBRANCH   3   4
TORSDOF 4
ENDMDL
MODEL       43
REMARK 921   NORMALIZED FREE ENERGY PREDICTED BY IDOCK:   -5.26 KCAL/MOL
REMARK 922        TOTAL FREE ENERGY PREDICTED BY IDOCK:   -7.80 KCAL/MOL
REMARK 923 INTER-LIGAND FREE ENERGY PREDICTED BY IDOCK:   -6.54 KCAL/MOL
REMARK 924 INTRA-LIGAND FREE ENERGY PREDICTED BY IDOCK:   -1.26 KCAL/MOL
REMARK 927      BINDING AFFINITY PREDICTED BY RF-SCORE:    0.00 PKD
ROOT
HETATM    1  O   UNL     1     -10.452  16.432  65.727  1.00  0.00    -0.354 OA 
HETATM    2  H   UNL     1     -10.455  16.874  66.568  1.00  0.00     0.000 HD 
HETATM    3  C   UNL     1     -10.495  15.016  65.911  1.00  0.00    -0.328 C  
ENDROOT
BRANCH   3   4
HETATM    4  C   UNL     1     -10.490  14.297  64.544  1.00  0.00    -0.143 C  
HETATM    5  O   UNL     1      -9.580  13.183  64.500  1.00  0.00     0.110 OA 
HETATM    6  C   UNL     1     -10.039  11.954  65.069  1.00  0.00    -0.264 C  
HETATM    7  H   UNL     1     -13.536  13.398  65.956  1.00  0.00     0.000 HD 
HETATM    8  C   UNL     1     -11.336  11.492  64.369  1.00  0.00    -0.209 C  
HETATM    9  O   UNL     1     -11.122  11.219  62.979  1.00  0.00    -0.826 OA 
HETATM   10  H   UNL     1     -13.711  14.728  63.964  1.00  0.00     0.000 HD 
HETATM   11  C   UNL     1     -12.406  12.579  64.512  1.00  0.00    -0.467 C  
HETATM   12  C   UNL     1     -11.889  13.932  64.004  1.00  0.00    -0.337 C  
HETATM   13  O   UNL     1     -12.873  12.723  65.867  1.00  0.00    -0.299 OA 
HETATM   14  H   UNL     1     -11.919  10.935  62.549  1.00  0.00     0.000 HD 
HETATM   15  O   UNL     1     -12.850  14.952  64.297  1.00  0.00    -0.607 OA 
BRANCH   6  16
HETATM   16  O   UNL     1     -10.161  12.102  66.483  1.00  0.00    -0.204 OA 
BRANCH  16  17
HETATM   17  C   UNL     1      -9.236  11.391  67.331  1.00  0.00    -0.164 C  
HETATM   18  O   UNL     1      -8.720  10.626  69.600  1.00  0.00    -0.391 OA 
HETATM   19  C   UNL     1      -9.739  11.204  68.771  1.00  0.00    -0.185 C  
HETATM   20  H   UNL     1      -9.032  10.511  70.490  1.00  0.00     0.000 HD 
HETATM   21  C   UNL     1     -10.638   8.958  68.105  1.00  0.00    -0.157 C  
HETATM   22  O   UNL     1     -12.085  10.951  68.160  1.00  0.00    -0.785 OA 
HETATM   23  C   UNL     1     -10.978  10.300  68.790  1.00  0.00    -0.243 C  
HETATM   24  O   UNL     1      -9.748   8.164  68.875  1.00  0.00    -0.152 OA 
HETATM   25  O   UNL     1     -10.140   9.148  66.778  1.00  0.00    -0.232 OA 
HETATM   26  H   UNL     1     -12.852  10.391  68.171  1.00  0.00     0.000 HD 
HETATM   27  H   UNL     1      -9.539   7.339  68.454  1.00  0.00     0.000 HD 
HETATM   28  C   UNL     1      -9.013  10.021  66.640  1.00  0.00    -0.139 C  
BRANCH  28  29
HETATM   29  C   UNL     1      -7.679   9.345  66.992  1.00  0.00    -0.091 C  
HETATM   30  O   UNL     1      -6.675  10.322  67.262  1.00  0.00    -0.071 OA 
HETATM   31  H   UNL     1      -5.851   9.904  67.479  1.00  0.00     0.000 HD 
ENDBRANCH  28  29
ENDBRANCH  16  17
ENDBRANCH   6  16
ENDBRANCH   3   4
TORSDOF 4
ENDMDL
MODEL       44
REMARK 921   NORMALIZED FREE ENERGY PREDICTED BY IDOCK:   -5.26 KCAL/MOL
REMARK 922        TOTAL FREE ENERGY PREDICTED BY IDOCK:   -7.80 KCAL/MOL
REMARK 923 INTER-LIGAND FREE ENERGY PREDICTED BY IDOCK:   -6.65 KCAL/MOL
REMARK 924 INTRA-LIGAND FREE ENERGY PREDICTED BY IDOCK:   -1.14 KCAL/MOL
REMARK 927      BINDING AFFINITY PREDICTED BY RF-SCORE:    0.00 PKD
ROOT
HETATM    1  O   UNL     1      -8.544  11.038  69.369  1.00  0.00    -0.378 OA 
HETATM    2  H   UNL     1      -8.481  11.543  70.171  1.00  0.00     0.000 HD 
HETATM    3  C   UNL     1      -9.489   9.978  69.523  1.00  0.00    -0.226 C  
ENDROOT
BRANCH   3   4
HETATM    4  C   UNL     1      -9.592   9.158  68.219  1.00  0.00    -0.148 C  
HETATM    5  O   UNL     1     -10.729   9.521  67.416  1.00  0.00    -0.279 OA 
HETATM    6  C   UNL     1     -10.592  10.684  66.594  1.00  0.00    -0.214 C  
HETATM    7  H   UNL     1      -6.905  11.290  67.660  1.00  0.00     0.000 HD 
HETATM    8  C   UNL     1      -9.402  10.515  65.623  1.00  0.00    -0.200 C  
HETATM    9  O   UNL     1      -9.606   9.423  64.718  1.00  0.00    -0.446 OA 
HETATM   10  H   UNL     1      -6.333   8.959  67.729  1.00  0.00     0.000 HD 
HETATM   11  C   UNL     1      -8.121  10.274  66.427  1.00  0.00    -0.123 C  
HETATM   12  C   UNL     1      -8.289   9.094  67.394  1.00  0.00    -0.115 C  
HETATM   13  O   UNL     1      -7.700  11.439  67.161  1.00  0.00    -0.136 OA 
HETATM   14  H   UNL     1      -8.875   9.319  64.121  1.00  0.00     0.000 HD 
HETATM   15  O   UNL     1      -7.135   8.998  68.236  1.00  0.00    -0.075 OA 
BRANCH   6  16
HETATM   16  O   UNL     1     -10.509  11.843  67.422  1.00  0.00    -0.210 OA 
BRANCH  16  17
HETATM   17  C   UNL     1     -11.469  12.900  67.223  1.00  0.00    -0.336 C  
HETATM   18  O   UNL     1     -12.294  15.078  67.982  1.00  0.00    -0.512 OA 
HETATM   19  C   UNL     1     -11.228  14.128  68.117  1.00  0.00    -0.276 C  
HETATM   20  H   UNL     1     -12.145  15.836  68.535  1.00  0.00     0.000 HD 
HETATM   21  C   UNL     1      -9.912  15.161  66.246  1.00  0.00    -0.288 C  
HETATM   22  O   UNL     1      -8.797  13.957  68.084  1.00  0.00    -0.171 OA 
HETATM   23  C   UNL     1      -9.900  14.802  67.749  1.00  0.00    -0.214 C  
HETATM   24  O   UNL     1     -10.811  16.216  65.945  1.00  0.00    -0.277 OA 
HETATM   25  O   UNL     1     -10.170  14.016  65.428  1.00  0.00    -0.325 OA 
HETATM   26  H   UNL     1      -7.975  14.375  67.856  1.00  0.00     0.000 HD 
HETATM   27  H   UNL     1     -10.819  16.436  65.021  1.00  0.00     0.000 HD 
HETATM   28  C   UNL     1     -11.361  13.278  65.723  1.00  0.00    -0.307 C  
BRANCH  28  29
HETATM   29  C   UNL     1     -12.629  13.921  65.140  1.00  0.00    -0.434 C  
HETATM   30  O   UNL     1     -12.331  14.605  63.924  1.00  0.00    -0.962 OA 
HETATM   31  H   UNL     1     -13.114  15.003  63.564  1.00  0.00     0.000 HD 
ENDBRANCH  28  29
ENDBRANCH  16  17
ENDBRANCH   6  16
ENDBRANCH   3   4
TORSDOF 4
ENDMDL
MODEL       45
REMARK 921   NORMALIZED FREE ENERGY PREDICTED BY IDOCK:   -5.20 KCAL/MOL
REMARK 922        TOTAL FREE ENERGY PREDICTED BY IDOCK:   -7.73 KCAL/MOL
REMARK 923 INTER-LIGAND FREE ENERGY PREDICTED BY IDOCK:   -6.70 KCAL/MOL
REMARK 924 INTRA-LIGAND FREE ENERGY PREDICTED BY IDOCK:   -1.02 KCAL/MOL
REMARK 927      BINDING AFFINITY PREDICTED BY RF-SCORE:    0.00 PKD
ROOT
HETATM    1  O   UNL     1     -11.219  16.732  70.196  1.00  0.00    -0.446 OA 
HETATM    2  H   UNL     1     -12.088  16.392  70.371  1.00  0.00     0.000 HD 
HETATM    3  C   UNL     1     -11.058  16.985  68.799  1.00  0.00    -0.086 C  
ENDROOT
BRANCH   3   4
HETATM    4  C   UNL     1      -9.645  17.538  68.513  1.00  0.00    -0.305 C  
HETATM    5  O   UNL     1      -8.613  16.548  68.671  1.00  0.00    -0.221 OA 
HETATM    6  C   UNL     1      -8.409  15.650  67.577  1.00  0.00    -0.169 C  
HETATM    7  H   UNL     1     -11.123  17.347  65.373  1.00  0.00     0.000 HD 
HETATM    8  C   UNL     1      -8.071  16.440  66.293  1.00  0.00    -0.276 C  
HETATM    9  O   UNL     1      -6.845  17.171  66.426  1.00  0.00    -0.232 OA 
HETATM   10  H   UNL     1     -10.600  19.576  66.097  1.00  0.00     0.000 HD 
HETATM   11  C   UNL     1      -9.210  17.414  65.979  1.00  0.00    -0.061 C  
HETATM   12  C   UNL     1      -9.514  18.314  67.185  1.00  0.00    -0.268 C  
HETATM   13  O   UNL     1     -10.415  16.743  65.567  1.00  0.00    -0.538 OA 
HETATM   14  H   UNL     1      -6.637  17.657  65.637  1.00  0.00     0.000 HD 
HETATM   15  O   UNL     1     -10.681  19.098  66.914  1.00  0.00    -0.436 OA 
BRANCH   6  16
HETATM   16  O   UNL     1      -9.541  14.791  67.450  1.00  0.00    -0.206 OA 
BRANCH  16  17
HETATM   17  C   UNL     1      -9.582  13.587  68.242  1.00  0.00    -0.218 C  
HETATM   18  O   UNL     1     -10.885  12.203  69.787  1.00  0.00    -0.445 OA 
HETATM   19  C   UNL     1     -10.949  13.326  68.897  1.00  0.00    -0.240 C  
HETATM   20  H   UNL     1     -11.730  12.042  70.191  1.00  0.00     0.000 HD 
HETATM   21  C   UNL     1     -11.552  11.887  66.932  1.00  0.00    -0.285 C  
HETATM   22  O   UNL     1     -12.259  14.243  67.058  1.00  0.00    -0.526 OA 
HETATM   23  C   UNL     1     -12.012  13.062  67.824  1.00  0.00    -0.295 C  
HETATM   24  O   UNL     1     -11.581  10.642  67.613  1.00  0.00    -0.578 OA 
HETATM   25  O   UNL     1     -10.265  12.128  66.356  1.00  0.00    -0.214 OA 
HETATM   26  H   UNL     1     -12.917  14.080  66.394  1.00  0.00     0.000 HD 
HETATM   27  H   UNL     1     -11.298   9.920  67.065  1.00  0.00     0.000 HD 
HETATM   28  C   UNL     1      -9.207  12.440  67.269  1.00  0.00    -0.187 C  
BRANCH  28  29
HETATM   29  C   UNL     1      -8.615  11.198  67.953  1.00  0.00    -0.135 C  
HETATM   30  O   UNL     1      -7.998  11.551  69.189  1.00  0.00    -0.335 OA 
HETATM   31  H   UNL     1      -7.631  10.784  69.612  1.00  0.00     0.000 HD 
ENDBRANCH  28  29
ENDBRANCH  16  17
ENDBRANCH   6  16
ENDBRANCH   3   4
TORSDOF 4
ENDMDL
MODEL       46
REMARK 921   NORMALIZED FREE ENERGY PREDICTED BY IDOCK:   -5.16 KCAL/MOL
REMARK 922        TOTAL FREE ENERGY PREDICTED BY IDOCK:   -7.67 KCAL/MOL
REMARK 923 INTER-LIGAND FREE ENERGY PREDICTED BY IDOCK:   -6.59 KCAL/MOL
REMARK 924 INTRA-LIGAND FREE ENERGY PREDICTED BY IDOCK:   -1.09 KCAL/MOL
REMARK 927      BINDING AFFINITY PREDICTED BY RF-SCORE:    0.00 PKD
ROOT
HETATM    1  O   UNL     1      -9.537   8.786  65.598  1.00  0.00    -0.430 OA 
HETATM    2  H   UNL     1      -9.209   7.898  65.665  1.00  0.00     0.000 HD 
HETATM    3  C   UNL     1     -10.151   9.182  66.825  1.00  0.00    -0.271 C  
ENDROOT
BRANCH   3   4
HETATM    4  C   UNL     1     -10.685  10.627  66.716  1.00  0.00    -0.210 C  
HETATM    5  O   UNL     1     -11.795  10.883  67.595  1.00  0.00    -0.572 OA 
HETATM    6  C   UNL     1     -11.482  11.173  68.959  1.00  0.00    -0.296 C  
HETATM    7  H   UNL     1      -7.647  10.977  68.367  1.00  0.00     0.000 HD 
HETATM    8  C   UNL     1     -10.559  12.409  69.045  1.00  0.00    -0.049 C  
HETATM    9  O   UNL     1     -11.197  13.586  68.534  1.00  0.00    -0.248 OA 
HETATM   10  H   UNL     1      -7.729  12.004  66.197  1.00  0.00     0.000 HD 
HETATM   11  C   UNL     1      -9.278  12.142  68.248  1.00  0.00    -0.192 C  
HETATM   12  C   UNL     1      -9.602  11.723  66.807  1.00  0.00    -0.200 C  
HETATM   13  O   UNL     1      -8.441  11.143  68.861  1.00  0.00    -0.151 OA 
HETATM   14  H   UNL     1     -10.629  14.345  68.587  1.00  0.00     0.000 HD 
HETATM   15  O   UNL     1      -8.396  11.330  66.141  1.00  0.00    -0.167 OA 
BRANCH   6  16
HETATM   16  O   UNL     1     -10.952  10.006  69.584  1.00  0.00    -0.237 OA 
BRANCH  16  17
HETATM   17  C   UNL     1     -11.867   8.968  69.992  1.00  0.00     0.306 C  
HETATM   18  O   UNL     1     -12.237   6.562  70.258  1.00  0.00    -0.496 OA 
HETATM   19  C   UNL     1     -11.244   7.562  69.991  1.00  0.00    -0.157 C  
HETATM   20  H   UNL     1     -11.852   5.693  70.258  1.00  0.00     0.000 HD 
HETATM   21  C   UNL     1     -10.714   7.857  72.426  1.00  0.00    -0.305 C  
HETATM   22  O   UNL     1      -9.027   8.296  70.685  1.00  0.00    -0.143 OA 
HETATM   23  C   UNL     1     -10.136   7.470  71.046  1.00  0.00    -0.186 C  
HETATM   24  O   UNL     1     -11.613   6.883  72.933  1.00  0.00    -0.491 OA 
HETATM   25  O   UNL     1     -11.319   9.153  72.404  1.00  0.00    -0.151 OA 
HETATM   26  H   UNL     1      -8.340   8.239  71.339  1.00  0.00     0.000 HD 
HETATM   27  H   UNL     1     -11.969   7.122  73.780  1.00  0.00     0.000 HD 
HETATM   28  C   UNL     1     -12.334   9.366  71.415  1.00  0.00    -0.357 C  
BRANCH  28  29
HETATM   29  C   UNL     1     -13.698   8.788  71.818  1.00  0.00    -0.419 C  
HETATM   30  O   UNL     1     -13.900   8.911  73.225  1.00  0.00    -1.163 OA 
HETATM   31  H   UNL     1     -14.744   8.553  73.475  1.00  0.00     0.000 HD 
ENDBRANCH  28  29
ENDBRANCH  16  17
ENDBRANCH   6  16
ENDBRANCH   3   4
TORSDOF 4
ENDMDL
MODEL       47
REMARK 921   NORMALIZED FREE ENERGY PREDICTED BY IDOCK:   -5.16 KCAL/MOL
REMARK 922        TOTAL FREE ENERGY PREDICTED BY IDOCK:   -7.67 KCAL/MOL
REMARK 923 INTER-LIGAND FREE ENERGY PREDICTED BY IDOCK:   -6.52 KCAL/MOL
REMARK 924 INTRA-LIGAND FREE ENERGY PREDICTED BY IDOCK:   -1.15 KCAL/MOL
REMARK 927      BINDING AFFINITY PREDICTED BY RF-SCORE:    0.00 PKD
ROOT
HETATM    1  O   UNL     1     -11.714  16.414  70.342  1.00  0.00    -0.441 OA 
HETATM    2  H   UNL     1     -12.658  16.314  70.374  1.00  0.00     0.000 HD 
HETATM    3  C   UNL     1     -11.282  16.622  68.996  1.00  0.00    -0.165 C  
ENDROOT
BRANCH   3   4
HETATM    4  C   UNL     1      -9.747  16.784  68.944  1.00  0.00    -0.257 C  
HETATM    5  O   UNL     1      -9.044  15.564  69.242  1.00  0.00    -0.235 OA 
HETATM    6  C   UNL     1      -8.913  14.620  68.176  1.00  0.00    -0.179 C  
HETATM    7  H   UNL     1     -10.718  16.912  65.610  1.00  0.00     0.000 HD 
HETATM    8  C   UNL     1      -8.186  15.266  66.976  1.00  0.00    -0.233 C  
HETATM    9  O   UNL     1      -6.849  15.659  67.313  1.00  0.00    -0.187 OA 
HETATM   10  H   UNL     1      -9.755  18.946  66.449  1.00  0.00     0.000 HD 
HETATM   11  C   UNL     1      -8.971  16.495  66.508  1.00  0.00    -0.278 C  
HETATM   12  C   UNL     1      -9.215  17.470  67.668  1.00  0.00    -0.243 C  
HETATM   13  O   UNL     1     -10.230  16.150  65.900  1.00  0.00    -0.321 OA 
HETATM   14  H   UNL     1      -6.402  16.056  66.575  1.00  0.00     0.000 HD 
HETATM   15  O   UNL     1     -10.082  18.523  67.234  1.00  0.00    -0.319 OA 
BRANCH   6  16
HETATM   16  O   UNL     1     -10.195  14.081  67.859  1.00  0.00    -0.232 OA 
BRANCH  16  17
HETATM   17  C   UNL     1     -10.478  12.717  68.231  1.00  0.00    -0.239 C  
HETATM   18  O   UNL     1     -12.000  10.812  68.000  1.00  0.00    -0.780 OA 
HETATM   19  C   UNL     1     -11.677  12.111  67.483  1.00  0.00    -0.315 C  
HETATM   20  H   UNL     1     -12.741  10.438  67.538  1.00  0.00     0.000 HD 
HETATM   21  C   UNL     1     -10.077  11.171  65.794  1.00  0.00    -0.249 C  
HETATM   22  O   UNL     1     -11.262  13.293  65.393  1.00  0.00    -0.286 OA 
HETATM   23  C   UNL     1     -11.369  11.996  65.985  1.00  0.00    -0.343 C  
HETATM   24  O   UNL     1     -10.255   9.798  66.110  1.00  0.00    -0.259 OA 
HETATM   25  O   UNL     1      -8.977  11.726  66.521  1.00  0.00    -0.191 OA 
HETATM   26  H   UNL     1     -11.070  13.222  64.465  1.00  0.00     0.000 HD 
HETATM   27  H   UNL     1      -9.461   9.291  65.993  1.00  0.00     0.000 HD 
HETATM   28  C   UNL     1      -9.179  11.928  67.925  1.00  0.00    -0.187 C  
BRANCH  28  29
HETATM   29  C   UNL     1      -9.011  10.642  68.748  1.00  0.00    -0.172 C  
HETATM   30  O   UNL     1      -9.786  10.706  69.944  1.00  0.00    -0.411 OA 
HETATM   31  H   UNL     1      -9.681   9.911  70.453  1.00  0.00     0.000 HD 
ENDBRANCH  28  29
ENDBRANCH  16  17
ENDBRANCH   6  16
ENDBRANCH   3   4
TORSDOF 4
ENDMDL
MODEL       48
REMARK 921   NORMALIZED FREE ENERGY PREDICTED BY IDOCK:   -5.15 KCAL/MOL
REMARK 922        TOTAL FREE ENERGY PREDICTED BY IDOCK:   -7.67 KCAL/MOL
REMARK 923 INTER-LIGAND FREE ENERGY PREDICTED BY IDOCK:   -6.78 KCAL/MOL
REMARK 924 INTRA-LIGAND FREE ENERGY PREDICTED BY IDOCK:   -0.89 KCAL/MOL
REMARK 927      BINDING AFFINITY PREDICTED BY RF-SCORE:    0.00 PKD
ROOT
HETATM    1  O   UNL     1     -10.883  14.612  64.803  1.00  0.00    -0.452 OA 
HETATM    2  H   UNL     1     -10.805  15.152  64.025  1.00  0.00     0.000 HD 
HETATM    3  C   UNL     1      -9.955  13.527  64.749  1.00  0.00    -0.125 C  
ENDROOT
BRANCH   3   4
HETATM    4  C   UNL     1     -10.082  12.650  66.014  1.00  0.00    -0.262 C  
HETATM    5  O   UNL     1      -9.164  13.031  67.054  1.00  0.00    -0.217 OA 
HETATM    6  C   UNL     1      -9.541  14.143  67.870  1.00  0.00    -0.223 C  
HETATM    7  H   UNL     1     -12.949  14.614  66.063  1.00  0.00     0.000 HD 
HETATM    8  C   UNL     1     -10.897  13.868  68.557  1.00  0.00    -0.259 C  
HETATM    9  O   UNL     1     -10.825  12.744  69.444  1.00  0.00    -0.437 OA 
HETATM   10  H   UNL     1     -13.353  12.263  65.788  1.00  0.00     0.000 HD 
HETATM   11  C   UNL     1     -11.963  13.602  67.490  1.00  0.00    -0.358 C  
HETATM   12  C   UNL     1     -11.524  12.481  66.538  1.00  0.00    -0.362 C  
HETATM   13  O   UNL     1     -12.288  14.779  66.726  1.00  0.00    -0.144 OA 
HETATM   14  H   UNL     1     -11.658  12.574  69.866  1.00  0.00     0.000 HD 
HETATM   15  O   UNL     1     -12.466  12.368  65.465  1.00  0.00    -0.643 OA 
BRANCH   6  16
HETATM   16  O   UNL     1      -9.517  15.336  67.087  1.00  0.00    -0.207 OA 
BRANCH  16  17
HETATM   17  C   UNL     1      -9.535  16.606  67.769  1.00  0.00    -0.227 C  
HETATM   18  O   UNL     1      -8.270  18.224  69.105  1.00  0.00    -0.104 OA 
HETATM   19  C   UNL     1      -8.161  17.033  68.313  1.00  0.00    -0.228 C  
HETATM   20  H   UNL     1      -7.421  18.487  69.441  1.00  0.00     0.000 HD 
HETATM   21  C   UNL     1      -7.791  18.332  66.198  1.00  0.00    -0.204 C  
HETATM   22  O   UNL     1      -6.881  16.060  66.481  1.00  0.00    -0.166 OA 
HETATM   23  C   UNL     1      -7.185  17.283  67.157  1.00  0.00    -0.172 C  
HETATM   24  O   UNL     1      -7.830  19.631  66.767  1.00  0.00    -0.260 OA 
HETATM   25  O   UNL     1      -9.082  17.938  65.726  1.00  0.00    -0.495 OA 
HETATM   26  H   UNL     1      -6.277  16.215  65.765  1.00  0.00     0.000 HD 
HETATM   27  H   UNL     1      -8.203  20.276  66.177  1.00  0.00     0.000 HD 
HETATM   28  C   UNL     1     -10.058  17.627  66.727  1.00  0.00    -0.334 C  
BRANCH  28  29
HETATM   29  C   UNL     1     -10.715  18.874  67.337  1.00  0.00    -0.444 C  
HETATM   30  O   UNL     1     -10.752  19.938  66.387  1.00  0.00    -0.454 OA 
HETATM   31  H   UNL     1     -11.157  20.709  66.764  1.00  0.00     0.000 HD 
ENDBRANCH  28  29
ENDBRANCH  16  17
ENDBRANCH   6  16
ENDBRANCH   3   4
TORSDOF 4
ENDMDL
MODEL       49
REMARK 921   NORMALIZED FREE ENERGY PREDICTED BY IDOCK:   -5.13 KCAL/MOL
REMARK 922        TOTAL FREE ENERGY PREDICTED BY IDOCK:   -7.64 KCAL/MOL
REMARK 923 INTER-LIGAND FREE ENERGY PREDICTED BY IDOCK:   -6.64 KCAL/MOL
REMARK 924 INTRA-LIGAND FREE ENERGY PREDICTED BY IDOCK:   -1.00 KCAL/MOL
REMARK 927      BINDING AFFINITY PREDICTED BY RF-SCORE:    0.00 PKD
ROOT
HETATM    1  O   UNL     1     -12.508  15.220  70.300  1.00  0.00    -0.372 OA 
HETATM    2  H   UNL     1     -12.390  15.755  71.075  1.00  0.00     0.000 HD 
HETATM    3  C   UNL     1     -11.669  15.687  69.242  1.00  0.00    -0.375 C  
ENDROOT
BRANCH   3   4
HETATM    4  C   UNL     1     -11.860  14.817  67.981  1.00  0.00    -0.294 C  
HETATM    5  O   UNL     1     -11.783  15.574  66.760  1.00  0.00     0.013 OA 
HETATM    6  C   UNL     1     -10.473  15.875  66.272  1.00  0.00    -0.318 C  
HETATM    7  H   UNL     1      -8.704  13.936  69.136  1.00  0.00     0.000 HD 
HETATM    8  C   UNL     1      -9.679  14.571  66.033  1.00  0.00    -0.303 C  
HETATM    9  O   UNL     1     -10.289  13.754  65.027  1.00  0.00    -0.359 OA 
HETATM   10  H   UNL     1     -10.323  12.164  69.206  1.00  0.00     0.000 HD 
HETATM   11  C   UNL     1      -9.592  13.782  67.343  1.00  0.00    -0.229 C  
HETATM   12  C   UNL     1     -10.987  13.545  67.937  1.00  0.00    -0.256 C  
HETATM   13  O   UNL     1      -8.757  14.425  68.324  1.00  0.00    -0.166 OA 
HETATM   14  H   UNL     1      -9.802  12.952  64.880  1.00  0.00     0.000 HD 
HETATM   15  O   UNL     1     -10.860  12.947  69.232  1.00  0.00    -0.131 OA 
BRANCH   6  16
HETATM   16  O   UNL     1      -9.834  16.792  67.159  1.00  0.00    -0.247 OA 
BRANCH  16  17
HETATM   17  C   UNL     1      -9.010  17.833  66.595  1.00  0.00    -0.266 C  
HETATM   18  O   UNL     1      -8.802  20.220  66.085  1.00  0.00    -0.560 OA 
HETATM   19  C   UNL     1      -9.583  19.246  66.792  1.00  0.00    -0.334 C  
HETATM   20  H   UNL     1      -9.156  21.093  66.208  1.00  0.00     0.000 HD 
HETATM   21  C   UNL     1      -8.189  19.460  68.868  1.00  0.00    -0.304 C  
HETATM   22  O   UNL     1     -10.557  18.792  68.980  1.00  0.00    -0.356 OA 
HETATM   23  C   UNL     1      -9.611  19.606  68.283  1.00  0.00    -0.385 C  
HETATM   24  O   UNL     1      -7.299  20.459  68.394  1.00  0.00    -0.191 OA 
HETATM   25  O   UNL     1      -7.655  18.151  68.648  1.00  0.00    -0.286 OA 
HETATM   26  H   UNL     1     -10.574  19.015  69.903  1.00  0.00     0.000 HD 
HETATM   27  H   UNL     1      -6.425  20.369  68.753  1.00  0.00     0.000 HD 
HETATM   28  C   UNL     1      -7.633  17.692  67.291  1.00  0.00    -0.199 C  
BRANCH  28  29
HETATM   29  C   UNL     1      -6.454  18.256  66.484  1.00  0.00    -0.194 C  
HETATM   30  O   UNL     1      -6.849  18.523  65.139  1.00  0.00    -0.528 OA 
HETATM   31  H   UNL     1      -6.120  18.872  64.639  1.00  0.00     0.000 HD 
ENDBRANCH  28  29
ENDBRANCH  16  17
ENDBRANCH   6  16
ENDBRANCH   3   4
TORSDOF 4
ENDMDL
MODEL       50
REMARK 921   NORMALIZED FREE ENERGY PREDICTED BY IDOCK:   -5.12 KCAL/MOL
REMARK 922        TOTAL FREE ENERGY PREDICTED BY IDOCK:   -7.62 KCAL/MOL
REMARK 923 INTER-LIGAND FREE ENERGY PREDICTED BY IDOCK:   -6.46 KCAL/MOL
REMARK 924 INTRA-LIGAND FREE ENERGY PREDICTED BY IDOCK:   -1.17 KCAL/MOL
REMARK 927      BINDING AFFINITY PREDICTED BY RF-SCORE:    0.00 PKD
ROOT
HETATM    1  O   UNL     1     -10.965   7.089  67.586  1.00  0.00    -0.434 OA 
HETATM    2  H   UNL     1     -11.670   7.009  68.218  1.00  0.00     0.000 HD 
HETATM    3  C   UNL     1     -10.738   8.463  67.267  1.00  0.00    -0.160 C  
ENDROOT
BRANCH   3   4
HETATM    4  C   UNL     1      -9.593   8.592  66.239  1.00  0.00    -0.252 C  
HETATM    5  O   UNL     1      -9.793   9.672  65.309  1.00  0.00    -0.310 OA 
HETATM    6  C   UNL     1      -9.445  10.983  65.762  1.00  0.00    -0.210 C  
HETATM    7  H   UNL     1      -8.186   9.716  69.212  1.00  0.00     0.000 HD 
HETATM    8  C   UNL     1      -7.958  11.029  66.177  1.00  0.00    -0.129 C  
HETATM    9  O   UNL     1      -7.088  10.757  65.071  1.00  0.00    -0.357 OA 
HETATM   10  H   UNL     1      -7.202   7.707  68.338  1.00  0.00     0.000 HD 
HETATM   11  C   UNL     1      -7.707   9.999  67.283  1.00  0.00    -0.095 C  
HETATM   12  C   UNL     1      -8.176   8.602  66.852  1.00  0.00    -0.105 C  
HETATM   13  O   UNL     1      -8.341  10.355  68.526  1.00  0.00    -0.113 OA 
HETATM   14  H   UNL     1      -6.174  10.785  65.326  1.00  0.00     0.000 HD 
HETATM   15  O   UNL     1      -8.074   7.701  67.960  1.00  0.00    -0.120 OA 
BRANCH   6  16
HETATM   16  O   UNL     1     -10.350  11.387  66.788  1.00  0.00    -0.218 OA 
BRANCH  16  17
HETATM   17  C   UNL     1     -11.265  12.466  66.513  1.00  0.00    -0.319 C  
HETATM   18  O   UNL     1     -12.612  14.288  67.443  1.00  0.00    -0.531 OA 
HETATM   19  C   UNL     1     -11.588  13.330  67.743  1.00  0.00    -0.342 C  
HETATM   20  H   UNL     1     -12.812  14.822  68.204  1.00  0.00     0.000 HD 
HETATM   21  C   UNL     1      -9.754  14.897  67.054  1.00  0.00    -0.235 C  
HETATM   22  O   UNL     1      -9.372  13.142  68.740  1.00  0.00    -0.395 OA 
HETATM   23  C   UNL     1     -10.331  14.067  68.222  1.00  0.00    -0.247 C  
HETATM   24  O   UNL     1     -10.572  16.007  66.718  1.00  0.00    -0.315 OA 
HETATM   25  O   UNL     1      -9.489  14.088  65.905  1.00  0.00    -0.203 OA 
HETATM   26  H   UNL     1      -8.593  13.598  69.035  1.00  0.00     0.000 HD 
HETATM   27  H   UNL     1     -10.217  16.517  66.000  1.00  0.00     0.000 HD 
HETATM   28  C   UNL     1     -10.585  13.312  65.406  1.00  0.00    -0.296 C  
BRANCH  28  29
HETATM   29  C   UNL     1     -11.560  14.130  64.546  1.00  0.00    -0.389 C  
HETATM   30  O   UNL     1     -12.898  13.672  64.729  1.00  0.00    -0.680 OA 
HETATM   31  H   UNL     1     -13.501  14.178  64.197  1.00  0.00     0.000 HD 
ENDBRANCH  28  29
ENDBRANCH  16  17
ENDBRANCH   6  16
ENDBRANCH   3   4
TORSDOF 4
ENDMDL
MODEL       51
REMARK 921   NORMALIZED FREE ENERGY PREDICTED BY IDOCK:   -5.10 KCAL/MOL
REMARK 922        TOTAL FREE ENERGY PREDICTED BY IDOCK:   -7.60 KCAL/MOL
REMARK 923 INTER-LIGAND FREE ENERGY PREDICTED BY IDOCK:   -6.56 KCAL/MOL
REMARK 924 INTRA-LIGAND FREE ENERGY PREDICTED BY IDOCK:   -1.04 KCAL/MOL
REMARK 927      BINDING AFFINITY PREDICTED BY RF-SCORE:    0.00 PKD
ROOT
HETATM    1  O   UNL     1     -12.862  11.946  71.731  1.00  0.00    -0.358 OA 
HETATM    2  H   UNL     1     -12.703  12.737  72.231  1.00  0.00     0.000 HD 
HETATM    3  C   UNL     1     -12.040  11.924  70.563  1.00  0.00    -0.331 C  
ENDROOT
BRANCH   3   4
HETATM    4  C   UNL     1     -12.298  10.637  69.749  1.00  0.00    -0.194 C  
HETATM    5  O   UNL     1     -12.245  10.853  68.327  1.00  0.00    -0.526 OA 
HETATM    6  C   UNL     1     -10.946  10.890  67.730  1.00  0.00    -0.283 C  
HETATM    7  H   UNL     1      -9.125  10.164  71.085  1.00  0.00     0.000 HD 
HETATM    8  C   UNL     1     -10.193   9.569  68.004  1.00  0.00    -0.201 C  
HETATM    9  O   UNL     1     -10.860   8.445  67.414  1.00  0.00    -0.479 OA 
HETATM   10  H   UNL     1     -10.784   8.622  71.881  1.00  0.00     0.000 HD 
HETATM   11  C   UNL     1     -10.080   9.353  69.516  1.00  0.00    -0.205 C  
HETATM   12  C   UNL     1     -11.459   9.419  70.188  1.00  0.00    -0.138 C  
HETATM   13  O   UNL     1      -9.195  10.297  70.146  1.00  0.00    -0.016 OA 
HETATM   14  H   UNL     1     -10.397   7.633  67.583  1.00  0.00     0.000 HD 
HETATM   15  O   UNL     1     -11.300   9.372  71.611  1.00  0.00    -0.372 OA 
BRANCH   6  16
HETATM   16  O   UNL     1     -10.253  12.057  68.170  1.00  0.00    -0.189 OA 
BRANCH  16  17
HETATM   17  C   UNL     1      -9.625  12.898  67.182  1.00  0.00    -0.225 C  
HETATM   18  O   UNL     1      -9.917  14.201  65.128  1.00  0.00    -0.529 OA 
HETATM   19  C   UNL     1     -10.613  13.500  66.168  1.00  0.00    -0.290 C  
HETATM   20  H   UNL     1     -10.527  14.573  64.502  1.00  0.00     0.000 HD 
HETATM   21  C   UNL     1     -10.759  15.547  67.613  1.00  0.00    -0.302 C  
HETATM   22  O   UNL     1     -12.442  13.754  67.758  1.00  0.00    -0.387 OA 
HETATM   23  C   UNL     1     -11.576  14.465  66.871  1.00  0.00    -0.388 C  
HETATM   24  O   UNL     1     -10.117  16.449  66.725  1.00  0.00    -0.267 OA 
HETATM   25  O   UNL     1      -9.822  14.972  68.528  1.00  0.00    -0.205 OA 
HETATM   26  H   UNL     1     -13.038  14.351  68.194  1.00  0.00     0.000 HD 
HETATM   27  H   UNL     1      -9.615  17.114  67.181  1.00  0.00     0.000 HD 
HETATM   28  C   UNL     1      -8.908  14.012  67.984  1.00  0.00    -0.181 C  
BRANCH  28  29
HETATM   29  C   UNL     1      -7.723  14.658  67.251  1.00  0.00    -0.169 C  
HETATM   30  O   UNL     1      -6.730  13.681  66.942  1.00  0.00    -0.324 OA 
HETATM   31  H   UNL     1      -5.997  14.080  66.488  1.00  0.00     0.000 HD 
ENDBRANCH  28  29
ENDBRANCH  16  17
ENDBRANCH   6  16
ENDBRANCH   3   4
TORSDOF 4
ENDMDL
MODEL       52
REMARK 921   NORMALIZED FREE ENERGY PREDICTED BY IDOCK:   -5.07 KCAL/MOL
REMARK 922        TOTAL FREE ENERGY PREDICTED BY IDOCK:   -7.56 KCAL/MOL
REMARK 923 INTER-LIGAND FREE ENERGY PREDICTED BY IDOCK:   -6.54 KCAL/MOL
REMARK 924 INTRA-LIGAND FREE ENERGY PREDICTED BY IDOCK:   -1.03 KCAL/MOL
REMARK 927      BINDING AFFINITY PREDICTED BY RF-SCORE:    0.00 PKD
ROOT
HETATM    1  O   UNL     1      -7.943  12.473  68.010  1.00  0.00    -0.131 OA 
HETATM    2  H   UNL     1      -7.237  12.442  67.376  1.00  0.00     0.000 HD 
HETATM    3  C   UNL     1      -9.158  12.883  67.381  1.00  0.00    -0.197 C  
ENDROOT
BRANCH   3   4
HETATM    4  C   UNL     1     -10.307  12.932  68.412  1.00  0.00    -0.244 C  
HETATM    5  O   UNL     1     -10.139  13.976  69.388  1.00  0.00     0.054 OA 
HETATM    6  C   UNL     1     -10.526  15.295  68.994  1.00  0.00    -0.248 C  
HETATM    7  H   UNL     1     -11.748  14.142  65.490  1.00  0.00     0.000 HD 
HETATM    8  C   UNL     1     -12.014  15.314  68.579  1.00  0.00    -0.201 C  
HETATM    9  O   UNL     1     -12.874  14.968  69.672  1.00  0.00    -0.585 OA 
HETATM   10  H   UNL     1     -12.670  12.068  66.275  1.00  0.00     0.000 HD 
HETATM   11  C   UNL     1     -12.234  14.326  67.430  1.00  0.00    -0.232 C  
HETATM   12  C   UNL     1     -11.723  12.927  67.799  1.00  0.00    -0.362 C  
HETATM   13  O   UNL     1     -11.613  14.755  66.204  1.00  0.00    -0.355 OA 
HETATM   14  H   UNL     1     -13.789  14.979  69.417  1.00  0.00     0.000 HD 
HETATM   15  O   UNL     1     -11.799  12.072  66.652  1.00  0.00    -0.583 OA 
BRANCH   6  16
HETATM   16  O   UNL     1      -9.635  15.770  67.986  1.00  0.00    -0.209 OA 
BRANCH  16  17
HETATM   17  C   UNL     1      -8.944  17.016  68.211  1.00  0.00    -0.242 C  
HETATM   18  O   UNL     1      -7.362  18.662  67.324  1.00  0.00    -0.215 OA 
HETATM   19  C   UNL     1      -8.142  17.504  66.994  1.00  0.00    -0.217 C  
HETATM   20  H   UNL     1      -6.866  18.963  66.572  1.00  0.00     0.000 HD 
HETATM   21  C   UNL     1     -10.123  18.886  66.313  1.00  0.00    -0.414 C  
HETATM   22  O   UNL     1      -9.715  16.663  65.333  1.00  0.00    -0.501 OA 
HETATM   23  C   UNL     1      -9.086  17.845  65.835  1.00  0.00     0.171 C  
HETATM   24  O   UNL     1      -9.547  20.163  66.540  1.00  0.00    -0.417 OA 
HETATM   25  O   UNL     1     -10.839  18.434  67.466  1.00  0.00    -0.408 OA 
HETATM   26  H   UNL     1     -10.300  16.874  64.616  1.00  0.00     0.000 HD 
HETATM   27  H   UNL     1     -10.184  20.803  66.834  1.00  0.00     0.000 HD 
HETATM   28  C   UNL     1     -10.048  18.036  68.592  1.00  0.00    -0.394 C  
BRANCH  28  29
HETATM   29  C   UNL     1      -9.550  19.225  69.427  1.00  0.00    -0.083 C  
HETATM   30  O   UNL     1     -10.525  20.265  69.452  1.00  0.00    -0.527 OA 
HETATM   31  H   UNL     1     -10.217  21.001  69.968  1.00  0.00     0.000 HD 
ENDBRANCH  28  29
ENDBRANCH  16  17
ENDBRANCH   6  16
ENDBRANCH   3   4
TORSDOF 4
ENDMDL
MODEL       53
REMARK 921   NORMALIZED FREE ENERGY PREDICTED BY IDOCK:   -5.04 KCAL/MOL
REMARK 922        TOTAL FREE ENERGY PREDICTED BY IDOCK:   -7.52 KCAL/MOL
REMARK 923 INTER-LIGAND FREE ENERGY PREDICTED BY IDOCK:   -6.38 KCAL/MOL
REMARK 924 INTRA-LIGAND FREE ENERGY PREDICTED BY IDOCK:   -1.15 KCAL/MOL
REMARK 927      BINDING AFFINITY PREDICTED BY RF-SCORE:    0.00 PKD
ROOT
HETATM    1  O   UNL     1     -11.532   6.318  67.071  1.00  0.00    -0.650 OA 
HETATM    2  H   UNL     1     -12.256   6.415  66.463  1.00  0.00     0.000 HD 
HETATM    3  C   UNL     1     -10.826   7.553  67.202  1.00  0.00    -0.228 C  
ENDROOT
BRANCH   3   4
HETATM    4  C   UNL     1      -9.649   7.396  68.190  1.00  0.00    -0.142 C  
HETATM    5  O   UNL     1      -8.624   8.388  68.002  1.00  0.00    -0.133 OA 
HETATM    6  C   UNL     1      -8.856   9.672  68.587  1.00  0.00    -0.128 C  
HETATM    7  H   UNL     1     -12.245   8.605  70.159  1.00  0.00     0.000 HD 
HETATM    8  C   UNL     1      -9.064   9.535  70.112  1.00  0.00    -0.240 C  
HETATM    9  O   UNL     1      -7.897   9.018  70.764  1.00  0.00    -0.108 OA 
HETATM   10  H   UNL     1     -11.513   6.387  70.721  1.00  0.00     0.000 HD 
HETATM   11  C   UNL     1     -10.249   8.604  70.381  1.00  0.00    -0.193 C  
HETATM   12  C   UNL     1     -10.066   7.256  69.669  1.00  0.00    -0.194 C  
HETATM   13  O   UNL     1     -11.509   9.183  69.993  1.00  0.00    -0.158 OA 
HETATM   14  H   UNL     1      -8.025   8.933  71.701  1.00  0.00     0.000 HD 
HETATM   15  O   UNL     1     -11.256   6.474  69.811  1.00  0.00    -0.335 OA 
BRANCH   6  16
HETATM   16  O   UNL     1      -9.932  10.316  67.908  1.00  0.00    -0.158 OA 
BRANCH  16  17
HETATM   17  C   UNL     1      -9.873  11.745  67.726  1.00  0.00    -0.181 C  
HETATM   18  O   UNL     1      -9.136  13.593  66.296  1.00  0.00    -0.465 OA 
HETATM   19  C   UNL     1      -9.309  12.170  66.360  1.00  0.00    -0.224 C  
HETATM   20  H   UNL     1      -8.787  13.854  65.452  1.00  0.00     0.000 HD 
HETATM   21  C   UNL     1     -11.660  12.297  65.492  1.00  0.00    -0.371 C  
HETATM   22  O   UNL     1     -10.267  10.298  65.128  1.00  0.00    -0.314 OA 
HETATM   23  C   UNL     1     -10.249  11.724  65.233  1.00  0.00    -0.267 C  
HETATM   24  O   UNL     1     -11.718  13.704  65.313  1.00  0.00    -0.317 OA 
HETATM   25  O   UNL     1     -12.159  11.922  66.779  1.00  0.00    -0.593 OA 
HETATM   26  H   UNL     1     -10.849  10.022  64.430  1.00  0.00     0.000 HD 
HETATM   27  H   UNL     1     -12.585  14.056  65.472  1.00  0.00     0.000 HD 
HETATM   28  C   UNL     1     -11.330  12.244  67.902  1.00  0.00    -0.298 C  
BRANCH  28  29
HETATM   29  C   UNL     1     -11.448  13.712  68.337  1.00  0.00    -0.311 C  
HETATM   30  O   UNL     1     -10.301  14.108  69.087  1.00  0.00    -0.370 OA 
HETATM   31  H   UNL     1     -10.374  15.016  69.356  1.00  0.00     0.000 HD 
ENDBRANCH  28  29
ENDBRANCH  16  17
ENDBRANCH   6  16
ENDBRANCH   3   4
TORSDOF 4
ENDMDL
MODEL       54
REMARK 921   NORMALIZED FREE ENERGY PREDICTED BY IDOCK:   -5.03 KCAL/MOL
REMARK 922        TOTAL FREE ENERGY PREDICTED BY IDOCK:   -7.51 KCAL/MOL
REMARK 923 INTER-LIGAND FREE ENERGY PREDICTED BY IDOCK:   -6.60 KCAL/MOL
REMARK 924 INTRA-LIGAND FREE ENERGY PREDICTED BY IDOCK:   -0.92 KCAL/MOL
REMARK 927      BINDING AFFINITY PREDICTED BY RF-SCORE:    0.00 PKD
ROOT
HETATM    1  O   UNL     1     -12.455  13.028  64.273  1.00  0.00    -0.549 OA 
HETATM    2  H   UNL     1     -12.174  13.191  63.381  1.00  0.00     0.000 HD 
HETATM    3  C   UNL     1     -11.643  13.762  65.192  1.00  0.00    -0.331 C  
ENDROOT
BRANCH   3   4
HETATM    4  C   UNL     1     -12.101  13.497  66.642  1.00  0.00    -0.396 C  
HETATM    5  O   UNL     1     -12.282  12.098  66.927  1.00  0.00    -0.537 OA 
HETATM    6  C   UNL     1     -11.104  11.346  67.233  1.00  0.00    -0.303 C  
HETATM    7  H   UNL     1      -8.773  14.444  66.971  1.00  0.00     0.000 HD 
HETATM    8  C   UNL     1     -10.383  11.956  68.456  1.00  0.00    -0.218 C  
HETATM    9  O   UNL     1     -11.196  11.900  69.635  1.00  0.00    -0.410 OA 
HETATM   10  H   UNL     1     -10.347  15.961  67.968  1.00  0.00     0.000 HD 
HETATM   11  C   UNL     1     -10.023  13.415  68.158  1.00  0.00    -0.237 C  
HETATM   12  C   UNL     1     -11.261  14.211  67.723  1.00  0.00    -0.287 C  
HETATM   13  O   UNL     1      -8.996  13.539  67.157  1.00  0.00    -0.210 OA 
HETATM   14  H   UNL     1     -10.753  12.274  70.386  1.00  0.00     0.000 HD 
HETATM   15  O   UNL     1     -10.863  15.521  67.303  1.00  0.00    -0.309 OA 
BRANCH   6  16
HETATM   16  O   UNL     1     -10.289  11.245  66.067  1.00  0.00    -0.238 OA 
BRANCH  16  17
HETATM   17  C   UNL     1     -10.022   9.935  65.526  1.00  0.00    -0.292 C  
HETATM   18  O   UNL     1      -8.698   8.609  63.948  1.00  0.00    -0.412 OA 
HETATM   19  C   UNL     1      -8.822   9.898  64.566  1.00  0.00    -0.209 C  
HETATM   20  H   UNL     1      -7.956   8.587  63.355  1.00  0.00     0.000 HD 
HETATM   21  C   UNL     1      -7.366   9.242  66.502  1.00  0.00    -0.092 C  
HETATM   22  O   UNL     1      -7.527  11.584  65.757  1.00  0.00    -0.312 OA 
HETATM   23  C   UNL     1      -7.526  10.223  65.320  1.00  0.00    -0.141 C  
HETATM   24  O   UNL     1      -7.073   7.920  66.076  1.00  0.00    -0.060 OA 
HETATM   25  O   UNL     1      -8.504   9.262  67.369  1.00  0.00    -0.121 OA 
HETATM   26  H   UNL     1      -6.725  11.786  66.225  1.00  0.00     0.000 HD 
HETATM   27  H   UNL     1      -6.975   7.316  66.803  1.00  0.00     0.000 HD 
HETATM   28  C   UNL     1      -9.776   9.024  66.755  1.00  0.00    -0.216 C  
BRANCH  28  29
HETATM   29  C   UNL     1     -10.055   7.534  66.504  1.00  0.00    -0.124 C  
HETATM   30  O   UNL     1     -11.262   7.133  67.150  1.00  0.00    -0.592 OA 
HETATM   31  H   UNL     1     -11.434   6.212  66.995  1.00  0.00     0.000 HD 
ENDBRANCH  28  29
ENDBRANCH  16  17
ENDBRANCH   6  16
ENDBRANCH   3   4
TORSDOF 4
ENDMDL
MODEL       55
REMARK 921   NORMALIZED FREE ENERGY PREDICTED BY IDOCK:   -5.02 KCAL/MOL
REMARK 922        TOTAL FREE ENERGY PREDICTED BY IDOCK:   -7.50 KCAL/MOL
REMARK 923 INTER-LIGAND FREE ENERGY PREDICTED BY IDOCK:   -6.29 KCAL/MOL
REMARK 924 INTRA-LIGAND FREE ENERGY PREDICTED BY IDOCK:   -1.21 KCAL/MOL
REMARK 927      BINDING AFFINITY PREDICTED BY RF-SCORE:    0.00 PKD
ROOT
HETATM    1  O   UNL     1     -11.411   6.702  66.810  1.00  0.00    -0.776 OA 
HETATM    2  H   UNL     1     -11.371   5.759  66.707  1.00  0.00     0.000 HD 
HETATM    3  C   UNL     1     -10.127   7.282  66.571  1.00  0.00    -0.093 C  
ENDROOT
BRANCH   3   4
HETATM    4  C   UNL     1     -10.193   8.816  66.738  1.00  0.00    -0.284 C  
HETATM    5  O   UNL     1     -11.065   9.227  67.807  1.00  0.00    -0.110 OA 
HETATM    6  C   UNL     1     -10.529   9.173  69.132  1.00  0.00    -0.217 C  
HETATM    7  H   UNL     1      -7.035   7.976  67.923  1.00  0.00     0.000 HD 
HETATM    8  C   UNL     1      -9.262  10.052  69.233  1.00  0.00    -0.203 C  
HETATM    9  O   UNL     1      -9.554  11.434  68.988  1.00  0.00    -0.383 OA 
HETATM   10  H   UNL     1      -7.030   9.342  65.948  1.00  0.00     0.000 HD 
HETATM   11  C   UNL     1      -8.224   9.567  68.216  1.00  0.00    -0.113 C  
HETATM   12  C   UNL     1      -8.818   9.516  66.802  1.00  0.00    -0.131 C  
HETATM   13  O   UNL     1      -7.679   8.278  68.554  1.00  0.00    -0.107 OA 
HETATM   14  H   UNL     1      -8.775  11.974  69.050  1.00  0.00     0.000 HD 
HETATM   15  O   UNL     1      -7.876   8.911  65.909  1.00  0.00    -0.098 OA 
BRANCH   6  16
HETATM   16  O   UNL     1     -10.324   7.812  69.506  1.00  0.00    -0.209 OA 
BRANCH  16  17
HETATM   17  C   UNL     1     -11.243   7.211  70.441  1.00  0.00    -0.287 C  
HETATM   18  O   UNL     1     -11.582   5.485  72.146  1.00  0.00    -0.190 OA 
HETATM   19  C   UNL     1     -10.594   6.149  71.345  1.00  0.00    -0.243 C  
HETATM   20  H   UNL     1     -11.181   4.829  72.705  1.00  0.00     0.000 HD 
HETATM   21  C   UNL     1     -10.221   7.932  73.072  1.00  0.00    -0.327 C  
HETATM   22  O   UNL     1      -8.438   7.275  71.505  1.00  0.00    -0.113 OA 
HETATM   23  C   UNL     1      -9.551   6.798  72.265  1.00  0.00    -0.144 C  
HETATM   24  O   UNL     1     -11.131   7.442  74.046  1.00  0.00    -0.426 OA 
HETATM   25  O   UNL     1     -10.849   8.894  72.220  1.00  0.00    -0.332 OA 
HETATM   26  H   UNL     1      -7.793   7.677  72.074  1.00  0.00     0.000 HD 
HETATM   27  H   UNL     1     -11.543   8.139  74.542  1.00  0.00     0.000 HD 
HETATM   28  C   UNL     1     -11.804   8.386  71.281  1.00  0.00    -0.289 C  
BRANCH  28  29
HETATM   29  C   UNL     1     -13.180   8.115  71.908  1.00  0.00    -0.325 C  
HETATM   30  O   UNL     1     -13.428   9.019  72.984  1.00  0.00    -0.888 OA 
HETATM   31  H   UNL     1     -14.279   8.851  73.372  1.00  0.00     0.000 HD 
ENDBRANCH  28  29
ENDBRANCH  16  17
ENDBRANCH   6  16
ENDBRANCH   3   4
TORSDOF 4
ENDMDL
MODEL       56
REMARK 921   NORMALIZED FREE ENERGY PREDICTED BY IDOCK:   -4.99 KCAL/MOL
REMARK 922        TOTAL FREE ENERGY PREDICTED BY IDOCK:   -7.47 KCAL/MOL
REMARK 923 INTER-LIGAND FREE ENERGY PREDICTED BY IDOCK:   -6.54 KCAL/MOL
REMARK 924 INTRA-LIGAND FREE ENERGY PREDICTED BY IDOCK:   -0.92 KCAL/MOL
REMARK 927      BINDING AFFINITY PREDICTED BY RF-SCORE:    0.00 PKD
ROOT
HETATM    1  O   UNL     1     -11.666  12.274  63.147  1.00  0.00    -0.698 OA 
HETATM    2  H   UNL     1     -11.066  11.848  62.547  1.00  0.00     0.000 HD 
HETATM    3  C   UNL     1     -11.095  12.343  64.455  1.00  0.00    -0.333 C  
ENDROOT
BRANCH   3   4
HETATM    4  C   UNL     1     -12.070  13.035  65.431  1.00  0.00    -0.444 C  
HETATM    5  O   UNL     1     -12.407  12.214  66.563  1.00  0.00    -0.474 OA 
HETATM    6  C   UNL     1     -11.463  12.180  67.637  1.00  0.00    -0.331 C  
HETATM    7  H   UNL     1      -9.063  14.708  65.920  1.00  0.00     0.000 HD 
HETATM    8  C   UNL     1     -11.221  13.605  68.182  1.00  0.00    -0.275 C  
HETATM    9  O   UNL     1     -12.415  14.174  68.734  1.00  0.00    -0.542 OA 
HETATM   10  H   UNL     1     -10.823  16.063  65.007  1.00  0.00     0.000 HD 
HETATM   11  C   UNL     1     -10.710  14.502  67.050  1.00  0.00    -0.291 C  
HETATM   12  C   UNL     1     -11.660  14.465  65.845  1.00  0.00    -0.361 C  
HETATM   13  O   UNL     1      -9.380  14.152  66.623  1.00  0.00    -0.272 OA 
HETATM   14  H   UNL     1     -12.266  15.049  69.068  1.00  0.00     0.000 HD 
HETATM   15  O   UNL     1     -11.075  15.183  64.753  1.00  0.00    -0.395 OA 
BRANCH   6  16
HETATM   16  O   UNL     1     -10.279  11.511  67.207  1.00  0.00    -0.196 OA 
BRANCH  16  17
HETATM   17  C   UNL     1      -9.310  11.122  68.201  1.00  0.00    -0.176 C  
HETATM   18  O   UNL     1      -8.866   9.786  70.206  1.00  0.00    -0.264 OA 
HETATM   19  C   UNL     1      -9.812  10.024  69.154  1.00  0.00    -0.205 C  
HETATM   20  H   UNL     1      -9.178   9.108  70.795  1.00  0.00     0.000 HD 
HETATM   21  C   UNL     1      -8.753   8.315  67.653  1.00  0.00    -0.133 C  
HETATM   22  O   UNL     1     -11.148   8.864  67.479  1.00  0.00    -0.461 OA 
HETATM   23  C   UNL     1     -10.052   8.719  68.385  1.00  0.00    -0.190 C  
HETATM   24  O   UNL     1      -7.736   7.886  68.546  1.00  0.00    -0.109 OA 
HETATM   25  O   UNL     1      -8.279   9.356  66.795  1.00  0.00    -0.111 OA 
HETATM   26  H   UNL     1     -11.297   8.056  67.002  1.00  0.00     0.000 HD 
HETATM   27  H   UNL     1      -6.938   7.638  68.096  1.00  0.00     0.000 HD 
HETATM   28  C   UNL     1      -8.072  10.637  67.403  1.00  0.00    -0.112 C  
BRANCH  28  29
HETATM   29  C   UNL     1      -6.746  10.732  68.172  1.00  0.00    -0.063 C  
HETATM   30  O   UNL     1      -6.847  11.683  69.231  1.00  0.00    -0.107 OA 
HETATM   31  H   UNL     1      -6.027  11.742  69.707  1.00  0.00     0.000 HD 
ENDBRANCH  28  29
ENDBRANCH  16  17
ENDBRANCH   6  16
ENDBRANCH   3   4
TORSDOF 4
ENDMDL
MODEL       57
REMARK 921   NORMALIZED FREE ENERGY PREDICTED BY IDOCK:   -4.96 KCAL/MOL
REMARK 922        TOTAL FREE ENERGY PREDICTED BY IDOCK:   -7.43 KCAL/MOL
REMARK 923 INTER-LIGAND FREE ENERGY PREDICTED BY IDOCK:   -6.12 KCAL/MOL
REMARK 924 INTRA-LIGAND FREE ENERGY PREDICTED BY IDOCK:   -1.31 KCAL/MOL
REMARK 927      BINDING AFFINITY PREDICTED BY RF-SCORE:    0.00 PKD
ROOT
HETATM    1  O   UNL     1      -8.678   8.886  70.100  1.00  0.00    -0.138 OA 
HETATM    2  H   UNL     1      -7.770   8.883  69.825  1.00  0.00     0.000 HD 
HETATM    3  C   UNL     1      -8.775   8.599  71.496  1.00  0.00    -0.202 C  
ENDROOT
BRANCH   3   4
HETATM    4  C   UNL     1     -10.253   8.605  71.943  1.00  0.00    -0.334 C  
HETATM    5  O   UNL     1     -11.172   8.461  70.845  1.00  0.00    -0.253 OA 
HETATM    6  C   UNL     1     -11.394   7.134  70.361  1.00  0.00    -0.289 C  
HETATM    7  H   UNL     1      -9.063   5.523  73.019  1.00  0.00     0.000 HD 
HETATM    8  C   UNL     1     -11.921   6.231  71.499  1.00  0.00    -0.183 C  
HETATM    9  O   UNL     1     -13.190   6.682  71.990  1.00  0.00    -0.511 OA 
HETATM   10  H   UNL     1      -9.716   7.013  74.786  1.00  0.00     0.000 HD 
HETATM   11  C   UNL     1     -10.909   6.219  72.648  1.00  0.00    -0.242 C  
HETATM   12  C   UNL     1     -10.577   7.645  73.108  1.00  0.00    -0.379 C  
HETATM   13  O   UNL     1      -9.691   5.530  72.307  1.00  0.00    -0.154 OA 
HETATM   14  H   UNL     1     -13.514   6.127  72.689  1.00  0.00     0.000 HD 
HETATM   15  O   UNL     1      -9.517   7.604  74.069  1.00  0.00    -0.249 OA 
BRANCH   6  16
HETATM   16  O   UNL     1     -10.205   6.651  69.738  1.00  0.00    -0.178 OA 
BRANCH  16  17
HETATM   17  C   UNL     1     -10.328   5.898  68.514  1.00  0.00    -0.214 C  
HETATM   18  O   UNL     1     -11.366   5.757  66.300  1.00  0.00    -0.733 OA 
HETATM   19  C   UNL     1     -11.154   6.612  67.432  1.00  0.00    -0.320 C  
HETATM   20  H   UNL     1     -11.877   6.199  65.631  1.00  0.00     0.000 HD 
HETATM   21  C   UNL     1      -9.018   7.531  66.488  1.00  0.00    -0.162 C  
HETATM   22  O   UNL     1     -10.413   8.857  68.026  1.00  0.00    -0.220 OA 
HETATM   23  C   UNL     1     -10.441   7.890  66.973  1.00  0.00    -0.349 C  
HETATM   24  O   UNL     1      -9.026   6.807  65.267  1.00  0.00    -0.368 OA 
HETATM   25  O   UNL     1      -8.272   6.838  67.492  1.00  0.00    -0.120 OA 
HETATM   26  H   UNL     1      -9.971   9.648  67.742  1.00  0.00     0.000 HD 
HETATM   27  H   UNL     1      -8.152   6.586  64.969  1.00  0.00     0.000 HD 
HETATM   28  C   UNL     1      -8.875   5.656  68.031  1.00  0.00    -0.105 C  
BRANCH  28  29
HETATM   29  C   UNL     1      -8.706   4.427  67.126  1.00  0.00    -0.105 C  
HETATM   30  O   UNL     1      -9.851   3.580  67.209  1.00  0.00    -0.309 OA 
HETATM   31  H   UNL     1      -9.746   2.820  66.649  1.00  0.00     0.000 HD 
ENDBRANCH  28  29
ENDBRANCH  16  17
ENDBRANCH   6  16
ENDBRANCH   3   4
TORSDOF 4
ENDMDL
MODEL       58
REMARK 921   NORMALIZED FREE ENERGY PREDICTED BY IDOCK:   -4.95 KCAL/MOL
REMARK 922        TOTAL FREE ENERGY PREDICTED BY IDOCK:   -7.42 KCAL/MOL
REMARK 923 INTER-LIGAND FREE ENERGY PREDICTED BY IDOCK:   -6.52 KCAL/MOL
REMARK 924 INTRA-LIGAND FREE ENERGY PREDICTED BY IDOCK:   -0.91 KCAL/MOL
REMARK 927      BINDING AFFINITY PREDICTED BY RF-SCORE:    0.00 PKD
ROOT
HETATM    1  O   UNL     1      -6.307  12.094  67.776  1.00  0.00    -0.069 OA 
HETATM    2  H   UNL     1      -5.626  12.613  67.365  1.00  0.00     0.000 HD 
HETATM    3  C   UNL     1      -7.432  11.971  66.904  1.00  0.00    -0.051 C  
ENDROOT
BRANCH   3   4
HETATM    4  C   UNL     1      -8.539  11.126  67.573  1.00  0.00    -0.129 C  
HETATM    5  O   UNL     1      -9.421  11.910  68.396  1.00  0.00    -0.200 OA 
HETATM    6  C   UNL     1     -10.464  12.622  67.725  1.00  0.00    -0.221 C  
HETATM    7  H   UNL     1      -9.477  11.243  64.229  1.00  0.00     0.000 HD 
HETATM    8  C   UNL     1     -11.355  11.642  66.930  1.00  0.00    -0.295 C  
HETATM    9  O   UNL     1     -12.017  10.707  67.792  1.00  0.00    -0.664 OA 
HETATM   10  H   UNL     1      -8.913   9.051  65.033  1.00  0.00     0.000 HD 
HETATM   11  C   UNL     1     -10.495  10.877  65.920  1.00  0.00    -0.221 C  
HETATM   12  C   UNL     1      -9.307  10.195  66.612  1.00  0.00    -0.162 C  
HETATM   13  O   UNL     1     -10.011  11.717  64.856  1.00  0.00    -0.245 OA 
HETATM   14  H   UNL     1     -12.565  10.105  67.304  1.00  0.00     0.000 HD 
HETATM   15  O   UNL     1      -8.441   9.625  65.624  1.00  0.00    -0.124 OA 
BRANCH   6  16
HETATM   16  O   UNL     1      -9.894  13.664  66.934  1.00  0.00    -0.247 OA 
BRANCH  16  17
HETATM   17  C   UNL     1     -10.490  14.975  66.992  1.00  0.00    -0.278 C  
HETATM   18  O   UNL     1     -11.024  16.915  68.389  1.00  0.00    -0.356 OA 
HETATM   19  C   UNL     1     -10.286  15.685  68.340  1.00  0.00    -0.231 C  
HETATM   20  H   UNL     1     -10.897  17.353  69.223  1.00  0.00     0.000 HD 
HETATM   21  C   UNL     1      -8.256  16.804  67.379  1.00  0.00    -0.177 C  
HETATM   22  O   UNL     1      -8.067  14.764  68.748  1.00  0.00    -0.145 OA 
HETATM   23  C   UNL     1      -8.798  15.979  68.568  1.00  0.00    -0.199 C  
HETATM   24  O   UNL     1      -8.764  18.129  67.359  1.00  0.00    -0.242 OA 
HETATM   25  O   UNL     1      -8.481  16.148  66.129  1.00  0.00    -0.327 OA 
HETATM   26  H   UNL     1      -7.146  14.946  68.888  1.00  0.00     0.000 HD 
HETATM   27  H   UNL     1      -8.430  18.636  66.628  1.00  0.00     0.000 HD 
HETATM   28  C   UNL     1      -9.835  15.778  65.839  1.00  0.00    -0.349 C  
BRANCH  28  29
HETATM   29  C   UNL     1     -10.682  16.950  65.322  1.00  0.00    -0.134 C  
HETATM   30  O   UNL     1     -11.204  16.660  64.026  1.00  0.00    -1.449 OA 
HETATM   31  H   UNL     1     -11.727  17.384  63.706  1.00  0.00     0.000 HD 
ENDBRANCH  28  29
ENDBRANCH  16  17
ENDBRANCH   6  16
ENDBRANCH   3   4
TORSDOF 4
ENDMDL
MODEL       59
REMARK 921   NORMALIZED FREE ENERGY PREDICTED BY IDOCK:   -4.95 KCAL/MOL
REMARK 922        TOTAL FREE ENERGY PREDICTED BY IDOCK:   -7.42 KCAL/MOL
REMARK 923 INTER-LIGAND FREE ENERGY PREDICTED BY IDOCK:   -6.39 KCAL/MOL
REMARK 924 INTRA-LIGAND FREE ENERGY PREDICTED BY IDOCK:   -1.03 KCAL/MOL
REMARK 927      BINDING AFFINITY PREDICTED BY RF-SCORE:    0.00 PKD
ROOT
HETATM    1  O   UNL     1      -7.408  14.362  66.837  1.00  0.00    -0.318 OA 
HETATM    2  H   UNL     1      -6.662  14.285  67.420  1.00  0.00     0.000 HD 
HETATM    3  C   UNL     1      -8.305  15.370  67.309  1.00  0.00    -0.199 C  
ENDROOT
BRANCH   3   4
HETATM    4  C   UNL     1      -9.518  15.495  66.362  1.00  0.00    -0.291 C  
HETATM    5  O   UNL     1      -9.763  14.297  65.603  1.00  0.00    -0.288 OA 
HETATM    6  C   UNL     1     -10.475  13.249  66.268  1.00  0.00    -0.287 C  
HETATM    7  H   UNL     1     -10.940  15.312  69.527  1.00  0.00     0.000 HD 
HETATM    8  C   UNL     1     -11.853  13.759  66.746  1.00  0.00    -0.420 C  
HETATM    9  O   UNL     1     -12.683  14.156  65.647  1.00  0.00    -0.514 OA 
HETATM   10  H   UNL     1     -11.293  17.399  68.392  1.00  0.00     0.000 HD 
HETATM   11  C   UNL     1     -11.656  14.951  67.687  1.00  0.00    -0.339 C  
HETATM   12  C   UNL     1     -10.800  16.040  67.026  1.00  0.00    -0.227 C  
HETATM   13  O   UNL     1     -11.063  14.573  68.943  1.00  0.00    -0.236 OA 
HETATM   14  H   UNL     1     -13.530  14.469  65.940  1.00  0.00     0.000 HD 
HETATM   15  O   UNL     1     -10.504  17.063  67.984  1.00  0.00    -0.322 OA 
BRANCH   6  16
HETATM   16  O   UNL     1      -9.662  12.707  67.307  1.00  0.00    -0.201 OA 
BRANCH  16  17
HETATM   17  C   UNL     1      -9.194  11.350  67.176  1.00  0.00    -0.166 C  
HETATM   18  O   UNL     1      -8.239   9.401  68.313  1.00  0.00    -0.115 OA 
HETATM   19  C   UNL     1      -8.836  10.690  68.518  1.00  0.00    -0.148 C  
HETATM   20  H   UNL     1      -8.018   8.994  69.143  1.00  0.00     0.000 HD 
HETATM   21  C   UNL     1     -11.155   9.734  68.602  1.00  0.00    -0.093 C  
HETATM   22  O   UNL     1     -10.582  11.811  69.795  1.00  0.00    -0.406 OA 
HETATM   23  C   UNL     1     -10.090  10.533  69.387  1.00  0.00    -0.209 C  
HETATM   24  O   UNL     1     -10.801   8.369  68.440  1.00  0.00    -0.428 OA 
HETATM   25  O   UNL     1     -11.454  10.340  67.342  1.00  0.00    -0.290 OA 
HETATM   26  H   UNL     1     -11.360  11.715  70.333  1.00  0.00     0.000 HD 
HETATM   27  H   UNL     1     -11.455   7.878  67.957  1.00  0.00     0.000 HD 
HETATM   28  C   UNL     1     -10.342  10.583  66.472  1.00  0.00    -0.233 C  
BRANCH  28  29
HETATM   29  C   UNL     1      -9.891   9.330  65.707  1.00  0.00    -0.231 C  
HETATM   30  O   UNL     1      -9.540   9.660  64.364  1.00  0.00    -0.428 OA 
HETATM   31  H   UNL     1      -9.262   8.885  63.891  1.00  0.00     0.000 HD 
ENDBRANCH  28  29
ENDBRANCH  16  17
ENDBRANCH   6  16
ENDBRANCH   3   4
TORSDOF 4
ENDMDL
MODEL       60
REMARK 921   NORMALIZED FREE ENERGY PREDICTED BY IDOCK:   -4.94 KCAL/MOL
REMARK 922        TOTAL FREE ENERGY PREDICTED BY IDOCK:   -7.40 KCAL/MOL
REMARK 923 INTER-LIGAND FREE ENERGY PREDICTED BY IDOCK:   -6.00 KCAL/MOL
REMARK 924 INTRA-LIGAND FREE ENERGY PREDICTED BY IDOCK:   -1.40 KCAL/MOL
REMARK 927      BINDING AFFINITY PREDICTED BY RF-SCORE:    0.00 PKD
ROOT
HETATM    1  O   UNL     1     -11.097   6.938  68.282  1.00  0.00    -0.463 OA 
HETATM    2  H   UNL     1     -11.776   6.997  67.622  1.00  0.00     0.000 HD 
HETATM    3  C   UNL     1     -11.658   6.553  69.538  1.00  0.00    -0.233 C  
ENDROOT
BRANCH   3   4
HETATM    4  C   UNL     1     -10.553   6.456  70.613  1.00  0.00    -0.237 C  
HETATM    5  O   UNL     1      -9.417   7.291  70.325  1.00  0.00    -0.165 OA 
HETATM    6  C   UNL     1      -9.533   8.675  70.665  1.00  0.00    -0.184 C  
HETATM    7  H   UNL     1     -13.088   8.248  72.174  1.00  0.00     0.000 HD 
HETATM    8  C   UNL     1      -9.826   8.832  72.174  1.00  0.00    -0.277 C  
HETATM    9  O   UNL     1      -8.754   8.324  72.979  1.00  0.00    -0.209 OA 
HETATM   10  H   UNL     1     -12.631   6.104  73.154  1.00  0.00     0.000 HD 
HETATM   11  C   UNL     1     -11.118   8.086  72.522  1.00  0.00    -0.375 C  
HETATM   12  C   UNL     1     -11.051   6.623  72.064  1.00  0.00    -0.255 C  
HETATM   13  O   UNL     1     -12.287   8.711  71.959  1.00  0.00    -0.324 OA 
HETATM   14  H   UNL     1      -8.934   8.420  73.906  1.00  0.00     0.000 HD 
HETATM   15  O   UNL     1     -12.325   6.001  72.260  1.00  0.00    -0.252 OA 
BRANCH   6  16
HETATM   16  O   UNL     1     -10.500   9.293  69.817  1.00  0.00    -0.204 OA 
BRANCH  16  17
HETATM   17  C   UNL     1     -10.403  10.713  69.586  1.00  0.00    -0.145 C  
HETATM   18  O   UNL     1      -9.143  12.527  68.527  1.00  0.00    -0.329 OA 
HETATM   19  C   UNL     1      -9.287  11.102  68.601  1.00  0.00    -0.184 C  
HETATM   20  H   UNL     1      -8.454  12.767  67.918  1.00  0.00     0.000 HD 
HETATM   21  C   UNL     1     -10.982  11.057  66.751  1.00  0.00    -0.217 C  
HETATM   22  O   UNL     1      -9.523   9.123  67.198  1.00  0.00    -0.144 OA 
HETATM   23  C   UNL     1      -9.594  10.551  67.203  1.00  0.00    -0.168 C  
HETATM   24  O   UNL     1     -10.989  12.448  66.470  1.00  0.00    -0.253 OA 
HETATM   25  O   UNL     1     -12.005  10.718  67.692  1.00  0.00    -0.411 OA 
HETATM   26  H   UNL     1      -9.714   8.782  66.333  1.00  0.00     0.000 HD 
HETATM   27  H   UNL     1     -11.843  12.759  66.192  1.00  0.00     0.000 HD 
HETATM   28  C   UNL     1     -11.791  11.138  69.044  1.00  0.00    -0.348 C  
BRANCH  28  29
HETATM   29  C   UNL     1     -12.136  12.617  69.277  1.00  0.00    -0.166 C  
HETATM   30  O   UNL     1     -11.396  13.138  70.380  1.00  0.00    -0.461 OA 
HETATM   31  H   UNL     1     -11.609  14.052  70.524  1.00  0.00     0.000 HD 
ENDBRANCH  28  29
ENDBRANCH  16  17
ENDBRANCH   6  16
ENDBRANCH   3   4
TORSDOF 4
ENDMDL
MODEL       61
REMARK 921   NORMALIZED FREE ENERGY PREDICTED BY IDOCK:   -4.91 KCAL/MOL
REMARK 922        TOTAL FREE ENERGY PREDICTED BY IDOCK:   -7.37 KCAL/MOL
REMARK 923 INTER-LIGAND FREE ENERGY PREDICTED BY IDOCK:   -6.62 KCAL/MOL
REMARK 924 INTRA-LIGAND FREE ENERGY PREDICTED BY IDOCK:   -0.75 KCAL/MOL
REMARK 927      BINDING AFFINITY PREDICTED BY RF-SCORE:    0.00 PKD
ROOT
HETATM    1  O   UNL     1      -9.606  14.106  68.355  1.00  0.00    -0.217 OA 
HETATM    2  H   UNL     1      -9.006  14.080  69.091  1.00  0.00     0.000 HD 
HETATM    3  C   UNL     1      -8.883  14.231  67.129  1.00  0.00    -0.229 C  
ENDROOT
BRANCH   3   4
HETATM    4  C   UNL     1      -9.859  14.274  65.933  1.00  0.00    -0.298 C  
HETATM    5  O   UNL     1     -10.051  12.987  65.320  1.00  0.00    -0.282 OA 
HETATM    6  C   UNL     1     -10.977  12.102  65.956  1.00  0.00    -0.293 C  
HETATM    7  H   UNL     1     -11.912  14.682  68.707  1.00  0.00     0.000 HD 
HETATM    8  C   UNL     1     -12.371  12.761  66.046  1.00  0.00    -0.182 C  
HETATM    9  O   UNL     1     -12.918  13.026  64.748  1.00  0.00    -0.735 OA 
HETATM   10  H   UNL     1     -11.832  16.578  67.236  1.00  0.00     0.000 HD 
HETATM   11  C   UNL     1     -12.264  14.075  66.826  1.00  0.00    -0.404 C  
HETATM   12  C   UNL     1     -11.195  14.993  66.218  1.00  0.00    -0.309 C  
HETATM   13  O   UNL     1     -11.979  13.868  68.223  1.00  0.00    -0.359 OA 
HETATM   14  H   UNL     1     -13.775  13.431  64.802  1.00  0.00     0.000 HD 
HETATM   15  O   UNL     1     -11.010  16.136  67.061  1.00  0.00    -0.256 OA 
BRANCH   6  16
HETATM   16  O   UNL     1     -10.448  11.686  67.214  1.00  0.00    -0.206 OA 
BRANCH  16  17
HETATM   17  C   UNL     1     -10.984  10.496  67.826  1.00  0.00    -0.313 C  
HETATM   18  O   UNL     1     -11.143   8.053  67.744  1.00  0.00    -0.485 OA 
HETATM   19  C   UNL     1     -10.464   9.192  67.197  1.00  0.00    -0.255 C  
HETATM   20  H   UNL     1     -10.821   7.248  67.355  1.00  0.00     0.000 HD 
HETATM   21  C   UNL     1      -8.678   9.123  68.958  1.00  0.00    -0.135 C  
HETATM   22  O   UNL     1      -8.233  10.047  66.718  1.00  0.00    -0.120 OA 
HETATM   23  C   UNL     1      -8.957   9.048  67.440  1.00  0.00    -0.124 C  
HETATM   24  O   UNL     1      -9.146   7.979  69.655  1.00  0.00    -0.151 OA 
HETATM   25  O   UNL     1      -9.195  10.324  69.536  1.00  0.00    -0.208 OA 
HETATM   26  H   UNL     1      -7.299   9.957  66.869  1.00  0.00     0.000 HD 
HETATM   27  H   UNL     1      -8.975   8.025  70.588  1.00  0.00     0.000 HD 
HETATM   28  C   UNL     1     -10.588  10.586  69.321  1.00  0.00    -0.236 C  
BRANCH  28  29
HETATM   29  C   UNL     1     -11.502   9.793  70.268  1.00  0.00    -0.255 C  
HETATM   30  O   UNL     1     -12.871  10.124  70.037  1.00  0.00    -0.568 OA 
HETATM   31  H   UNL     1     -13.436   9.635  70.623  1.00  0.00     0.000 HD 
ENDBRANCH  28  29
ENDBRANCH  16  17
ENDBRANCH   6  16
ENDBRANCH   3   4
TORSDOF 4
ENDMDL
MODEL       62
REMARK 921   NORMALIZED FREE ENERGY PREDICTED BY IDOCK:   -4.90 KCAL/MOL
REMARK 922        TOTAL FREE ENERGY PREDICTED BY IDOCK:   -7.35 KCAL/MOL
REMARK 923 INTER-LIGAND FREE ENERGY PREDICTED BY IDOCK:   -5.99 KCAL/MOL
REMARK 924 INTRA-LIGAND FREE ENERGY PREDICTED BY IDOCK:   -1.36 KCAL/MOL
REMARK 927      BINDING AFFINITY PREDICTED BY RF-SCORE:    0.00 PKD
ROOT
HETATM    1  O   UNL     1      -7.925  15.094  67.204  1.00  0.00    -0.193 OA 
HETATM    2  H   UNL     1      -7.121  14.851  67.648  1.00  0.00     0.000 HD 
HETATM    3  C   UNL     1      -9.025  15.063  68.116  1.00  0.00    -0.173 C  
ENDROOT
BRANCH   3   4
HETATM    4  C   UNL     1     -10.331  15.458  67.395  1.00  0.00    -0.262 C  
HETATM    5  O   UNL     1     -10.376  15.007  66.029  1.00  0.00    -0.281 OA 
HETATM    6  C   UNL     1     -10.748  13.643  65.814  1.00  0.00    -0.280 C  
HETATM    7  H   UNL     1     -11.312  12.954  69.596  1.00  0.00     0.000 HD 
HETATM    8  C   UNL     1     -12.145  13.369  66.415  1.00  0.00    -0.409 C  
HETATM    9  O   UNL     1     -13.161  14.154  65.778  1.00  0.00    -0.611 OA 
HETATM   10  H   UNL     1     -12.261  15.112  70.051  1.00  0.00     0.000 HD 
HETATM   11  C   UNL     1     -12.125  13.687  67.913  1.00  0.00    -0.283 C  
HETATM   12  C   UNL     1     -11.622  15.115  68.168  1.00  0.00    -0.341 C  
HETATM   13  O   UNL     1     -11.325  12.757  68.666  1.00  0.00    -0.252 OA 
HETATM   14  H   UNL     1     -14.019  13.985  66.147  1.00  0.00     0.000 HD 
HETATM   15  O   UNL     1     -11.466  15.323  69.575  1.00  0.00    -0.264 OA 
BRANCH   6  16
HETATM   16  O   UNL     1      -9.722  12.787  66.311  1.00  0.00    -0.259 OA 
BRANCH  16  17
HETATM   17  C   UNL     1      -8.940  12.029  65.364  1.00  0.00     0.326 C  
HETATM   18  O   UNL     1      -7.063  10.491  65.035  1.00  0.00    -0.285 OA 
HETATM   19  C   UNL     1      -7.906  11.101  66.022  1.00  0.00    -0.020 C  
HETATM   20  H   UNL     1      -6.424   9.917  65.442  1.00  0.00     0.000 HD 
HETATM   21  C   UNL     1      -9.587   9.242  65.911  1.00  0.00    -0.275 C  
HETATM   22  O   UNL     1      -9.281  10.569  67.963  1.00  0.00    -0.138 OA 
HETATM   23  C   UNL     1      -8.611  10.006  66.832  1.00  0.00    -0.125 C  
HETATM   24  O   UNL     1      -8.914   8.439  64.952  1.00  0.00    -0.410 OA 
HETATM   25  O   UNL     1     -10.522  10.120  65.279  1.00  0.00    -0.193 OA 
HETATM   26  H   UNL     1      -9.718   9.891  68.464  1.00  0.00     0.000 HD 
HETATM   27  H   UNL     1      -9.514   7.969  64.386  1.00  0.00     0.000 HD 
HETATM   28  C   UNL     1      -9.968  11.214  64.539  1.00  0.00    -0.296 C  
BRANCH  28  29
HETATM   29  C   UNL     1      -9.479  10.809  63.141  1.00  0.00    -0.336 C  
HETATM   30  O   UNL     1      -8.542  11.761  62.641  1.00  0.00    -0.630 OA 
HETATM   31  H   UNL     1      -8.239  11.511  61.776  1.00  0.00     0.000 HD 
ENDBRANCH  28  29
ENDBRANCH  16  17
ENDBRANCH   6  16
ENDBRANCH   3   4
TORSDOF 4
ENDMDL
MODEL       63
REMARK 921   NORMALIZED FREE ENERGY PREDICTED BY IDOCK:   -4.89 KCAL/MOL
REMARK 922        TOTAL FREE ENERGY PREDICTED BY IDOCK:   -7.34 KCAL/MOL
REMARK 923 INTER-LIGAND FREE ENERGY PREDICTED BY IDOCK:   -6.03 KCAL/MOL
REMARK 924 INTRA-LIGAND FREE ENERGY PREDICTED BY IDOCK:   -1.31 KCAL/MOL
REMARK 927      BINDING AFFINITY PREDICTED BY RF-SCORE:    0.00 PKD
ROOT
HETATM    1  O   UNL     1     -11.680  11.555  69.279  1.00  0.00    -0.272 OA 
HETATM    2  H   UNL     1     -12.619  11.620  69.410  1.00  0.00     0.000 HD 
HETATM    3  C   UNL     1     -11.395  10.972  68.007  1.00  0.00    -0.306 C  
ENDROOT
BRANCH   3   4
HETATM    4  C   UNL     1      -9.870  10.865  67.795  1.00  0.00    -0.175 C  
HETATM    5  O   UNL     1      -9.151  10.600  69.013  1.00  0.00    -0.174 OA 
HETATM    6  C   UNL     1      -9.117   9.241  69.456  1.00  0.00    -0.160 C  
HETATM    7  H   UNL     1     -11.118   7.942  66.390  1.00  0.00     0.000 HD 
HETATM    8  C   UNL     1      -8.490   8.339  68.369  1.00  0.00    -0.129 C  
HETATM    9  O   UNL     1      -7.127   8.696  68.104  1.00  0.00    -0.079 OA 
HETATM   10  H   UNL     1     -10.075   9.436  64.825  1.00  0.00     0.000 HD 
HETATM   11  C   UNL     1      -9.304   8.459  67.078  1.00  0.00    -0.159 C  
HETATM   12  C   UNL     1      -9.443   9.926  66.647  1.00  0.00    -0.173 C  
HETATM   13  O   UNL     1     -10.612   7.868  67.191  1.00  0.00    -0.320 OA 
HETATM   14  H   UNL     1      -6.742   8.142  67.436  1.00  0.00     0.000 HD 
HETATM   15  O   UNL     1     -10.338  10.014  65.532  1.00  0.00    -0.241 OA 
BRANCH   6  16
HETATM   16  O   UNL     1     -10.424   8.840  69.862  1.00  0.00    -0.211 OA 
BRANCH  16  17
HETATM   17  C   UNL     1     -10.719   8.785  71.273  1.00  0.00    -0.269 C  
HETATM   18  O   UNL     1     -12.424   8.394  72.988  1.00  0.00    -0.648 OA 
HETATM   19  C   UNL     1     -12.140   8.286  71.586  1.00  0.00    -0.306 C  
HETATM   20  H   UNL     1     -13.302   8.086  73.181  1.00  0.00     0.000 HD 
HETATM   21  C   UNL     1     -11.211   5.968  71.831  1.00  0.00    -0.282 C  
HETATM   22  O   UNL     1     -12.244   6.717  69.725  1.00  0.00    -0.574 OA 
HETATM   23  C   UNL     1     -12.300   6.825  71.149  1.00  0.00    -0.333 C  
HETATM   24  O   UNL     1     -11.424   5.828  73.228  1.00  0.00    -0.488 OA 
HETATM   25  O   UNL     1      -9.896   6.462  71.559  1.00  0.00    -0.169 OA 
HETATM   26  H   UNL     1     -12.343   5.812  69.454  1.00  0.00     0.000 HD 
HETATM   27  H   UNL     1     -10.754   5.301  73.647  1.00  0.00     0.000 HD 
HETATM   28  C   UNL     1      -9.654   7.837  71.880  1.00  0.00    -0.165 C  
BRANCH  28  29
HETATM   29  C   UNL     1      -9.379   8.067  73.374  1.00  0.00    -0.254 C  
HETATM   30  O   UNL     1      -8.756   6.922  73.953  1.00  0.00    -0.139 OA 
HETATM   31  H   UNL     1      -8.586   7.064  74.876  1.00  0.00     0.000 HD 
ENDBRANCH  28  29
ENDBRANCH  16  17
ENDBRANCH   6  16
ENDBRANCH   3   4
TORSDOF 4
ENDMDL
MODEL       64
REMARK 921   NORMALIZED FREE ENERGY PREDICTED BY IDOCK:   -4.88 KCAL/MOL
REMARK 922        TOTAL FREE ENERGY PREDICTED BY IDOCK:   -7.33 KCAL/MOL
REMARK 923 INTER-LIGAND FREE ENERGY PREDICTED BY IDOCK:   -5.96 KCAL/MOL
REMARK 924 INTRA-LIGAND FREE ENERGY PREDICTED BY IDOCK:   -1.37 KCAL/MOL
REMARK 927      BINDING AFFINITY PREDICTED BY RF-SCORE:    0.00 PKD
ROOT
HETATM    1  O   UNL     1     -11.307   9.106  67.974  1.00  0.00    -0.382 OA 
HETATM    2  H   UNL     1     -11.844   8.429  67.580  1.00  0.00     0.000 HD 
HETATM    3  C   UNL     1      -9.983   9.063  67.437  1.00  0.00    -0.209 C  
ENDROOT
BRANCH   3   4
HETATM    4  C   UNL     1      -9.109  10.163  68.078  1.00  0.00    -0.131 C  
HETATM    5  O   UNL     1      -9.484  10.457  69.436  1.00  0.00    -0.216 OA 
HETATM    6  C   UNL     1      -8.992   9.572  70.445  1.00  0.00    -0.243 C  
HETATM    7  H   UNL     1      -7.000   7.407  67.907  1.00  0.00     0.000 HD 
HETATM    8  C   UNL     1      -7.448   9.529  70.413  1.00  0.00    -0.151 C  
HETATM    9  O   UNL     1      -6.874  10.810  70.707  1.00  0.00    -0.443 OA 
HETATM   10  H   UNL     1      -6.325   9.267  66.546  1.00  0.00     0.000 HD 
HETATM   11  C   UNL     1      -6.981   9.072  69.027  1.00  0.00    -0.063 C  
HETATM   12  C   UNL     1      -7.589   9.948  67.923  1.00  0.00    -0.090 C  
HETATM   13  O   UNL     1      -7.289   7.690  68.766  1.00  0.00    -0.086 OA 
HETATM   14  H   UNL     1      -5.926  10.784  70.687  1.00  0.00     0.000 HD 
HETATM   15  O   UNL     1      -7.261   9.399  66.642  1.00  0.00    -0.085 OA 
BRANCH   6  16
HETATM   16  O   UNL     1      -9.612   8.295  70.301  1.00  0.00    -0.166 OA 
BRANCH  16  17
HETATM   17  C   UNL     1      -9.981   7.572  71.493  1.00  0.00    -0.177 C  
HETATM   18  O   UNL     1     -11.179   7.632  73.628  1.00  0.00    -0.537 OA 
HETATM   19  C   UNL     1     -10.967   8.333  72.395  1.00  0.00    -0.368 C  
HETATM   20  H   UNL     1     -11.789   8.102  74.185  1.00  0.00     0.000 HD 
HETATM   21  C   UNL     1     -12.851   7.132  71.251  1.00  0.00    -0.349 C  
HETATM   22  O   UNL     1     -12.173   9.398  70.564  1.00  0.00    -0.466 OA 
HETATM   23  C   UNL     1     -12.312   8.515  71.679  1.00  0.00    -0.326 C  
HETATM   24  O   UNL     1     -13.269   6.344  72.356  1.00  0.00    -0.519 OA 
HETATM   25  O   UNL     1     -11.911   6.421  70.441  1.00  0.00    -0.382 OA 
HETATM   26  H   UNL     1     -13.005   9.510  70.121  1.00  0.00     0.000 HD 
HETATM   27  H   UNL     1     -13.600   5.494  72.093  1.00  0.00     0.000 HD 
HETATM   28  C   UNL     1     -10.601   6.242  70.993  1.00  0.00    -0.238 C  
BRANCH  28  29
HETATM   29  C   UNL     1     -10.526   5.089  72.005  1.00  0.00    -0.203 C  
HETATM   30  O   UNL     1      -9.271   5.096  72.683  1.00  0.00    -0.134 OA 
HETATM   31  H   UNL     1      -9.225   4.383  73.308  1.00  0.00     0.000 HD 
ENDBRANCH  28  29
ENDBRANCH  16  17
ENDBRANCH   6  16
ENDBRANCH   3   4
TORSDOF 4
ENDMDL
MODEL       65
REMARK 921   NORMALIZED FREE ENERGY PREDICTED BY IDOCK:   -4.84 KCAL/MOL
REMARK 922        TOTAL FREE ENERGY PREDICTED BY IDOCK:   -7.28 KCAL/MOL
REMARK 923 INTER-LIGAND FREE ENERGY PREDICTED BY IDOCK:   -5.98 KCAL/MOL
REMARK 924 INTRA-LIGAND FREE ENERGY PREDICTED BY IDOCK:   -1.30 KCAL/MOL
REMARK 927      BINDING AFFINITY PREDICTED BY RF-SCORE:    0.00 PKD
ROOT
HETATM    1  O   UNL     1     -12.087  10.868  68.430  1.00  0.00    -0.776 OA 
HETATM    2  H   UNL     1     -12.130   9.934  68.264  1.00  0.00     0.000 HD 
HETATM    3  C   UNL     1     -11.779  11.571  67.225  1.00  0.00    -0.111 C  
ENDROOT
BRANCH   3   4
HETATM    4  C   UNL     1     -11.709  13.090  67.493  1.00  0.00    -0.370 C  
HETATM    5  O   UNL     1     -10.535  13.476  68.229  1.00  0.00    -0.239 OA 
HETATM    6  C   UNL     1      -9.325  13.621  67.481  1.00  0.00    -0.223 C  
HETATM    7  H   UNL     1     -11.046  12.807  64.094  1.00  0.00     0.000 HD 
HETATM    8  C   UNL     1      -9.510  14.671  66.363  1.00  0.00    -0.299 C  
HETATM    9  O   UNL     1      -9.794  15.971  66.897  1.00  0.00    -0.235 OA 
HETATM   10  H   UNL     1     -13.081  13.969  64.621  1.00  0.00     0.000 HD 
HETATM   11  C   UNL     1     -10.658  14.240  65.445  1.00  0.00    -0.354 C  
HETATM   12  C   UNL     1     -11.938  13.975  66.249  1.00  0.00    -0.432 C  
HETATM   13  O   UNL     1     -10.334  13.075  64.663  1.00  0.00    -0.347 OA 
HETATM   14  H   UNL     1      -9.908  16.616  66.210  1.00  0.00     0.000 HD 
HETATM   15  O   UNL     1     -12.940  13.424  65.387  1.00  0.00    -0.625 OA 
BRANCH   6  16
HETATM   16  O   UNL     1      -8.900  12.342  67.013  1.00  0.00    -0.192 OA 
BRANCH  16  17
HETATM   17  C   UNL     1      -7.509  11.987  67.151  1.00  0.00    -0.138 C  
HETATM   18  O   UNL     1      -5.640  11.612  68.689  1.00  0.00    -0.046 OA 
HETATM   19  C   UNL     1      -7.058  11.816  68.611  1.00  0.00    -0.101 C  
HETATM   20  H   UNL     1      -5.362  11.506  69.592  1.00  0.00     0.000 HD 
HETATM   21  C   UNL     1      -7.520   9.358  68.405  1.00  0.00    -0.078 C  
HETATM   22  O   UNL     1      -9.173  10.892  69.394  1.00  0.00    -0.396 OA 
HETATM   23  C   UNL     1      -7.776  10.623  69.253  1.00  0.00    -0.142 C  
HETATM   24  O   UNL     1      -6.176   8.907  68.492  1.00  0.00    -0.051 OA 
HETATM   25  O   UNL     1      -7.912   9.542  67.042  1.00  0.00    -0.107 OA 
HETATM   26  H   UNL     1      -9.618  10.154  69.791  1.00  0.00     0.000 HD 
HETATM   27  H   UNL     1      -6.019   8.129  67.970  1.00  0.00     0.000 HD 
HETATM   28  C   UNL     1      -7.340  10.665  66.360  1.00  0.00    -0.138 C  
BRANCH  28  29
HETATM   29  C   UNL     1      -5.911  10.402  65.862  1.00  0.00    -0.099 C  
HETATM   30  O   UNL     1      -5.219  11.632  65.650  1.00  0.00    -0.478 OA 
HETATM   31  H   UNL     1      -4.336  11.470  65.342  1.00  0.00     0.000 HD 
ENDBRANCH  28  29
ENDBRANCH  16  17
ENDBRANCH   6  16
ENDBRANCH   3   4
TORSDOF 4
ENDMDL
MODEL       66
REMARK 921   NORMALIZED FREE ENERGY PREDICTED BY IDOCK:   -4.83 KCAL/MOL
REMARK 922        TOTAL FREE ENERGY PREDICTED BY IDOCK:   -7.27 KCAL/MOL
REMARK 923 INTER-LIGAND FREE ENERGY PREDICTED BY IDOCK:   -6.30 KCAL/MOL
REMARK 924 INTRA-LIGAND FREE ENERGY PREDICTED BY IDOCK:   -0.97 KCAL/MOL
REMARK 927      BINDING AFFINITY PREDICTED BY RF-SCORE:    0.00 PKD
ROOT
HETATM    1  O   UNL     1      -6.584  17.845  67.166  1.00  0.00    -0.165 OA 
HETATM    2  H   UNL     1      -5.898  17.204  67.019  1.00  0.00     0.000 HD 
HETATM    3  C   UNL     1      -7.043  18.375  65.922  1.00  0.00    -0.255 C  
ENDROOT
BRANCH   3   4
HETATM    4  C   UNL     1      -8.158  19.416  66.161  1.00  0.00    -0.314 C  
HETATM    5  O   UNL     1      -9.473  18.905  65.875  1.00  0.00    -0.458 OA 
HETATM    6  C   UNL     1     -10.090  18.110  66.891  1.00  0.00    -0.357 C  
HETATM    7  H   UNL     1      -7.122  18.544  69.362  1.00  0.00     0.000 HD 
HETATM    8  C   UNL     1     -10.206  18.916  68.204  1.00  0.00    -0.391 C  
HETATM    9  O   UNL     1     -11.046  20.067  68.049  1.00  0.00    -0.031 OA 
HETATM   10  H   UNL     1      -6.698  20.831  68.763  1.00  0.00     0.000 HD 
HETATM   11  C   UNL     1      -8.811  19.365  68.650  1.00  0.00    -0.373 C  
HETATM   12  C   UNL     1      -8.091  20.128  67.529  1.00  0.00    -0.320 C  
HETATM   13  O   UNL     1      -7.988  18.266  69.085  1.00  0.00    -0.140 OA 
HETATM   14  H   UNL     1     -11.117  20.562  68.855  1.00  0.00     0.000 HD 
HETATM   15  O   UNL     1      -6.740  20.392  67.921  1.00  0.00    -0.270 OA 
BRANCH   6  16
HETATM   16  O   UNL     1      -9.383  16.878  67.025  1.00  0.00    -0.225 OA 
BRANCH  16  17
HETATM   17  C   UNL     1     -10.144  15.663  67.185  1.00  0.00    -0.256 C  
HETATM   18  O   UNL     1     -10.369  13.301  66.579  1.00  0.00    -0.275 OA 
HETATM   19  C   UNL     1      -9.499  14.440  66.513  1.00  0.00    -0.289 C  
HETATM   20  H   UNL     1      -9.970  12.545  66.163  1.00  0.00     0.000 HD 
HETATM   21  C   UNL     1      -8.409  13.882  68.704  1.00  0.00    -0.088 C  
HETATM   22  O   UNL     1      -7.201  15.124  66.953  1.00  0.00    -0.285 OA 
HETATM   23  C   UNL     1      -8.167  14.098  67.193  1.00  0.00    -0.144 C  
HETATM   24  O   UNL     1      -9.132  12.691  68.975  1.00  0.00    -0.339 OA 
HETATM   25  O   UNL     1      -9.039  15.014  69.310  1.00  0.00    -0.206 OA 
HETATM   26  H   UNL     1      -6.377  14.913  67.374  1.00  0.00     0.000 HD 
HETATM   27  H   UNL     1      -9.281  12.558  69.903  1.00  0.00     0.000 HD 
HETATM   28  C   UNL     1     -10.266  15.453  68.716  1.00  0.00    -0.217 C  
BRANCH  28  29
HETATM   29  C   UNL     1     -11.478  14.611  69.144  1.00  0.00    -0.294 C  
HETATM   30  O   UNL     1     -12.403  14.477  68.066  1.00  0.00    -0.606 OA 
HETATM   31  H   UNL     1     -13.152  13.957  68.331  1.00  0.00     0.000 HD 
ENDBRANCH  28  29
ENDBRANCH  16  17
ENDBRANCH   6  16
ENDBRANCH   3   4
TORSDOF 4
ENDMDL
MODEL       67
REMARK 921   NORMALIZED FREE ENERGY PREDICTED BY IDOCK:   -4.82 KCAL/MOL
REMARK 922        TOTAL FREE ENERGY PREDICTED BY IDOCK:   -7.26 KCAL/MOL
REMARK 923 INTER-LIGAND FREE ENERGY PREDICTED BY IDOCK:   -6.14 KCAL/MOL
REMARK 924 INTRA-LIGAND FREE ENERGY PREDICTED BY IDOCK:   -1.12 KCAL/MOL
REMARK 927      BINDING AFFINITY PREDICTED BY RF-SCORE:    0.00 PKD
ROOT
HETATM    1  O   UNL     1     -13.423   8.640  73.086  1.00  0.00    -0.883 OA 
HETATM    2  H   UNL     1     -13.891   9.448  73.260  1.00  0.00     0.000 HD 
HETATM    3  C   UNL     1     -12.777   8.705  71.813  1.00  0.00    -0.359 C  
ENDROOT
BRANCH   3   4
HETATM    4  C   UNL     1     -12.017   7.391  71.530  1.00  0.00    -0.307 C  
HETATM    5  O   UNL     1     -11.819   7.149  70.126  1.00  0.00    -0.185 OA 
HETATM    6  C   UNL     1     -10.730   7.835  69.502  1.00  0.00    -0.198 C  
HETATM    7  H   UNL     1      -9.581   9.511  72.813  1.00  0.00     0.000 HD 
HETATM    8  C   UNL     1      -9.400   7.477  70.203  1.00  0.00    -0.157 C  
HETATM    9  O   UNL     1      -9.097   6.081  70.086  1.00  0.00    -0.144 OA 
HETATM   10  H   UNL     1     -10.060   7.596  74.181  1.00  0.00     0.000 HD 
HETATM   11  C   UNL     1      -9.490   7.853  71.685  1.00  0.00    -0.152 C  
HETATM   12  C   UNL     1     -10.718   7.210  72.344  1.00  0.00    -0.241 C  
HETATM   13  O   UNL     1      -9.525   9.277  71.894  1.00  0.00    -0.291 OA 
HETATM   14  H   UNL     1      -8.280   5.861  70.517  1.00  0.00     0.000 HD 
HETATM   15  O   UNL     1     -10.859   7.707  73.680  1.00  0.00    -0.308 OA 
BRANCH   6  16
HETATM   16  O   UNL     1     -11.010   9.233  69.462  1.00  0.00    -0.227 OA 
BRANCH  16  17
HETATM   17  C   UNL     1     -11.001   9.900  68.184  1.00  0.00    -0.207 C  
HETATM   18  O   UNL     1     -11.921  11.717  66.823  1.00  0.00    -0.584 OA 
HETATM   19  C   UNL     1     -11.848  11.183  68.152  1.00  0.00    -0.164 C  
HETATM   20  H   UNL     1     -12.444  12.510  66.804  1.00  0.00     0.000 HD 
HETATM   21  C   UNL     1      -9.779  12.495  68.695  1.00  0.00    -0.049 C  
HETATM   22  O   UNL     1     -11.369  11.827  70.453  1.00  0.00    -0.464 OA 
HETATM   23  C   UNL     1     -11.250  12.240  69.090  1.00  0.00    -0.242 C  
HETATM   24  O   UNL     1      -9.658  13.176  67.455  1.00  0.00    -0.208 OA 
HETATM   25  O   UNL     1      -9.010  11.289  68.696  1.00  0.00    -0.168 OA 
HETATM   26  H   UNL     1     -10.998  12.481  71.034  1.00  0.00     0.000 HD 
HETATM   27  H   UNL     1      -8.754  13.333  67.212  1.00  0.00     0.000 HD 
HETATM   28  C   UNL     1      -9.511  10.214  67.893  1.00  0.00    -0.141 C  
BRANCH  28  29
HETATM   29  C   UNL     1      -9.176  10.369  66.402  1.00  0.00    -0.161 C  
HETATM   30  O   UNL     1     -10.094   9.627  65.601  1.00  0.00    -0.296 OA 
HETATM   31  H   UNL     1      -9.887   9.722  64.679  1.00  0.00     0.000 HD 
ENDBRANCH  28  29
ENDBRANCH  16  17
ENDBRANCH   6  16
ENDBRANCH   3   4
TORSDOF 4
ENDMDL
MODEL       68
REMARK 921   NORMALIZED FREE ENERGY PREDICTED BY IDOCK:   -4.81 KCAL/MOL
REMARK 922        TOTAL FREE ENERGY PREDICTED BY IDOCK:   -7.25 KCAL/MOL
REMARK 923 INTER-LIGAND FREE ENERGY PREDICTED BY IDOCK:   -5.96 KCAL/MOL
REMARK 924 INTRA-LIGAND FREE ENERGY PREDICTED BY IDOCK:   -1.29 KCAL/MOL
REMARK 927      BINDING AFFINITY PREDICTED BY RF-SCORE:    0.00 PKD
ROOT
HETATM    1  O   UNL     1      -8.400   8.209  74.294  1.00  0.00    -0.274 OA 
HETATM    2  H   UNL     1      -7.462   8.342  74.241  1.00  0.00     0.000 HD 
HETATM    3  C   UNL     1      -8.728   6.854  73.980  1.00  0.00    -0.159 C  
ENDROOT
BRANCH   3   4
HETATM    4  C   UNL     1     -10.255   6.638  74.066  1.00  0.00    -0.369 C  
HETATM    5  O   UNL     1     -11.009   7.761  73.574  1.00  0.00    -0.292 OA 
HETATM    6  C   UNL     1     -11.169   7.856  72.157  1.00  0.00    -0.307 C  
HETATM    7  H   UNL     1      -9.254   4.545  71.479  1.00  0.00     0.000 HD 
HETATM    8  C   UNL     1     -11.860   6.587  71.610  1.00  0.00    -0.333 C  
HETATM    9  O   UNL     1     -13.183   6.432  72.141  1.00  0.00    -0.474 OA 
HETATM   10  H   UNL     1     -10.141   3.407  73.399  1.00  0.00     0.000 HD 
HETATM   11  C   UNL     1     -11.023   5.357  71.971  1.00  0.00    -0.178 C  
HETATM   12  C   UNL     1     -10.749   5.299  73.480  1.00  0.00    -0.289 C  
HETATM   13  O   UNL     1      -9.774   5.307  71.255  1.00  0.00    -0.154 OA 
HETATM   14  H   UNL     1     -13.607   5.652  71.805  1.00  0.00     0.000 HD 
HETATM   15  O   UNL     1      -9.836   4.231  73.759  1.00  0.00    -0.118 OA 
BRANCH   6  16
HETATM   16  O   UNL     1      -9.908   8.138  71.553  1.00  0.00    -0.164 OA 
BRANCH  16  17
HETATM   17  C   UNL     1      -9.751   9.379  70.835  1.00  0.00    -0.250 C  
HETATM   18  O   UNL     1      -8.223  10.849  69.609  1.00  0.00    -0.379 OA 
HETATM   19  C   UNL     1      -8.370   9.540  70.178  1.00  0.00    -0.192 C  
HETATM   20  H   UNL     1      -7.369  10.948  69.203  1.00  0.00     0.000 HD 
HETATM   21  C   UNL     1      -9.329   8.597  68.060  1.00  0.00    -0.136 C  
HETATM   22  O   UNL     1      -8.093   7.177  69.649  1.00  0.00    -0.125 OA 
HETATM   23  C   UNL     1      -8.175   8.487  69.081  1.00  0.00    -0.119 C  
HETATM   24  O   UNL     1      -9.253   9.778  67.277  1.00  0.00    -0.134 OA 
HETATM   25  O   UNL     1     -10.609   8.478  68.688  1.00  0.00    -0.198 OA 
HETATM   26  H   UNL     1      -7.973   6.525  68.970  1.00  0.00     0.000 HD 
HETATM   27  H   UNL     1      -9.963   9.846  66.650  1.00  0.00     0.000 HD 
HETATM   28  C   UNL     1     -10.875   9.382  69.767  1.00  0.00    -0.232 C  
BRANCH  28  29
HETATM   29  C   UNL     1     -11.292  10.782  69.291  1.00  0.00    -0.286 C  
HETATM   30  O   UNL     1     -12.071  10.695  68.099  1.00  0.00    -0.797 OA 
HETATM   31  H   UNL     1     -12.328  11.561  67.805  1.00  0.00     0.000 HD 
ENDBRANCH  28  29
ENDBRANCH  16  17
ENDBRANCH   6  16
ENDBRANCH   3   4
TORSDOF 4
ENDMDL
MODEL       69
REMARK 921   NORMALIZED FREE ENERGY PREDICTED BY IDOCK:   -4.80 KCAL/MOL
REMARK 922        TOTAL FREE ENERGY PREDICTED BY IDOCK:   -7.23 KCAL/MOL
REMARK 923 INTER-LIGAND FREE ENERGY PREDICTED BY IDOCK:   -6.02 KCAL/MOL
REMARK 924 INTRA-LIGAND FREE ENERGY PREDICTED BY IDOCK:   -1.20 KCAL/MOL
REMARK 927      BINDING AFFINITY PREDICTED BY RF-SCORE:    0.00 PKD
ROOT
HETATM    1  O   UNL     1      -6.171   7.839  68.599  1.00  0.00    -0.034 OA 
HETATM    2  H   UNL     1      -5.804   8.424  69.252  1.00  0.00     0.000 HD 
HETATM    3  C   UNL     1      -7.582   7.713  68.784  1.00  0.00    -0.102 C  
ENDROOT
BRANCH   3   4
HETATM    4  C   UNL     1      -8.179   6.763  67.723  1.00  0.00    -0.120 C  
HETATM    5  O   UNL     1      -9.167   5.868  68.265  1.00  0.00    -0.117 OA 
HETATM    6  C   UNL     1     -10.485   6.393  68.439  1.00  0.00    -0.222 C  
HETATM    7  H   UNL     1      -9.555   9.859  66.949  1.00  0.00     0.000 HD 
HETATM    8  C   UNL     1     -11.042   6.900  67.090  1.00  0.00    -0.292 C  
HETATM    9  O   UNL     1     -11.171   5.839  66.136  1.00  0.00    -0.735 OA 
HETATM   10  H   UNL     1      -8.096   8.966  65.264  1.00  0.00     0.000 HD 
HETATM   11  C   UNL     1     -10.108   7.976  66.527  1.00  0.00    -0.200 C  
HETATM   12  C   UNL     1      -8.665   7.462  66.435  1.00  0.00    -0.142 C  
HETATM   13  O   UNL     1     -10.135   9.192  67.298  1.00  0.00    -0.198 OA 
HETATM   14  H   UNL     1     -11.513   6.150  65.306  1.00  0.00     0.000 HD 
HETATM   15  O   UNL     1      -7.797   8.536  66.057  1.00  0.00    -0.094 OA 
BRANCH   6  16
HETATM   16  O   UNL     1     -10.471   7.379  69.470  1.00  0.00    -0.221 OA 
BRANCH  16  17
HETATM   17  C   UNL     1     -11.488   7.320  70.491  1.00  0.00    -0.279 C  
HETATM   18  O   UNL     1     -12.519   5.989  72.271  1.00  0.00    -0.453 OA 
HETATM   19  C   UNL     1     -11.400   6.065  71.376  1.00  0.00    -0.236 C  
HETATM   20  H   UNL     1     -12.464   5.214  72.817  1.00  0.00     0.000 HD 
HETATM   21  C   UNL     1     -10.030   7.385  73.013  1.00  0.00    -0.249 C  
HETATM   22  O   UNL     1      -8.967   5.929  71.335  1.00  0.00    -0.139 OA 
HETATM   23  C   UNL     1     -10.101   6.079  72.192  1.00  0.00    -0.181 C  
HETATM   24  O   UNL     1     -10.978   7.418  74.068  1.00  0.00    -0.520 OA 
HETATM   25  O   UNL     1     -10.146   8.544  72.182  1.00  0.00    -0.276 OA 
HETATM   26  H   UNL     1      -8.162   5.938  71.839  1.00  0.00     0.000 HD 
HETATM   27  H   UNL     1     -10.935   8.221  74.573  1.00  0.00     0.000 HD 
HETATM   28  C   UNL     1     -11.300   8.606  71.335  1.00  0.00    -0.284 C  
BRANCH  28  29
HETATM   29  C   UNL     1     -12.565   9.069  72.074  1.00  0.00    -0.394 C  
HETATM   30  O   UNL     1     -13.728   8.814  71.288  1.00  0.00    -0.534 OA 
HETATM   31  H   UNL     1     -14.510   9.100  71.745  1.00  0.00     0.000 HD 
ENDBRANCH  28  29
ENDBRANCH  16  17
ENDBRANCH   6  16
ENDBRANCH   3   4
TORSDOF 4
ENDMDL
MODEL       70
REMARK 921   NORMALIZED FREE ENERGY PREDICTED BY IDOCK:   -4.77 KCAL/MOL
REMARK 922        TOTAL FREE ENERGY PREDICTED BY IDOCK:   -7.20 KCAL/MOL
REMARK 923 INTER-LIGAND FREE ENERGY PREDICTED BY IDOCK:   -5.80 KCAL/MOL
REMARK 924 INTRA-LIGAND FREE ENERGY PREDICTED BY IDOCK:   -1.39 KCAL/MOL
REMARK 927      BINDING AFFINITY PREDICTED BY RF-SCORE:    0.00 PKD
ROOT
HETATM    1  O   UNL     1      -8.362   8.756  72.655  1.00  0.00    -0.407 OA 
HETATM    2  H   UNL     1      -7.461   8.835  72.367  1.00  0.00     0.000 HD 
HETATM    3  C   UNL     1      -8.652   7.405  73.017  1.00  0.00    -0.129 C  
ENDROOT
BRANCH   3   4
HETATM    4  C   UNL     1     -10.118   7.277  73.486  1.00  0.00    -0.340 C  
HETATM    5  O   UNL     1     -11.006   8.174  72.797  1.00  0.00    -0.369 OA 
HETATM    6  C   UNL     1     -11.455   7.767  71.502  1.00  0.00    -0.264 C  
HETATM    7  H   UNL     1      -9.565   4.376  71.654  1.00  0.00     0.000 HD 
HETATM    8  C   UNL     1     -12.183   6.407  71.591  1.00  0.00    -0.213 C  
HETATM    9  O   UNL     1     -13.362   6.488  72.402  1.00  0.00    -0.483 OA 
HETATM   10  H   UNL     1      -9.991   4.016  73.990  1.00  0.00     0.000 HD 
HETATM   11  C   UNL     1     -11.234   5.360  72.181  1.00  0.00    -0.130 C  
HETATM   12  C   UNL     1     -10.658   5.831  73.523  1.00  0.00    -0.269 C  
HETATM   13  O   UNL     1     -10.155   5.025  71.288  1.00  0.00    -0.190 OA 
HETATM   14  H   UNL     1     -13.809   5.652  72.457  1.00  0.00     0.000 HD 
HETATM   15  O   UNL     1      -9.659   4.906  73.966  1.00  0.00    -0.126 OA 
BRANCH   6  16
HETATM   16  O   UNL     1     -10.356   7.781  70.592  1.00  0.00    -0.200 OA 
BRANCH  16  17
HETATM   17  C   UNL     1     -10.631   7.926  69.184  1.00  0.00    -0.173 C  
HETATM   18  O   UNL     1     -11.070   9.477  67.339  1.00  0.00    -0.399 OA 
HETATM   19  C   UNL     1     -10.646   9.388  68.707  1.00  0.00    -0.208 C  
HETATM   20  H   UNL     1     -11.079  10.380  67.045  1.00  0.00     0.000 HD 
HETATM   21  C   UNL     1      -8.232   9.145  68.068  1.00  0.00    -0.112 C  
HETATM   22  O   UNL     1      -8.892  10.139  70.223  1.00  0.00    -0.339 OA 
HETATM   23  C   UNL     1      -9.250  10.008  68.845  1.00  0.00    -0.169 C  
HETATM   24  O   UNL     1      -8.400   9.238  66.662  1.00  0.00    -0.120 OA 
HETATM   25  O   UNL     1      -8.251   7.781  68.498  1.00  0.00    -0.125 OA 
HETATM   26  H   UNL     1      -8.028  10.523  70.309  1.00  0.00     0.000 HD 
HETATM   27  H   UNL     1      -7.774   8.707  66.184  1.00  0.00     0.000 HD 
HETATM   28  C   UNL     1      -9.522   7.120  68.462  1.00  0.00    -0.139 C  
BRANCH  28  29
HETATM   29  C   UNL     1      -9.906   6.632  67.057  1.00  0.00    -0.160 C  
HETATM   30  O   UNL     1     -11.324   6.618  66.901  1.00  0.00    -0.738 OA 
HETATM   31  H   UNL     1     -11.562   6.316  66.032  1.00  0.00     0.000 HD 
ENDBRANCH  28  29
ENDBRANCH  16  17
ENDBRANCH   6  16
ENDBRANCH   3   4
TORSDOF 4
ENDMDL
MODEL       71
REMARK 921   NORMALIZED FREE ENERGY PREDICTED BY IDOCK:   -4.75 KCAL/MOL
REMARK 922        TOTAL FREE ENERGY PREDICTED BY IDOCK:   -7.17 KCAL/MOL
REMARK 923 INTER-LIGAND FREE ENERGY PREDICTED BY IDOCK:   -6.10 KCAL/MOL
REMARK 924 INTRA-LIGAND FREE ENERGY PREDICTED BY IDOCK:   -1.07 KCAL/MOL
REMARK 927      BINDING AFFINITY PREDICTED BY RF-SCORE:    0.00 PKD
ROOT
HETATM    1  O   UNL     1      -9.731  11.183  65.089  1.00  0.00    -0.226 OA 
HETATM    2  H   UNL     1      -9.060  10.551  64.861  1.00  0.00     0.000 HD 
HETATM    3  C   UNL     1     -10.293  10.873  66.365  1.00  0.00    -0.251 C  
ENDROOT
BRANCH   3   4
HETATM    4  C   UNL     1     -11.384  11.901  66.736  1.00  0.00    -0.330 C  
HETATM    5  O   UNL     1     -12.267  11.433  67.770  1.00  0.00    -0.537 OA 
HETATM    6  C   UNL     1     -11.799  11.545  69.116  1.00  0.00    -0.340 C  
HETATM    7  H   UNL     1      -8.471  13.252  68.064  1.00  0.00     0.000 HD 
HETATM    8  C   UNL     1     -11.473  13.019  69.448  1.00  0.00    -0.261 C  
HETATM    9  O   UNL     1     -12.638  13.850  69.372  1.00  0.00    -0.389 OA 
HETATM   10  H   UNL     1      -9.462  14.551  66.304  1.00  0.00     0.000 HD 
HETATM   11  C   UNL     1     -10.416  13.538  68.469  1.00  0.00    -0.244 C  
HETATM   12  C   UNL     1     -10.858  13.325  67.015  1.00  0.00    -0.269 C  
HETATM   13  O   UNL     1      -9.127  12.931  68.672  1.00  0.00    -0.096 OA 
HETATM   14  H   UNL     1     -12.438  14.756  69.575  1.00  0.00     0.000 HD 
HETATM   15  O   UNL     1      -9.785  13.674  66.133  1.00  0.00    -0.285 OA 
BRANCH   6  16
HETATM   16  O   UNL     1     -10.707  10.649  69.316  1.00  0.00    -0.209 OA 
BRANCH  16  17
HETATM   17  C   UNL     1     -10.993   9.246  69.489  1.00  0.00    -0.151 C  
HETATM   18  O   UNL     1     -10.125   6.958  69.381  1.00  0.00    -0.161 OA 
HETATM   19  C   UNL     1      -9.756   8.343  69.348  1.00  0.00    -0.177 C  
HETATM   20  H   UNL     1      -9.360   6.401  69.294  1.00  0.00     0.000 HD 
HETATM   21  C   UNL     1      -9.466   8.448  71.838  1.00  0.00    -0.253 C  
HETATM   22  O   UNL     1      -8.199   9.936  70.338  1.00  0.00    -0.274 OA 
HETATM   23  C   UNL     1      -8.757   8.627  70.477  1.00  0.00    -0.162 C  
HETATM   24  O   UNL     1      -9.770   7.091  72.120  1.00  0.00    -0.149 OA 
HETATM   25  O   UNL     1     -10.633   9.268  71.944  1.00  0.00    -0.324 OA 
HETATM   26  H   UNL     1      -7.582  10.112  71.038  1.00  0.00     0.000 HD 
HETATM   27  H   UNL     1     -10.205   6.980  72.956  1.00  0.00     0.000 HD 
HETATM   28  C   UNL     1     -11.609   9.122  70.906  1.00  0.00    -0.291 C  
BRANCH  28  29
HETATM   29  C   UNL     1     -12.513   7.895  71.098  1.00  0.00    -0.203 C  
HETATM   30  O   UNL     1     -12.770   7.672  72.483  1.00  0.00    -0.519 OA 
HETATM   31  H   UNL     1     -13.329   6.913  72.602  1.00  0.00     0.000 HD 
ENDBRANCH  28  29
ENDBRANCH  16  17
ENDBRANCH   6  16
ENDBRANCH   3   4
TORSDOF 4
ENDMDL
MODEL       72
REMARK 921   NORMALIZED FREE ENERGY PREDICTED BY IDOCK:   -4.73 KCAL/MOL
REMARK 922        TOTAL FREE ENERGY PREDICTED BY IDOCK:   -7.14 KCAL/MOL
REMARK 923 INTER-LIGAND FREE ENERGY PREDICTED BY IDOCK:   -6.34 KCAL/MOL
REMARK 924 INTRA-LIGAND FREE ENERGY PREDICTED BY IDOCK:   -0.80 KCAL/MOL
REMARK 927      BINDING AFFINITY PREDICTED BY RF-SCORE:    0.00 PKD
ROOT
HETATM    1  O   UNL     1      -6.659  12.263  68.800  1.00  0.00    -0.072 OA 
HETATM    2  H   UNL     1      -7.074  11.598  69.336  1.00  0.00     0.000 HD 
HETATM    3  C   UNL     1      -7.319  13.519  68.969  1.00  0.00     0.004 C  
ENDROOT
BRANCH   3   4
HETATM    4  C   UNL     1      -6.644  14.601  68.098  1.00  0.00    -0.134 C  
HETATM    5  O   UNL     1      -7.109  14.595  66.736  1.00  0.00     0.186 OA 
HETATM    6  C   UNL     1      -8.351  15.255  66.477  1.00  0.00    -0.089 C  
HETATM    7  H   UNL     1      -8.782  16.400  70.165  1.00  0.00     0.000 HD 
HETATM    8  C   UNL     1      -8.268  16.737  66.908  1.00  0.00    -0.210 C  
HETATM    9  O   UNL     1      -7.282  17.455  66.156  1.00  0.00    -0.285 OA 
HETATM   10  H   UNL     1      -6.448  16.851  70.507  1.00  0.00     0.000 HD 
HETATM   11  C   UNL     1      -7.923  16.814  68.398  1.00  0.00    -0.224 C  
HETATM   12  C   UNL     1      -6.649  16.017  68.712  1.00  0.00    -0.126 C  
HETATM   13  O   UNL     1      -8.996  16.352  69.241  1.00  0.00    -0.229 OA 
HETATM   14  H   UNL     1      -7.232  18.365  66.421  1.00  0.00     0.000 HD 
HETATM   15  O   UNL     1      -6.445  15.979  70.129  1.00  0.00    -0.105 OA 
BRANCH   6  16
HETATM   16  O   UNL     1      -9.413  14.528  67.091  1.00  0.00    -0.216 OA 
BRANCH  16  17
HETATM   17  C   UNL     1      -9.874  13.318  66.458  1.00  0.00    -0.281 C  
HETATM   18  O   UNL     1     -11.324  11.351  66.625  1.00  0.00    -0.355 OA 
HETATM   19  C   UNL     1     -11.012  12.619  67.220  1.00  0.00    -0.256 C  
HETATM   20  H   UNL     1     -12.028  10.920  67.096  1.00  0.00     0.000 HD 
HETATM   21  C   UNL     1     -12.655  13.838  65.767  1.00  0.00    -0.480 C  
HETATM   22  O   UNL     1     -12.056  14.677  68.004  1.00  0.00    -0.544 OA 
HETATM   23  C   UNL     1     -12.269  13.498  67.223  1.00  0.00    -0.260 C  
HETATM   24  O   UNL     1     -13.150  12.713  65.057  1.00  0.00    -0.808 OA 
HETATM   25  O   UNL     1     -11.577  14.458  65.060  1.00  0.00    -0.343 OA 
HETATM   26  H   UNL     1     -12.834  15.222  68.006  1.00  0.00     0.000 HD 
HETATM   27  H   UNL     1     -13.387  12.922  64.162  1.00  0.00     0.000 HD 
HETATM   28  C   UNL     1     -10.335  13.743  65.041  1.00  0.00    -0.382 C  
BRANCH  28  29
HETATM   29  C   UNL     1     -10.305  12.614  64.000  1.00  0.00    -0.389 C  
HETATM   30  O   UNL     1     -11.351  12.784  63.044  1.00  0.00    -0.746 OA 
HETATM   31  H   UNL     1     -11.333  12.086  62.401  1.00  0.00     0.000 HD 
ENDBRANCH  28  29
ENDBRANCH  16  17
ENDBRANCH   6  16
ENDBRANCH   3   4
TORSDOF 4
ENDMDL
MODEL       73
REMARK 921   NORMALIZED FREE ENERGY PREDICTED BY IDOCK:   -4.72 KCAL/MOL
REMARK 922        TOTAL FREE ENERGY PREDICTED BY IDOCK:   -7.14 KCAL/MOL
REMARK 923 INTER-LIGAND FREE ENERGY PREDICTED BY IDOCK:   -6.04 KCAL/MOL
REMARK 924 INTRA-LIGAND FREE ENERGY PREDICTED BY IDOCK:   -1.10 KCAL/MOL
REMARK 927      BINDING AFFINITY PREDICTED BY RF-SCORE:    0.00 PKD
ROOT
HETATM    1  O   UNL     1      -7.695  10.835  69.984  1.00  0.00    -0.367 OA 
HETATM    2  H   UNL     1      -7.796  11.371  70.761  1.00  0.00     0.000 HD 
HETATM    3  C   UNL     1      -8.528  11.324  68.932  1.00  0.00    -0.058 C  
ENDROOT
BRANCH   3   4
HETATM    4  C   UNL     1      -8.363  10.453  67.668  1.00  0.00    -0.114 C  
HETATM    5  O   UNL     1      -8.221   9.053  67.967  1.00  0.00    -0.109 OA 
HETATM    6  C   UNL     1      -9.424   8.326  68.229  1.00  0.00    -0.138 C  
HETATM    7  H   UNL     1     -11.704  11.409  67.598  1.00  0.00     0.000 HD 
HETATM    8  C   UNL     1     -10.383   8.424  67.021  1.00  0.00    -0.315 C  
HETATM    9  O   UNL     1      -9.819   7.829  65.845  1.00  0.00    -0.424 OA 
HETATM   10  H   UNL     1     -10.382  12.264  65.785  1.00  0.00     0.000 HD 
HETATM   11  C   UNL     1     -10.699   9.896  66.742  1.00  0.00    -0.084 C  
HETATM   12  C   UNL     1      -9.411  10.713  66.565  1.00  0.00    -0.169 C  
HETATM   13  O   UNL     1     -11.508  10.495  67.771  1.00  0.00    -0.443 OA 
HETATM   14  H   UNL     1     -10.408   7.890  65.103  1.00  0.00     0.000 HD 
HETATM   15  O   UNL     1      -9.737  12.104  66.464  1.00  0.00    -0.212 OA 
BRANCH   6  16
HETATM   16  O   UNL     1      -9.991   8.772  69.460  1.00  0.00    -0.186 OA 
BRANCH  16  17
HETATM   17  C   UNL     1     -10.947   7.923  70.125  1.00  0.00    -0.233 C  
HETATM   18  O   UNL     1     -11.364   5.750  71.175  1.00  0.00    -0.215 OA 
HETATM   19  C   UNL     1     -10.342   6.614  70.660  1.00  0.00    -0.202 C  
HETATM   20  H   UNL     1     -10.990   4.942  71.506  1.00  0.00     0.000 HD 
HETATM   21  C   UNL     1     -10.011   7.742  72.878  1.00  0.00    -0.279 C  
HETATM   22  O   UNL     1      -8.181   7.584  71.236  1.00  0.00    -0.099 OA 
HETATM   23  C   UNL     1      -9.325   6.912  71.769  1.00  0.00    -0.145 C  
HETATM   24  O   UNL     1     -10.960   6.986  73.615  1.00  0.00    -0.543 OA 
HETATM   25  O   UNL     1     -10.599   8.939  72.361  1.00  0.00    -0.261 OA 
HETATM   26  H   UNL     1      -7.552   7.769  71.923  1.00  0.00     0.000 HD 
HETATM   27  H   UNL     1     -11.381   7.496  74.297  1.00  0.00     0.000 HD 
HETATM   28  C   UNL     1     -11.525   8.779  71.280  1.00  0.00    -0.292 C  
BRANCH  28  29
HETATM   29  C   UNL     1     -12.925   8.351  71.746  1.00  0.00    -0.344 C  
HETATM   30  O   UNL     1     -13.182   8.824  73.067  1.00  0.00    -0.805 OA 
HETATM   31  H   UNL     1     -14.047   8.559  73.356  1.00  0.00     0.000 HD 
ENDBRANCH  28  29
ENDBRANCH  16  17
ENDBRANCH   6  16
ENDBRANCH   3   4
TORSDOF 4
ENDMDL
MODEL       74
REMARK 921   NORMALIZED FREE ENERGY PREDICTED BY IDOCK:   -4.71 KCAL/MOL
REMARK 922        TOTAL FREE ENERGY PREDICTED BY IDOCK:   -7.13 KCAL/MOL
REMARK 923 INTER-LIGAND FREE ENERGY PREDICTED BY IDOCK:   -5.73 KCAL/MOL
REMARK 924 INTRA-LIGAND FREE ENERGY PREDICTED BY IDOCK:   -1.40 KCAL/MOL
REMARK 927      BINDING AFFINITY PREDICTED BY RF-SCORE:    0.00 PKD
ROOT
HETATM    1  O   UNL     1     -12.005  10.684  68.673  1.00  0.00    -0.706 OA 
HETATM    2  H   UNL     1     -12.891  10.373  68.531  1.00  0.00     0.000 HD 
HETATM    3  C   UNL     1     -11.127  10.151  67.678  1.00  0.00    -0.206 C  
ENDROOT
BRANCH   3   4
HETATM    4  C   UNL     1      -9.686  10.656  67.909  1.00  0.00    -0.161 C  
HETATM    5  O   UNL     1      -9.357  10.794  69.303  1.00  0.00    -0.167 OA 
HETATM    6  C   UNL     1      -8.979   9.602  69.996  1.00  0.00    -0.237 C  
HETATM    7  H   UNL     1      -9.266   7.383  66.820  1.00  0.00     0.000 HD 
HETATM    8  C   UNL     1      -7.753   8.953  69.315  1.00  0.00    -0.094 C  
HETATM    9  O   UNL     1      -6.604   9.810  69.362  1.00  0.00    -0.046 OA 
HETATM   10  H   UNL     1      -8.388   9.051  65.332  1.00  0.00     0.000 HD 
HETATM   11  C   UNL     1      -8.090   8.638  67.855  1.00  0.00    -0.108 C  
HETATM   12  C   UNL     1      -8.602   9.887  67.124  1.00  0.00    -0.125 C  
HETATM   13  O   UNL     1      -9.056   7.578  67.726  1.00  0.00    -0.130 OA 
HETATM   14  H   UNL     1      -5.851   9.411  68.943  1.00  0.00     0.000 HD 
HETATM   15  O   UNL     1      -9.055   9.524  65.816  1.00  0.00    -0.168 OA 
BRANCH   6  16
HETATM   16  O   UNL     1     -10.109   8.738  70.106  1.00  0.00    -0.178 OA 
BRANCH  16  17
HETATM   17  C   UNL     1     -10.121   7.754  71.160  1.00  0.00    -0.187 C  
HETATM   18  O   UNL     1     -10.692   7.266  73.491  1.00  0.00    -0.397 OA 
HETATM   19  C   UNL     1     -10.842   8.224  72.434  1.00  0.00    -0.351 C  
HETATM   20  H   UNL     1     -11.138   7.557  74.278  1.00  0.00     0.000 HD 
HETATM   21  C   UNL     1     -12.936   7.135  71.582  1.00  0.00    -0.370 C  
HETATM   22  O   UNL     1     -12.526   9.543  71.267  1.00  0.00    -0.315 OA 
HETATM   23  C   UNL     1     -12.335   8.438  72.153  1.00  0.00    -0.370 C  
HETATM   24  O   UNL     1     -13.018   6.102  72.553  1.00  0.00    -0.498 OA 
HETATM   25  O   UNL     1     -12.236   6.691  70.417  1.00  0.00    -0.332 OA 
HETATM   26  H   UNL     1     -13.451   9.676  71.093  1.00  0.00     0.000 HD 
HETATM   27  H   UNL     1     -13.388   5.301  72.201  1.00  0.00     0.000 HD 
HETATM   28  C   UNL     1     -10.821   6.511  70.554  1.00  0.00    -0.271 C  
BRANCH  28  29
HETATM   29  C   UNL     1     -10.446   5.182  71.228  1.00  0.00    -0.175 C  
HETATM   30  O   UNL     1      -9.156   5.271  71.831  1.00  0.00    -0.136 OA 
HETATM   31  H   UNL     1      -8.924   4.449  72.247  1.00  0.00     0.000 HD 
ENDBRANCH  28  29
ENDBRANCH  16  17
ENDBRANCH   6  16
ENDBRANCH   3   4
TORSDOF 4
ENDMDL
MODEL       75
REMARK 921   NORMALIZED FREE ENERGY PREDICTED BY IDOCK:   -4.70 KCAL/MOL
REMARK 922        TOTAL FREE ENERGY PREDICTED BY IDOCK:   -7.11 KCAL/MOL
REMARK 923 INTER-LIGAND FREE ENERGY PREDICTED BY IDOCK:   -5.83 KCAL/MOL
REMARK 924 INTRA-LIGAND FREE ENERGY PREDICTED BY IDOCK:   -1.28 KCAL/MOL
REMARK 927      BINDING AFFINITY PREDICTED BY RF-SCORE:    0.00 PKD
ROOT
HETATM    1  O   UNL     1     -10.074  10.900  68.857  1.00  0.00    -0.187 OA 
HETATM    2  H   UNL     1      -9.392  11.030  69.505  1.00  0.00     0.000 HD 
HETATM    3  C   UNL     1      -9.573  11.176  67.547  1.00  0.00    -0.168 C  
ENDROOT
BRANCH   3   4
HETATM    4  C   UNL     1     -10.682  10.964  66.493  1.00  0.00    -0.209 C  
HETATM    5  O   UNL     1     -11.981  11.374  66.957  1.00  0.00    -0.492 OA 
HETATM    6  C   UNL     1     -12.277  12.771  66.890  1.00  0.00    -0.039 C  
HETATM    7  H   UNL     1      -8.860  13.658  65.267  1.00  0.00     0.000 HD 
HETATM    8  C   UNL     1     -12.148  13.276  65.435  1.00  0.00    -0.422 C  
HETATM    9  O   UNL     1     -13.091  12.638  64.565  1.00  0.00    -0.763 OA 
HETATM   10  H   UNL     1      -8.774  11.687  63.898  1.00  0.00     0.000 HD 
HETATM   11  C   UNL     1     -10.728  13.006  64.928  1.00  0.00    -0.332 C  
HETATM   12  C   UNL     1     -10.355  11.526  65.094  1.00  0.00    -0.278 C  
HETATM   13  O   UNL     1      -9.741  13.825  65.581  1.00  0.00    -0.221 OA 
HETATM   14  H   UNL     1     -13.012  12.948  63.672  1.00  0.00     0.000 HD 
HETATM   15  O   UNL     1      -8.975  11.341  64.759  1.00  0.00    -0.093 OA 
BRANCH   6  16
HETATM   16  O   UNL     1     -11.462  13.475  67.825  1.00  0.00    -0.280 OA 
BRANCH  16  17
HETATM   17  C   UNL     1     -11.900  14.771  68.280  1.00  0.00    -0.284 C  
HETATM   18  O   UNL     1     -13.281  16.016  69.874  1.00  0.00    -0.479 OA 
HETATM   19  C   UNL     1     -12.755  14.720  69.557  1.00  0.00     0.133 C  
HETATM   20  H   UNL     1     -13.809  15.983  70.664  1.00  0.00     0.000 HD 
HETATM   21  C   UNL     1     -10.670  15.108  70.899  1.00  0.00    -0.015 C  
HETATM   22  O   UNL     1     -11.564  12.839  70.550  1.00  0.00    -0.500 OA 
HETATM   23  C   UNL     1     -11.918  14.212  70.738  1.00  0.00    -0.306 C  
HETATM   24  O   UNL     1     -10.990  16.408  71.371  1.00  0.00     0.108 OA 
HETATM   25  O   UNL     1      -9.902  15.174  69.695  1.00  0.00    -0.219 OA 
HETATM   26  H   UNL     1     -11.046  12.525  71.281  1.00  0.00     0.000 HD 
HETATM   27  H   UNL     1     -10.223  16.959  71.470  1.00  0.00     0.000 HD 
HETATM   28  C   UNL     1     -10.602  15.586  68.515  1.00  0.00    -0.246 C  
BRANCH  28  29
HETATM   29  C   UNL     1     -10.785  17.108  68.424  1.00  0.00    -0.347 C  
HETATM   30  O   UNL     1      -9.846  17.778  69.263  1.00  0.00    -0.190 OA 
HETATM   31  H   UNL     1      -9.959  18.719  69.207  1.00  0.00     0.000 HD 
ENDBRANCH  28  29
ENDBRANCH  16  17
ENDBRANCH   6  16
ENDBRANCH   3   4
TORSDOF 4
ENDMDL
MODEL       76
REMARK 921   NORMALIZED FREE ENERGY PREDICTED BY IDOCK:   -4.70 KCAL/MOL
REMARK 922        TOTAL FREE ENERGY PREDICTED BY IDOCK:   -7.11 KCAL/MOL
REMARK 923 INTER-LIGAND FREE ENERGY PREDICTED BY IDOCK:   -6.07 KCAL/MOL
REMARK 924 INTRA-LIGAND FREE ENERGY PREDICTED BY IDOCK:   -1.04 KCAL/MOL
REMARK 927      BINDING AFFINITY PREDICTED BY RF-SCORE:    0.00 PKD
ROOT
HETATM    1  O   UNL     1     -10.977   9.062  68.234  1.00  0.00    -0.464 OA 
HETATM    2  H   UNL     1     -11.915   8.917  68.208  1.00  0.00     0.000 HD 
HETATM    3  C   UNL     1     -10.389   8.732  66.974  1.00  0.00    -0.283 C  
ENDROOT
BRANCH   3   4
HETATM    4  C   UNL     1      -8.863   8.969  67.016  1.00  0.00    -0.119 C  
HETATM    5  O   UNL     1      -8.473  10.214  66.409  1.00  0.00    -0.128 OA 
HETATM    6  C   UNL     1      -8.609  11.391  67.210  1.00  0.00    -0.146 C  
HETATM    7  H   UNL     1      -9.873   9.419  70.310  1.00  0.00     0.000 HD 
HETATM    8  C   UNL     1      -7.783  11.253  68.508  1.00  0.00    -0.131 C  
HETATM    9  O   UNL     1      -6.381  11.131  68.234  1.00  0.00    -0.049 OA 
HETATM   10  H   UNL     1      -8.416   7.543  69.960  1.00  0.00     0.000 HD 
HETATM   11  C   UNL     1      -8.256  10.021  69.284  1.00  0.00    -0.147 C  
HETATM   12  C   UNL     1      -8.218   8.765  68.403  1.00  0.00    -0.118 C  
HETATM   13  O   UNL     1      -9.579  10.184  69.829  1.00  0.00    -0.222 OA 
HETATM   14  H   UNL     1      -5.873  11.047  69.032  1.00  0.00     0.000 HD 
HETATM   15  O   UNL     1      -8.813   7.669  69.106  1.00  0.00    -0.138 OA 
BRANCH   6  16
HETATM   16  O   UNL     1      -9.993  11.659  67.427  1.00  0.00    -0.182 OA 
BRANCH  16  17
HETATM   17  C   UNL     1     -10.589  12.785  66.750  1.00  0.00    -0.252 C  
HETATM   18  O   UNL     1     -12.550  14.239  66.546  1.00  0.00    -0.545 OA 
HETATM   19  C   UNL     1     -11.939  13.219  67.348  1.00  0.00    -0.335 C  
HETATM   20  H   UNL     1     -13.383  14.507  66.915  1.00  0.00     0.000 HD 
HETATM   21  C   UNL     1     -10.712  14.893  68.757  1.00  0.00    -0.252 C  
HETATM   22  O   UNL     1     -11.347  12.688  69.652  1.00  0.00    -0.439 OA 
HETATM   23  C   UNL     1     -11.745  13.745  68.775  1.00  0.00    -0.356 C  
HETATM   24  O   UNL     1     -11.211  16.066  68.133  1.00  0.00    -0.343 OA 
HETATM   25  O   UNL     1      -9.473  14.486  68.170  1.00  0.00    -0.196 OA 
HETATM   26  H   UNL     1     -11.227  13.014  70.536  1.00  0.00     0.000 HD 
HETATM   27  H   UNL     1     -10.576  16.772  68.122  1.00  0.00     0.000 HD 
HETATM   28  C   UNL     1      -9.546  13.927  66.853  1.00  0.00    -0.269 C  
BRANCH  28  29
HETATM   29  C   UNL     1      -9.663  14.992  65.752  1.00  0.00    -0.340 C  
HETATM   30  O   UNL     1     -10.026  14.392  64.509  1.00  0.00    -0.614 OA 
HETATM   31  H   UNL     1     -10.098  15.050  63.828  1.00  0.00     0.000 HD 
ENDBRANCH  28  29
ENDBRANCH  16  17
ENDBRANCH   6  16
ENDBRANCH   3   4
TORSDOF 4
ENDMDL
MODEL       77
REMARK 921   NORMALIZED FREE ENERGY PREDICTED BY IDOCK:   -4.69 KCAL/MOL
REMARK 922        TOTAL FREE ENERGY PREDICTED BY IDOCK:   -7.09 KCAL/MOL
REMARK 923 INTER-LIGAND FREE ENERGY PREDICTED BY IDOCK:   -6.57 KCAL/MOL
REMARK 924 INTRA-LIGAND FREE ENERGY PREDICTED BY IDOCK:   -0.52 KCAL/MOL
REMARK 927      BINDING AFFINITY PREDICTED BY RF-SCORE:    0.00 PKD
ROOT
HETATM    1  O   UNL     1      -6.941  11.171  67.159  1.00  0.00    -0.095 OA 
HETATM    2  H   UNL     1      -6.658  10.938  66.283  1.00  0.00     0.000 HD 
HETATM    3  C   UNL     1      -8.336  10.906  67.316  1.00  0.00    -0.123 C  
ENDROOT
BRANCH   3   4
HETATM    4  C   UNL     1      -8.796  11.285  68.741  1.00  0.00    -0.102 C  
HETATM    5  O   UNL     1      -9.478  12.551  68.792  1.00  0.00    -0.056 OA 
HETATM    6  C   UNL     1     -10.858  12.554  68.418  1.00  0.00    -0.243 C  
HETATM    7  H   UNL     1     -10.948   8.716  67.818  1.00  0.00     0.000 HD 
HETATM    8  C   UNL     1     -11.659  11.585  69.317  1.00  0.00    -0.322 C  
HETATM    9  O   UNL     1     -11.629  11.990  70.692  1.00  0.00    -0.423 OA 
HETATM   10  H   UNL     1      -9.501   8.194  69.663  1.00  0.00     0.000 HD 
HETATM   11  C   UNL     1     -11.074  10.175  69.191  1.00  0.00    -0.212 C  
HETATM   12  C   UNL     1      -9.568  10.174  69.485  1.00  0.00    -0.221 C  
HETATM   13  O   UNL     1     -11.310   9.591  67.897  1.00  0.00     0.023 OA 
HETATM   14  H   UNL     1     -12.120  11.394  71.244  1.00  0.00     0.000 HD 
HETATM   15  O   UNL     1      -9.027   8.878  69.205  1.00  0.00    -0.140 OA 
BRANCH   6  16
HETATM   16  O   UNL     1     -10.973  12.281  67.022  1.00  0.00    -0.246 OA 
BRANCH  16  17
HETATM   17  C   UNL     1     -10.288  13.148  66.094  1.00  0.00    -0.284 C  
HETATM   18  O   UNL     1      -9.825  13.663  63.745  1.00  0.00    -0.273 OA 
HETATM   19  C   UNL     1     -10.643  12.877  64.623  1.00  0.00    -0.363 C  
HETATM   20  H   UNL     1     -10.044  13.495  62.836  1.00  0.00     0.000 HD 
HETATM   21  C   UNL     1     -12.400  14.662  64.777  1.00  0.00    -0.351 C  
HETATM   22  O   UNL     1     -12.966  12.281  65.056  1.00  0.00    -0.582 OA 
HETATM   23  C   UNL     1     -12.120  13.201  64.362  1.00  0.00    -0.410 C  
HETATM   24  O   UNL     1     -11.789  15.602  63.906  1.00  0.00    -0.974 OA 
HETATM   25  O   UNL     1     -12.035  14.909  66.138  1.00  0.00    -0.211 OA 
HETATM   26  H   UNL     1     -13.881  12.482  64.895  1.00  0.00     0.000 HD 
HETATM   27  H   UNL     1     -11.961  16.501  64.162  1.00  0.00     0.000 HD 
HETATM   28  C   UNL     1     -10.688  14.588  66.504  1.00  0.00    -0.312 C  
BRANCH  28  29
HETATM   29  C   UNL     1      -9.677  15.668  66.087  1.00  0.00    -0.318 C  
HETATM   30  O   UNL     1      -8.342  15.177  66.200  1.00  0.00    -0.327 OA 
HETATM   31  H   UNL     1      -7.718  15.844  65.943  1.00  0.00     0.000 HD 
ENDBRANCH  28  29
ENDBRANCH  16  17
ENDBRANCH   6  16
ENDBRANCH   3   4
TORSDOF 4
ENDMDL
MODEL       78
REMARK 921   NORMALIZED FREE ENERGY PREDICTED BY IDOCK:   -4.67 KCAL/MOL
REMARK 922        TOTAL FREE ENERGY PREDICTED BY IDOCK:   -7.07 KCAL/MOL
REMARK 923 INTER-LIGAND FREE ENERGY PREDICTED BY IDOCK:   -6.09 KCAL/MOL
REMARK 924 INTRA-LIGAND FREE ENERGY PREDICTED BY IDOCK:   -0.99 KCAL/MOL
REMARK 927      BINDING AFFINITY PREDICTED BY RF-SCORE:    0.00 PKD
ROOT
HETATM    1  O   UNL     1      -9.638  14.167  68.241  1.00  0.00    -0.214 OA 
HETATM    2  H   UNL     1      -9.031  14.076  68.966  1.00  0.00     0.000 HD 
HETATM    3  C   UNL     1      -8.927  14.259  67.006  1.00  0.00    -0.236 C  
ENDROOT
BRANCH   3   4
HETATM    4  C   UNL     1      -9.914  14.406  65.828  1.00  0.00    -0.329 C  
HETATM    5  O   UNL     1     -10.071  13.191  65.073  1.00  0.00    -0.284 OA 
HETATM    6  C   UNL     1     -10.964  12.212  65.610  1.00  0.00    -0.295 C  
HETATM    7  H   UNL     1     -11.954  14.432  68.641  1.00  0.00     0.000 HD 
HETATM    8  C   UNL     1     -12.377  12.812  65.781  1.00  0.00    -0.323 C  
HETATM    9  O   UNL     1     -12.943  13.204  64.524  1.00  0.00    -0.688 OA 
HETATM   10  H   UNL     1     -11.946  16.485  67.393  1.00  0.00     0.000 HD 
HETATM   11  C   UNL     1     -12.303  14.031  66.705  1.00  0.00    -0.371 C  
HETATM   12  C   UNL     1     -11.269  15.045  66.199  1.00  0.00    -0.307 C  
HETATM   13  O   UNL     1     -12.000  13.676  68.067  1.00  0.00    -0.360 OA 
HETATM   14  H   UNL     1     -13.812  13.573  64.629  1.00  0.00     0.000 HD 
HETATM   15  O   UNL     1     -11.112  16.091  67.165  1.00  0.00    -0.242 OA 
BRANCH   6  16
HETATM   16  O   UNL     1     -10.411  11.673  66.810  1.00  0.00    -0.212 OA 
BRANCH  16  17
HETATM   17  C   UNL     1      -9.371  10.680  66.702  1.00  0.00    -0.165 C  
HETATM   18  O   UNL     1      -7.216   9.881  67.550  1.00  0.00    -0.087 OA 
HETATM   19  C   UNL     1      -8.295  10.794  67.795  1.00  0.00    -0.113 C  
HETATM   20  H   UNL     1      -6.552   9.951  68.226  1.00  0.00     0.000 HD 
HETATM   21  C   UNL     1      -9.572   9.107  69.147  1.00  0.00    -0.161 C  
HETATM   22  O   UNL     1      -9.827  11.525  69.544  1.00  0.00    -0.336 OA 
HETATM   23  C   UNL     1      -8.903  10.500  69.173  1.00  0.00    -0.151 C  
HETATM   24  O   UNL     1      -8.627   8.051  69.068  1.00  0.00    -0.135 OA 
HETATM   25  O   UNL     1     -10.546   9.004  68.104  1.00  0.00    -0.219 OA 
HETATM   26  H   UNL     1     -10.203  11.343  70.397  1.00  0.00     0.000 HD 
HETATM   27  H   UNL     1      -9.039   7.195  69.052  1.00  0.00     0.000 HD 
HETATM   28  C   UNL     1     -10.096   9.313  66.780  1.00  0.00    -0.261 C  
BRANCH  28  29
HETATM   29  C   UNL     1      -9.335   8.154  66.117  1.00  0.00    -0.166 C  
HETATM   30  O   UNL     1     -10.069   6.936  66.240  1.00  0.00    -0.432 OA 
HETATM   31  H   UNL     1      -9.598   6.220  65.831  1.00  0.00     0.000 HD 
ENDBRANCH  28  29
ENDBRANCH  16  17
ENDBRANCH   6  16
ENDBRANCH   3   4
TORSDOF 4
ENDMDL
MODEL       79
REMARK 921   NORMALIZED FREE ENERGY PREDICTED BY IDOCK:   -4.67 KCAL/MOL
REMARK 922        TOTAL FREE ENERGY PREDICTED BY IDOCK:   -7.07 KCAL/MOL
REMARK 923 INTER-LIGAND FREE ENERGY PREDICTED BY IDOCK:   -6.12 KCAL/MOL
REMARK 924 INTRA-LIGAND FREE ENERGY PREDICTED BY IDOCK:   -0.95 KCAL/MOL
REMARK 927      BINDING AFFINITY PREDICTED BY RF-SCORE:    0.00 PKD
ROOT
HETATM    1  O   UNL     1      -7.992  10.405  63.964  1.00  0.00    -0.232 OA 
HETATM    2  H   UNL     1      -8.622  10.288  63.262  1.00  0.00     0.000 HD 
HETATM    3  C   UNL     1      -8.447   9.754  65.152  1.00  0.00    -0.149 C  
ENDROOT
BRANCH   3   4
HETATM    4  C   UNL     1      -7.423   9.943  66.292  1.00  0.00    -0.102 C  
HETATM    5  O   UNL     1      -7.099  11.324  66.532  1.00  0.00    -0.139 OA 
HETATM    6  C   UNL     1      -8.022  12.073  67.328  1.00  0.00    -0.174 C  
HETATM    7  H   UNL     1     -10.345   9.017  67.931  1.00  0.00     0.000 HD 
HETATM    8  C   UNL     1      -8.192  11.412  68.714  1.00  0.00    -0.107 C  
HETATM    9  O   UNL     1      -6.963  11.402  69.452  1.00  0.00    -0.128 OA 
HETATM   10  H   UNL     1      -8.547   7.436  68.125  1.00  0.00     0.000 HD 
HETATM   11  C   UNL     1      -8.686   9.973  68.534  1.00  0.00    -0.123 C  
HETATM   12  C   UNL     1      -7.763   9.186  67.594  1.00  0.00    -0.089 C  
HETATM   13  O   UNL     1     -10.038   9.909  68.043  1.00  0.00    -0.157 OA 
HETATM   14  H   UNL     1      -7.068  10.996  70.304  1.00  0.00     0.000 HD 
HETATM   15  O   UNL     1      -8.338   7.903  67.324  1.00  0.00    -0.119 OA 
BRANCH   6  16
HETATM   16  O   UNL     1      -9.243  12.239  66.609  1.00  0.00    -0.202 OA 
BRANCH  16  17
HETATM   17  C   UNL     1     -10.055  13.397  66.891  1.00  0.00    -0.255 C  
HETATM   18  O   UNL     1     -10.866  15.566  66.092  1.00  0.00    -0.322 OA 
HETATM   19  C   UNL     1     -10.175  14.369  65.706  1.00  0.00    -0.337 C  
HETATM   20  H   UNL     1     -10.940  16.166  65.359  1.00  0.00     0.000 HD 
HETATM   21  C   UNL     1     -12.302  13.212  65.046  1.00  0.00    -0.459 C  
HETATM   22  O   UNL     1     -10.152  12.639  63.990  1.00  0.00    -0.542 OA 
HETATM   23  C   UNL     1     -10.926  13.704  64.545  1.00  0.00    -0.396 C  
HETATM   24  O   UNL     1     -13.192  14.281  65.330  1.00  0.00    -0.704 OA 
HETATM   25  O   UNL     1     -12.178  12.335  66.169  1.00  0.00    -0.647 OA 
HETATM   26  H   UNL     1     -10.617  12.227  63.272  1.00  0.00     0.000 HD 
HETATM   27  H   UNL     1     -14.038  13.978  65.638  1.00  0.00     0.000 HD 
HETATM   28  C   UNL     1     -11.444  12.839  67.292  1.00  0.00    -0.337 C  
BRANCH  28  29
HETATM   29  C   UNL     1     -12.272  13.779  68.180  1.00  0.00    -0.143 C  
HETATM   30  O   UNL     1     -11.617  13.999  69.428  1.00  0.00    -0.261 OA 
HETATM   31  H   UNL     1     -12.129  14.580  69.977  1.00  0.00     0.000 HD 
ENDBRANCH  28  29
ENDBRANCH  16  17
ENDBRANCH   6  16
ENDBRANCH   3   4
TORSDOF 4
ENDMDL
MODEL       80
REMARK 921   NORMALIZED FREE ENERGY PREDICTED BY IDOCK:   -4.66 KCAL/MOL
REMARK 922        TOTAL FREE ENERGY PREDICTED BY IDOCK:   -7.06 KCAL/MOL
REMARK 923 INTER-LIGAND FREE ENERGY PREDICTED BY IDOCK:   -6.04 KCAL/MOL
REMARK 924 INTRA-LIGAND FREE ENERGY PREDICTED BY IDOCK:   -1.02 KCAL/MOL
REMARK 927      BINDING AFFINITY PREDICTED BY RF-SCORE:    0.00 PKD
ROOT
HETATM    1  O   UNL     1      -7.697  10.488  70.241  1.00  0.00    -0.433 OA 
HETATM    2  H   UNL     1      -7.057  11.179  70.121  1.00  0.00     0.000 HD 
HETATM    3  C   UNL     1      -7.629   9.555  69.161  1.00  0.00    -0.075 C  
ENDROOT
BRANCH   3   4
HETATM    4  C   UNL     1      -8.670   8.432  69.356  1.00  0.00    -0.137 C  
HETATM    5  O   UNL     1     -10.025   8.913  69.336  1.00  0.00    -0.182 OA 
HETATM    6  C   UNL     1     -10.609   9.139  68.050  1.00  0.00    -0.197 C  
HETATM    7  H   UNL     1      -7.458   7.904  66.142  1.00  0.00     0.000 HD 
HETATM    8  C   UNL     1     -10.591   7.837  67.219  1.00  0.00    -0.306 C  
HETATM    9  O   UNL     1     -11.380   6.807  67.828  1.00  0.00    -0.577 OA 
HETATM   10  H   UNL     1      -6.961   6.144  67.699  1.00  0.00     0.000 HD 
HETATM   11  C   UNL     1      -9.147   7.347  67.072  1.00  0.00    -0.135 C  
HETATM   12  C   UNL     1      -8.471   7.204  68.442  1.00  0.00    -0.124 C  
HETATM   13  O   UNL     1      -8.353   8.207  66.233  1.00  0.00    -0.108 OA 
HETATM   14  H   UNL     1     -11.369   6.006  67.317  1.00  0.00     0.000 HD 
HETATM   15  O   UNL     1      -7.083   6.900  68.261  1.00  0.00    -0.080 OA 
BRANCH   6  16
HETATM   16  O   UNL     1      -9.959  10.241  67.420  1.00  0.00    -0.176 OA 
BRANCH  16  17
HETATM   17  C   UNL     1     -10.640  10.917  66.344  1.00  0.00    -0.229 C  
HETATM   18  O   UNL     1     -12.386  12.518  65.720  1.00  0.00    -0.627 OA 
HETATM   19  C   UNL     1     -11.635  11.988  66.822  1.00  0.00    -0.321 C  
HETATM   20  H   UNL     1     -13.001  13.179  66.016  1.00  0.00     0.000 HD 
HETATM   21  C   UNL     1      -9.823  13.705  66.567  1.00  0.00    -0.293 C  
HETATM   22  O   UNL     1     -10.316  12.678  68.751  1.00  0.00    -0.343 OA 
HETATM   23  C   UNL     1     -10.892  13.131  67.524  1.00  0.00    -0.255 C  
HETATM   24  O   UNL     1     -10.392  14.418  65.479  1.00  0.00    -0.321 OA 
HETATM   25  O   UNL     1      -8.924  12.693  66.104  1.00  0.00    -0.060 OA 
HETATM   26  H   UNL     1      -9.856  13.386  69.186  1.00  0.00     0.000 HD 
HETATM   27  H   UNL     1      -9.735  14.770  64.891  1.00  0.00     0.000 HD 
HETATM   28  C   UNL     1      -9.520  11.550  65.480  1.00  0.00    -0.212 C  
BRANCH  28  29
HETATM   29  C   UNL     1      -9.914  11.800  64.016  1.00  0.00    -0.293 C  
HETATM   30  O   UNL     1     -10.901  10.861  63.594  1.00  0.00    -0.552 OA 
HETATM   31  H   UNL     1     -11.145  11.015  62.689  1.00  0.00     0.000 HD 
ENDBRANCH  28  29
ENDBRANCH  16  17
ENDBRANCH   6  16
ENDBRANCH   3   4
TORSDOF 4
ENDMDL
MODEL       81
REMARK 921   NORMALIZED FREE ENERGY PREDICTED BY IDOCK:   -4.66 KCAL/MOL
REMARK 922        TOTAL FREE ENERGY PREDICTED BY IDOCK:   -7.06 KCAL/MOL
REMARK 923 INTER-LIGAND FREE ENERGY PREDICTED BY IDOCK:   -6.03 KCAL/MOL
REMARK 924 INTRA-LIGAND FREE ENERGY PREDICTED BY IDOCK:   -1.02 KCAL/MOL
REMARK 927      BINDING AFFINITY PREDICTED BY RF-SCORE:    0.00 PKD
ROOT
HETATM    1  O   UNL     1     -11.340   5.114  65.636  1.00  0.00    -0.818 OA 
HETATM    2  H   UNL     1     -12.212   4.756  65.746  1.00  0.00     0.000 HD 
HETATM    3  C   UNL     1     -11.004   5.953  66.743  1.00  0.00    -0.197 C  
ENDROOT
BRANCH   3   4
HETATM    4  C   UNL     1      -9.585   6.536  66.563  1.00  0.00    -0.140 C  
HETATM    5  O   UNL     1      -9.414   7.808  67.213  1.00  0.00    -0.138 OA 
HETATM    6  C   UNL     1      -9.153   7.781  68.619  1.00  0.00    -0.136 C  
HETATM    7  H   UNL     1      -9.136   3.899  68.782  1.00  0.00     0.000 HD 
HETATM    8  C   UNL     1      -7.876   6.962  68.910  1.00  0.00    -0.111 C  
HETATM    9  O   UNL     1      -6.716   7.554  68.311  1.00  0.00    -0.054 OA 
HETATM   10  H   UNL     1      -8.045   3.617  66.661  1.00  0.00     0.000 HD 
HETATM   11  C   UNL     1      -8.051   5.539  68.373  1.00  0.00    -0.099 C  
HETATM   12  C   UNL     1      -8.440   5.553  66.888  1.00  0.00    -0.110 C  
HETATM   13  O   UNL     1      -9.026   4.782  69.116  1.00  0.00    -0.090 OA 
HETATM   14  H   UNL     1      -5.931   7.051  68.490  1.00  0.00     0.000 HD 
HETATM   15  O   UNL     1      -8.749   4.222  66.462  1.00  0.00    -0.112 OA 
BRANCH   6  16
HETATM   16  O   UNL     1     -10.312   7.318  69.310  1.00  0.00    -0.195 OA 
BRANCH  16  17
HETATM   17  C   UNL     1     -10.287   7.287  70.751  1.00  0.00    -0.202 C  
HETATM   18  O   UNL     1     -10.169   8.595  72.819  1.00  0.00    -0.191 OA 
HETATM   19  C   UNL     1     -10.347   8.681  71.398  1.00  0.00    -0.261 C  
HETATM   20  H   UNL     1     -10.206   9.457  73.218  1.00  0.00     0.000 HD 
HETATM   21  C   UNL     1     -12.838   8.430  71.574  1.00  0.00    -0.303 C  
HETATM   22  O   UNL     1     -11.804   9.655  69.703  1.00  0.00    -0.447 OA 
HETATM   23  C   UNL     1     -11.693   9.352  71.096  1.00  0.00    -0.345 C  
HETATM   24  O   UNL     1     -12.918   8.351  72.989  1.00  0.00    -0.704 OA 
HETATM   25  O   UNL     1     -12.751   7.127  70.991  1.00  0.00    -0.352 OA 
HETATM   26  H   UNL     1     -12.637  10.069  69.516  1.00  0.00     0.000 HD 
HETATM   27  H   UNL     1     -13.622   7.785  73.283  1.00  0.00     0.000 HD 
HETATM   28  C   UNL     1     -11.511   6.432  71.166  1.00  0.00    -0.323 C  
BRANCH  28  29
HETATM   29  C   UNL     1     -11.382   5.770  72.546  1.00  0.00    -0.307 C  
HETATM   30  O   UNL     1     -12.653   5.316  73.007  1.00  0.00    -0.398 OA 
HETATM   31  H   UNL     1     -12.574   4.907  73.861  1.00  0.00     0.000 HD 
ENDBRANCH  28  29
ENDBRANCH  16  17
ENDBRANCH   6  16
ENDBRANCH   3   4
TORSDOF 4
ENDMDL
MODEL       82
REMARK 921   NORMALIZED FREE ENERGY PREDICTED BY IDOCK:   -4.63 KCAL/MOL
REMARK 922        TOTAL FREE ENERGY PREDICTED BY IDOCK:   -7.03 KCAL/MOL
REMARK 923 INTER-LIGAND FREE ENERGY PREDICTED BY IDOCK:   -6.01 KCAL/MOL
REMARK 924 INTRA-LIGAND FREE ENERGY PREDICTED BY IDOCK:   -1.02 KCAL/MOL
REMARK 927      BINDING AFFINITY PREDICTED BY RF-SCORE:    0.00 PKD
ROOT
HETATM    1  O   UNL     1      -8.085  11.360  65.431  1.00  0.00    -0.347 OA 
HETATM    2  H   UNL     1      -7.688  12.046  64.908  1.00  0.00     0.000 HD 
HETATM    3  C   UNL     1      -7.314  11.126  66.610  1.00  0.00    -0.145 C  
ENDROOT
BRANCH   3   4
HETATM    4  C   UNL     1      -7.960  10.011  67.461  1.00  0.00    -0.106 C  
HETATM    5  O   UNL     1      -8.698  10.520  68.586  1.00  0.00    -0.128 OA 
HETATM    6  C   UNL     1     -10.022  10.996  68.325  1.00  0.00    -0.179 C  
HETATM    7  H   UNL     1      -9.867  10.062  64.556  1.00  0.00     0.000 HD 
HETATM    8  C   UNL     1     -10.881   9.871  67.706  1.00  0.00    -0.264 C  
HETATM    9  O   UNL     1     -11.037   8.765  68.604  1.00  0.00    -0.439 OA 
HETATM   10  H   UNL     1      -8.634   8.031  64.906  1.00  0.00     0.000 HD 
HETATM   11  C   UNL     1     -10.224   9.383  66.411  1.00  0.00    -0.230 C  
HETATM   12  C   UNL     1      -8.766   8.970  66.654  1.00  0.00    -0.128 C  
HETATM   13  O   UNL     1     -10.275  10.365  65.359  1.00  0.00    -0.292 OA 
HETATM   14  H   UNL     1     -11.565   8.074  68.224  1.00  0.00     0.000 HD 
HETATM   15  O   UNL     1      -8.138   8.672  65.402  1.00  0.00    -0.107 OA 
BRANCH   6  16
HETATM   16  O   UNL     1      -9.953  12.180  67.532  1.00  0.00    -0.194 OA 
BRANCH  16  17
HETATM   17  C   UNL     1      -9.784  13.446  68.201  1.00  0.00    -0.226 C  
HETATM   18  O   UNL     1      -8.667  15.626  68.192  1.00  0.00    -0.165 OA 
HETATM   19  C   UNL     1      -8.923  14.448  67.414  1.00  0.00    -0.199 C  
HETATM   20  H   UNL     1      -8.135  16.245  67.705  1.00  0.00     0.000 HD 
HETATM   21  C   UNL     1     -11.028  15.404  66.440  1.00  0.00    -0.277 C  
HETATM   22  O   UNL     1      -9.695  13.732  65.216  1.00  0.00    -0.549 OA 
HETATM   23  C   UNL     1      -9.626  14.846  66.111  1.00  0.00    -0.310 C  
HETATM   24  O   UNL     1     -10.974  16.669  67.081  1.00  0.00    -0.183 OA 
HETATM   25  O   UNL     1     -11.807  14.476  67.200  1.00  0.00    -0.392 OA 
HETATM   26  H   UNL     1     -10.131  13.978  64.409  1.00  0.00     0.000 HD 
HETATM   27  H   UNL     1     -11.836  17.012  67.283  1.00  0.00     0.000 HD 
HETATM   28  C   UNL     1     -11.217  13.995  68.414  1.00  0.00    -0.266 C  
BRANCH  28  29
HETATM   29  C   UNL     1     -11.348  14.986  69.581  1.00  0.00    -0.286 C  
HETATM   30  O   UNL     1     -12.718  15.314  69.810  1.00  0.00    -0.602 OA 
HETATM   31  H   UNL     1     -12.799  15.927  70.531  1.00  0.00     0.000 HD 
ENDBRANCH  28  29
ENDBRANCH  16  17
ENDBRANCH   6  16
ENDBRANCH   3   4
TORSDOF 4
ENDMDL
MODEL       83
REMARK 921   NORMALIZED FREE ENERGY PREDICTED BY IDOCK:   -4.63 KCAL/MOL
REMARK 922        TOTAL FREE ENERGY PREDICTED BY IDOCK:   -7.02 KCAL/MOL
REMARK 923 INTER-LIGAND FREE ENERGY PREDICTED BY IDOCK:   -5.72 KCAL/MOL
REMARK 924 INTRA-LIGAND FREE ENERGY PREDICTED BY IDOCK:   -1.30 KCAL/MOL
REMARK 927      BINDING AFFINITY PREDICTED BY RF-SCORE:    0.00 PKD
ROOT
HETATM    1  O   UNL     1     -14.364   7.220  72.103  1.00  0.00    -0.595 OA 
HETATM    2  H   UNL     1     -15.136   7.309  71.558  1.00  0.00     0.000 HD 
HETATM    3  C   UNL     1     -13.236   6.848  71.307  1.00  0.00    -0.158 C  
ENDROOT
BRANCH   3   4
HETATM    4  C   UNL     1     -11.980   6.703  72.193  1.00  0.00    -0.280 C  
HETATM    5  O   UNL     1     -11.015   5.783  71.650  1.00  0.00    -0.258 OA 
HETATM    6  C   UNL     1     -10.153   6.284  70.625  1.00  0.00    -0.189 C  
HETATM    7  H   UNL     1     -11.656   9.864  70.785  1.00  0.00     0.000 HD 
HETATM    8  C   UNL     1      -9.358   7.503  71.144  1.00  0.00    -0.151 C  
HETATM    9  O   UNL     1      -8.498   7.150  72.235  1.00  0.00    -0.115 OA 
HETATM   10  H   UNL     1     -11.933   9.856  73.171  1.00  0.00     0.000 HD 
HETATM   11  C   UNL     1     -10.334   8.591  71.600  1.00  0.00    -0.263 C  
HETATM   12  C   UNL     1     -11.337   8.039  72.622  1.00  0.00    -0.405 C  
HETATM   13  O   UNL     1     -11.049   9.189  70.503  1.00  0.00    -0.242 OA 
HETATM   14  H   UNL     1      -8.009   7.899  72.554  1.00  0.00     0.000 HD 
HETATM   15  O   UNL     1     -12.328   9.033  72.906  1.00  0.00    -0.118 OA 
BRANCH   6  16
HETATM   16  O   UNL     1     -10.916   6.545  69.448  1.00  0.00    -0.275 OA 
BRANCH  16  17
HETATM   17  C   UNL     1     -10.640   5.770  68.264  1.00  0.00    -0.217 C  
HETATM   18  O   UNL     1     -11.080   5.469  65.873  1.00  0.00    -0.726 OA 
HETATM   19  C   UNL     1     -11.261   6.357  66.985  1.00  0.00    -0.195 C  
HETATM   20  H   UNL     1     -11.464   5.832  65.084  1.00  0.00     0.000 HD 
HETATM   21  C   UNL     1      -9.094   7.543  66.545  1.00  0.00    -0.166 C  
HETATM   22  O   UNL     1     -10.979   8.686  67.645  1.00  0.00    -0.495 OA 
HETATM   23  C   UNL     1     -10.625   7.714  66.658  1.00  0.00    -0.022 C  
HETATM   24  O   UNL     1      -8.711   6.811  65.390  1.00  0.00    -0.311 OA 
HETATM   25  O   UNL     1      -8.533   6.966  67.728  1.00  0.00    -0.122 OA 
HETATM   26  H   UNL     1     -10.584   9.526  67.442  1.00  0.00     0.000 HD 
HETATM   27  H   UNL     1      -7.770   6.706  65.321  1.00  0.00     0.000 HD 
HETATM   28  C   UNL     1      -9.095   5.719  68.156  1.00  0.00    -0.110 C  
BRANCH  28  29
HETATM   29  C   UNL     1      -8.555   4.515  67.370  1.00  0.00    -0.104 C  
HETATM   30  O   UNL     1      -9.513   3.457  67.350  1.00  0.00    -0.205 OA 
HETATM   31  H   UNL     1      -9.179   2.712  66.865  1.00  0.00     0.000 HD 
ENDBRANCH  28  29
ENDBRANCH  16  17
ENDBRANCH   6  16
ENDBRANCH   3   4
TORSDOF 4
ENDMDL
MODEL       84
REMARK 921   NORMALIZED FREE ENERGY PREDICTED BY IDOCK:   -4.59 KCAL/MOL
REMARK 922        TOTAL FREE ENERGY PREDICTED BY IDOCK:   -6.98 KCAL/MOL
REMARK 923 INTER-LIGAND FREE ENERGY PREDICTED BY IDOCK:   -5.95 KCAL/MOL
REMARK 924 INTRA-LIGAND FREE ENERGY PREDICTED BY IDOCK:   -1.03 KCAL/MOL
REMARK 927      BINDING AFFINITY PREDICTED BY RF-SCORE:    0.00 PKD
ROOT
HETATM    1  O   UNL     1     -12.401   7.050  70.107  1.00  0.00    -0.618 OA 
HETATM    2  H   UNL     1     -12.625   7.599  70.849  1.00  0.00     0.000 HD 
HETATM    3  C   UNL     1     -11.059   7.306  69.688  1.00  0.00    -0.141 C  
ENDROOT
BRANCH   3   4
HETATM    4  C   UNL     1     -10.694   6.413  68.482  1.00  0.00    -0.288 C  
HETATM    5  O   UNL     1     -11.139   6.957  67.227  1.00  0.00    -0.339 OA 
HETATM    6  C   UNL     1     -10.320   7.971  66.638  1.00  0.00    -0.203 C  
HETATM    7  H   UNL     1      -7.656   7.788  69.460  1.00  0.00     0.000 HD 
HETATM    8  C   UNL     1      -8.890   7.435  66.405  1.00  0.00    -0.156 C  
HETATM    9  O   UNL     1      -8.877   6.341  65.479  1.00  0.00    -0.279 OA 
HETATM   10  H   UNL     1      -7.803   5.405  69.717  1.00  0.00     0.000 HD 
HETATM   11  C   UNL     1      -8.295   6.976  67.739  1.00  0.00    -0.117 C  
HETATM   12  C   UNL     1      -9.217   5.966  68.436  1.00  0.00    -0.117 C  
HETATM   13  O   UNL     1      -8.024   8.073  68.632  1.00  0.00    -0.119 OA 
HETATM   14  H   UNL     1      -7.998   6.012  65.336  1.00  0.00     0.000 HD 
HETATM   15  O   UNL     1      -8.711   5.680  69.745  1.00  0.00    -0.121 OA 
BRANCH   6  16
HETATM   16  O   UNL     1     -10.376   9.151  67.439  1.00  0.00    -0.229 OA 
BRANCH  16  17
HETATM   17  C   UNL     1     -11.021  10.321  66.895  1.00  0.00    -0.070 C  
HETATM   18  O   UNL     1     -12.045  12.494  67.371  1.00  0.00    -0.466 OA 
HETATM   19  C   UNL     1     -11.272  11.425  67.935  1.00  0.00    -0.288 C  
HETATM   20  H   UNL     1     -12.200  13.176  68.014  1.00  0.00     0.000 HD 
HETATM   21  C   UNL     1      -9.099  12.480  67.255  1.00  0.00    -0.189 C  
HETATM   22  O   UNL     1      -9.244  10.995  69.215  1.00  0.00    -0.389 OA 
HETATM   23  C   UNL     1      -9.940  11.983  68.452  1.00  0.00    -0.208 C  
HETATM   24  O   UNL     1      -9.637  13.651  66.660  1.00  0.00    -0.268 OA 
HETATM   25  O   UNL     1      -8.901  11.452  66.279  1.00  0.00    -0.191 OA 
HETATM   26  H   UNL     1      -8.418  11.341  69.535  1.00  0.00     0.000 HD 
HETATM   27  H   UNL     1      -9.120  13.956  65.924  1.00  0.00     0.000 HD 
HETATM   28  C   UNL     1     -10.083  10.823  65.769  1.00  0.00    -0.261 C  
BRANCH  28  29
HETATM   29  C   UNL     1     -10.784  11.652  64.683  1.00  0.00    -0.315 C  
HETATM   30  O   UNL     1      -9.832  12.397  63.925  1.00  0.00    -0.574 OA 
HETATM   31  H   UNL     1     -10.266  12.910  63.254  1.00  0.00     0.000 HD 
ENDBRANCH  28  29
ENDBRANCH  16  17
ENDBRANCH   6  16
ENDBRANCH   3   4
TORSDOF 4
ENDMDL
MODEL       85
REMARK 921   NORMALIZED FREE ENERGY PREDICTED BY IDOCK:   -4.59 KCAL/MOL
REMARK 922        TOTAL FREE ENERGY PREDICTED BY IDOCK:   -6.97 KCAL/MOL
REMARK 923 INTER-LIGAND FREE ENERGY PREDICTED BY IDOCK:   -5.89 KCAL/MOL
REMARK 924 INTRA-LIGAND FREE ENERGY PREDICTED BY IDOCK:   -1.08 KCAL/MOL
REMARK 927      BINDING AFFINITY PREDICTED BY RF-SCORE:    0.00 PKD
ROOT
HETATM    1  O   UNL     1     -12.152   6.812  69.752  1.00  0.00    -0.648 OA 
HETATM    2  H   UNL     1     -12.785   6.638  69.065  1.00  0.00     0.000 HD 
HETATM    3  C   UNL     1     -10.996   5.990  69.580  1.00  0.00    -0.400 C  
ENDROOT
BRANCH   3   4
HETATM    4  C   UNL     1      -9.967   6.271  70.696  1.00  0.00    -0.186 C  
HETATM    5  O   UNL     1      -8.910   7.153  70.275  1.00  0.00    -0.146 OA 
HETATM    6  C   UNL     1      -9.200   8.553  70.281  1.00  0.00    -0.158 C  
HETATM    7  H   UNL     1     -12.786   8.046  71.686  1.00  0.00     0.000 HD 
HETATM    8  C   UNL     1      -9.615   9.008  71.698  1.00  0.00    -0.248 C  
HETATM    9  O   UNL     1      -8.555   8.827  72.646  1.00  0.00    -0.411 OA 
HETATM   10  H   UNL     1     -12.171   6.247  73.154  1.00  0.00     0.000 HD 
HETATM   11  C   UNL     1     -10.840   8.207  72.150  1.00  0.00    -0.303 C  
HETATM   12  C   UNL     1     -10.582   6.698  72.046  1.00  0.00    -0.211 C  
HETATM   13  O   UNL     1     -12.026   8.543  71.406  1.00  0.00    -0.284 OA 
HETATM   14  H   UNL     1      -8.810   9.106  73.516  1.00  0.00     0.000 HD 
HETATM   15  O   UNL     1     -11.793   5.985  72.323  1.00  0.00    -0.319 OA 
BRANCH   6  16
HETATM   16  O   UNL     1     -10.164   8.843  69.270  1.00  0.00    -0.198 OA 
BRANCH  16  17
HETATM   17  C   UNL     1      -9.714   9.458  68.046  1.00  0.00    -0.145 C  
HETATM   18  O   UNL     1     -10.362  10.481  65.917  1.00  0.00    -0.249 OA 
HETATM   19  C   UNL     1     -10.856  10.019  67.182  1.00  0.00    -0.170 C  
HETATM   20  H   UNL     1     -11.068  10.827  65.384  1.00  0.00     0.000 HD 
HETATM   21  C   UNL     1     -10.506  12.253  68.270  1.00  0.00    -0.226 C  
HETATM   22  O   UNL     1     -12.248  10.702  69.062  1.00  0.00    -0.714 OA 
HETATM   23  C   UNL     1     -11.553  11.177  67.907  1.00  0.00    -0.251 C  
HETATM   24  O   UNL     1     -10.014  12.941  67.130  1.00  0.00    -0.233 OA 
HETATM   25  O   UNL     1      -9.433  11.712  69.045  1.00  0.00    -0.037 OA 
HETATM   26  H   UNL     1     -12.679  11.419  69.511  1.00  0.00     0.000 HD 
HETATM   27  H   UNL     1      -9.370  13.603  67.353  1.00  0.00     0.000 HD 
HETATM   28  C   UNL     1      -8.746  10.587  68.484  1.00  0.00    -0.140 C  
BRANCH  28  29
HETATM   29  C   UNL     1      -7.712  10.983  67.419  1.00  0.00    -0.114 C  
HETATM   30  O   UNL     1      -7.441   9.885  66.549  1.00  0.00    -0.097 OA 
HETATM   31  H   UNL     1      -6.802  10.129  65.891  1.00  0.00     0.000 HD 
ENDBRANCH  28  29
ENDBRANCH  16  17
ENDBRANCH   6  16
ENDBRANCH   3   4
TORSDOF 4
ENDMDL
MODEL       86
REMARK 921   NORMALIZED FREE ENERGY PREDICTED BY IDOCK:   -4.56 KCAL/MOL
REMARK 922        TOTAL FREE ENERGY PREDICTED BY IDOCK:   -6.94 KCAL/MOL
REMARK 923 INTER-LIGAND FREE ENERGY PREDICTED BY IDOCK:   -5.65 KCAL/MOL
REMARK 924 INTRA-LIGAND FREE ENERGY PREDICTED BY IDOCK:   -1.29 KCAL/MOL
REMARK 927      BINDING AFFINITY PREDICTED BY RF-SCORE:    0.00 PKD
ROOT
HETATM    1  O   UNL     1      -7.952   7.624  71.227  1.00  0.00    -0.091 OA 
HETATM    2  H   UNL     1      -7.353   7.154  70.659  1.00  0.00     0.000 HD 
HETATM    3  C   UNL     1      -9.101   6.823  71.509  1.00  0.00    -0.145 C  
ENDROOT
BRANCH   3   4
HETATM    4  C   UNL     1     -10.074   7.587  72.433  1.00  0.00    -0.203 C  
HETATM    5  O   UNL     1     -10.113   8.999  72.161  1.00  0.00    -0.296 OA 
HETATM    6  C   UNL     1     -10.930   9.421  71.066  1.00  0.00    -0.338 C  
HETATM    7  H   UNL     1     -12.163   5.819  70.292  1.00  0.00     0.000 HD 
HETATM    8  C   UNL     1     -12.392   8.973  71.284  1.00  0.00    -0.302 C  
HETATM    9  O   UNL     1     -12.965   9.578  72.450  1.00  0.00    -0.386 OA 
HETATM   10  H   UNL     1     -12.305   5.159  72.597  1.00  0.00     0.000 HD 
HETATM   11  C   UNL     1     -12.440   7.449  71.431  1.00  0.00    -0.368 C  
HETATM   12  C   UNL     1     -11.485   6.970  72.533  1.00  0.00    -0.237 C  
HETATM   13  O   UNL     1     -12.134   6.764  70.201  1.00  0.00    -0.289 OA 
HETATM   14  H   UNL     1     -13.863   9.303  72.585  1.00  0.00     0.000 HD 
HETATM   15  O   UNL     1     -11.437   5.539  72.535  1.00  0.00    -0.283 OA 
BRANCH   6  16
HETATM   16  O   UNL     1     -10.357   8.962  69.842  1.00  0.00    -0.194 OA 
BRANCH  16  17
HETATM   17  C   UNL     1      -9.555   9.880  69.072  1.00  0.00    -0.186 C  
HETATM   18  O   UNL     1      -8.109  10.184  67.118  1.00  0.00    -0.119 OA 
HETATM   19  C   UNL     1      -9.015   9.279  67.763  1.00  0.00    -0.126 C  
HETATM   20  H   UNL     1      -7.776   9.812  66.310  1.00  0.00     0.000 HD 
HETATM   21  C   UNL     1     -11.006  10.234  66.570  1.00  0.00     0.096 C  
HETATM   22  O   UNL     1     -10.971   7.891  67.329  1.00  0.00    -0.518 OA 
HETATM   23  C   UNL     1     -10.172   8.956  66.809  1.00  0.00    -0.278 C  
HETATM   24  O   UNL     1     -10.313  11.199  65.793  1.00  0.00    -0.247 OA 
HETATM   25  O   UNL     1     -11.474  10.802  67.797  1.00  0.00    -0.460 OA 
HETATM   26  H   UNL     1     -11.687   7.691  66.738  1.00  0.00     0.000 HD 
HETATM   27  H   UNL     1     -10.826  11.985  65.646  1.00  0.00     0.000 HD 
HETATM   28  C   UNL     1     -10.477  11.092  68.784  1.00  0.00    -0.203 C  
BRANCH  28  29
HETATM   29  C   UNL     1      -9.730  12.407  68.517  1.00  0.00    -0.136 C  
HETATM   30  O   UNL     1      -8.396  12.338  69.018  1.00  0.00    -0.345 OA 
HETATM   31  H   UNL     1      -7.934  13.151  68.853  1.00  0.00     0.000 HD 
ENDBRANCH  28  29
ENDBRANCH  16  17
ENDBRANCH   6  16
ENDBRANCH   3   4
TORSDOF 4
ENDMDL
MODEL       87
REMARK 921   NORMALIZED FREE ENERGY PREDICTED BY IDOCK:   -4.53 KCAL/MOL
REMARK 922        TOTAL FREE ENERGY PREDICTED BY IDOCK:   -6.90 KCAL/MOL
REMARK 923 INTER-LIGAND FREE ENERGY PREDICTED BY IDOCK:   -6.01 KCAL/MOL
REMARK 924 INTRA-LIGAND FREE ENERGY PREDICTED BY IDOCK:   -0.89 KCAL/MOL
REMARK 927      BINDING AFFINITY PREDICTED BY RF-SCORE:    0.00 PKD
ROOT
HETATM    1  O   UNL     1     -10.715  10.482  70.659  1.00  0.00    -0.399 OA 
HETATM    2  H   UNL     1     -11.187  11.275  70.885  1.00  0.00     0.000 HD 
HETATM    3  C   UNL     1     -11.614   9.375  70.582  1.00  0.00    -0.269 C  
ENDROOT
BRANCH   3   4
HETATM    4  C   UNL     1     -10.847   8.086  70.214  1.00  0.00    -0.241 C  
HETATM    5  O   UNL     1     -10.780   7.860  68.794  1.00  0.00    -0.164 OA 
HETATM    6  C   UNL     1      -9.778   8.582  68.074  1.00  0.00    -0.154 C  
HETATM    7  H   UNL     1      -8.360  10.269  71.274  1.00  0.00     0.000 HD 
HETATM    8  C   UNL     1      -8.377   8.259  68.639  1.00  0.00    -0.125 C  
HETATM    9  O   UNL     1      -8.046   6.874  68.480  1.00  0.00    -0.118 OA 
HETATM   10  H   UNL     1      -8.648   8.332  72.664  1.00  0.00     0.000 HD 
HETATM   11  C   UNL     1      -8.332   8.622  70.126  1.00  0.00    -0.126 C  
HETATM   12  C   UNL     1      -9.471   7.939  70.896  1.00  0.00    -0.156 C  
HETATM   13  O   UNL     1      -8.387  10.043  70.352  1.00  0.00    -0.131 OA 
HETATM   14  H   UNL     1      -7.185   6.675  68.828  1.00  0.00     0.000 HD 
HETATM   15  O   UNL     1      -9.495   8.422  72.244  1.00  0.00    -0.243 OA 
BRANCH   6  16
HETATM   16  O   UNL     1     -10.100   9.971  68.076  1.00  0.00    -0.156 OA 
BRANCH  16  17
HETATM   17  C   UNL     1     -10.755  10.526  66.917  1.00  0.00    -0.219 C  
HETATM   18  O   UNL     1     -12.264  12.252  66.055  1.00  0.00    -0.646 OA 
HETATM   19  C   UNL     1     -11.516  11.831  67.205  1.00  0.00    -0.295 C  
HETATM   20  H   UNL     1     -12.735  13.058  66.234  1.00  0.00     0.000 HD 
HETATM   21  C   UNL     1      -9.478  13.111  66.494  1.00  0.00    -0.243 C  
HETATM   22  O   UNL     1      -9.937  12.652  68.870  1.00  0.00    -0.417 OA 
HETATM   23  C   UNL     1     -10.537  12.942  67.605  1.00  0.00    -0.223 C  
HETATM   24  O   UNL     1     -10.016  13.678  65.310  1.00  0.00    -0.483 OA 
HETATM   25  O   UNL     1      -8.800  11.883  66.213  1.00  0.00    -0.186 OA 
HETATM   26  H   UNL     1      -9.331  13.339  69.118  1.00  0.00     0.000 HD 
HETATM   27  H   UNL     1      -9.365  13.782  64.626  1.00  0.00     0.000 HD 
HETATM   28  C   UNL     1      -9.627  10.761  65.880  1.00  0.00    -0.208 C  
BRANCH  28  29
HETATM   29  C   UNL     1     -10.103  10.777  64.419  1.00  0.00    -0.353 C  
HETATM   30  O   UNL     1      -9.628   9.625  63.724  1.00  0.00    -0.455 OA 
HETATM   31  H   UNL     1      -9.922   9.635  62.821  1.00  0.00     0.000 HD 
ENDBRANCH  28  29
ENDBRANCH  16  17
ENDBRANCH   6  16
ENDBRANCH   3   4
TORSDOF 4
ENDMDL
MODEL       88
REMARK 921   NORMALIZED FREE ENERGY PREDICTED BY IDOCK:   -4.47 KCAL/MOL
REMARK 922        TOTAL FREE ENERGY PREDICTED BY IDOCK:   -6.82 KCAL/MOL
REMARK 923 INTER-LIGAND FREE ENERGY PREDICTED BY IDOCK:   -5.79 KCAL/MOL
REMARK 924 INTRA-LIGAND FREE ENERGY PREDICTED BY IDOCK:   -1.03 KCAL/MOL
REMARK 927      BINDING AFFINITY PREDICTED BY RF-SCORE:    0.00 PKD
ROOT
HETATM    1  O   UNL     1      -6.371  13.726  70.237  1.00  0.00    -0.310 OA 
HETATM    2  H   UNL     1      -5.478  13.957  70.461  1.00  0.00     0.000 HD 
HETATM    3  C   UNL     1      -7.053  14.855  69.689  1.00  0.00    -0.179 C  
ENDROOT
BRANCH   3   4
HETATM    4  C   UNL     1      -8.506  14.480  69.323  1.00  0.00     0.100 C  
HETATM    5  O   UNL     1      -9.436  15.555  69.546  1.00  0.00    -0.258 OA 
HETATM    6  C   UNL     1      -9.512  16.560  68.532  1.00  0.00    -0.235 C  
HETATM    7  H   UNL     1      -6.918  14.785  66.247  1.00  0.00     0.000 HD 
HETATM    8  C   UNL     1      -9.889  15.924  67.175  1.00  0.00    -0.231 C  
HETATM    9  O   UNL     1     -11.186  15.315  67.216  1.00  0.00    -0.335 OA 
HETATM   10  H   UNL     1      -7.688  12.568  66.758  1.00  0.00     0.000 HD 
HETATM   11  C   UNL     1      -8.846  14.866  66.802  1.00  0.00    -0.261 C  
HETATM   12  C   UNL     1      -8.674  13.839  67.929  1.00  0.00    -0.183 C  
HETATM   13  O   UNL     1      -7.566  15.441  66.478  1.00  0.00     0.020 OA 
HETATM   14  H   UNL     1     -11.418  14.924  66.383  1.00  0.00     0.000 HD 
HETATM   15  O   UNL     1      -7.585  12.963  67.616  1.00  0.00    -0.129 OA 
BRANCH   6  16
HETATM   16  O   UNL     1      -8.295  17.304  68.508  1.00  0.00    -0.252 OA 
BRANCH  16  17
HETATM   17  C   UNL     1      -8.362  18.726  68.282  1.00  0.00    -0.330 C  
HETATM   18  O   UNL     1      -7.129  20.841  68.198  1.00  0.00    -0.208 OA 
HETATM   19  C   UNL     1      -6.988  19.415  68.277  1.00  0.00    -0.282 C  
HETATM   20  H   UNL     1      -6.279  21.266  68.195  1.00  0.00     0.000 HD 
HETATM   21  C   UNL     1      -6.934  19.163  65.781  1.00  0.00    -0.275 C  
HETATM   22  O   UNL     1      -5.802  17.547  67.255  1.00  0.00    -0.120 OA 
HETATM   23  C   UNL     1      -6.150  18.924  67.090  1.00  0.00    -0.170 C  
HETATM   24  O   UNL     1      -7.037  20.540  65.451  1.00  0.00    -0.479 OA 
HETATM   25  O   UNL     1      -8.224  18.545  65.812  1.00  0.00    -0.481 OA 
HETATM   26  H   UNL     1      -5.283  17.243  66.520  1.00  0.00     0.000 HD 
HETATM   27  H   UNL     1      -7.519  20.687  64.646  1.00  0.00     0.000 HD 
HETATM   28  C   UNL     1      -9.070  18.893  66.913  1.00  0.00    -0.300 C  
BRANCH  28  29
HETATM   29  C   UNL     1      -9.776  20.245  66.727  1.00  0.00    -0.431 C  
HETATM   30  O   UNL     1     -10.081  20.467  65.351  1.00  0.00    -0.460 OA 
HETATM   31  H   UNL     1     -10.517  21.303  65.235  1.00  0.00     0.000 HD 
ENDBRANCH  28  29
ENDBRANCH  16  17
ENDBRANCH   6  16
ENDBRANCH   3   4
TORSDOF 4
ENDMDL
MODEL       89
REMARK 921   NORMALIZED FREE ENERGY PREDICTED BY IDOCK:   -4.46 KCAL/MOL
REMARK 922        TOTAL FREE ENERGY PREDICTED BY IDOCK:   -6.82 KCAL/MOL
REMARK 923 INTER-LIGAND FREE ENERGY PREDICTED BY IDOCK:   -5.40 KCAL/MOL
REMARK 924 INTRA-LIGAND FREE ENERGY PREDICTED BY IDOCK:   -1.42 KCAL/MOL
REMARK 927      BINDING AFFINITY PREDICTED BY RF-SCORE:    0.00 PKD
ROOT
HETATM    1  O   UNL     1      -8.250   7.581  71.231  1.00  0.00    -0.099 OA 
HETATM    2  H   UNL     1      -7.658   7.087  70.677  1.00  0.00     0.000 HD 
HETATM    3  C   UNL     1      -9.342   6.759  71.647  1.00  0.00    -0.151 C  
ENDROOT
BRANCH   3   4
HETATM    4  C   UNL     1     -10.304   7.562  72.549  1.00  0.00    -0.240 C  
HETATM    5  O   UNL     1     -10.325   8.966  72.236  1.00  0.00    -0.302 OA 
HETATM    6  C   UNL     1     -11.136   9.367  71.128  1.00  0.00    -0.362 C  
HETATM    7  H   UNL     1     -12.417   5.760  70.460  1.00  0.00     0.000 HD 
HETATM    8  C   UNL     1     -12.604   8.945  71.359  1.00  0.00    -0.300 C  
HETATM    9  O   UNL     1     -13.168   9.592  72.507  1.00  0.00    -0.527 OA 
HETATM   10  H   UNL     1     -12.568   5.170  72.783  1.00  0.00     0.000 HD 
HETATM   11  C   UNL     1     -12.672   7.426  71.550  1.00  0.00    -0.372 C  
HETATM   12  C   UNL     1     -11.724   6.967  72.666  1.00  0.00    -0.083 C  
HETATM   13  O   UNL     1     -12.376   6.702  70.342  1.00  0.00    -0.274 OA 
HETATM   14  H   UNL     1     -14.070   9.332  72.649  1.00  0.00     0.000 HD 
HETATM   15  O   UNL     1     -11.694   5.536  72.710  1.00  0.00    -0.297 OA 
BRANCH   6  16
HETATM   16  O   UNL     1     -10.569   8.865  69.919  1.00  0.00    -0.213 OA 
BRANCH  16  17
HETATM   17  C   UNL     1     -10.579   9.712  68.752  1.00  0.00    -0.216 C  
HETATM   18  O   UNL     1     -10.010  11.902  67.814  1.00  0.00    -0.179 OA 
HETATM   19  C   UNL     1      -9.839  11.045  68.952  1.00  0.00    -0.177 C  
HETATM   20  H   UNL     1      -9.552  12.726  67.938  1.00  0.00     0.000 HD 
HETATM   21  C   UNL     1      -7.780   9.981  67.990  1.00  0.00    -0.089 C  
HETATM   22  O   UNL     1      -8.124  10.133  70.424  1.00  0.00    -0.403 OA 
HETATM   23  C   UNL     1      -8.342  10.795  69.176  1.00  0.00    -0.105 C  
HETATM   24  O   UNL     1      -7.722  10.736  66.789  1.00  0.00    -0.123 OA 
HETATM   25  O   UNL     1      -8.498   8.759  67.794  1.00  0.00    -0.124 OA 
HETATM   26  H   UNL     1      -7.198   9.978  70.563  1.00  0.00     0.000 HD 
HETATM   27  H   UNL     1      -7.376  10.235  66.060  1.00  0.00     0.000 HD 
HETATM   28  C   UNL     1      -9.916   8.874  67.629  1.00  0.00    -0.196 C  
BRANCH  28  29
HETATM   29  C   UNL     1     -10.325   9.286  66.207  1.00  0.00    -0.122 C  
HETATM   30  O   UNL     1      -9.432   8.727  65.245  1.00  0.00    -0.444 OA 
HETATM   31  H   UNL     1      -9.684   8.982  64.366  1.00  0.00     0.000 HD 
ENDBRANCH  28  29
ENDBRANCH  16  17
ENDBRANCH   6  16
ENDBRANCH   3   4
TORSDOF 4
ENDMDL
MODEL       90
REMARK 921   NORMALIZED FREE ENERGY PREDICTED BY IDOCK:   -4.45 KCAL/MOL
REMARK 922        TOTAL FREE ENERGY PREDICTED BY IDOCK:   -6.80 KCAL/MOL
REMARK 923 INTER-LIGAND FREE ENERGY PREDICTED BY IDOCK:   -6.11 KCAL/MOL
REMARK 924 INTRA-LIGAND FREE ENERGY PREDICTED BY IDOCK:   -0.70 KCAL/MOL
REMARK 927      BINDING AFFINITY PREDICTED BY RF-SCORE:    0.00 PKD
ROOT
HETATM    1  O   UNL     1      -9.559  13.179  67.105  1.00  0.00    -0.221 OA 
HETATM    2  H   UNL     1      -8.876  13.095  67.759  1.00  0.00     0.000 HD 
HETATM    3  C   UNL     1      -9.270  14.265  66.223  1.00  0.00    -0.151 C  
ENDROOT
BRANCH   3   4
HETATM    4  C   UNL     1     -10.381  14.402  65.159  1.00  0.00    -0.421 C  
HETATM    5  O   UNL     1     -10.192  13.524  64.035  1.00  0.00    -0.274 OA 
HETATM    6  C   UNL     1     -10.611  12.167  64.200  1.00  0.00    -0.365 C  
HETATM    7  H   UNL     1     -11.944  12.770  67.800  1.00  0.00     0.000 HD 
HETATM    8  C   UNL     1     -12.113  12.110  64.556  1.00  0.00    -0.334 C  
HETATM    9  O   UNL     1     -12.929  12.642  63.505  1.00  0.00    -0.683 OA 
HETATM   10  H   UNL     1     -12.808  14.960  67.326  1.00  0.00     0.000 HD 
HETATM   11  C   UNL     1     -12.362  12.907  65.841  1.00  0.00    -0.313 C  
HETATM   12  C   UNL     1     -11.819  14.337  65.717  1.00  0.00    -0.374 C  
HETATM   13  O   UNL     1     -11.791  12.277  67.003  1.00  0.00    -0.519 OA 
HETATM   14  H   UNL     1     -13.852  12.608  63.724  1.00  0.00     0.000 HD 
HETATM   15  O   UNL     1     -11.924  15.000  66.982  1.00  0.00    -0.222 OA 
BRANCH   6  16
HETATM   16  O   UNL     1      -9.763  11.520  65.148  1.00  0.00    -0.236 OA 
BRANCH  16  17
HETATM   17  C   UNL     1      -9.655  10.083  65.105  1.00  0.00    -0.291 C  
HETATM   18  O   UNL     1      -8.270   8.158  64.493  1.00  0.00    -0.195 OA 
HETATM   19  C   UNL     1      -8.271   9.583  64.659  1.00  0.00    -0.146 C  
HETATM   20  H   UNL     1      -7.414   7.849  64.217  1.00  0.00     0.000 HD 
HETATM   21  C   UNL     1      -7.613   9.421  67.076  1.00  0.00    -0.091 C  
HETATM   22  O   UNL     1      -7.025  11.390  65.718  1.00  0.00    -0.353 OA 
HETATM   23  C   UNL     1      -7.205   9.972  65.691  1.00  0.00    -0.120 C  
HETATM   24  O   UNL     1      -7.516   8.007  67.149  1.00  0.00    -0.089 OA 
HETATM   25  O   UNL     1      -8.916   9.867  67.464  1.00  0.00    -0.134 OA 
HETATM   26  H   UNL     1      -6.365  11.631  66.357  1.00  0.00     0.000 HD 
HETATM   27  H   UNL     1      -7.767   7.668  68.000  1.00  0.00     0.000 HD 
HETATM   28  C   UNL     1      -9.980   9.602  66.542  1.00  0.00    -0.246 C  
BRANCH  28  29
HETATM   29  C   UNL     1     -10.503   8.160  66.624  1.00  0.00    -0.134 C  
HETATM   30  O   UNL     1     -10.329   7.636  67.940  1.00  0.00    -0.195 OA 
HETATM   31  H   UNL     1     -10.651   6.744  67.990  1.00  0.00     0.000 HD 
ENDBRANCH  28  29
ENDBRANCH  16  17
ENDBRANCH   6  16
ENDBRANCH   3   4
TORSDOF 4
ENDMDL
MODEL       91
REMARK 921   NORMALIZED FREE ENERGY PREDICTED BY IDOCK:   -4.44 KCAL/MOL
REMARK 922        TOTAL FREE ENERGY PREDICTED BY IDOCK:   -6.79 KCAL/MOL
REMARK 923 INTER-LIGAND FREE ENERGY PREDICTED BY IDOCK:   -5.99 KCAL/MOL
REMARK 924 INTRA-LIGAND FREE ENERGY PREDICTED BY IDOCK:   -0.80 KCAL/MOL
REMARK 927      BINDING AFFINITY PREDICTED BY RF-SCORE:    0.00 PKD
ROOT
HETATM    1  O   UNL     1      -5.529   9.953  67.394  1.00  0.00    -0.039 OA 
HETATM    2  H   UNL     1      -5.005  10.612  66.956  1.00  0.00     0.000 HD 
HETATM    3  C   UNL     1      -6.811   9.845  66.774  1.00  0.00    -0.084 C  
ENDROOT
BRANCH   3   4
HETATM    4  C   UNL     1      -7.663   8.772  67.487  1.00  0.00    -0.101 C  
HETATM    5  O   UNL     1      -8.431   9.303  68.583  1.00  0.00    -0.120 OA 
HETATM    6  C   UNL     1      -9.657   9.960  68.251  1.00  0.00    -0.140 C  
HETATM    7  H   UNL     1      -9.283   9.249  64.450  1.00  0.00     0.000 HD 
HETATM    8  C   UNL     1     -10.590   8.996  67.485  1.00  0.00    -0.237 C  
HETATM    9  O   UNL     1     -10.960   7.866  68.285  1.00  0.00    -0.428 OA 
HETATM   10  H   UNL     1      -8.346   7.058  64.749  1.00  0.00     0.000 HD 
HETATM   11  C   UNL     1      -9.885   8.508  66.216  1.00  0.00    -0.215 C  
HETATM   12  C   UNL     1      -8.516   7.897  66.545  1.00  0.00    -0.134 C  
HETATM   13  O   UNL     1      -9.721   9.551  65.237  1.00  0.00    -0.293 OA 
HETATM   14  H   UNL     1     -11.533   7.274  67.815  1.00  0.00     0.000 HD 
HETATM   15  O   UNL     1      -7.821   7.598  65.329  1.00  0.00    -0.106 OA 
BRANCH   6  16
HETATM   16  O   UNL     1      -9.373  11.172  67.555  1.00  0.00    -0.165 OA 
BRANCH  16  17
HETATM   17  C   UNL     1      -9.930  12.402  68.060  1.00  0.00    -0.207 C  
HETATM   18  O   UNL     1     -10.118  14.828  67.774  1.00  0.00    -0.223 OA 
HETATM   19  C   UNL     1      -9.673  13.615  67.150  1.00  0.00    -0.245 C  
HETATM   20  H   UNL     1      -9.958  15.577  67.211  1.00  0.00     0.000 HD 
HETATM   21  C   UNL     1     -11.903  13.209  66.075  1.00  0.00    -0.407 C  
HETATM   22  O   UNL     1      -9.822  12.367  65.062  1.00  0.00    -0.406 OA 
HETATM   23  C   UNL     1     -10.399  13.440  65.811  1.00  0.00    -0.293 C  
HETATM   24  O   UNL     1     -12.557  14.375  66.553  1.00  0.00    -0.519 OA 
HETATM   25  O   UNL     1     -12.127  12.099  66.948  1.00  0.00    -0.600 OA 
HETATM   26  H   UNL     1     -10.272  12.258  64.233  1.00  0.00     0.000 HD 
HETATM   27  H   UNL     1     -13.482  14.233  66.716  1.00  0.00     0.000 HD 
HETATM   28  C   UNL     1     -11.449  12.136  68.210  1.00  0.00    -0.305 C  
BRANCH  28  29
HETATM   29  C   UNL     1     -12.150  13.029  69.245  1.00  0.00    -0.200 C  
HETATM   30  O   UNL     1     -11.840  12.602  70.570  1.00  0.00    -0.525 OA 
HETATM   31  H   UNL     1     -12.273  13.154  71.210  1.00  0.00     0.000 HD 
ENDBRANCH  28  29
ENDBRANCH  16  17
ENDBRANCH   6  16
ENDBRANCH   3   4
TORSDOF 4
ENDMDL
MODEL       92
REMARK 921   NORMALIZED FREE ENERGY PREDICTED BY IDOCK:   -4.42 KCAL/MOL
REMARK 922        TOTAL FREE ENERGY PREDICTED BY IDOCK:   -6.76 KCAL/MOL
REMARK 923 INTER-LIGAND FREE ENERGY PREDICTED BY IDOCK:   -5.88 KCAL/MOL
REMARK 924 INTRA-LIGAND FREE ENERGY PREDICTED BY IDOCK:   -0.88 KCAL/MOL
REMARK 927      BINDING AFFINITY PREDICTED BY RF-SCORE:    0.00 PKD
ROOT
HETATM    1  O   UNL     1     -11.417  14.712  71.150  1.00  0.00    -0.489 OA 
HETATM    2  H   UNL     1     -10.891  14.553  71.924  1.00  0.00     0.000 HD 
HETATM    3  C   UNL     1     -10.579  15.015  70.033  1.00  0.00    -0.154 C  
ENDROOT
BRANCH   3   4
HETATM    4  C   UNL     1     -11.435  15.273  68.774  1.00  0.00    -0.331 C  
HETATM    5  O   UNL     1     -11.396  16.645  68.343  1.00  0.00    -0.321 OA 
HETATM    6  C   UNL     1     -10.261  17.046  67.571  1.00  0.00    -0.323 C  
HETATM    7  H   UNL     1      -8.704  13.486  67.581  1.00  0.00     0.000 HD 
HETATM    8  C   UNL     1     -10.147  16.179  66.297  1.00  0.00    -0.321 C  
HETATM    9  O   UNL     1     -11.281  16.349  65.436  1.00  0.00    -0.093 OA 
HETATM   10  H   UNL     1     -10.809  12.348  67.376  1.00  0.00     0.000 HD 
HETATM   11  C   UNL     1     -10.030  14.705  66.694  1.00  0.00    -0.274 C  
HETATM   12  C   UNL     1     -11.186  14.287  67.613  1.00  0.00    -0.304 C  
HETATM   13  O   UNL     1      -8.777  14.401  67.334  1.00  0.00    -0.181 OA 
HETATM   14  H   UNL     1     -11.211  15.816  64.653  1.00  0.00     0.000 HD 
HETATM   15  O   UNL     1     -10.961  12.956  68.091  1.00  0.00    -0.229 OA 
BRANCH   6  16
HETATM   16  O   UNL     1      -9.096  17.026  68.394  1.00  0.00    -0.240 OA 
BRANCH  16  17
HETATM   17  C   UNL     1      -8.408  18.269  68.642  1.00  0.00    -0.287 C  
HETATM   18  O   UNL     1      -6.470  19.360  69.668  1.00  0.00    -0.299 OA 
HETATM   19  C   UNL     1      -7.037  18.090  69.314  1.00  0.00    -0.110 C  
HETATM   20  H   UNL     1      -5.623  19.249  70.084  1.00  0.00     0.000 HD 
HETATM   21  C   UNL     1      -5.980  18.120  67.038  1.00  0.00    -0.145 C  
HETATM   22  O   UNL     1      -6.499  16.001  68.181  1.00  0.00    -0.112 OA 
HETATM   23  C   UNL     1      -6.075  17.352  68.375  1.00  0.00    -0.160 C  
HETATM   24  O   UNL     1      -5.292  19.355  67.167  1.00  0.00    -0.162 OA 
HETATM   25  O   UNL     1      -7.266  18.308  66.440  1.00  0.00    -0.213 OA 
HETATM   26  H   UNL     1      -5.904  15.543  67.599  1.00  0.00     0.000 HD 
HETATM   27  H   UNL     1      -5.234  19.827  66.345  1.00  0.00     0.000 HD 
HETATM   28  C   UNL     1      -8.260  18.942  67.253  1.00  0.00    -0.270 C  
BRANCH  28  29
HETATM   29  C   UNL     1      -8.113  20.470  67.303  1.00  0.00    -0.309 C  
HETATM   30  O   UNL     1      -9.391  21.094  67.420  1.00  0.00    -0.550 OA 
HETATM   31  H   UNL     1      -9.300  22.039  67.451  1.00  0.00     0.000 HD 
ENDBRANCH  28  29
ENDBRANCH  16  17
ENDBRANCH   6  16
ENDBRANCH   3   4
TORSDOF 4
ENDMDL
MODEL       93
REMARK 921   NORMALIZED FREE ENERGY PREDICTED BY IDOCK:   -4.38 KCAL/MOL
REMARK 922        TOTAL FREE ENERGY PREDICTED BY IDOCK:   -6.72 KCAL/MOL
REMARK 923 INTER-LIGAND FREE ENERGY PREDICTED BY IDOCK:   -6.43 KCAL/MOL
REMARK 924 INTRA-LIGAND FREE ENERGY PREDICTED BY IDOCK:   -0.29 KCAL/MOL
REMARK 927      BINDING AFFINITY PREDICTED BY RF-SCORE:    0.00 PKD
ROOT
HETATM    1  O   UNL     1     -12.228  14.016  66.538  1.00  0.00    -0.447 OA 
HETATM    2  H   UNL     1     -12.515  14.301  67.398  1.00  0.00     0.000 HD 
HETATM    3  C   UNL     1     -10.994  14.647  66.192  1.00  0.00    -0.329 C  
ENDROOT
BRANCH   3   4
HETATM    4  C   UNL     1     -10.529  14.185  64.794  1.00  0.00    -0.408 C  
HETATM    5  O   UNL     1      -9.573  13.110  64.848  1.00  0.00     0.062 OA 
HETATM    6  C   UNL     1     -10.097  11.793  65.036  1.00  0.00    -0.263 C  
HETATM    7  H   UNL     1     -13.789  13.003  65.028  1.00  0.00     0.000 HD 
HETATM    8  C   UNL     1     -11.088  11.445  63.904  1.00  0.00    -0.329 C  
HETATM    9  O   UNL     1     -10.447  11.428  62.622  1.00  0.00    -0.561 OA 
HETATM   10  H   UNL     1     -13.448  14.666  63.329  1.00  0.00     0.000 HD 
HETATM   11  C   UNL     1     -12.223  12.473  63.888  1.00  0.00    -0.503 C  
HETATM   12  C   UNL     1     -11.672  13.902  63.796  1.00  0.00    -0.103 C  
HETATM   13  O   UNL     1     -13.085  12.365  65.037  1.00  0.00    -0.678 OA 
HETATM   14  H   UNL     1     -11.056  11.214  61.927  1.00  0.00     0.000 HD 
HETATM   15  O   UNL     1     -12.745  14.839  63.943  1.00  0.00    -0.794 OA 
BRANCH   6  16
HETATM   16  O   UNL     1     -10.648  11.683  66.348  1.00  0.00    -0.239 OA 
BRANCH  16  17
HETATM   17  C   UNL     1     -10.484  10.441  67.061  1.00  0.00    -0.251 C  
HETATM   18  O   UNL     1      -9.023   8.529  67.522  1.00  0.00    -0.134 OA 
HETATM   19  C   UNL     1      -9.080   9.830  66.919  1.00  0.00    -0.142 C  
HETATM   20  H   UNL     1      -8.156   8.152  67.434  1.00  0.00     0.000 HD 
HETATM   21  C   UNL     1      -8.427  10.979  69.052  1.00  0.00    -0.076 C  
HETATM   22  O   UNL     1      -7.909  11.966  66.855  1.00  0.00    -0.194 OA 
HETATM   23  C   UNL     1      -8.034  10.738  67.577  1.00  0.00    -0.110 C  
HETATM   24  O   UNL     1      -8.275   9.816  69.852  1.00  0.00    -0.152 OA 
HETATM   25  O   UNL     1      -9.747  11.516  69.171  1.00  0.00    -0.033 OA 
HETATM   26  H   UNL     1      -7.262  12.529  67.263  1.00  0.00     0.000 HD 
HETATM   27  H   UNL     1      -8.516   9.964  70.759  1.00  0.00     0.000 HD 
HETATM   28  C   UNL     1     -10.796  10.771  68.542  1.00  0.00    -0.228 C  
BRANCH  28  29
HETATM   29  C   UNL     1     -11.263   9.568  69.375  1.00  0.00    -0.035 C  
HETATM   30  O   UNL     1     -12.379   9.922  70.189  1.00  0.00    -0.484 OA 
HETATM   31  H   UNL     1     -12.668   9.178  70.704  1.00  0.00     0.000 HD 
ENDBRANCH  28  29
ENDBRANCH  16  17
ENDBRANCH   6  16
ENDBRANCH   3   4
TORSDOF 4
ENDMDL
MODEL       94
REMARK 921   NORMALIZED FREE ENERGY PREDICTED BY IDOCK:   -4.36 KCAL/MOL
REMARK 922        TOTAL FREE ENERGY PREDICTED BY IDOCK:   -6.69 KCAL/MOL
REMARK 923 INTER-LIGAND FREE ENERGY PREDICTED BY IDOCK:   -5.56 KCAL/MOL
REMARK 924 INTRA-LIGAND FREE ENERGY PREDICTED BY IDOCK:   -1.13 KCAL/MOL
REMARK 927      BINDING AFFINITY PREDICTED BY RF-SCORE:    0.00 PKD
ROOT
HETATM    1  O   UNL     1     -10.193  13.991  69.436  1.00  0.00    -0.431 OA 
HETATM    2  H   UNL     1      -9.827  13.615  70.227  1.00  0.00     0.000 HD 
HETATM    3  C   UNL     1      -9.284  14.937  68.869  1.00  0.00    -0.192 C  
ENDROOT
BRANCH   3   4
HETATM    4  C   UNL     1      -9.880  15.549  67.582  1.00  0.00    -0.213 C  
HETATM    5  O   UNL     1      -9.315  14.990  66.383  1.00  0.00    -0.267 OA 
HETATM    6  C   UNL     1      -9.842  13.733  65.949  1.00  0.00    -0.260 C  
HETATM    7  H   UNL     1     -12.442  13.560  68.831  1.00  0.00     0.000 HD 
HETATM    8  C   UNL     1     -11.364  13.845  65.710  1.00  0.00    -0.307 C  
HETATM    9  O   UNL     1     -11.670  14.775  64.664  1.00  0.00    -0.409 OA 
HETATM   10  H   UNL     1     -12.926  15.912  68.801  1.00  0.00     0.000 HD 
HETATM   11  C   UNL     1     -12.050  14.293  67.003  1.00  0.00    -0.390 C  
HETATM   12  C   UNL     1     -11.422  15.586  67.542  1.00  0.00    -0.183 C  
HETATM   13  O   UNL     1     -12.017  13.282  68.028  1.00  0.00    -0.350 OA 
HETATM   14  H   UNL     1     -12.606  14.844  64.517  1.00  0.00     0.000 HD 
HETATM   15  O   UNL     1     -11.977  15.889  68.826  1.00  0.00    -0.368 OA 
BRANCH   6  16
HETATM   16  O   UNL     1      -9.471  12.716  66.878  1.00  0.00    -0.215 OA 
BRANCH  16  17
HETATM   17  C   UNL     1      -8.435  11.786  66.503  1.00  0.00    -0.125 C  
HETATM   18  O   UNL     1      -6.552  10.414  67.260  1.00  0.00    -0.066 OA 
HETATM   19  C   UNL     1      -7.659  11.212  67.701  1.00  0.00    -0.105 C  
HETATM   20  H   UNL     1      -6.073  10.060  68.000  1.00  0.00     0.000 HD 
HETATM   21  C   UNL     1      -9.225   9.251  67.703  1.00  0.00    -0.124 C  
HETATM   22  O   UNL     1      -9.573  11.169  69.210  1.00  0.00    -0.407 OA 
HETATM   23  C   UNL     1      -8.584  10.355  68.574  1.00  0.00    -0.134 C  
HETATM   24  O   UNL     1      -8.289   8.264  67.300  1.00  0.00    -0.122 OA 
HETATM   25  O   UNL     1      -9.916   9.796  66.575  1.00  0.00    -0.209 OA 
HETATM   26  H   UNL     1     -10.146  10.638  69.750  1.00  0.00     0.000 HD 
HETATM   27  H   UNL     1      -8.683   7.585  66.764  1.00  0.00     0.000 HD 
HETATM   28  C   UNL     1      -9.156  10.660  65.720  1.00  0.00    -0.186 C  
BRANCH  28  29
HETATM   29  C   UNL     1      -8.255   9.895  64.739  1.00  0.00    -0.151 C  
HETATM   30  O   UNL     1      -7.235  10.748  64.223  1.00  0.00    -0.344 OA 
HETATM   31  H   UNL     1      -6.679  10.276  63.616  1.00  0.00     0.000 HD 
ENDBRANCH  28  29
ENDBRANCH  16  17
ENDBRANCH   6  16
ENDBRANCH   3   4
TORSDOF 4
ENDMDL
MODEL       95
REMARK 921   NORMALIZED FREE ENERGY PREDICTED BY IDOCK:   -4.34 KCAL/MOL
REMARK 922        TOTAL FREE ENERGY PREDICTED BY IDOCK:   -6.66 KCAL/MOL
REMARK 923 INTER-LIGAND FREE ENERGY PREDICTED BY IDOCK:   -5.89 KCAL/MOL
REMARK 924 INTRA-LIGAND FREE ENERGY PREDICTED BY IDOCK:   -0.77 KCAL/MOL
REMARK 927      BINDING AFFINITY PREDICTED BY RF-SCORE:    0.00 PKD
ROOT
HETATM    1  O   UNL     1      -7.920   7.816  69.225  1.00  0.00    -0.120 OA 
HETATM    2  H   UNL     1      -7.492   8.340  69.892  1.00  0.00     0.000 HD 
HETATM    3  C   UNL     1      -7.966   6.445  69.626  1.00  0.00    -0.116 C  
ENDROOT
BRANCH   3   4
HETATM    4  C   UNL     1      -8.662   5.592  68.543  1.00  0.00    -0.110 C  
HETATM    5  O   UNL     1     -10.019   5.253  68.882  1.00  0.00    -0.154 OA 
HETATM    6  C   UNL     1     -11.012   6.253  68.638  1.00  0.00    -0.346 C  
HETATM    7  H   UNL     1      -8.458   8.756  67.120  1.00  0.00     0.000 HD 
HETATM    8  C   UNL     1     -11.017   6.650  67.145  1.00  0.00    -0.408 C  
HETATM    9  O   UNL     1     -11.365   5.544  66.303  1.00  0.00    -0.712 OA 
HETATM   10  H   UNL     1      -7.173   7.069  65.992  1.00  0.00     0.000 HD 
HETATM   11  C   UNL     1      -9.630   7.168  66.753  1.00  0.00    -0.178 C  
HETATM   12  C   UNL     1      -8.539   6.149  67.108  1.00  0.00    -0.103 C  
HETATM   13  O   UNL     1      -9.319   8.435  67.362  1.00  0.00    -0.143 OA 
HETATM   14  H   UNL     1     -11.368   5.788  65.385  1.00  0.00     0.000 HD 
HETATM   15  O   UNL     1      -7.250   6.727  66.875  1.00  0.00    -0.076 OA 
BRANCH   6  16
HETATM   16  O   UNL     1     -10.813   7.348  69.531  1.00  0.00    -0.236 OA 
BRANCH  16  17
HETATM   17  C   UNL     1     -10.991   7.123  70.945  1.00  0.00    -0.251 C  
HETATM   18  O   UNL     1     -10.543   7.933  73.212  1.00  0.00    -0.341 OA 
HETATM   19  C   UNL     1     -10.476   8.277  71.821  1.00  0.00    -0.259 C  
HETATM   20  H   UNL     1     -10.224   8.647  73.754  1.00  0.00     0.000 HD 
HETATM   21  C   UNL     1     -12.795   9.234  71.824  1.00  0.00    -0.382 C  
HETATM   22  O   UNL     1     -11.080  10.041  70.251  1.00  0.00    -0.271 OA 
HETATM   23  C   UNL     1     -11.303   9.545  71.573  1.00  0.00    -0.385 C  
HETATM   24  O   UNL     1     -13.084   9.022  73.198  1.00  0.00    -0.753 OA 
HETATM   25  O   UNL     1     -13.253   8.138  71.027  1.00  0.00    -0.081 OA 
HETATM   26  H   UNL     1     -11.592  10.825  70.098  1.00  0.00     0.000 HD 
HETATM   27  H   UNL     1     -14.002   8.831  73.352  1.00  0.00     0.000 HD 
HETATM   28  C   UNL     1     -12.514   6.916  71.141  1.00  0.00    -0.349 C  
BRANCH  28  29
HETATM   29  C   UNL     1     -12.887   6.102  72.389  1.00  0.00     0.338 C  
HETATM   30  O   UNL     1     -11.756   5.377  72.872  1.00  0.00    -0.456 OA 
HETATM   31  H   UNL     1     -11.987   4.873  73.643  1.00  0.00     0.000 HD 
ENDBRANCH  28  29
ENDBRANCH  16  17
ENDBRANCH   6  16
ENDBRANCH   3   4
TORSDOF 4
ENDMDL
MODEL       96
REMARK 921   NORMALIZED FREE ENERGY PREDICTED BY IDOCK:   -4.33 KCAL/MOL
REMARK 922        TOTAL FREE ENERGY PREDICTED BY IDOCK:   -6.65 KCAL/MOL
REMARK 923 INTER-LIGAND FREE ENERGY PREDICTED BY IDOCK:   -5.72 KCAL/MOL
REMARK 924 INTRA-LIGAND FREE ENERGY PREDICTED BY IDOCK:   -0.94 KCAL/MOL
REMARK 927      BINDING AFFINITY PREDICTED BY RF-SCORE:    0.00 PKD
ROOT
HETATM    1  O   UNL     1      -8.997  10.349  62.968  1.00  0.00    -0.189 OA 
HETATM    2  H   UNL     1      -9.837  10.526  62.562  1.00  0.00     0.000 HD 
HETATM    3  C   UNL     1      -9.182   9.704  64.230  1.00  0.00    -0.178 C  
ENDROOT
BRANCH   3   4
HETATM    4  C   UNL     1      -7.816   9.416  64.890  1.00  0.00    -0.117 C  
HETATM    5  O   UNL     1      -7.293  10.545  65.611  1.00  0.00    -0.147 OA 
HETATM    6  C   UNL     1      -7.807  10.762  66.928  1.00  0.00    -0.130 C  
HETATM    7  H   UNL     1     -10.077   7.610  66.815  1.00  0.00     0.000 HD 
HETATM    8  C   UNL     1      -7.558   9.520  67.812  1.00  0.00    -0.087 C  
HETATM    9  O   UNL     1      -6.158   9.261  67.980  1.00  0.00    -0.049 OA 
HETATM   10  H   UNL     1      -8.489   6.266  65.616  1.00  0.00     0.000 HD 
HETATM   11  C   UNL     1      -8.225   8.299  67.172  1.00  0.00    -0.119 C  
HETATM   12  C   UNL     1      -7.763   8.115  65.719  1.00  0.00    -0.092 C  
HETATM   13  O   UNL     1      -9.662   8.368  67.212  1.00  0.00    -0.160 OA 
HETATM   14  H   UNL     1      -6.005   8.497  68.523  1.00  0.00     0.000 HD 
HETATM   15  O   UNL     1      -8.521   7.067  65.106  1.00  0.00    -0.111 OA 
BRANCH   6  16
HETATM   16  O   UNL     1      -9.177  11.151  66.844  1.00  0.00    -0.164 OA 
BRANCH  16  17
HETATM   17  C   UNL     1      -9.790  11.763  67.997  1.00  0.00    -0.183 C  
HETATM   18  O   UNL     1     -10.089  13.813  69.304  1.00  0.00    -0.428 OA 
HETATM   19  C   UNL     1      -9.589  13.286  68.067  1.00  0.00    -0.220 C  
HETATM   20  H   UNL     1      -9.965  14.754  69.346  1.00  0.00     0.000 HD 
HETATM   21  C   UNL     1     -11.800  13.573  66.914  1.00  0.00    -0.407 C  
HETATM   22  O   UNL     1      -9.683  13.637  65.657  1.00  0.00    -0.460 OA 
HETATM   23  C   UNL     1     -10.308  13.972  66.898  1.00  0.00    -0.269 C  
HETATM   24  O   UNL     1     -12.506  14.148  68.003  1.00  0.00    -0.528 OA 
HETATM   25  O   UNL     1     -11.972  12.153  66.882  1.00  0.00    -0.603 OA 
HETATM   26  H   UNL     1     -10.128  14.061  64.933  1.00  0.00     0.000 HD 
HETATM   27  H   UNL     1     -13.423  13.902  68.013  1.00  0.00     0.000 HD 
HETATM   28  C   UNL     1     -11.296  11.407  67.901  1.00  0.00    -0.303 C  
BRANCH  28  29
HETATM   29  C   UNL     1     -12.036  11.418  69.247  1.00  0.00    -0.332 C  
HETATM   30  O   UNL     1     -11.111  11.335  70.330  1.00  0.00    -0.441 OA 
HETATM   31  H   UNL     1     -11.568  11.342  71.162  1.00  0.00     0.000 HD 
ENDBRANCH  28  29
ENDBRANCH  16  17
ENDBRANCH   6  16
ENDBRANCH   3   4
TORSDOF 4
ENDMDL
MODEL       97
REMARK 921   NORMALIZED FREE ENERGY PREDICTED BY IDOCK:   -4.33 KCAL/MOL
REMARK 922        TOTAL FREE ENERGY PREDICTED BY IDOCK:   -6.65 KCAL/MOL
REMARK 923 INTER-LIGAND FREE ENERGY PREDICTED BY IDOCK:   -5.39 KCAL/MOL
REMARK 924 INTRA-LIGAND FREE ENERGY PREDICTED BY IDOCK:   -1.25 KCAL/MOL
REMARK 927      BINDING AFFINITY PREDICTED BY RF-SCORE:    0.00 PKD
ROOT
HETATM    1  O   UNL     1      -9.827  12.881  64.519  1.00  0.00    -0.568 OA 
HETATM    2  H   UNL     1     -10.544  13.361  64.123  1.00  0.00     0.000 HD 
HETATM    3  C   UNL     1     -10.319  11.718  65.188  1.00  0.00    -0.279 C  
ENDROOT
BRANCH   3   4
HETATM    4  C   UNL     1      -9.154  10.937  65.833  1.00  0.00    -0.193 C  
HETATM    5  O   UNL     1      -8.003  11.761  66.095  1.00  0.00     0.061 OA 
HETATM    6  C   UNL     1      -8.039  12.557  67.282  1.00  0.00    -0.179 C  
HETATM    7  H   UNL     1     -11.506  11.190  68.379  1.00  0.00     0.000 HD 
HETATM    8  C   UNL     1      -8.228  11.658  68.524  1.00  0.00    -0.144 C  
HETATM    9  O   UNL     1      -7.131  10.752  68.696  1.00  0.00    -0.069 OA 
HETATM   10  H   UNL     1     -11.080   8.948  67.630  1.00  0.00     0.000 HD 
HETATM   11  C   UNL     1      -9.526  10.858  68.378  1.00  0.00    -0.178 C  
HETATM   12  C   UNL     1      -9.551  10.081  67.054  1.00  0.00    -0.172 C  
HETATM   13  O   UNL     1     -10.701  11.685  68.469  1.00  0.00    -0.199 OA 
HETATM   14  H   UNL     1      -7.247  10.199  69.459  1.00  0.00     0.000 HD 
HETATM   15  O   UNL     1     -10.836   9.475  66.879  1.00  0.00    -0.161 OA 
BRANCH   6  16
HETATM   16  O   UNL     1      -9.029  13.574  67.143  1.00  0.00    -0.210 OA 
BRANCH  16  17
HETATM   17  C   UNL     1      -8.599  14.949  67.083  1.00  0.00    -0.225 C  
HETATM   18  O   UNL     1      -8.886  17.133  66.011  1.00  0.00    -0.484 OA 
HETATM   19  C   UNL     1      -9.449  15.820  66.143  1.00  0.00    -0.340 C  
HETATM   20  H   UNL     1      -9.411  17.671  65.430  1.00  0.00     0.000 HD 
HETATM   21  C   UNL     1     -10.846  16.489  68.117  1.00  0.00    -0.345 C  
HETATM   22  O   UNL     1     -11.549  14.673  66.608  1.00  0.00    -0.362 OA 
HETATM   23  C   UNL     1     -10.883  15.937  66.675  1.00  0.00    -0.213 C  
HETATM   24  O   UNL     1     -10.458  17.853  68.168  1.00  0.00    -0.374 OA 
HETATM   25  O   UNL     1     -10.026  15.689  68.973  1.00  0.00    -0.207 OA 
HETATM   26  H   UNL     1     -12.436  14.745  66.938  1.00  0.00     0.000 HD 
HETATM   27  H   UNL     1     -10.435  18.193  69.055  1.00  0.00     0.000 HD 
HETATM   28  C   UNL     1      -8.678  15.470  68.541  1.00  0.00    -0.184 C  
BRANCH  28  29
HETATM   29  C   UNL     1      -7.749  16.656  68.841  1.00  0.00    -0.239 C  
HETATM   30  O   UNL     1      -6.625  16.649  67.962  1.00  0.00    -0.129 OA 
HETATM   31  H   UNL     1      -6.051  17.382  68.148  1.00  0.00     0.000 HD 
ENDBRANCH  28  29
ENDBRANCH  16  17
ENDBRANCH   6  16
ENDBRANCH   3   4
TORSDOF 4
ENDMDL
MODEL       98
REMARK 921   NORMALIZED FREE ENERGY PREDICTED BY IDOCK:   -4.28 KCAL/MOL
REMARK 922        TOTAL FREE ENERGY PREDICTED BY IDOCK:   -6.59 KCAL/MOL
REMARK 923 INTER-LIGAND FREE ENERGY PREDICTED BY IDOCK:   -5.48 KCAL/MOL
REMARK 924 INTRA-LIGAND FREE ENERGY PREDICTED BY IDOCK:   -1.11 KCAL/MOL
REMARK 927      BINDING AFFINITY PREDICTED BY RF-SCORE:    0.00 PKD
ROOT
HETATM    1  O   UNL     1      -9.873  13.409  64.414  1.00  0.00    -0.649 OA 
HETATM    2  H   UNL     1      -9.090  13.424  63.877  1.00  0.00     0.000 HD 
HETATM    3  C   UNL     1      -9.946  14.588  65.218  1.00  0.00    -0.287 C  
ENDROOT
BRANCH   3   4
HETATM    4  C   UNL     1     -11.219  14.564  66.091  1.00  0.00    -0.339 C  
HETATM    5  O   UNL     1     -11.557  13.244  66.553  1.00  0.00    -0.319 OA 
HETATM    6  C   UNL     1     -10.846  12.759  67.695  1.00  0.00    -0.228 C  
HETATM    7  H   UNL     1      -8.830  16.052  68.130  1.00  0.00     0.000 HD 
HETATM    8  C   UNL     1     -11.048  13.711  68.894  1.00  0.00    -0.256 C  
HETATM    9  O   UNL     1     -12.423  13.778  69.294  1.00  0.00    -0.357 OA 
HETATM   10  H   UNL     1     -10.660  17.486  67.523  1.00  0.00     0.000 HD 
HETATM   11  C   UNL     1     -10.562  15.114  68.518  1.00  0.00    -0.237 C  
HETATM   12  C   UNL     1     -11.238  15.605  67.230  1.00  0.00    -0.184 C  
HETATM   13  O   UNL     1      -9.132  15.183  68.364  1.00  0.00    -0.174 OA 
HETATM   14  H   UNL     1     -12.547  14.363  70.031  1.00  0.00     0.000 HD 
HETATM   15  O   UNL     1     -10.648  16.844  66.823  1.00  0.00    -0.290 OA 
BRANCH   6  16
HETATM   16  O   UNL     1      -9.479  12.543  67.347  1.00  0.00    -0.177 OA 
BRANCH  16  17
HETATM   17  C   UNL     1      -9.085  11.234  66.889  1.00  0.00    -0.167 C  
HETATM   18  O   UNL     1      -7.225   9.713  66.411  1.00  0.00    -0.091 OA 
HETATM   19  C   UNL     1      -7.576  10.966  67.015  1.00  0.00    -0.122 C  
HETATM   20  H   UNL     1      -6.292   9.548  66.489  1.00  0.00     0.000 HD 
HETATM   21  C   UNL     1      -8.009   9.903  69.247  1.00  0.00    -0.121 C  
HETATM   22  O   UNL     1      -7.288  12.252  69.066  1.00  0.00    -0.245 OA 
HETATM   23  C   UNL     1      -7.159  10.949  68.492  1.00  0.00    -0.076 C  
HETATM   24  O   UNL     1      -7.679   8.570  68.887  1.00  0.00    -0.096 OA 
HETATM   25  O   UNL     1      -9.410  10.144  69.094  1.00  0.00    -0.174 OA 
HETATM   26  H   UNL     1      -7.031  12.241  69.980  1.00  0.00     0.000 HD 
HETATM   27  H   UNL     1      -8.201   7.928  69.351  1.00  0.00     0.000 HD 
HETATM   28  C   UNL     1      -9.898  10.234  67.750  1.00  0.00    -0.169 C  
BRANCH  28  29
HETATM   29  C   UNL     1     -10.112   8.862  67.094  1.00  0.00    -0.249 C  
HETATM   30  O   UNL     1      -9.836   8.925  65.696  1.00  0.00    -0.469 OA 
HETATM   31  H   UNL     1      -9.968   8.076  65.290  1.00  0.00     0.000 HD 
ENDBRANCH  28  29
ENDBRANCH  16  17
ENDBRANCH   6  16
ENDBRANCH   3   4
TORSDOF 4
ENDMDL
MODEL       99
REMARK 921   NORMALIZED FREE ENERGY PREDICTED BY IDOCK:   -4.27 KCAL/MOL
REMARK 922        TOTAL FREE ENERGY PREDICTED BY IDOCK:   -6.58 KCAL/MOL
REMARK 923 INTER-LIGAND FREE ENERGY PREDICTED BY IDOCK:   -5.57 KCAL/MOL
REMARK 924 INTRA-LIGAND FREE ENERGY PREDICTED BY IDOCK:   -1.01 KCAL/MOL
REMARK 927      BINDING AFFINITY PREDICTED BY RF-SCORE:    0.00 PKD
ROOT
HETATM    1  O   UNL     1     -11.203   9.166  71.654  1.00  0.00    -0.333 OA 
HETATM    2  H   UNL     1     -11.362  10.100  71.718  1.00  0.00     0.000 HD 
HETATM    3  C   UNL     1     -12.439   8.461  71.527  1.00  0.00    -0.312 C  
ENDROOT
BRANCH   3   4
HETATM    4  C   UNL     1     -12.182   6.942  71.424  1.00  0.00    -0.372 C  
HETATM    5  O   UNL     1     -12.101   6.479  70.064  1.00  0.00    -0.282 OA 
HETATM    6  C   UNL     1     -10.852   6.668  69.392  1.00  0.00    -0.292 C  
HETATM    7  H   UNL     1      -9.145   8.236  72.511  1.00  0.00     0.000 HD 
HETATM    8  C   UNL     1      -9.716   5.964  70.167  1.00  0.00    -0.168 C  
HETATM    9  O   UNL     1      -9.913   4.545  70.226  1.00  0.00    -0.226 OA 
HETATM   10  H   UNL     1     -10.232   6.783  74.083  1.00  0.00     0.000 HD 
HETATM   11  C   UNL     1      -9.648   6.524  71.590  1.00  0.00    -0.160 C  
HETATM   12  C   UNL     1     -11.012   6.427  72.288  1.00  0.00    -0.254 C  
HETATM   13  O   UNL     1      -9.187   7.888  71.628  1.00  0.00    -0.132 OA 
HETATM   14  H   UNL     1      -9.215   4.112  70.701  1.00  0.00     0.000 HD 
HETATM   15  O   UNL     1     -10.952   7.100  73.551  1.00  0.00    -0.328 OA 
BRANCH   6  16
HETATM   16  O   UNL     1     -10.635   8.062  69.179  1.00  0.00    -0.219 OA 
BRANCH  16  17
HETATM   17  C   UNL     1      -9.915   8.473  67.999  1.00  0.00    -0.183 C  
HETATM   18  O   UNL     1     -10.036   9.568  65.812  1.00  0.00    -0.300 OA 
HETATM   19  C   UNL     1     -10.755   9.317  67.027  1.00  0.00    -0.129 C  
HETATM   20  H   UNL     1     -10.556  10.090  65.211  1.00  0.00     0.000 HD 
HETATM   21  C   UNL     1      -9.850  11.382  68.128  1.00  0.00    -0.191 C  
HETATM   22  O   UNL     1     -12.039  10.448  68.763  1.00  0.00    -0.723 OA 
HETATM   23  C   UNL     1     -11.135  10.655  67.675  1.00  0.00    -0.319 C  
HETATM   24  O   UNL     1      -9.076  11.854  67.036  1.00  0.00    -0.179 OA 
HETATM   25  O   UNL     1      -9.061  10.574  69.006  1.00  0.00    -0.171 OA 
HETATM   26  H   UNL     1     -12.274  11.276  69.164  1.00  0.00     0.000 HD 
HETATM   27  H   UNL     1      -8.286  12.301  67.315  1.00  0.00     0.000 HD 
HETATM   28  C   UNL     1      -8.696   9.277  68.519  1.00  0.00    -0.128 C  
BRANCH  28  29
HETATM   29  C   UNL     1      -7.501   9.310  67.554  1.00  0.00    -0.088 C  
HETATM   30  O   UNL     1      -7.527   8.180  66.684  1.00  0.00    -0.086 OA 
HETATM   31  H   UNL     1      -6.788   8.200  66.087  1.00  0.00     0.000 HD 
ENDBRANCH  28  29
ENDBRANCH  16  17
ENDBRANCH   6  16
ENDBRANCH   3   4
TORSDOF 4
ENDMDL
MODEL      100
REMARK 921   NORMALIZED FREE ENERGY PREDICTED BY IDOCK:   -4.26 KCAL/MOL
REMARK 922        TOTAL FREE ENERGY PREDICTED BY IDOCK:   -6.56 KCAL/MOL
REMARK 923 INTER-LIGAND FREE ENERGY PREDICTED BY IDOCK:   -5.63 KCAL/MOL
REMARK 924 INTRA-LIGAND FREE ENERGY PREDICTED BY IDOCK:   -0.93 KCAL/MOL
REMARK 927      BINDING AFFINITY PREDICTED BY RF-SCORE:    0.00 PKD
ROOT
HETATM    1  O   UNL     1     -10.864  11.657  63.332  1.00  0.00    -0.502 OA 
HETATM    2  H   UNL     1     -10.201  11.177  62.851  1.00  0.00     0.000 HD 
HETATM    3  C   UNL     1     -10.398  11.963  64.648  1.00  0.00    -0.284 C  
ENDROOT
BRANCH   3   4
HETATM    4  C   UNL     1     -11.476  12.743  65.431  1.00  0.00    -0.327 C  
HETATM    5  O   UNL     1     -12.276  11.897  66.277  1.00  0.00    -0.471 OA 
HETATM    6  C   UNL     1     -11.714  11.536  67.541  1.00  0.00    -0.184 C  
HETATM    7  H   UNL     1      -8.498  13.643  66.980  1.00  0.00     0.000 HD 
HETATM    8  C   UNL     1     -11.390  12.803  68.364  1.00  0.00    -0.295 C  
HETATM    9  O   UNL     1     -12.571  13.557  68.665  1.00  0.00    -0.097 OA 
HETATM   10  H   UNL     1      -9.634  15.447  65.874  1.00  0.00     0.000 HD 
HETATM   11  C   UNL     1     -10.414  13.684  67.578  1.00  0.00    -0.241 C  
HETATM   12  C   UNL     1     -10.955  13.991  66.175  1.00  0.00    -0.295 C  
HETATM   13  O   UNL     1      -9.104  13.097  67.468  1.00  0.00    -0.186 OA 
HETATM   14  H   UNL     1     -12.372  14.336  69.171  1.00  0.00     0.000 HD 
HETATM   15  O   UNL     1      -9.955  14.678  65.416  1.00  0.00    -0.359 OA 
BRANCH   6  16
HETATM   16  O   UNL     1     -10.597  10.674  67.336  1.00  0.00    -0.222 OA 
BRANCH  16  17
HETATM   17  C   UNL     1     -10.312   9.669  68.331  1.00  0.00    -0.204 C  
HETATM   18  O   UNL     1     -10.241   7.278  68.855  1.00  0.00    -0.182 OA 
HETATM   19  C   UNL     1     -10.386   8.231  67.792  1.00  0.00    -0.234 C  
HETATM   20  H   UNL     1     -10.287   6.389  68.522  1.00  0.00     0.000 HD 
HETATM   21  C   UNL     1      -7.913   8.319  67.375  1.00  0.00    -0.106 C  
HETATM   22  O   UNL     1      -9.533   8.774  65.575  1.00  0.00    -0.422 OA 
HETATM   23  C   UNL     1      -9.288   7.995  66.748  1.00  0.00    -0.180 C  
HETATM   24  O   UNL     1      -7.523   7.370  68.355  1.00  0.00    -0.100 OA 
HETATM   25  O   UNL     1      -7.868   9.649  67.901  1.00  0.00    -0.087 OA 
HETATM   26  H   UNL     1      -8.852   8.628  64.929  1.00  0.00     0.000 HD 
HETATM   27  H   UNL     1      -6.679   7.569  68.740  1.00  0.00     0.000 HD 
HETATM   28  C   UNL     1      -8.887   9.994  68.848  1.00  0.00    -0.148 C  
BRANCH  28  29
HETATM   29  C   UNL     1      -8.594   9.475  70.263  1.00  0.00    -0.226 C  
HETATM   30  O   UNL     1      -9.789   9.433  71.041  1.00  0.00    -0.283 OA 
HETATM   31  H   UNL     1      -9.608   9.113  71.916  1.00  0.00     0.000 HD 
ENDBRANCH  28  29
ENDBRANCH  16  17
ENDBRANCH   6  16
ENDBRANCH   3   4
TORSDOF 4
ENDMDL
MODEL      101
REMARK 921   NORMALIZED FREE ENERGY PREDICTED BY IDOCK:   -4.23 KCAL/MOL
REMARK 922        TOTAL FREE ENERGY PREDICTED BY IDOCK:   -6.53 KCAL/MOL
REMARK 923 INTER-LIGAND FREE ENERGY PREDICTED BY IDOCK:   -5.63 KCAL/MOL
REMARK 924 INTRA-LIGAND FREE ENERGY PREDICTED BY IDOCK:   -0.89 KCAL/MOL
REMARK 927      BINDING AFFINITY PREDICTED BY RF-SCORE:    0.00 PKD
ROOT
HETATM    1  O   UNL     1      -9.085  11.326  69.017  1.00  0.00    -0.362 OA 
HETATM    2  H   UNL     1      -8.348  11.307  69.615  1.00  0.00     0.000 HD 
HETATM    3  C   UNL     1     -10.304  11.093  69.725  1.00  0.00     0.267 C  
ENDROOT
BRANCH   3   4
HETATM    4  C   UNL     1     -11.504  11.124  68.753  1.00  0.00    -0.299 C  
HETATM    5  O   UNL     1     -12.076  12.436  68.610  1.00  0.00    -0.267 OA 
HETATM    6  C   UNL     1     -11.413  13.333  67.714  1.00  0.00    -0.317 C  
HETATM    7  H   UNL     1      -8.749  10.701  66.676  1.00  0.00     0.000 HD 
HETATM    8  C   UNL     1     -11.349  12.722  66.296  1.00  0.00    -0.320 C  
HETATM    9  O   UNL     1     -12.656  12.520  65.745  1.00  0.00    -0.569 OA 
HETATM   10  H   UNL     1     -10.281   8.852  66.693  1.00  0.00     0.000 HD 
HETATM   11  C   UNL     1     -10.610  11.382  66.354  1.00  0.00    -0.263 C  
HETATM   12  C   UNL     1     -11.245  10.445  67.391  1.00  0.00    -0.129 C  
HETATM   13  O   UNL     1      -9.208  11.533  66.640  1.00  0.00    -0.176 OA 
HETATM   14  H   UNL     1     -12.617  12.144  64.874  1.00  0.00     0.000 HD 
HETATM   15  O   UNL     1     -10.440   9.270  67.531  1.00  0.00    -0.245 OA 
BRANCH   6  16
HETATM   16  O   UNL     1     -10.141  13.689  68.253  1.00  0.00    -0.229 OA 
BRANCH  16  17
HETATM   17  C   UNL     1      -9.884  15.076  68.550  1.00  0.00    -0.217 C  
HETATM   18  O   UNL     1      -8.196  16.774  69.067  1.00  0.00    -0.238 OA 
HETATM   19  C   UNL     1      -8.388  15.423  68.624  1.00  0.00    -0.168 C  
HETATM   20  H   UNL     1      -7.271  16.988  69.113  1.00  0.00     0.000 HD 
HETATM   21  C   UNL     1      -8.484  16.103  66.210  1.00  0.00    -0.322 C  
HETATM   22  O   UNL     1      -7.707  13.863  66.880  1.00  0.00    -0.338 OA 
HETATM   23  C   UNL     1      -7.731  15.244  67.250  1.00  0.00    -0.211 C  
HETATM   24  O   UNL     1      -8.275  17.494  66.399  1.00  0.00    -0.254 OA 
HETATM   25  O   UNL     1      -9.880  15.793  66.175  1.00  0.00    -0.269 OA 
HETATM   26  H   UNL     1      -7.300  13.752  66.029  1.00  0.00     0.000 HD 
HETATM   27  H   UNL     1      -8.739  18.022  65.760  1.00  0.00     0.000 HD 
HETATM   28  C   UNL     1     -10.582  15.876  67.421  1.00  0.00    -0.315 C  
BRANCH  28  29
HETATM   29  C   UNL     1     -10.961  17.314  67.805  1.00  0.00    -0.163 C  
HETATM   30  O   UNL     1     -10.920  17.484  69.221  1.00  0.00    -0.230 OA 
HETATM   31  H   UNL     1     -11.154  18.373  69.458  1.00  0.00     0.000 HD 
ENDBRANCH  28  29
ENDBRANCH  16  17
ENDBRANCH   6  16
ENDBRANCH   3   4
TORSDOF 4
ENDMDL
MODEL      102
REMARK 921   NORMALIZED FREE ENERGY PREDICTED BY IDOCK:   -4.23 KCAL/MOL
REMARK 922        TOTAL FREE ENERGY PREDICTED BY IDOCK:   -6.53 KCAL/MOL
REMARK 923 INTER-LIGAND FREE ENERGY PREDICTED BY IDOCK:   -5.76 KCAL/MOL
REMARK 924 INTRA-LIGAND FREE ENERGY PREDICTED BY IDOCK:   -0.77 KCAL/MOL
REMARK 927      BINDING AFFINITY PREDICTED BY RF-SCORE:    0.00 PKD
ROOT
HETATM    1  O   UNL     1     -10.869  17.593  64.988  1.00  0.00    -0.758 OA 
HETATM    2  H   UNL     1     -10.406  17.431  64.174  1.00  0.00     0.000 HD 
HETATM    3  C   UNL     1     -10.269  16.857  66.055  1.00  0.00    -0.336 C  
ENDROOT
BRANCH   3   4
HETATM    4  C   UNL     1     -11.021  17.122  67.378  1.00  0.00    -0.057 C  
HETATM    5  O   UNL     1     -11.639  15.940  67.918  1.00  0.00    -0.256 OA 
HETATM    6  C   UNL     1     -10.795  15.051  68.654  1.00  0.00    -0.249 C  
HETATM    7  H   UNL     1      -7.667  17.322  68.264  1.00  0.00     0.000 HD 
HETATM    8  C   UNL     1     -10.146  15.792  69.844  1.00  0.00    -0.228 C  
HETATM    9  O   UNL     1     -11.127  16.258  70.779  1.00  0.00    -0.320 OA 
HETATM   10  H   UNL     1      -8.885  19.379  68.494  1.00  0.00     0.000 HD 
HETATM   11  C   UNL     1      -9.340  16.985  69.321  1.00  0.00     0.018 C  
HETATM   12  C   UNL     1     -10.206  17.893  68.438  1.00  0.00    -0.394 C  
HETATM   13  O   UNL     1      -8.167  16.583  68.589  1.00  0.00    -0.211 OA 
HETATM   14  H   UNL     1     -10.729  16.713  71.510  1.00  0.00     0.000 HD 
HETATM   15  O   UNL     1      -9.386  18.904  67.842  1.00  0.00    -0.288 OA 
BRANCH   6  16
HETATM   16  O   UNL     1      -9.858  14.442  67.767  1.00  0.00    -0.217 OA 
BRANCH  16  17
HETATM   17  C   UNL     1     -10.245  13.233  67.082  1.00  0.00    -0.246 C  
HETATM   18  O   UNL     1      -9.682  11.601  65.345  1.00  0.00    -0.228 OA 
HETATM   19  C   UNL     1      -9.182  12.714  66.100  1.00  0.00    -0.045 C  
HETATM   20  H   UNL     1      -9.024  11.281  64.738  1.00  0.00     0.000 HD 
HETATM   21  C   UNL     1      -8.303  11.232  67.925  1.00  0.00    -0.131 C  
HETATM   22  O   UNL     1      -7.273  13.417  67.442  1.00  0.00    -0.234 OA 
HETATM   23  C   UNL     1      -7.921  12.284  66.859  1.00  0.00    -0.068 C  
HETATM   24  O   UNL     1      -8.678   9.988  67.353  1.00  0.00    -0.125 OA 
HETATM   25  O   UNL     1      -9.316  11.716  68.811  1.00  0.00    -0.152 OA 
HETATM   26  H   UNL     1      -6.492  13.150  67.912  1.00  0.00     0.000 HD 
HETATM   27  H   UNL     1      -8.913   9.342  68.008  1.00  0.00     0.000 HD 
HETATM   28  C   UNL     1     -10.520  12.196  68.200  1.00  0.00    -0.211 C  
BRANCH  28  29
HETATM   29  C   UNL     1     -11.481  11.068  67.795  1.00  0.00    -0.261 C  
HETATM   30  O   UNL     1     -12.217  10.605  68.926  1.00  0.00    -0.757 OA 
HETATM   31  H   UNL     1     -12.811   9.907  68.676  1.00  0.00     0.000 HD 
ENDBRANCH  28  29
ENDBRANCH  16  17
ENDBRANCH   6  16
ENDBRANCH   3   4
TORSDOF 4
ENDMDL
MODEL      103
REMARK 921   NORMALIZED FREE ENERGY PREDICTED BY IDOCK:   -4.22 KCAL/MOL
REMARK 922        TOTAL FREE ENERGY PREDICTED BY IDOCK:   -6.51 KCAL/MOL
REMARK 923 INTER-LIGAND FREE ENERGY PREDICTED BY IDOCK:   -5.33 KCAL/MOL
REMARK 924 INTRA-LIGAND FREE ENERGY PREDICTED BY IDOCK:   -1.19 KCAL/MOL
REMARK 927      BINDING AFFINITY PREDICTED BY RF-SCORE:    0.00 PKD
ROOT
HETATM    1  O   UNL     1     -10.068   5.757  68.671  1.00  0.00    -0.150 OA 
HETATM    2  H   UNL     1     -10.534   5.601  67.858  1.00  0.00     0.000 HD 
HETATM    3  C   UNL     1     -10.987   5.847  69.761  1.00  0.00    -0.382 C  
ENDROOT
BRANCH   3   4
HETATM    4  C   UNL     1     -10.229   6.100  71.082  1.00  0.00    -0.198 C  
HETATM    5  O   UNL     1      -8.895   6.599  70.877  1.00  0.00    -0.144 OA 
HETATM    6  C   UNL     1      -8.766   7.999  70.612  1.00  0.00    -0.131 C  
HETATM    7  H   UNL     1     -12.579   8.657  70.958  1.00  0.00     0.000 HD 
HETATM    8  C   UNL     1      -9.371   8.821  71.772  1.00  0.00    -0.280 C  
HETATM    9  O   UNL     1      -8.675   8.593  73.004  1.00  0.00    -0.380 OA 
HETATM   10  H   UNL     1     -12.885   7.106  72.766  1.00  0.00     0.000 HD 
HETATM   11  C   UNL     1     -10.845   8.444  71.947  1.00  0.00    -0.302 C  
HETATM   12  C   UNL     1     -11.011   6.929  72.124  1.00  0.00    -0.236 C  
HETATM   13  O   UNL     1     -11.665   8.891  70.850  1.00  0.00    -0.282 OA 
HETATM   14  H   UNL     1      -9.047   9.098  73.717  1.00  0.00     0.000 HD 
HETATM   15  O   UNL     1     -12.404   6.597  72.125  1.00  0.00    -0.292 OA 
BRANCH   6  16
HETATM   16  O   UNL     1      -9.327   8.295  69.334  1.00  0.00    -0.154 OA 
BRANCH  16  17
HETATM   17  C   UNL     1      -8.666   9.269  68.502  1.00  0.00    -0.128 C  
HETATM   18  O   UNL     1      -7.943   9.866  66.239  1.00  0.00    -0.105 OA 
HETATM   19  C   UNL     1      -8.741   8.948  67.000  1.00  0.00    -0.123 C  
HETATM   20  H   UNL     1      -7.990   9.667  65.311  1.00  0.00     0.000 HD 
HETATM   21  C   UNL     1     -10.777  10.407  66.848  1.00  0.00    -0.207 C  
HETATM   22  O   UNL     1     -10.968   7.963  67.090  1.00  0.00    -0.503 OA 
HETATM   23  C   UNL     1     -10.193   9.016  66.512  1.00  0.00    -0.248 C  
HETATM   24  O   UNL     1     -10.208  11.441  66.060  1.00  0.00    -0.228 OA 
HETATM   25  O   UNL     1     -10.671  10.706  68.243  1.00  0.00    -0.189 OA 
HETATM   26  H   UNL     1     -11.868   8.005  66.788  1.00  0.00     0.000 HD 
HETATM   27  H   UNL     1     -10.567  12.296  66.266  1.00  0.00     0.000 HD 
HETATM   28  C   UNL     1      -9.361  10.618  68.815  1.00  0.00    -0.180 C  
BRANCH  28  29
HETATM   29  C   UNL     1      -8.496  11.856  68.532  1.00  0.00    -0.113 C  
HETATM   30  O   UNL     1      -9.276  13.047  68.629  1.00  0.00    -0.375 OA 
HETATM   31  H   UNL     1      -8.742  13.812  68.454  1.00  0.00     0.000 HD 
ENDBRANCH  28  29
ENDBRANCH  16  17
ENDBRANCH   6  16
ENDBRANCH   3   4
TORSDOF 4
ENDMDL
MODEL      104
REMARK 921   NORMALIZED FREE ENERGY PREDICTED BY IDOCK:   -4.20 KCAL/MOL
REMARK 922        TOTAL FREE ENERGY PREDICTED BY IDOCK:   -6.49 KCAL/MOL
REMARK 923 INTER-LIGAND FREE ENERGY PREDICTED BY IDOCK:   -5.20 KCAL/MOL
REMARK 924 INTRA-LIGAND FREE ENERGY PREDICTED BY IDOCK:   -1.29 KCAL/MOL
REMARK 927      BINDING AFFINITY PREDICTED BY RF-SCORE:    0.00 PKD
ROOT
HETATM    1  O   UNL     1     -12.523  14.271  67.924  1.00  0.00    -0.556 OA 
HETATM    2  H   UNL     1     -13.398  14.060  68.228  1.00  0.00     0.000 HD 
HETATM    3  C   UNL     1     -11.639  13.173  68.155  1.00  0.00    -0.339 C  
ENDROOT
BRANCH   3   4
HETATM    4  C   UNL     1     -10.217  13.516  67.662  1.00  0.00    -0.239 C  
HETATM    5  O   UNL     1      -9.185  12.939  68.481  1.00  0.00    -0.165 OA 
HETATM    6  C   UNL     1      -8.864  11.566  68.241  1.00  0.00    -0.166 C  
HETATM    7  H   UNL     1     -11.396  11.244  65.311  1.00  0.00     0.000 HD 
HETATM    8  C   UNL     1      -8.424  11.369  66.773  1.00  0.00    -0.165 C  
HETATM    9  O   UNL     1      -7.231  12.103  66.473  1.00  0.00    -0.373 OA 
HETATM   10  H   UNL     1     -10.985  13.448  64.451  1.00  0.00     0.000 HD 
HETATM   11  C   UNL     1      -9.549  11.826  65.840  1.00  0.00    -0.230 C  
HETATM   12  C   UNL     1      -9.979  13.265  66.157  1.00  0.00    -0.293 C  
HETATM   13  O   UNL     1     -10.698  10.960  65.890  1.00  0.00    -0.215 OA 
HETATM   14  H   UNL     1      -6.960  11.982  65.571  1.00  0.00     0.000 HD 
HETATM   15  O   UNL     1     -11.131  13.602  65.377  1.00  0.00    -0.292 OA 
BRANCH   6  16
HETATM   16  O   UNL     1      -9.963  10.746  68.635  1.00  0.00    -0.167 OA 
BRANCH  16  17
HETATM   17  C   UNL     1      -9.826   9.935  69.819  1.00  0.00    -0.236 C  
HETATM   18  O   UNL     1     -10.766   8.123  71.173  1.00  0.00    -0.216 OA 
HETATM   19  C   UNL     1     -10.856   8.797  69.910  1.00  0.00    -0.206 C  
HETATM   20  H   UNL     1     -11.403   7.420  71.228  1.00  0.00     0.000 HD 
HETATM   21  C   UNL     1      -9.178   7.269  68.839  1.00  0.00    -0.141 C  
HETATM   22  O   UNL     1     -10.935   8.372  67.512  1.00  0.00    -0.493 OA 
HETATM   23  C   UNL     1     -10.633   7.785  68.779  1.00  0.00    -0.135 C  
HETATM   24  O   UNL     1      -8.942   6.433  69.962  1.00  0.00    -0.144 OA 
HETATM   25  O   UNL     1      -8.231   8.339  68.788  1.00  0.00    -0.114 OA 
HETATM   26  H   UNL     1     -10.797   7.746  66.811  1.00  0.00     0.000 HD 
HETATM   27  H   UNL     1      -8.048   6.116  69.999  1.00  0.00     0.000 HD 
HETATM   28  C   UNL     1      -8.383   9.372  69.769  1.00  0.00    -0.157 C  
BRANCH  28  29
HETATM   29  C   UNL     1      -7.804   8.990  71.140  1.00  0.00    -0.116 C  
HETATM   30  O   UNL     1      -6.708   8.088  70.989  1.00  0.00    -0.040 OA 
HETATM   31  H   UNL     1      -6.351   7.852  71.836  1.00  0.00     0.000 HD 
ENDBRANCH  28  29
ENDBRANCH  16  17
ENDBRANCH   6  16
ENDBRANCH   3   4
TORSDOF 4
ENDMDL
MODEL      105
REMARK 921   NORMALIZED FREE ENERGY PREDICTED BY IDOCK:   -4.17 KCAL/MOL
REMARK 922        TOTAL FREE ENERGY PREDICTED BY IDOCK:   -6.46 KCAL/MOL
REMARK 923 INTER-LIGAND FREE ENERGY PREDICTED BY IDOCK:   -6.42 KCAL/MOL
REMARK 924 INTRA-LIGAND FREE ENERGY PREDICTED BY IDOCK:   -0.04 KCAL/MOL
REMARK 927      BINDING AFFINITY PREDICTED BY RF-SCORE:    0.00 PKD
ROOT
HETATM    1  O   UNL     1     -11.207   8.369  67.056  1.00  0.00    -0.166 OA 
HETATM    2  H   UNL     1     -11.987   8.488  67.585  1.00  0.00     0.000 HD 
HETATM    3  C   UNL     1     -10.039   8.691  67.813  1.00  0.00    -0.211 C  
ENDROOT
BRANCH   3   4
HETATM    4  C   UNL     1      -8.772   8.498  66.953  1.00  0.00    -0.128 C  
HETATM    5  O   UNL     1      -9.025   8.635  65.543  1.00  0.00    -0.192 OA 
HETATM    6  C   UNL     1      -9.090   9.968  65.028  1.00  0.00    -0.211 C  
HETATM    7  H   UNL     1      -8.295  11.589  68.468  1.00  0.00     0.000 HD 
HETATM    8  C   UNL     1      -7.769  10.717  65.314  1.00  0.00     0.059 C  
HETATM    9  O   UNL     1      -6.655  10.101  64.656  1.00  0.00    -0.127 OA 
HETATM   10  H   UNL     1      -6.716   9.901  69.122  1.00  0.00     0.000 HD 
HETATM   11  C   UNL     1      -7.515  10.740  66.825  1.00  0.00    -0.129 C  
HETATM   12  C   UNL     1      -7.550   9.322  67.412  1.00  0.00    -0.088 C  
HETATM   13  O   UNL     1      -8.452  11.575  67.532  1.00  0.00    -0.135 OA 
HETATM   14  H   UNL     1      -5.843  10.561  64.832  1.00  0.00     0.000 HD 
HETATM   15  O   UNL     1      -7.468   9.394  68.840  1.00  0.00    -0.073 OA 
BRANCH   6  16
HETATM   16  O   UNL     1     -10.251  10.619  65.539  1.00  0.00    -0.264 OA 
BRANCH  16  17
HETATM   17  C   UNL     1     -10.231  12.054  65.677  1.00  0.00    -0.252 C  
HETATM   18  O   UNL     1      -9.964  14.210  64.544  1.00  0.00    -0.658 OA 
HETATM   19  C   UNL     1     -10.131  12.800  64.336  1.00  0.00    -0.249 C  
HETATM   20  H   UNL     1      -9.903  14.670  63.715  1.00  0.00     0.000 HD 
HETATM   21  C   UNL     1     -12.634  12.978  64.313  1.00  0.00    -0.252 C  
HETATM   22  O   UNL     1     -11.466  11.192  63.082  1.00  0.00    -0.795 OA 
HETATM   23  C   UNL     1     -11.391  12.559  63.496  1.00  0.00    -0.486 C  
HETATM   24  O   UNL     1     -12.723  14.384  64.485  1.00  0.00    -0.663 OA 
HETATM   25  O   UNL     1     -12.697  12.302  65.572  1.00  0.00    -0.438 OA 
HETATM   26  H   UNL     1     -12.247  11.043  62.563  1.00  0.00     0.000 HD 
HETATM   27  H   UNL     1     -13.487  14.642  64.987  1.00  0.00     0.000 HD 
HETATM   28  C   UNL     1     -11.544  12.417  66.415  1.00  0.00    -0.384 C  
BRANCH  28  29
HETATM   29  C   UNL     1     -11.492  13.744  67.186  1.00  0.00    -0.340 C  
HETATM   30  O   UNL     1     -10.147  14.071  67.533  1.00  0.00    -0.233 OA 
HETATM   31  H   UNL     1     -10.115  14.892  68.010  1.00  0.00     0.000 HD 
ENDBRANCH  28  29
ENDBRANCH  16  17
ENDBRANCH   6  16
ENDBRANCH   3   4
TORSDOF 4
ENDMDL
MODEL      106
REMARK 921   NORMALIZED FREE ENERGY PREDICTED BY IDOCK:   -4.10 KCAL/MOL
REMARK 922        TOTAL FREE ENERGY PREDICTED BY IDOCK:   -6.37 KCAL/MOL
REMARK 923 INTER-LIGAND FREE ENERGY PREDICTED BY IDOCK:   -5.28 KCAL/MOL
REMARK 924 INTRA-LIGAND FREE ENERGY PREDICTED BY IDOCK:   -1.09 KCAL/MOL
REMARK 927      BINDING AFFINITY PREDICTED BY RF-SCORE:    0.00 PKD
ROOT
HETATM    1  O   UNL     1      -6.642  10.117  69.680  1.00  0.00    -0.051 OA 
HETATM    2  H   UNL     1      -7.281   9.588  70.142  1.00  0.00     0.000 HD 
HETATM    3  C   UNL     1      -7.058  11.483  69.648  1.00  0.00     0.084 C  
ENDROOT
BRANCH   3   4
HETATM    4  C   UNL     1      -6.018  12.343  68.897  1.00  0.00    -0.070 C  
HETATM    5  O   UNL     1      -6.353  12.546  67.512  1.00  0.00    -0.126 OA 
HETATM    6  C   UNL     1      -7.309  13.570  67.224  1.00  0.00    -0.012 C  
HETATM    7  H   UNL     1      -7.662  14.615  70.950  1.00  0.00     0.000 HD 
HETATM    8  C   UNL     1      -6.813  14.931  67.762  1.00  0.00    -0.174 C  
HETATM    9  O   UNL     1      -5.598  15.343  67.123  1.00  0.00    -0.303 OA 
HETATM   10  H   UNL     1      -5.337  14.305  71.464  1.00  0.00     0.000 HD 
HETATM   11  C   UNL     1      -6.580  14.826  69.272  1.00  0.00    -0.128 C  
HETATM   12  C   UNL     1      -5.639  13.661  69.607  1.00  0.00    -0.096 C  
HETATM   13  O   UNL     1      -7.806  14.680  70.013  1.00  0.00     0.147 OA 
HETATM   14  H   UNL     1      -5.293  16.180  67.453  1.00  0.00     0.000 HD 
HETATM   15  O   UNL     1      -5.570  13.494  71.027  1.00  0.00    -0.180 OA 
BRANCH   6  16
HETATM   16  O   UNL     1      -8.588  13.179  67.721  1.00  0.00    -0.163 OA 
BRANCH  16  17
HETATM   17  C   UNL     1      -9.609  12.809  66.772  1.00  0.00    -0.244 C  
HETATM   18  O   UNL     1     -11.787  11.740  66.431  1.00  0.00    -0.534 OA 
HETATM   19  C   UNL     1     -10.873  12.225  67.425  1.00  0.00    -0.239 C  
HETATM   20  H   UNL     1     -12.568  11.380  66.835  1.00  0.00     0.000 HD 
HETATM   21  C   UNL     1     -11.879  14.524  67.400  1.00  0.00    -0.388 C  
HETATM   22  O   UNL     1     -10.773  13.633  69.412  1.00  0.00    -0.436 OA 
HETATM   23  C   UNL     1     -11.573  13.290  68.278  1.00  0.00    -0.334 C  
HETATM   24  O   UNL     1     -12.897  14.272  66.443  1.00  0.00    -0.479 OA 
HETATM   25  O   UNL     1     -10.700  15.037  66.772  1.00  0.00    -0.296 OA 
HETATM   26  H   UNL     1     -11.206  14.293  69.940  1.00  0.00     0.000 HD 
HETATM   27  H   UNL     1     -13.085  15.031  65.903  1.00  0.00     0.000 HD 
HETATM   28  C   UNL     1      -9.938  14.107  65.993  1.00  0.00    -0.322 C  
BRANCH  28  29
HETATM   29  C   UNL     1     -10.524  13.873  64.592  1.00  0.00    -0.396 C  
HETATM   30  O   UNL     1     -10.105  12.611  64.077  1.00  0.00    -0.542 OA 
HETATM   31  H   UNL     1     -10.467  12.466  63.211  1.00  0.00     0.000 HD 
ENDBRANCH  28  29
ENDBRANCH  16  17
ENDBRANCH   6  16
ENDBRANCH   3   4
TORSDOF 4
ENDMDL
MODEL      107
REMARK 921   NORMALIZED FREE ENERGY PREDICTED BY IDOCK:   -4.05 KCAL/MOL
REMARK 922        TOTAL FREE ENERGY PREDICTED BY IDOCK:   -6.30 KCAL/MOL
REMARK 923 INTER-LIGAND FREE ENERGY PREDICTED BY IDOCK:   -5.39 KCAL/MOL
REMARK 924 INTRA-LIGAND FREE ENERGY PREDICTED BY IDOCK:   -0.91 KCAL/MOL
REMARK 927      BINDING AFFINITY PREDICTED BY RF-SCORE:    0.00 PKD
ROOT
HETATM    1  O   UNL     1     -12.438  13.629  70.275  1.00  0.00    -0.316 OA 
HETATM    2  H   UNL     1     -12.175  13.865  71.156  1.00  0.00     0.000 HD 
HETATM    3  C   UNL     1     -11.472  14.090  69.329  1.00  0.00    -0.295 C  
ENDROOT
BRANCH   3   4
HETATM    4  C   UNL     1     -11.900  13.707  67.895  1.00  0.00    -0.366 C  
HETATM    5  O   UNL     1     -11.489  14.673  66.911  1.00  0.00    -0.347 OA 
HETATM    6  C   UNL     1     -10.136  14.593  66.456  1.00  0.00    -0.279 C  
HETATM    7  H   UNL     1      -9.342  11.474  68.633  1.00  0.00     0.000 HD 
HETATM    8  C   UNL     1      -9.857  13.199  65.850  1.00  0.00    -0.233 C  
HETATM    9  O   UNL     1     -10.669  12.949  64.696  1.00  0.00    -0.314 OA 
HETATM   10  H   UNL     1     -11.495  10.458  68.316  1.00  0.00     0.000 HD 
HETATM   11  C   UNL     1     -10.131  12.122  66.905  1.00  0.00    -0.206 C  
HETATM   12  C   UNL     1     -11.546  12.263  67.482  1.00  0.00    -0.353 C  
HETATM   13  O   UNL     1      -9.172  12.141  67.978  1.00  0.00    -0.181 OA 
HETATM   14  H   UNL     1     -10.498  12.093  64.324  1.00  0.00     0.000 HD 
HETATM   15  O   UNL     1     -11.712  11.347  68.570  1.00  0.00    -0.311 OA 
BRANCH   6  16
HETATM   16  O   UNL     1      -9.255  14.952  67.519  1.00  0.00    -0.187 OA 
BRANCH  16  17
HETATM   17  C   UNL     1      -7.913  15.364  67.191  1.00  0.00    -0.217 C  
HETATM   18  O   UNL     1      -6.430  17.233  66.636  1.00  0.00    -0.186 OA 
HETATM   19  C   UNL     1      -7.740  16.890  67.110  1.00  0.00    -0.179 C  
HETATM   20  H   UNL     1      -6.323  18.176  66.586  1.00  0.00     0.000 HD 
HETATM   21  C   UNL     1      -6.999  16.876  69.508  1.00  0.00    -0.073 C  
HETATM   22  O   UNL     1      -9.327  17.393  68.890  1.00  0.00    -0.258 OA 
HETATM   23  C   UNL     1      -7.961  17.526  68.488  1.00  0.00    -0.271 C  
HETATM   24  O   UNL     1      -5.645  17.241  69.288  1.00  0.00    -0.165 OA 
HETATM   25  O   UNL     1      -7.147  15.454  69.549  1.00  0.00    -0.175 OA 
HETATM   26  H   UNL     1      -9.464  17.786  69.743  1.00  0.00     0.000 HD 
HETATM   27  H   UNL     1      -5.054  16.842  69.914  1.00  0.00     0.000 HD 
HETATM   28  C   UNL     1      -7.014  14.763  68.301  1.00  0.00    -0.119 C  
BRANCH  28  29
HETATM   29  C   UNL     1      -5.551  14.550  67.884  1.00  0.00    -0.096 C  
HETATM   30  O   UNL     1      -5.341  13.206  67.455  1.00  0.00    -0.268 OA 
HETATM   31  H   UNL     1      -4.437  13.074  67.198  1.00  0.00     0.000 HD 
ENDBRANCH  28  29
ENDBRANCH  16  17
ENDBRANCH   6  16
ENDBRANCH   3   4
TORSDOF 4
ENDMDL
MODEL      108
REMARK 921   NORMALIZED FREE ENERGY PREDICTED BY IDOCK:   -4.04 KCAL/MOL
REMARK 922        TOTAL FREE ENERGY PREDICTED BY IDOCK:   -6.30 KCAL/MOL
REMARK 923 INTER-LIGAND FREE ENERGY PREDICTED BY IDOCK:   -5.13 KCAL/MOL
REMARK 924 INTRA-LIGAND FREE ENERGY PREDICTED BY IDOCK:   -1.17 KCAL/MOL
REMARK 927      BINDING AFFINITY PREDICTED BY RF-SCORE:    0.00 PKD
ROOT
HETATM    1  O   UNL     1      -9.031   5.875  67.804  1.00  0.00    -0.113 OA 
HETATM    2  H   UNL     1      -8.610   5.797  66.956  1.00  0.00     0.000 HD 
HETATM    3  C   UNL     1      -8.070   6.207  68.807  1.00  0.00    -0.105 C  
ENDROOT
BRANCH   3   4
HETATM    4  C   UNL     1      -8.754   6.335  70.185  1.00  0.00    -0.138 C  
HETATM    5  O   UNL     1      -8.905   7.701  70.612  1.00  0.00    -0.143 OA 
HETATM    6  C   UNL     1     -10.013   8.426  70.069  1.00  0.00    -0.188 C  
HETATM    7  H   UNL     1     -11.327   5.373  68.056  1.00  0.00     0.000 HD 
HETATM    8  C   UNL     1     -11.338   7.708  70.408  1.00  0.00    -0.219 C  
HETATM    9  O   UNL     1     -11.566   7.652  71.822  1.00  0.00    -0.255 OA 
HETATM   10  H   UNL     1     -10.783   3.766  69.755  1.00  0.00     0.000 HD 
HETATM   11  C   UNL     1     -11.304   6.284  69.845  1.00  0.00    -0.434 C  
HETATM   12  C   UNL     1     -10.061   5.527  70.332  1.00  0.00    -0.230 C  
HETATM   13  O   UNL     1     -11.348   6.256  68.406  1.00  0.00    -0.298 OA 
HETATM   14  H   UNL     1     -12.381   7.212  72.030  1.00  0.00     0.000 HD 
HETATM   15  O   UNL     1      -9.978   4.263  69.665  1.00  0.00    -0.214 OA 
BRANCH   6  16
HETATM   16  O   UNL     1      -9.805   8.637  68.674  1.00  0.00    -0.161 OA 
BRANCH  16  17
HETATM   17  C   UNL     1      -8.998   9.759  68.261  1.00  0.00    -0.119 C  
HETATM   18  O   UNL     1      -7.259  10.572  66.741  1.00  0.00    -0.102 OA 
HETATM   19  C   UNL     1      -8.145   9.478  67.013  1.00  0.00    -0.113 C  
HETATM   20  H   UNL     1      -6.731  10.398  65.970  1.00  0.00     0.000 HD 
HETATM   21  C   UNL     1      -9.979  10.458  65.608  1.00  0.00    -0.272 C  
HETATM   22  O   UNL     1      -9.782   8.025  65.942  1.00  0.00    -0.445 OA 
HETATM   23  C   UNL     1      -9.045   9.241  65.794  1.00  0.00    -0.209 C  
HETATM   24  O   UNL     1      -9.283  11.617  65.174  1.00  0.00    -0.393 OA 
HETATM   25  O   UNL     1     -10.742  10.728  66.787  1.00  0.00    -0.255 OA 
HETATM   26  H   UNL     1     -10.340   7.879  65.187  1.00  0.00     0.000 HD 
HETATM   27  H   UNL     1      -9.857  12.365  65.060  1.00  0.00     0.000 HD 
HETATM   28  C   UNL     1     -10.000  10.912  67.998  1.00  0.00    -0.171 C  
BRANCH  28  29
HETATM   29  C   UNL     1      -9.394  12.318  68.126  1.00  0.00    -0.205 C  
HETATM   30  O   UNL     1      -8.241  12.294  68.966  1.00  0.00    -0.347 OA 
HETATM   31  H   UNL     1      -7.867  13.163  69.046  1.00  0.00     0.000 HD 
ENDBRANCH  28  29
ENDBRANCH  16  17
ENDBRANCH   6  16
ENDBRANCH   3   4
TORSDOF 4
ENDMDL
MODEL      109
REMARK 921   NORMALIZED FREE ENERGY PREDICTED BY IDOCK:   -4.03 KCAL/MOL
REMARK 922        TOTAL FREE ENERGY PREDICTED BY IDOCK:   -6.29 KCAL/MOL
REMARK 923 INTER-LIGAND FREE ENERGY PREDICTED BY IDOCK:   -5.43 KCAL/MOL
REMARK 924 INTRA-LIGAND FREE ENERGY PREDICTED BY IDOCK:   -0.86 KCAL/MOL
REMARK 927      BINDING AFFINITY PREDICTED BY RF-SCORE:    0.00 PKD
ROOT
HETATM    1  O   UNL     1     -13.521   7.936  72.384  1.00  0.00    -0.515 OA 
HETATM    2  H   UNL     1     -14.062   8.707  72.259  1.00  0.00     0.000 HD 
HETATM    3  C   UNL     1     -12.551   7.836  71.340  1.00  0.00    -0.317 C  
ENDROOT
BRANCH   3   4
HETATM    4  C   UNL     1     -11.672   6.583  71.543  1.00  0.00    -0.324 C  
HETATM    5  O   UNL     1     -11.160   6.051  70.308  1.00  0.00    -0.328 OA 
HETATM    6  C   UNL     1     -10.004   6.691  69.761  1.00  0.00    -0.173 C  
HETATM    7  H   UNL     1      -9.700   9.193  72.718  1.00  0.00     0.000 HD 
HETATM    8  C   UNL     1      -8.840   6.649  70.775  1.00  0.00    -0.147 C  
HETATM    9  O   UNL     1      -8.437   5.305  71.067  1.00  0.00    -0.118 OA 
HETATM   10  H   UNL     1     -10.351   7.599  74.393  1.00  0.00     0.000 HD 
HETATM   11  C   UNL     1      -9.270   7.341  72.072  1.00  0.00    -0.132 C  
HETATM   12  C   UNL     1     -10.572   6.736  72.615  1.00  0.00    -0.223 C  
HETATM   13  O   UNL     1      -9.433   8.763  71.914  1.00  0.00    -0.274 OA 
HETATM   14  H   UNL     1      -7.721   5.279  71.691  1.00  0.00     0.000 HD 
HETATM   15  O   UNL     1     -11.028   7.506  73.733  1.00  0.00    -0.266 OA 
BRANCH   6  16
HETATM   16  O   UNL     1     -10.350   8.004  69.325  1.00  0.00    -0.214 OA 
BRANCH  16  17
HETATM   17  C   UNL     1      -9.304   8.859  68.820  1.00  0.00    -0.137 C  
HETATM   18  O   UNL     1      -7.561   9.170  67.128  1.00  0.00    -0.090 OA 
HETATM   19  C   UNL     1      -8.689   8.366  67.500  1.00  0.00    -0.136 C  
HETATM   20  H   UNL     1      -7.182   8.865  66.312  1.00  0.00     0.000 HD 
HETATM   21  C   UNL     1     -10.299   9.842  66.265  1.00  0.00    -0.163 C  
HETATM   22  O   UNL     1     -10.766   7.449  66.612  1.00  0.00    -0.498 OA 
HETATM   23  C   UNL     1      -9.733   8.409  66.377  1.00  0.00    -0.242 C  
HETATM   24  O   UNL     1      -9.351  10.764  65.749  1.00  0.00    -0.186 OA 
HETATM   25  O   UNL     1     -10.838  10.301  67.508  1.00  0.00    -0.276 OA 
HETATM   26  H   UNL     1     -11.412   7.476  65.917  1.00  0.00     0.000 HD 
HETATM   27  H   UNL     1      -9.699  11.645  65.681  1.00  0.00     0.000 HD 
HETATM   28  C   UNL     1      -9.960  10.251  68.639  1.00  0.00    -0.173 C  
BRANCH  28  29
HETATM   29  C   UNL     1      -8.973  11.427  68.688  1.00  0.00    -0.131 C  
HETATM   30  O   UNL     1      -7.893  11.140  69.575  1.00  0.00    -0.368 OA 
HETATM   31  H   UNL     1      -7.283  11.868  69.606  1.00  0.00     0.000 HD 
ENDBRANCH  28  29
ENDBRANCH  16  17
ENDBRANCH   6  16
ENDBRANCH   3   4
TORSDOF 4
ENDMDL
MODEL      110
REMARK 921   NORMALIZED FREE ENERGY PREDICTED BY IDOCK:   -4.01 KCAL/MOL
REMARK 922        TOTAL FREE ENERGY PREDICTED BY IDOCK:   -6.25 KCAL/MOL
REMARK 923 INTER-LIGAND FREE ENERGY PREDICTED BY IDOCK:   -5.65 KCAL/MOL
REMARK 924 INTRA-LIGAND FREE ENERGY PREDICTED BY IDOCK:   -0.61 KCAL/MOL
REMARK 927      BINDING AFFINITY PREDICTED BY RF-SCORE:    0.00 PKD
ROOT
HETATM    1  O   UNL     1      -6.569  10.376  66.399  1.00  0.00    -0.084 OA 
HETATM    2  H   UNL     1      -5.869  10.698  65.845  1.00  0.00     0.000 HD 
HETATM    3  C   UNL     1      -7.704  11.240  66.319  1.00  0.00    -0.053 C  
ENDROOT
BRANCH   3   4
HETATM    4  C   UNL     1      -8.843  10.715  67.220  1.00  0.00    -0.136 C  
HETATM    5  O   UNL     1      -9.345  11.713  68.127  1.00  0.00    -0.175 OA 
HETATM    6  C   UNL     1     -10.287  12.649  67.596  1.00  0.00    -0.220 C  
HETATM    7  H   UNL     1     -10.313  10.990  64.083  1.00  0.00     0.000 HD 
HETATM    8  C   UNL     1     -11.518  11.907  67.031  1.00  0.00    -0.316 C  
HETATM    9  O   UNL     1     -12.220  11.188  68.053  1.00  0.00    -0.676 OA 
HETATM   10  H   UNL     1     -10.163   8.745  64.924  1.00  0.00     0.000 HD 
HETATM   11  C   UNL     1     -11.067  10.928  65.943  1.00  0.00     0.107 C  
HETATM   12  C   UNL     1      -9.975   9.985  66.467  1.00  0.00    -0.225 C  
HETATM   13  O   UNL     1     -10.594  11.596  64.758  1.00  0.00    -0.276 OA 
HETATM   14  H   UNL     1     -12.977  10.731  67.706  1.00  0.00     0.000 HD 
HETATM   15  O   UNL     1      -9.467   9.195  65.387  1.00  0.00    -0.241 OA 
BRANCH   6  16
HETATM   16  O   UNL     1      -9.634  13.497  66.652  1.00  0.00    -0.264 OA 
BRANCH  16  17
HETATM   17  C   UNL     1      -8.839  14.593  67.147  1.00  0.00    -0.221 C  
HETATM   18  O   UNL     1      -7.908  16.811  66.686  1.00  0.00    -0.212 OA 
HETATM   19  C   UNL     1      -8.829  15.817  66.216  1.00  0.00    -0.343 C  
HETATM   20  H   UNL     1      -7.902  17.567  66.109  1.00  0.00     0.000 HD 
HETATM   21  C   UNL     1     -10.728  16.775  67.547  1.00  0.00    -0.275 C  
HETATM   22  O   UNL     1     -11.127  15.540  65.453  1.00  0.00    -0.337 OA 
HETATM   23  C   UNL     1     -10.232  16.429  66.125  1.00  0.00    -0.348 C  
HETATM   24  O   UNL     1     -10.024  17.867  68.119  1.00  0.00    -0.311 OA 
HETATM   25  O   UNL     1     -10.702  15.637  68.412  1.00  0.00    -0.252 OA 
HETATM   26  H   UNL     1     -11.996  15.919  65.398  1.00  0.00     0.000 HD 
HETATM   27  H   UNL     1     -10.329  18.079  68.993  1.00  0.00     0.000 HD 
HETATM   28  C   UNL     1      -9.447  14.954  68.527  1.00  0.00    -0.210 C  
BRANCH  28  29
HETATM   29  C   UNL     1      -8.470  15.646  69.488  1.00  0.00    -0.182 C  
HETATM   30  O   UNL     1      -7.525  14.711  70.004  1.00  0.00    -0.397 OA 
HETATM   31  H   UNL     1      -6.920  15.139  70.599  1.00  0.00     0.000 HD 
ENDBRANCH  28  29
ENDBRANCH  16  17
ENDBRANCH   6  16
ENDBRANCH   3   4
TORSDOF 4
ENDMDL
MODEL      111
REMARK 921   NORMALIZED FREE ENERGY PREDICTED BY IDOCK:   -4.00 KCAL/MOL
REMARK 922        TOTAL FREE ENERGY PREDICTED BY IDOCK:   -6.24 KCAL/MOL
REMARK 923 INTER-LIGAND FREE ENERGY PREDICTED BY IDOCK:   -5.11 KCAL/MOL
REMARK 924 INTRA-LIGAND FREE ENERGY PREDICTED BY IDOCK:   -1.13 KCAL/MOL
REMARK 927      BINDING AFFINITY PREDICTED BY RF-SCORE:    0.00 PKD
ROOT
HETATM    1  O   UNL     1     -10.550   8.478  69.421  1.00  0.00    -0.221 OA 
HETATM    2  H   UNL     1     -10.432   8.820  70.298  1.00  0.00     0.000 HD 
HETATM    3  C   UNL     1     -10.185   9.461  68.451  1.00  0.00    -0.197 C  
ENDROOT
BRANCH   3   4
HETATM    4  C   UNL     1     -10.377   8.904  67.024  1.00  0.00    -0.269 C  
HETATM    5  O   UNL     1     -10.939   9.869  66.116  1.00  0.00     0.174 OA 
HETATM    6  C   UNL     1     -10.036  10.822  65.550  1.00  0.00    -0.263 C  
HETATM    7  H   UNL     1      -6.936   9.287  67.319  1.00  0.00     0.000 HD 
HETATM    8  C   UNL     1      -8.907  10.099  64.782  1.00  0.00    -0.195 C  
HETATM    9  O   UNL     1      -9.417   9.344  63.676  1.00  0.00    -0.432 OA 
HETATM   10  H   UNL     1      -7.670   7.014  67.069  1.00  0.00     0.000 HD 
HETATM   11  C   UNL     1      -8.164   9.160  65.736  1.00  0.00    -0.115 C  
HETATM   12  C   UNL     1      -9.136   8.200  66.435  1.00  0.00    -0.183 C  
HETATM   13  O   UNL     1      -7.397   9.869  66.727  1.00  0.00    -0.093 OA 
HETATM   14  H   UNL     1      -8.723   8.899  63.204  1.00  0.00     0.000 HD 
HETATM   15  O   UNL     1      -8.434   7.448  67.431  1.00  0.00    -0.118 OA 
BRANCH   6  16
HETATM   16  O   UNL     1      -9.572  11.703  66.572  1.00  0.00    -0.198 OA 
BRANCH  16  17
HETATM   17  C   UNL     1      -9.396  13.098  66.250  1.00  0.00    -0.127 C  
HETATM   18  O   UNL     1     -10.398  15.111  65.279  1.00  0.00    -0.360 OA 
HETATM   19  C   UNL     1     -10.671  13.773  65.719  1.00  0.00    -0.281 C  
HETATM   20  H   UNL     1     -11.186  15.528  64.951  1.00  0.00     0.000 HD 
HETATM   21  C   UNL     1     -11.181  14.522  68.060  1.00  0.00    -0.292 C  
HETATM   22  O   UNL     1     -12.204  12.491  67.114  1.00  0.00    -0.474 OA 
HETATM   23  C   UNL     1     -11.748  13.811  66.811  1.00  0.00    -0.391 C  
HETATM   24  O   UNL     1     -10.993  15.914  67.856  1.00  0.00    -0.317 OA 
HETATM   25  O   UNL     1      -9.977  13.904  68.524  1.00  0.00    -0.226 OA 
HETATM   26  H   UNL     1     -12.871  12.514  67.791  1.00  0.00     0.000 HD 
HETATM   27  H   UNL     1     -10.644  16.351  68.624  1.00  0.00     0.000 HD 
HETATM   28  C   UNL     1      -8.921  13.767  67.565  1.00  0.00    -0.201 C  
BRANCH  28  29
HETATM   29  C   UNL     1      -8.121  15.063  67.362  1.00  0.00    -0.193 C  
HETATM   30  O   UNL     1      -8.003  15.778  68.591  1.00  0.00    -0.138 OA 
HETATM   31  H   UNL     1      -7.509  16.579  68.465  1.00  0.00     0.000 HD 
ENDBRANCH  28  29
ENDBRANCH  16  17
ENDBRANCH   6  16
ENDBRANCH   3   4
TORSDOF 4
ENDMDL
MODEL      112
REMARK 921   NORMALIZED FREE ENERGY PREDICTED BY IDOCK:   -3.98 KCAL/MOL
REMARK 922        TOTAL FREE ENERGY PREDICTED BY IDOCK:   -6.22 KCAL/MOL
REMARK 923 INTER-LIGAND FREE ENERGY PREDICTED BY IDOCK:   -5.05 KCAL/MOL
REMARK 924 INTRA-LIGAND FREE ENERGY PREDICTED BY IDOCK:   -1.17 KCAL/MOL
REMARK 927      BINDING AFFINITY PREDICTED BY RF-SCORE:    0.00 PKD
ROOT
HETATM    1  O   UNL     1      -9.595  14.679  69.348  1.00  0.00    -0.400 OA 
HETATM    2  H   UNL     1      -9.854  14.965  70.216  1.00  0.00     0.000 HD 
HETATM    3  C   UNL     1      -9.877  13.289  69.179  1.00  0.00     0.409 C  
ENDROOT
BRANCH   3   4
HETATM    4  C   UNL     1      -9.456  12.824  67.767  1.00  0.00    -0.205 C  
HETATM    5  O   UNL     1      -8.695  11.603  67.783  1.00  0.00    -0.142 OA 
HETATM    6  C   UNL     1      -9.436  10.385  67.890  1.00  0.00    -0.138 C  
HETATM    7  H   UNL     1     -12.873  12.196  67.874  1.00  0.00     0.000 HD 
HETATM    8  C   UNL     1     -10.439  10.264  66.722  1.00  0.00    -0.214 C  
HETATM    9  O   UNL     1      -9.774  10.203  65.454  1.00  0.00    -0.247 OA 
HETATM   10  H   UNL     1     -12.212  13.860  66.273  1.00  0.00     0.000 HD 
HETATM   11  C   UNL     1     -11.386  11.468  66.739  1.00  0.00    -0.238 C  
HETATM   12  C   UNL     1     -10.602  12.787  66.734  1.00  0.00    -0.252 C  
HETATM   13  O   UNL     1     -12.286  11.450  67.863  1.00  0.00    -0.592 OA 
HETATM   14  H   UNL     1     -10.391  10.129  64.736  1.00  0.00     0.000 HD 
HETATM   15  O   UNL     1     -11.507  13.883  66.910  1.00  0.00    -0.321 OA 
BRANCH   6  16
HETATM   16  O   UNL     1     -10.034  10.305  69.182  1.00  0.00    -0.199 OA 
BRANCH  16  17
HETATM   17  C   UNL     1      -9.367   9.534  70.202  1.00  0.00    -0.247 C  
HETATM   18  O   UNL     1      -9.370   8.808  72.542  1.00  0.00    -0.326 OA 
HETATM   19  C   UNL     1     -10.147   9.457  71.525  1.00  0.00    -0.113 C  
HETATM   20  H   UNL     1      -9.853   8.761  73.359  1.00  0.00     0.000 HD 
HETATM   21  C   UNL     1     -11.149   7.293  70.743  1.00  0.00    -0.266 C  
HETATM   22  O   UNL     1     -12.352   9.427  70.487  1.00  0.00    -0.485 OA 
HETATM   23  C   UNL     1     -11.460   8.689  71.326  1.00  0.00    -0.283 C  
HETATM   24  O   UNL     1     -10.510   6.441  71.681  1.00  0.00    -0.210 OA 
HETATM   25  O   UNL     1     -10.394   7.378  69.530  1.00  0.00    -0.205 OA 
HETATM   26  H   UNL     1     -13.165   8.952  70.362  1.00  0.00     0.000 HD 
HETATM   27  H   UNL     1     -10.319   5.583  71.323  1.00  0.00     0.000 HD 
HETATM   28  C   UNL     1      -9.172   8.123  69.592  1.00  0.00    -0.155 C  
BRANCH  28  29
HETATM   29  C   UNL     1      -8.010   7.324  70.202  1.00  0.00    -0.112 C  
HETATM   30  O   UNL     1      -8.119   5.942  69.865  1.00  0.00    -0.111 OA 
HETATM   31  H   UNL     1      -7.401   5.448  70.242  1.00  0.00     0.000 HD 
ENDBRANCH  28  29
ENDBRANCH  16  17
ENDBRANCH   6  16
ENDBRANCH   3   4
TORSDOF 4
ENDMDL
MODEL      113
REMARK 921   NORMALIZED FREE ENERGY PREDICTED BY IDOCK:   -3.97 KCAL/MOL
REMARK 922        TOTAL FREE ENERGY PREDICTED BY IDOCK:   -6.20 KCAL/MOL
REMARK 923 INTER-LIGAND FREE ENERGY PREDICTED BY IDOCK:   -5.32 KCAL/MOL
REMARK 924 INTRA-LIGAND FREE ENERGY PREDICTED BY IDOCK:   -0.88 KCAL/MOL
REMARK 927      BINDING AFFINITY PREDICTED BY RF-SCORE:    0.00 PKD
ROOT
HETATM    1  O   UNL     1      -7.355  10.779  68.567  1.00  0.00    -0.085 OA 
HETATM    2  H   UNL     1      -7.279  10.559  69.487  1.00  0.00     0.000 HD 
HETATM    3  C   UNL     1      -8.611  11.410  68.310  1.00  0.00    -0.156 C  
ENDROOT
BRANCH   3   4
HETATM    4  C   UNL     1      -8.735  11.768  66.813  1.00  0.00    -0.192 C  
HETATM    5  O   UNL     1      -8.652  10.617  65.953  1.00  0.00    -0.161 OA 
HETATM    6  C   UNL     1      -9.845   9.843  65.798  1.00  0.00    -0.287 C  
HETATM    7  H   UNL     1     -11.953  12.204  68.050  1.00  0.00     0.000 HD 
HETATM    8  C   UNL     1     -10.987  10.724  65.247  1.00  0.00     0.122 C  
HETATM    9  O   UNL     1     -10.684  11.234  63.942  1.00  0.00    -0.363 OA 
HETATM   10  H   UNL     1     -10.903  14.217  67.265  1.00  0.00     0.000 HD 
HETATM   11  C   UNL     1     -11.232  11.896  66.202  1.00  0.00    -0.333 C  
HETATM   12  C   UNL     1      -9.935  12.674  66.465  1.00  0.00    -0.251 C  
HETATM   13  O   UNL     1     -11.802  11.478  67.457  1.00  0.00    -0.605 OA 
HETATM   14  H   UNL     1     -11.386  11.776  63.603  1.00  0.00     0.000 HD 
HETATM   15  O   UNL     1     -10.165  13.658  67.479  1.00  0.00    -0.237 OA 
BRANCH   6  16
HETATM   16  O   UNL     1     -10.153   9.193  67.030  1.00  0.00    -0.207 OA 
BRANCH  16  17
HETATM   17  C   UNL     1      -9.404   8.016  67.393  1.00  0.00    -0.145 C  
HETATM   18  O   UNL     1      -8.237   6.808  69.175  1.00  0.00    -0.118 OA 
HETATM   19  C   UNL     1      -9.107   7.914  68.898  1.00  0.00    -0.141 C  
HETATM   20  H   UNL     1      -8.054   6.745  70.106  1.00  0.00     0.000 HD 
HETATM   21  C   UNL     1     -11.170   6.508  69.151  1.00  0.00    -0.303 C  
HETATM   22  O   UNL     1     -11.205   8.928  69.611  1.00  0.00    -0.425 OA 
HETATM   23  C   UNL     1     -10.411   7.742  69.687  1.00  0.00    -0.212 C  
HETATM   24  O   UNL     1     -10.526   5.287  69.479  1.00  0.00    -0.273 OA 
HETATM   25  O   UNL     1     -11.411   6.601  67.744  1.00  0.00    -0.227 OA 
HETATM   26  H   UNL     1     -12.013   8.821  70.100  1.00  0.00     0.000 HD 
HETATM   27  H   UNL     1     -10.993   4.528  69.149  1.00  0.00     0.000 HD 
HETATM   28  C   UNL     1     -10.262   6.817  66.915  1.00  0.00    -0.231 C  
BRANCH  28  29
HETATM   29  C   UNL     1      -9.463   5.533  66.646  1.00  0.00    -0.146 C  
HETATM   30  O   UNL     1     -10.341   4.449  66.347  1.00  0.00    -0.348 OA 
HETATM   31  H   UNL     1      -9.847   3.655  66.181  1.00  0.00     0.000 HD 
ENDBRANCH  28  29
ENDBRANCH  16  17
ENDBRANCH   6  16
ENDBRANCH   3   4
TORSDOF 4
ENDMDL
MODEL      114
REMARK 921   NORMALIZED FREE ENERGY PREDICTED BY IDOCK:   -3.96 KCAL/MOL
REMARK 922        TOTAL FREE ENERGY PREDICTED BY IDOCK:   -6.19 KCAL/MOL
REMARK 923 INTER-LIGAND FREE ENERGY PREDICTED BY IDOCK:   -5.10 KCAL/MOL
REMARK 924 INTRA-LIGAND FREE ENERGY PREDICTED BY IDOCK:   -1.09 KCAL/MOL
REMARK 927      BINDING AFFINITY PREDICTED BY RF-SCORE:    0.00 PKD
ROOT
HETATM    1  O   UNL     1     -10.035  10.673  63.832  1.00  0.00    -0.312 OA 
HETATM    2  H   UNL     1     -10.792  11.066  63.415  1.00  0.00     0.000 HD 
HETATM    3  C   UNL     1     -10.321  10.370  65.199  1.00  0.00    -0.190 C  
ENDROOT
BRANCH   3   4
HETATM    4  C   UNL     1      -9.090   9.731  65.876  1.00  0.00    -0.168 C  
HETATM    5  O   UNL     1      -8.060  10.687  66.185  1.00  0.00    -0.143 OA 
HETATM    6  C   UNL     1      -8.233  11.457  67.377  1.00  0.00    -0.145 C  
HETATM    7  H   UNL     1     -11.538   9.657  68.342  1.00  0.00     0.000 HD 
HETATM    8  C   UNL     1      -8.350  10.524  68.603  1.00  0.00    -0.132 C  
HETATM    9  O   UNL     1      -7.155   9.759  68.806  1.00  0.00    -0.065 OA 
HETATM   10  H   UNL     1     -10.814   7.495  67.589  1.00  0.00     0.000 HD 
HETATM   11  C   UNL     1      -9.534   9.572  68.406  1.00  0.00    -0.137 C  
HETATM   12  C   UNL     1      -9.418   8.816  67.076  1.00  0.00    -0.169 C  
HETATM   13  O   UNL     1     -10.804  10.247  68.465  1.00  0.00    -0.213 OA 
HETATM   14  H   UNL     1      -7.228   9.186  69.559  1.00  0.00     0.000 HD 
HETATM   15  O   UNL     1     -10.612   8.058  66.851  1.00  0.00    -0.338 OA 
BRANCH   6  16
HETATM   16  O   UNL     1      -9.337  12.345  67.213  1.00  0.00    -0.175 OA 
BRANCH  16  17
HETATM   17  C   UNL     1      -9.231  13.679  67.750  1.00  0.00    -0.214 C  
HETATM   18  O   UNL     1      -8.465  15.976  67.376  1.00  0.00    -0.159 OA 
HETATM   19  C   UNL     1      -8.687  14.707  66.744  1.00  0.00    -0.203 C  
HETATM   20  H   UNL     1      -8.129  16.610  66.754  1.00  0.00     0.000 HD 
HETATM   21  C   UNL     1     -11.053  15.287  66.144  1.00  0.00    -0.280 C  
HETATM   22  O   UNL     1      -9.743  13.696  64.794  1.00  0.00    -0.586 OA 
HETATM   23  C   UNL     1      -9.671  14.887  65.582  1.00  0.00    -0.291 C  
HETATM   24  O   UNL     1     -11.065  16.603  66.677  1.00  0.00     0.014 OA 
HETATM   25  O   UNL     1     -11.533  14.340  67.103  1.00  0.00    -0.324 OA 
HETATM   26  H   UNL     1     -10.353  13.807  64.075  1.00  0.00     0.000 HD 
HETATM   27  H   UNL     1     -11.915  16.848  67.022  1.00  0.00     0.000 HD 
HETATM   28  C   UNL     1     -10.664  14.056  68.206  1.00  0.00    -0.254 C  
BRANCH  28  29
HETATM   29  C   UNL     1     -10.718  15.125  69.306  1.00  0.00    -0.250 C  
HETATM   30  O   UNL     1     -12.022  15.699  69.386  1.00  0.00    -0.370 OA 
HETATM   31  H   UNL     1     -12.055  16.361  70.066  1.00  0.00     0.000 HD 
ENDBRANCH  28  29
ENDBRANCH  16  17
ENDBRANCH   6  16
ENDBRANCH   3   4
TORSDOF 4
ENDMDL
MODEL      115
REMARK 921   NORMALIZED FREE ENERGY PREDICTED BY IDOCK:   -3.95 KCAL/MOL
REMARK 922        TOTAL FREE ENERGY PREDICTED BY IDOCK:   -6.19 KCAL/MOL
REMARK 923 INTER-LIGAND FREE ENERGY PREDICTED BY IDOCK:   -5.98 KCAL/MOL
REMARK 924 INTRA-LIGAND FREE ENERGY PREDICTED BY IDOCK:   -0.21 KCAL/MOL
REMARK 927      BINDING AFFINITY PREDICTED BY RF-SCORE:    0.00 PKD
ROOT
HETATM    1  O   UNL     1     -10.584  13.547  69.241  1.00  0.00    -0.431 OA 
HETATM    2  H   UNL     1     -10.511  13.766  70.162  1.00  0.00     0.000 HD 
HETATM    3  C   UNL     1      -9.453  14.042  68.522  1.00  0.00    -0.191 C  
ENDROOT
BRANCH   3   4
HETATM    4  C   UNL     1      -9.572  13.685  67.024  1.00  0.00    -0.251 C  
HETATM    5  O   UNL     1      -8.857  12.486  66.675  1.00  0.00    -0.207 OA 
HETATM    6  C   UNL     1      -9.509  11.244  66.954  1.00  0.00    -0.177 C  
HETATM    7  H   UNL     1     -12.718  12.963  68.311  1.00  0.00     0.000 HD 
HETATM    8  C   UNL     1     -10.867  11.177  66.221  1.00  0.00    -0.205 C  
HETATM    9  O   UNL     1     -10.706  11.219  64.798  1.00  0.00    -0.310 OA 
HETATM   10  H   UNL     1     -12.682  14.747  66.705  1.00  0.00     0.000 HD 
HETATM   11  C   UNL     1     -11.744  12.351  66.666  1.00  0.00    -0.372 C  
HETATM   12  C   UNL     1     -11.014  13.688  66.474  1.00  0.00    -0.295 C  
HETATM   13  O   UNL     1     -12.175  12.234  68.035  1.00  0.00    -0.383 OA 
HETATM   14  H   UNL     1     -11.541  11.178  64.347  1.00  0.00     0.000 HD 
HETATM   15  O   UNL     1     -11.794  14.745  67.043  1.00  0.00    -0.362 OA 
BRANCH   6  16
HETATM   16  O   UNL     1      -9.599  11.061  68.366  1.00  0.00    -0.167 OA 
BRANCH  16  17
HETATM   17  C   UNL     1     -10.448  10.010  68.870  1.00  0.00    -0.210 C  
HETATM   18  O   UNL     1     -11.041   7.636  68.761  1.00  0.00    -0.424 OA 
HETATM   19  C   UNL     1     -10.076   8.613  68.345  1.00  0.00    -0.191 C  
HETATM   20  H   UNL     1     -10.811   6.773  68.436  1.00  0.00     0.000 HD 
HETATM   21  C   UNL     1      -8.675   8.277  70.400  1.00  0.00    -0.139 C  
HETATM   22  O   UNL     1      -7.675   9.028  68.278  1.00  0.00    -0.094 OA 
HETATM   23  C   UNL     1      -8.689   8.203  68.857  1.00  0.00    -0.137 C  
HETATM   24  O   UNL     1      -9.464   7.262  71.001  1.00  0.00    -0.159 OA 
HETATM   25  O   UNL     1      -9.054   9.571  70.875  1.00  0.00    -0.209 OA 
HETATM   26  H   UNL     1      -6.817   8.775  68.595  1.00  0.00     0.000 HD 
HETATM   27  H   UNL     1      -9.456   7.307  71.950  1.00  0.00     0.000 HD 
HETATM   28  C   UNL     1     -10.313  10.076  70.413  1.00  0.00    -0.205 C  
BRANCH  28  29
HETATM   29  C   UNL     1     -11.512   9.497  71.178  1.00  0.00    -0.360 C  
HETATM   30  O   UNL     1     -12.712   9.648  70.421  1.00  0.00    -0.503 OA 
HETATM   31  H   UNL     1     -13.454   9.290  70.895  1.00  0.00     0.000 HD 
ENDBRANCH  28  29
ENDBRANCH  16  17
ENDBRANCH   6  16
ENDBRANCH   3   4
TORSDOF 4
ENDMDL
MODEL      116
REMARK 921   NORMALIZED FREE ENERGY PREDICTED BY IDOCK:   -3.95 KCAL/MOL
REMARK 922        TOTAL FREE ENERGY PREDICTED BY IDOCK:   -6.19 KCAL/MOL
REMARK 923 INTER-LIGAND FREE ENERGY PREDICTED BY IDOCK:   -5.30 KCAL/MOL
REMARK 924 INTRA-LIGAND FREE ENERGY PREDICTED BY IDOCK:   -0.88 KCAL/MOL
REMARK 927      BINDING AFFINITY PREDICTED BY RF-SCORE:    0.00 PKD
ROOT
HETATM    1  O   UNL     1     -12.204  10.872  68.287  1.00  0.00    -0.804 OA 
HETATM    2  H   UNL     1     -12.790  10.504  67.637  1.00  0.00     0.000 HD 
HETATM    3  C   UNL     1     -11.550  12.030  67.766  1.00  0.00    -0.330 C  
ENDROOT
BRANCH   3   4
HETATM    4  C   UNL     1     -10.597  12.630  68.823  1.00  0.00    -0.186 C  
HETATM    5  O   UNL     1      -9.369  11.891  68.954  1.00  0.00    -0.039 OA 
HETATM    6  C   UNL     1      -8.352  12.156  67.985  1.00  0.00    -0.167 C  
HETATM    7  H   UNL     1     -10.450  14.887  66.184  1.00  0.00     0.000 HD 
HETATM    8  C   UNL     1      -7.971  13.653  68.006  1.00  0.00    -0.154 C  
HETATM    9  O   UNL     1      -7.414  14.043  69.268  1.00  0.00    -0.289 OA 
HETATM   10  H   UNL     1     -11.398  15.773  68.205  1.00  0.00     0.000 HD 
HETATM   11  C   UNL     1      -9.215  14.499  67.719  1.00  0.00    -0.194 C  
HETATM   12  C   UNL     1     -10.355  14.148  68.685  1.00  0.00    -0.243 C  
HETATM   13  O   UNL     1      -9.677  14.363  66.363  1.00  0.00    -0.277 OA 
HETATM   14  H   UNL     1      -7.180  14.963  69.281  1.00  0.00     0.000 HD 
HETATM   15  O   UNL     1     -11.546  14.838  68.290  1.00  0.00    -0.297 OA 
BRANCH   6  16
HETATM   16  O   UNL     1      -8.776  11.681  66.708  1.00  0.00    -0.178 OA 
BRANCH  16  17
HETATM   17  C   UNL     1      -8.674  10.270  66.431  1.00  0.00    -0.135 C  
HETATM   18  O   UNL     1      -9.835   8.247  65.684  1.00  0.00    -0.391 OA 
HETATM   19  C   UNL     1      -9.942   9.673  65.798  1.00  0.00    -0.272 C  
HETATM   20  H   UNL     1     -10.619   7.879  65.292  1.00  0.00     0.000 HD 
HETATM   21  C   UNL     1      -8.920  10.049  63.537  1.00  0.00    -0.256 C  
HETATM   22  O   UNL     1     -10.508  11.662  64.508  1.00  0.00    -0.270 OA 
HETATM   23  C   UNL     1     -10.176  10.275  64.407  1.00  0.00    -0.035 C  
HETATM   24  O   UNL     1      -8.740   8.686  63.183  1.00  0.00    -0.419 OA 
HETATM   25  O   UNL     1      -7.743  10.580  64.153  1.00  0.00    -0.079 OA 
HETATM   26  H   UNL     1     -10.653  12.035  63.647  1.00  0.00     0.000 HD 
HETATM   27  H   UNL     1      -7.967   8.547  62.649  1.00  0.00     0.000 HD 
HETATM   28  C   UNL     1      -7.459  10.124  65.481  1.00  0.00    -0.146 C  
BRANCH  28  29
HETATM   29  C   UNL     1      -6.793   8.740  65.513  1.00  0.00    -0.075 C  
HETATM   30  O   UNL     1      -6.012   8.530  64.337  1.00  0.00    -0.063 OA 
HETATM   31  H   UNL     1      -5.601   7.675  64.357  1.00  0.00     0.000 HD 
ENDBRANCH  28  29
ENDBRANCH  16  17
ENDBRANCH   6  16
ENDBRANCH   3   4
TORSDOF 4
ENDMDL
MODEL      117
REMARK 921   NORMALIZED FREE ENERGY PREDICTED BY IDOCK:   -3.95 KCAL/MOL
REMARK 922        TOTAL FREE ENERGY PREDICTED BY IDOCK:   -6.19 KCAL/MOL
REMARK 923 INTER-LIGAND FREE ENERGY PREDICTED BY IDOCK:   -5.38 KCAL/MOL
REMARK 924 INTRA-LIGAND FREE ENERGY PREDICTED BY IDOCK:   -0.80 KCAL/MOL
REMARK 927      BINDING AFFINITY PREDICTED BY RF-SCORE:    0.00 PKD
ROOT
HETATM    1  O   UNL     1     -11.869  14.016  69.538  1.00  0.00    -0.282 OA 
HETATM    2  H   UNL     1     -12.377  13.424  70.080  1.00  0.00     0.000 HD 
HETATM    3  C   UNL     1     -10.854  14.653  70.317  1.00  0.00     0.040 C  
ENDROOT
BRANCH   3   4
HETATM    4  C   UNL     1     -10.028  15.615  69.436  1.00  0.00    -0.279 C  
HETATM    5  O   UNL     1      -8.779  15.046  69.002  1.00  0.00    -0.193 OA 
HETATM    6  C   UNL     1      -8.830  14.166  67.876  1.00  0.00    -0.182 C  
HETATM    7  H   UNL     1     -12.654  14.641  67.379  1.00  0.00     0.000 HD 
HETATM    8  C   UNL     1      -9.430  14.895  66.654  1.00  0.00    -0.265 C  
HETATM    9  O   UNL     1      -8.618  16.002  66.244  1.00  0.00    -0.308 OA 
HETATM   10  H   UNL     1     -12.638  16.976  67.941  1.00  0.00     0.000 HD 
HETATM   11  C   UNL     1     -10.834  15.399  67.002  1.00  0.00    -0.320 C  
HETATM   12  C   UNL     1     -10.813  16.259  68.273  1.00  0.00    -0.340 C  
HETATM   13  O   UNL     1     -11.783  14.329  67.163  1.00  0.00    -0.366 OA 
HETATM   14  H   UNL     1      -8.986  16.451  65.493  1.00  0.00     0.000 HD 
HETATM   15  O   UNL     1     -12.155  16.580  68.656  1.00  0.00     0.154 OA 
BRANCH   6  16
HETATM   16  O   UNL     1      -9.521  12.971  68.238  1.00  0.00    -0.217 OA 
BRANCH  16  17
HETATM   17  C   UNL     1      -9.110  11.729  67.631  1.00  0.00    -0.177 C  
HETATM   18  O   UNL     1      -8.374   9.422  67.999  1.00  0.00    -0.118 OA 
HETATM   19  C   UNL     1      -8.923  10.583  68.639  1.00  0.00    -0.162 C  
HETATM   20  H   UNL     1      -8.258   8.714  68.622  1.00  0.00     0.000 HD 
HETATM   21  C   UNL     1     -11.283   9.867  68.176  1.00  0.00    -0.077 C  
HETATM   22  O   UNL     1     -10.731  11.282  70.115  1.00  0.00    -0.386 OA 
HETATM   23  C   UNL     1     -10.265  10.216  69.284  1.00  0.00    -0.223 C  
HETATM   24  O   UNL     1     -10.984   8.640  67.529  1.00  0.00    -0.488 OA 
HETATM   25  O   UNL     1     -11.423  10.928  67.228  1.00  0.00    -0.458 OA 
HETATM   26  H   UNL     1     -11.562  11.055  70.515  1.00  0.00     0.000 HD 
HETATM   27  H   UNL     1     -11.610   8.425  66.847  1.00  0.00     0.000 HD 
HETATM   28  C   UNL     1     -10.218  11.386  66.603  1.00  0.00    -0.222 C  
BRANCH  28  29
HETATM   29  C   UNL     1      -9.756  10.482  65.451  1.00  0.00    -0.257 C  
HETATM   30  O   UNL     1      -9.919  11.143  64.197  1.00  0.00    -0.261 OA 
HETATM   31  H   UNL     1      -9.633  10.584  63.484  1.00  0.00     0.000 HD 
ENDBRANCH  28  29
ENDBRANCH  16  17
ENDBRANCH   6  16
ENDBRANCH   3   4
TORSDOF 4
ENDMDL
MODEL      118
REMARK 921   NORMALIZED FREE ENERGY PREDICTED BY IDOCK:   -3.94 KCAL/MOL
REMARK 922        TOTAL FREE ENERGY PREDICTED BY IDOCK:   -6.18 KCAL/MOL
REMARK 923 INTER-LIGAND FREE ENERGY PREDICTED BY IDOCK:   -5.32 KCAL/MOL
REMARK 924 INTRA-LIGAND FREE ENERGY PREDICTED BY IDOCK:   -0.86 KCAL/MOL
REMARK 927      BINDING AFFINITY PREDICTED BY RF-SCORE:    0.00 PKD
ROOT
HETATM    1  O   UNL     1      -9.678  16.453  65.005  1.00  0.00    -0.141 OA 
HETATM    2  H   UNL     1      -9.422  15.686  64.508  1.00  0.00     0.000 HD 
HETATM    3  C   UNL     1      -8.558  16.977  65.722  1.00  0.00     0.224 C  
ENDROOT
BRANCH   3   4
HETATM    4  C   UNL     1      -8.975  18.225  66.530  1.00  0.00    -0.274 C  
HETATM    5  O   UNL     1     -10.360  18.205  66.917  1.00  0.00    -0.350 OA 
HETATM    6  C   UNL     1     -10.695  17.430  68.071  1.00  0.00    -0.359 C  
HETATM    7  H   UNL     1      -7.007  16.408  68.745  1.00  0.00     0.000 HD 
HETATM    8  C   UNL     1      -9.900  17.927  69.299  1.00  0.00    -0.043 C  
HETATM    9  O   UNL     1     -10.231  19.281  69.633  1.00  0.00    -0.448 OA 
HETATM   10  H   UNL     1      -6.093  18.537  68.111  1.00  0.00     0.000 HD 
HETATM   11  C   UNL     1      -8.400  17.830  69.007  1.00  0.00    -0.024 C  
HETATM   12  C   UNL     1      -8.041  18.569  67.710  1.00  0.00    -0.251 C  
HETATM   13  O   UNL     1      -7.938  16.469  68.927  1.00  0.00    -0.222 OA 
HETATM   14  H   UNL     1      -9.743  19.587  70.387  1.00  0.00     0.000 HD 
HETATM   15  O   UNL     1      -6.668  18.325  67.385  1.00  0.00    -0.191 OA 
BRANCH   6  16
HETATM   16  O   UNL     1     -10.513  16.045  67.782  1.00  0.00    -0.281 OA 
BRANCH  16  17
HETATM   17  C   UNL     1     -11.626  15.149  67.976  1.00  0.00    -0.328 C  
HETATM   18  O   UNL     1     -13.156  13.541  66.942  1.00  0.00     0.166 OA 
HETATM   19  C   UNL     1     -11.955  14.298  66.739  1.00  0.00    -0.436 C  
HETATM   20  H   UNL     1     -13.359  13.015  66.177  1.00  0.00     0.000 HD 
HETATM   21  C   UNL     1     -10.507  12.476  67.677  1.00  0.00    -0.217 C  
HETATM   22  O   UNL     1      -9.643  14.064  66.003  1.00  0.00    -0.412 OA 
HETATM   23  C   UNL     1     -10.799  13.338  66.429  1.00  0.00    -0.288 C  
HETATM   24  O   UNL     1     -11.537  11.536  67.943  1.00  0.00    -0.391 OA 
HETATM   25  O   UNL     1     -10.235  13.280  68.829  1.00  0.00    -0.207 OA 
HETATM   26  H   UNL     1      -8.927  13.470  65.812  1.00  0.00     0.000 HD 
HETATM   27  H   UNL     1     -11.357  11.007  68.711  1.00  0.00     0.000 HD 
HETATM   28  C   UNL     1     -11.229  14.252  69.176  1.00  0.00    -0.270 C  
BRANCH  28  29
HETATM   29  C   UNL     1     -12.419  13.650  69.937  1.00  0.00    -0.167 C  
HETATM   30  O   UNL     1     -13.421  14.639  70.167  1.00  0.00    -0.406 OA 
HETATM   31  H   UNL     1     -14.157  14.267  70.638  1.00  0.00     0.000 HD 
ENDBRANCH  28  29
ENDBRANCH  16  17
ENDBRANCH   6  16
ENDBRANCH   3   4
TORSDOF 4
ENDMDL
MODEL      119
REMARK 921   NORMALIZED FREE ENERGY PREDICTED BY IDOCK:   -3.92 KCAL/MOL
REMARK 922        TOTAL FREE ENERGY PREDICTED BY IDOCK:   -6.14 KCAL/MOL
REMARK 923 INTER-LIGAND FREE ENERGY PREDICTED BY IDOCK:   -5.50 KCAL/MOL
REMARK 924 INTRA-LIGAND FREE ENERGY PREDICTED BY IDOCK:   -0.64 KCAL/MOL
REMARK 927      BINDING AFFINITY PREDICTED BY RF-SCORE:    0.00 PKD
ROOT
HETATM    1  O   UNL     1     -11.871  13.198  70.504  1.00  0.00    -0.510 OA 
HETATM    2  H   UNL     1     -11.567  13.602  71.307  1.00  0.00     0.000 HD 
HETATM    3  C   UNL     1     -11.124  13.687  69.388  1.00  0.00    -0.141 C  
ENDROOT
BRANCH   3   4
HETATM    4  C   UNL     1     -11.618  13.030  68.081  1.00  0.00    -0.341 C  
HETATM    5  O   UNL     1     -11.187  13.732  66.902  1.00  0.00    -0.300 OA 
HETATM    6  C   UNL     1      -9.855  13.472  66.450  1.00  0.00    -0.295 C  
HETATM    7  H   UNL     1      -9.166  10.856  69.239  1.00  0.00     0.000 HD 
HETATM    8  C   UNL     1      -9.674  11.966  66.158  1.00  0.00    -0.232 C  
HETATM    9  O   UNL     1     -10.535  11.522  65.102  1.00  0.00    -0.265 OA 
HETATM   10  H   UNL     1     -11.381   9.930  69.193  1.00  0.00     0.000 HD 
HETATM   11  C   UNL     1      -9.973  11.162  67.427  1.00  0.00    -0.179 C  
HETATM   12  C   UNL     1     -11.359  11.511  67.987  1.00  0.00    -0.298 C  
HETATM   13  O   UNL     1      -8.980  11.354  68.452  1.00  0.00    -0.162 OA 
HETATM   14  H   UNL     1     -10.424  10.597  64.922  1.00  0.00     0.000 HD 
HETATM   15  O   UNL     1     -11.540  10.864  69.251  1.00  0.00    -0.267 OA 
BRANCH   6  16
HETATM   16  O   UNL     1      -8.922  13.999  67.392  1.00  0.00    -0.186 OA 
BRANCH  16  17
HETATM   17  C   UNL     1      -8.859  15.429  67.571  1.00  0.00    -0.180 C  
HETATM   18  O   UNL     1      -8.582  17.277  69.154  1.00  0.00    -0.129 OA 
HETATM   19  C   UNL     1      -8.483  15.854  69.000  1.00  0.00    -0.242 C  
HETATM   20  H   UNL     1      -8.350  17.540  70.037  1.00  0.00     0.000 HD 
HETATM   21  C   UNL     1      -6.085  15.980  68.272  1.00  0.00    -0.104 C  
HETATM   22  O   UNL     1      -6.976  13.983  69.406  1.00  0.00    -0.182 OA 
HETATM   23  C   UNL     1      -7.054  15.408  69.331  1.00  0.00    -0.193 C  
HETATM   24  O   UNL     1      -5.930  17.386  68.379  1.00  0.00    -0.154 OA 
HETATM   25  O   UNL     1      -6.464  15.604  66.945  1.00  0.00    -0.254 OA 
HETATM   26  H   UNL     1      -6.091  13.706  69.611  1.00  0.00     0.000 HD 
HETATM   27  H   UNL     1      -5.335  17.738  67.728  1.00  0.00     0.000 HD 
HETATM   28  C   UNL     1      -7.803  15.925  66.551  1.00  0.00    -0.134 C  
BRANCH  28  29
HETATM   29  C   UNL     1      -7.971  17.393  66.131  1.00  0.00    -0.240 C  
HETATM   30  O   UNL     1      -9.326  17.663  65.777  1.00  0.00    -0.511 OA 
HETATM   31  H   UNL     1      -9.430  18.571  65.517  1.00  0.00     0.000 HD 
ENDBRANCH  28  29
ENDBRANCH  16  17
ENDBRANCH   6  16
ENDBRANCH   3   4
TORSDOF 4
ENDMDL
MODEL      120
REMARK 921   NORMALIZED FREE ENERGY PREDICTED BY IDOCK:   -3.91 KCAL/MOL
REMARK 922        TOTAL FREE ENERGY PREDICTED BY IDOCK:   -6.14 KCAL/MOL
REMARK 923 INTER-LIGAND FREE ENERGY PREDICTED BY IDOCK:   -4.90 KCAL/MOL
REMARK 924 INTRA-LIGAND FREE ENERGY PREDICTED BY IDOCK:   -1.24 KCAL/MOL
REMARK 927      BINDING AFFINITY PREDICTED BY RF-SCORE:    0.00 PKD
ROOT
HETATM    1  O   UNL     1      -9.206   8.632  64.959  1.00  0.00    -0.433 OA 
HETATM    2  H   UNL     1      -8.667   7.867  64.798  1.00  0.00     0.000 HD 
HETATM    3  C   UNL     1      -9.527   8.730  66.348  1.00  0.00    -0.228 C  
ENDROOT
BRANCH   3   4
HETATM    4  C   UNL     1     -10.404   9.973  66.610  1.00  0.00    -0.213 C  
HETATM    5  O   UNL     1     -11.305   9.801  67.719  1.00  0.00    -0.096 OA 
HETATM    6  C   UNL     1     -10.760   9.992  69.027  1.00  0.00    -0.220 C  
HETATM    7  H   UNL     1      -7.240  10.936  67.679  1.00  0.00     0.000 HD 
HETATM    8  C   UNL     1     -10.168  11.413  69.157  1.00  0.00    -0.059 C  
HETATM    9  O   UNL     1     -11.173  12.424  69.004  1.00  0.00    -0.248 OA 
HETATM   10  H   UNL     1      -8.074  12.165  65.791  1.00  0.00     0.000 HD 
HETATM   11  C   UNL     1      -9.085  11.612  68.093  1.00  0.00    -0.183 C  
HETATM   12  C   UNL     1      -9.626  11.304  66.690  1.00  0.00    -0.195 C  
HETATM   13  O   UNL     1      -7.912  10.814  68.339  1.00  0.00    -0.111 OA 
HETATM   14  H   UNL     1     -10.809  13.297  69.083  1.00  0.00     0.000 HD 
HETATM   15  O   UNL     1      -8.552  11.346  65.743  1.00  0.00    -0.131 OA 
BRANCH   6  16
HETATM   16  O   UNL     1      -9.833   8.947  69.313  1.00  0.00    -0.169 OA 
BRANCH  16  17
HETATM   17  C   UNL     1      -9.938   8.261  70.577  1.00  0.00    -0.184 C  
HETATM   18  O   UNL     1     -11.362   6.943  72.072  1.00  0.00    -0.248 OA 
HETATM   19  C   UNL     1     -11.250   7.477  70.745  1.00  0.00    -0.270 C  
HETATM   20  H   UNL     1     -12.173   6.459  72.176  1.00  0.00     0.000 HD 
HETATM   21  C   UNL     1     -10.071   5.432  69.894  1.00  0.00    -0.252 C  
HETATM   22  O   UNL     1     -11.435   6.839  68.401  1.00  0.00    -0.558 OA 
HETATM   23  C   UNL     1     -11.318   6.329  69.731  1.00  0.00    -0.436 C  
HETATM   24  O   UNL     1     -10.089   4.689  71.103  1.00  0.00    -0.197 OA 
HETATM   25  O   UNL     1      -8.858   6.180  69.768  1.00  0.00    -0.133 OA 
HETATM   26  H   UNL     1     -11.476   6.128  67.772  1.00  0.00     0.000 HD 
HETATM   27  H   UNL     1      -9.322   4.138  71.203  1.00  0.00     0.000 HD 
HETATM   28  C   UNL     1      -8.715   7.311  70.635  1.00  0.00    -0.147 C  
BRANCH  28  29
HETATM   29  C   UNL     1      -8.276   6.930  72.056  1.00  0.00    -0.099 C  
HETATM   30  O   UNL     1      -7.404   5.801  72.027  1.00  0.00    -0.089 OA 
HETATM   31  H   UNL     1      -7.132   5.565  72.906  1.00  0.00     0.000 HD 
ENDBRANCH  28  29
ENDBRANCH  16  17
ENDBRANCH   6  16
ENDBRANCH   3   4
TORSDOF 4
ENDMDL
MODEL      121
REMARK 921   NORMALIZED FREE ENERGY PREDICTED BY IDOCK:   -3.91 KCAL/MOL
REMARK 922        TOTAL FREE ENERGY PREDICTED BY IDOCK:   -6.13 KCAL/MOL
REMARK 923 INTER-LIGAND FREE ENERGY PREDICTED BY IDOCK:   -5.34 KCAL/MOL
REMARK 924 INTRA-LIGAND FREE ENERGY PREDICTED BY IDOCK:   -0.79 KCAL/MOL
REMARK 927      BINDING AFFINITY PREDICTED BY RF-SCORE:    0.00 PKD
ROOT
HETATM    1  O   UNL     1      -9.682   6.286  71.700  1.00  0.00    -0.162 OA 
HETATM    2  H   UNL     1      -9.011   6.624  72.280  1.00  0.00     0.000 HD 
HETATM    3  C   UNL     1      -9.111   5.910  70.446  1.00  0.00    -0.147 C  
ENDROOT
BRANCH   3   4
HETATM    4  C   UNL     1     -10.203   5.360  69.502  1.00  0.00    -0.266 C  
HETATM    5  O   UNL     1     -10.997   6.397  68.899  1.00  0.00    -0.295 OA 
HETATM    6  C   UNL     1     -10.439   7.055  67.759  1.00  0.00    -0.223 C  
HETATM    7  H   UNL     1      -7.244   4.845  67.754  1.00  0.00     0.000 HD 
HETATM    8  C   UNL     1     -10.133   6.029  66.645  1.00  0.00    -0.174 C  
HETATM    9  O   UNL     1     -11.324   5.385  66.176  1.00  0.00    -0.735 OA 
HETATM   10  H   UNL     1      -8.393   2.833  68.387  1.00  0.00     0.000 HD 
HETATM   11  C   UNL     1      -9.163   4.972  67.180  1.00  0.00    -0.120 C  
HETATM   12  C   UNL     1      -9.700   4.331  68.467  1.00  0.00    -0.094 C  
HETATM   13  O   UNL     1      -7.846   5.500  67.422  1.00  0.00    -0.099 OA 
HETATM   14  H   UNL     1     -11.137   4.754  65.491  1.00  0.00     0.000 HD 
HETATM   15  O   UNL     1      -8.702   3.467  69.023  1.00  0.00    -0.080 OA 
BRANCH   6  16
HETATM   16  O   UNL     1      -9.310   7.829  68.163  1.00  0.00    -0.145 OA 
BRANCH  16  17
HETATM   17  C   UNL     1      -9.503   9.230  68.445  1.00  0.00    -0.138 C  
HETATM   18  O   UNL     1      -8.438  11.370  68.980  1.00  0.00    -0.346 OA 
HETATM   19  C   UNL     1      -8.189  10.023  68.554  1.00  0.00    -0.108 C  
HETATM   20  H   UNL     1      -7.626  11.859  69.048  1.00  0.00     0.000 HD 
HETATM   21  C   UNL     1      -8.415  10.622  66.128  1.00  0.00    -0.159 C  
HETATM   22  O   UNL     1      -7.007   8.736  66.855  1.00  0.00    -0.072 OA 
HETATM   23  C   UNL     1      -7.466  10.045  67.202  1.00  0.00    -0.091 C  
HETATM   24  O   UNL     1      -8.651  12.011  66.299  1.00  0.00    -0.367 OA 
HETATM   25  O   UNL     1      -9.646   9.896  66.059  1.00  0.00    -0.190 OA 
HETATM   26  H   UNL     1      -6.559   8.750  66.018  1.00  0.00     0.000 HD 
HETATM   27  H   UNL     1      -9.234  12.366  65.639  1.00  0.00     0.000 HD 
HETATM   28  C   UNL     1     -10.378   9.767  67.284  1.00  0.00    -0.248 C  
BRANCH  28  29
HETATM   29  C   UNL     1     -11.193  11.022  67.633  1.00  0.00    -0.305 C  
HETATM   30  O   UNL     1     -12.354  10.673  68.384  1.00  0.00    -0.776 OA 
HETATM   31  H   UNL     1     -12.859  11.449  68.600  1.00  0.00     0.000 HD 
ENDBRANCH  28  29
ENDBRANCH  16  17
ENDBRANCH   6  16
ENDBRANCH   3   4
TORSDOF 4
ENDMDL
MODEL      122
REMARK 921   NORMALIZED FREE ENERGY PREDICTED BY IDOCK:   -3.87 KCAL/MOL
REMARK 922        TOTAL FREE ENERGY PREDICTED BY IDOCK:   -6.09 KCAL/MOL
REMARK 923 INTER-LIGAND FREE ENERGY PREDICTED BY IDOCK:   -4.87 KCAL/MOL
REMARK 924 INTRA-LIGAND FREE ENERGY PREDICTED BY IDOCK:   -1.22 KCAL/MOL
REMARK 927      BINDING AFFINITY PREDICTED BY RF-SCORE:    0.00 PKD
ROOT
HETATM    1  O   UNL     1      -5.303   9.744  65.488  1.00  0.00    -0.042 OA 
HETATM    2  H   UNL     1      -5.384   9.867  64.550  1.00  0.00     0.000 HD 
HETATM    3  C   UNL     1      -6.443  10.285  66.158  1.00  0.00    -0.103 C  
ENDROOT
BRANCH   3   4
HETATM    4  C   UNL     1      -6.313  10.085  67.684  1.00  0.00    -0.059 C  
HETATM    5  O   UNL     1      -6.675  11.257  68.436  1.00  0.00    -0.057 OA 
HETATM    6  C   UNL     1      -8.072  11.476  68.652  1.00  0.00    -0.132 C  
HETATM    7  H   UNL     1      -9.108   8.206  66.827  1.00  0.00     0.000 HD 
HETATM    8  C   UNL     1      -8.695  10.270  69.388  1.00  0.00    -0.156 C  
HETATM    9  O   UNL     1      -8.125  10.089  70.690  1.00  0.00    -0.411 OA 
HETATM   10  H   UNL     1      -7.257   6.921  67.657  1.00  0.00     0.000 HD 
HETATM   11  C   UNL     1      -8.476   9.000  68.559  1.00  0.00    -0.128 C  
HETATM   12  C   UNL     1      -6.990   8.808  68.226  1.00  0.00    -0.073 C  
HETATM   13  O   UNL     1      -9.244   8.993  67.342  1.00  0.00    -0.136 OA 
HETATM   14  H   UNL     1      -8.508   9.348  71.143  1.00  0.00     0.000 HD 
HETATM   15  O   UNL     1      -6.840   7.707  67.324  1.00  0.00    -0.065 OA 
BRANCH   6  16
HETATM   16  O   UNL     1      -8.701  11.790  67.410  1.00  0.00    -0.151 OA 
BRANCH  16  17
HETATM   17  C   UNL     1      -9.144  13.144  67.187  1.00  0.00    -0.230 C  
HETATM   18  O   UNL     1     -10.579  14.631  65.872  1.00  0.00    -0.289 OA 
HETATM   19  C   UNL     1     -10.285  13.257  66.162  1.00  0.00    -0.296 C  
HETATM   20  H   UNL     1     -11.284  14.701  65.239  1.00  0.00     0.000 HD 
HETATM   21  C   UNL     1     -11.922  13.183  68.062  1.00  0.00    -0.304 C  
HETATM   22  O   UNL     1     -11.355  11.157  66.781  1.00  0.00    -0.341 OA 
HETATM   23  C   UNL     1     -11.549  12.571  66.694  1.00  0.00    -0.380 C  
HETATM   24  O   UNL     1     -12.399  14.516  67.950  1.00  0.00    -0.615 OA 
HETATM   25  O   UNL     1     -10.842  13.101  68.995  1.00  0.00    -0.234 OA 
HETATM   26  H   UNL     1     -12.138  10.732  67.111  1.00  0.00     0.000 HD 
HETATM   27  H   UNL     1     -12.629  14.892  68.791  1.00  0.00     0.000 HD 
HETATM   28  C   UNL     1      -9.594  13.665  68.575  1.00  0.00    -0.165 C  
BRANCH  28  29
HETATM   29  C   UNL     1      -9.543  15.193  68.724  1.00  0.00    -0.219 C  
HETATM   30  O   UNL     1     -10.210  15.604  69.916  1.00  0.00    -0.281 OA 
HETATM   31  H   UNL     1     -10.179  16.549  70.009  1.00  0.00     0.000 HD 
ENDBRANCH  28  29
ENDBRANCH  16  17
ENDBRANCH   6  16
ENDBRANCH   3   4
TORSDOF 4
ENDMDL
MODEL      123
REMARK 921   NORMALIZED FREE ENERGY PREDICTED BY IDOCK:   -3.86 KCAL/MOL
REMARK 922        TOTAL FREE ENERGY PREDICTED BY IDOCK:   -6.07 KCAL/MOL
REMARK 923 INTER-LIGAND FREE ENERGY PREDICTED BY IDOCK:   -4.91 KCAL/MOL
REMARK 924 INTRA-LIGAND FREE ENERGY PREDICTED BY IDOCK:   -1.16 KCAL/MOL
REMARK 927      BINDING AFFINITY PREDICTED BY RF-SCORE:    0.00 PKD
ROOT
HETATM    1  O   UNL     1     -10.593   6.612  66.693  1.00  0.00    -0.438 OA 
HETATM    2  H   UNL     1     -11.439   7.034  66.607  1.00  0.00     0.000 HD 
HETATM    3  C   UNL     1      -9.546   7.529  66.373  1.00  0.00    -0.125 C  
ENDROOT
BRANCH   3   4
HETATM    4  C   UNL     1      -8.169   6.843  66.514  1.00  0.00    -0.117 C  
HETATM    5  O   UNL     1      -7.450   7.265  67.687  1.00  0.00    -0.096 OA 
HETATM    6  C   UNL     1      -7.812   6.642  68.922  1.00  0.00    -0.111 C  
HETATM    7  H   UNL     1     -10.445   4.322  67.253  1.00  0.00     0.000 HD 
HETATM    8  C   UNL     1      -7.634   5.111  68.822  1.00  0.00    -0.078 C  
HETATM    9  O   UNL     1      -6.266   4.749  68.591  1.00  0.00    -0.029 OA 
HETATM   10  H   UNL     1      -9.147   3.946  65.268  1.00  0.00     0.000 HD 
HETATM   11  C   UNL     1      -8.499   4.572  67.678  1.00  0.00    -0.103 C  
HETATM   12  C   UNL     1      -8.198   5.307  66.365  1.00  0.00    -0.109 C  
HETATM   13  O   UNL     1      -9.908   4.656  67.962  1.00  0.00    -0.156 OA 
HETATM   14  H   UNL     1      -6.156   3.809  68.530  1.00  0.00     0.000 HD 
HETATM   15  O   UNL     1      -9.129   4.891  65.360  1.00  0.00    -0.150 OA 
BRANCH   6  16
HETATM   16  O   UNL     1      -9.127   7.052  69.293  1.00  0.00    -0.138 OA 
BRANCH  16  17
HETATM   17  C   UNL     1      -9.304   7.742  70.547  1.00  0.00    -0.163 C  
HETATM   18  O   UNL     1     -10.784   9.125  71.925  1.00  0.00    -0.357 OA 
HETATM   19  C   UNL     1     -10.714   8.328  70.734  1.00  0.00    -0.218 C  
HETATM   20  H   UNL     1     -11.655   9.487  72.040  1.00  0.00     0.000 HD 
HETATM   21  C   UNL     1     -11.361   6.234  71.955  1.00  0.00    -0.299 C  
HETATM   22  O   UNL     1     -11.865   6.528  69.562  1.00  0.00    -0.649 OA 
HETATM   23  C   UNL     1     -11.752   7.203  70.817  1.00  0.00    -0.323 C  
HETATM   24  O   UNL     1     -11.525   6.810  73.242  1.00  0.00    -0.484 OA 
HETATM   25  O   UNL     1     -10.036   5.721  71.787  1.00  0.00    -0.179 OA 
HETATM   26  H   UNL     1     -12.508   5.831  69.613  1.00  0.00     0.000 HD 
HETATM   27  H   UNL     1     -11.284   6.214  73.941  1.00  0.00     0.000 HD 
HETATM   28  C   UNL     1      -8.992   6.692  71.643  1.00  0.00    -0.141 C  
BRANCH  28  29
HETATM   29  C   UNL     1      -8.538   7.291  72.983  1.00  0.00    -0.124 C  
HETATM   30  O   UNL     1      -7.982   8.590  72.789  1.00  0.00    -0.323 OA 
HETATM   31  H   UNL     1      -7.701   8.961  73.618  1.00  0.00     0.000 HD 
ENDBRANCH  28  29
ENDBRANCH  16  17
ENDBRANCH   6  16
ENDBRANCH   3   4
TORSDOF 4
ENDMDL
MODEL      124
REMARK 921   NORMALIZED FREE ENERGY PREDICTED BY IDOCK:   -3.86 KCAL/MOL
REMARK 922        TOTAL FREE ENERGY PREDICTED BY IDOCK:   -6.07 KCAL/MOL
REMARK 923 INTER-LIGAND FREE ENERGY PREDICTED BY IDOCK:   -5.39 KCAL/MOL
REMARK 924 INTRA-LIGAND FREE ENERGY PREDICTED BY IDOCK:   -0.68 KCAL/MOL
REMARK 927      BINDING AFFINITY PREDICTED BY RF-SCORE:    0.00 PKD
ROOT
HETATM    1  O   UNL     1      -7.511   9.725  66.556  1.00  0.00    -0.093 OA 
HETATM    2  H   UNL     1      -6.641   9.345  66.585  1.00  0.00     0.000 HD 
HETATM    3  C   UNL     1      -8.496   8.699  66.416  1.00  0.00    -0.112 C  
ENDROOT
BRANCH   3   4
HETATM    4  C   UNL     1      -9.910   9.317  66.369  1.00  0.00    -0.277 C  
HETATM    5  O   UNL     1     -10.853   8.624  67.208  1.00  0.00    -0.217 OA 
HETATM    6  C   UNL     1     -10.832   8.946  68.601  1.00  0.00     0.009 C  
HETATM    7  H   UNL     1      -8.047  11.623  68.182  1.00  0.00     0.000 HD 
HETATM    8  C   UNL     1     -11.086  10.456  68.806  1.00  0.00    -0.250 C  
HETATM    9  O   UNL     1     -12.384  10.844  68.338  1.00  0.00    -0.803 OA 
HETATM   10  H   UNL     1      -8.870  12.436  66.077  1.00  0.00     0.000 HD 
HETATM   11  C   UNL     1     -10.017  11.257  68.056  1.00  0.00    -0.179 C  
HETATM   12  C   UNL     1      -9.953  10.845  66.579  1.00  0.00    -0.211 C  
HETATM   13  O   UNL     1      -8.711  11.126  68.647  1.00  0.00    -0.155 OA 
HETATM   14  H   UNL     1     -12.540  11.772  68.463  1.00  0.00     0.000 HD 
HETATM   15  O   UNL     1      -8.844  11.495  65.949  1.00  0.00    -0.187 OA 
BRANCH   6  16
HETATM   16  O   UNL     1      -9.614   8.477  69.179  1.00  0.00    -0.164 OA 
BRANCH  16  17
HETATM   17  C   UNL     1      -9.665   7.333  70.056  1.00  0.00    -0.175 C  
HETATM   18  O   UNL     1      -8.430   5.891  71.604  1.00  0.00    -0.126 OA 
HETATM   19  C   UNL     1      -8.376   7.121  70.866  1.00  0.00    -0.121 C  
HETATM   20  H   UNL     1      -7.633   5.761  72.104  1.00  0.00     0.000 HD 
HETATM   21  C   UNL     1      -9.407   8.430  72.742  1.00  0.00    -0.242 C  
HETATM   22  O   UNL     1      -7.880   9.492  71.128  1.00  0.00    -0.326 OA 
HETATM   23  C   UNL     1      -8.161   8.285  71.841  1.00  0.00    -0.149 C  
HETATM   24  O   UNL     1      -9.537   7.361  73.667  1.00  0.00    -0.241 OA 
HETATM   25  O   UNL     1     -10.604   8.594  71.976  1.00  0.00    -0.306 OA 
HETATM   26  H   UNL     1      -7.747  10.214  71.732  1.00  0.00     0.000 HD 
HETATM   27  H   UNL     1     -10.303   7.450  74.222  1.00  0.00     0.000 HD 
HETATM   28  C   UNL     1     -10.873   7.586  70.993  1.00  0.00    -0.235 C  
BRANCH  28  29
HETATM   29  C   UNL     1     -11.488   6.312  71.591  1.00  0.00    -0.296 C  
HETATM   30  O   UNL     1     -12.764   6.591  72.165  1.00  0.00    -0.537 OA 
HETATM   31  H   UNL     1     -13.144   5.803  72.535  1.00  0.00     0.000 HD 
ENDBRANCH  28  29
ENDBRANCH  16  17
ENDBRANCH   6  16
ENDBRANCH   3   4
TORSDOF 4
ENDMDL
MODEL      125
REMARK 921   NORMALIZED FREE ENERGY PREDICTED BY IDOCK:   -3.85 KCAL/MOL
REMARK 922        TOTAL FREE ENERGY PREDICTED BY IDOCK:   -6.06 KCAL/MOL
REMARK 923 INTER-LIGAND FREE ENERGY PREDICTED BY IDOCK:   -4.86 KCAL/MOL
REMARK 924 INTRA-LIGAND FREE ENERGY PREDICTED BY IDOCK:   -1.20 KCAL/MOL
REMARK 927      BINDING AFFINITY PREDICTED BY RF-SCORE:    0.00 PKD
ROOT
HETATM    1  O   UNL     1     -11.995  10.681  67.785  1.00  0.00    -0.664 OA 
HETATM    2  H   UNL     1     -12.569  10.319  67.120  1.00  0.00     0.000 HD 
HETATM    3  C   UNL     1     -11.303  11.822  67.276  1.00  0.00    -0.315 C  
ENDROOT
BRANCH   3   4
HETATM    4  C   UNL     1     -10.370  12.410  68.358  1.00  0.00    -0.229 C  
HETATM    5  O   UNL     1      -9.934  11.429  69.315  1.00  0.00    -0.060 OA 
HETATM    6  C   UNL     1      -8.843  10.590  68.926  1.00  0.00    -0.165 C  
HETATM    7  H   UNL     1      -8.404  12.356  65.493  1.00  0.00     0.000 HD 
HETATM    8  C   UNL     1      -7.606  11.448  68.579  1.00  0.00    -0.129 C  
HETATM    9  O   UNL     1      -7.139  12.191  69.713  1.00  0.00    -0.336 OA 
HETATM   10  H   UNL     1      -8.877  14.553  66.338  1.00  0.00     0.000 HD 
HETATM   11  C   UNL     1      -7.962  12.420  67.450  1.00  0.00    -0.178 C  
HETATM   12  C   UNL     1      -9.200  13.254  67.809  1.00  0.00    -0.209 C  
HETATM   13  O   UNL     1      -8.183  11.753  66.193  1.00  0.00    -0.014 OA 
HETATM   14  H   UNL     1      -6.379  12.718  69.499  1.00  0.00     0.000 HD 
HETATM   15  O   UNL     1      -9.597  14.034  66.676  1.00  0.00    -0.270 OA 
BRANCH   6  16
HETATM   16  O   UNL     1      -9.263   9.722  67.875  1.00  0.00    -0.125 OA 
BRANCH  16  17
HETATM   17  C   UNL     1      -8.707   8.393  67.817  1.00  0.00    -0.137 C  
HETATM   18  O   UNL     1      -8.335   6.282  69.004  1.00  0.00    -0.115 OA 
HETATM   19  C   UNL     1      -9.036   7.534  69.050  1.00  0.00    -0.131 C  
HETATM   20  H   UNL     1      -8.539   5.752  69.765  1.00  0.00     0.000 HD 
HETATM   21  C   UNL     1     -11.011   6.610  67.807  1.00  0.00    -0.281 C  
HETATM   22  O   UNL     1     -11.256   8.476  69.396  1.00  0.00    -0.444 OA 
HETATM   23  C   UNL     1     -10.544   7.266  69.125  1.00  0.00    -0.208 C  
HETATM   24  O   UNL     1     -10.536   5.280  67.663  1.00  0.00    -0.176 OA 
HETATM   25  O   UNL     1     -10.669   7.403  66.667  1.00  0.00    -0.241 OA 
HETATM   26  H   UNL     1     -12.190   8.310  69.443  1.00  0.00     0.000 HD 
HETATM   27  H   UNL     1     -10.823   4.876  66.853  1.00  0.00     0.000 HD 
HETATM   28  C   UNL     1      -9.288   7.758  66.529  1.00  0.00    -0.189 C  
BRANCH  28  29
HETATM   29  C   UNL     1      -8.432   6.627  65.938  1.00  0.00    -0.144 C  
HETATM   30  O   UNL     1      -7.677   7.099  64.824  1.00  0.00    -0.100 OA 
HETATM   31  H   UNL     1      -7.148   6.400  64.458  1.00  0.00     0.000 HD 
ENDBRANCH  28  29
ENDBRANCH  16  17
ENDBRANCH   6  16
ENDBRANCH   3   4
TORSDOF 4
ENDMDL
MODEL      126
REMARK 921   NORMALIZED FREE ENERGY PREDICTED BY IDOCK:   -3.80 KCAL/MOL
REMARK 922        TOTAL FREE ENERGY PREDICTED BY IDOCK:   -6.00 KCAL/MOL
REMARK 923 INTER-LIGAND FREE ENERGY PREDICTED BY IDOCK:   -4.88 KCAL/MOL
REMARK 924 INTRA-LIGAND FREE ENERGY PREDICTED BY IDOCK:   -1.12 KCAL/MOL
REMARK 927      BINDING AFFINITY PREDICTED BY RF-SCORE:    0.00 PKD
ROOT
HETATM    1  O   UNL     1     -12.079  10.825  67.641  1.00  0.00    -0.441 OA 
HETATM    2  H   UNL     1     -12.562  10.646  66.843  1.00  0.00     0.000 HD 
HETATM    3  C   UNL     1     -10.896  11.570  67.348  1.00  0.00    -0.246 C  
ENDROOT
BRANCH   3   4
HETATM    4  C   UNL     1     -10.110  11.861  68.645  1.00  0.00    -0.177 C  
HETATM    5  O   UNL     1     -10.110  10.752  69.561  1.00  0.00    -0.189 OA 
HETATM    6  C   UNL     1      -9.169   9.707  69.306  1.00  0.00    -0.183 C  
HETATM    7  H   UNL     1      -7.639  11.515  66.227  1.00  0.00     0.000 HD 
HETATM    8  C   UNL     1      -7.731  10.272  69.297  1.00  0.00    -0.130 C  
HETATM    9  O   UNL     1      -7.367  10.819  70.571  1.00  0.00    -0.397 OA 
HETATM   10  H   UNL     1      -7.795  13.711  67.188  1.00  0.00     0.000 HD 
HETATM   11  C   UNL     1      -7.620  11.363  68.228  1.00  0.00    -0.113 C  
HETATM   12  C   UNL     1      -8.696  12.440  68.425  1.00  0.00    -0.132 C  
HETATM   13  O   UNL     1      -7.707  10.839  66.890  1.00  0.00    -0.118 OA 
HETATM   14  H   UNL     1      -6.484  11.166  70.566  1.00  0.00     0.000 HD 
HETATM   15  O   UNL     1      -8.665  13.354  67.323  1.00  0.00    -0.199 OA 
BRANCH   6  16
HETATM   16  O   UNL     1      -9.532   9.022  68.109  1.00  0.00    -0.141 OA 
BRANCH  16  17
HETATM   17  C   UNL     1     -10.484   7.942  68.197  1.00  0.00    -0.173 C  
HETATM   18  O   UNL     1     -11.775   6.255  66.977  1.00  0.00    -0.505 OA 
HETATM   19  C   UNL     1     -10.716   7.215  66.861  1.00  0.00    -0.293 C  
HETATM   20  H   UNL     1     -11.918   5.806  66.152  1.00  0.00     0.000 HD 
HETATM   21  C   UNL     1      -8.968   5.544  67.531  1.00  0.00    -0.107 C  
HETATM   22  O   UNL     1      -8.422   7.452  66.073  1.00  0.00    -0.135 OA 
HETATM   23  C   UNL     1      -9.434   6.502  66.413  1.00  0.00    -0.126 C  
HETATM   24  O   UNL     1      -9.827   4.425  67.683  1.00  0.00    -0.169 OA 
HETATM   25  O   UNL     1      -8.787   6.226  68.776  1.00  0.00    -0.123 OA 
HETATM   26  H   UNL     1      -7.628   7.011  65.795  1.00  0.00     0.000 HD 
HETATM   27  H   UNL     1      -9.540   3.836  68.371  1.00  0.00     0.000 HD 
HETATM   28  C   UNL     1      -9.910   6.972  69.261  1.00  0.00    -0.159 C  
BRANCH  28  29
HETATM   29  C   UNL     1     -10.964   6.093  69.951  1.00  0.00    -0.389 C  
HETATM   30  O   UNL     1     -10.362   4.921  70.496  1.00  0.00    -0.239 OA 
HETATM   31  H   UNL     1     -11.014   4.377  70.922  1.00  0.00     0.000 HD 
ENDBRANCH  28  29
ENDBRANCH  16  17
ENDBRANCH   6  16
ENDBRANCH   3   4
TORSDOF 4
ENDMDL
MODEL      127
REMARK 921   NORMALIZED FREE ENERGY PREDICTED BY IDOCK:   -3.80 KCAL/MOL
REMARK 922        TOTAL FREE ENERGY PREDICTED BY IDOCK:   -6.00 KCAL/MOL
REMARK 923 INTER-LIGAND FREE ENERGY PREDICTED BY IDOCK:   -6.13 KCAL/MOL
REMARK 924 INTRA-LIGAND FREE ENERGY PREDICTED BY IDOCK:    0.13 KCAL/MOL
REMARK 927      BINDING AFFINITY PREDICTED BY RF-SCORE:    0.00 PKD
ROOT
HETATM    1  O   UNL     1     -10.155  12.624  63.903  1.00  0.00    -0.551 OA 
HETATM    2  H   UNL     1      -9.542  12.256  63.278  1.00  0.00     0.000 HD 
HETATM    3  C   UNL     1     -11.355  11.848  63.936  1.00  0.00    -0.428 C  
ENDROOT
BRANCH   3   4
HETATM    4  C   UNL     1     -12.351  12.446  64.953  1.00  0.00    -0.402 C  
HETATM    5  O   UNL     1     -12.192  11.907  66.278  1.00  0.00    -0.471 OA 
HETATM    6  C   UNL     1     -11.146  12.464  67.078  1.00  0.00    -0.278 C  
HETATM    7  H   UNL     1     -10.111  15.034  64.353  1.00  0.00     0.000 HD 
HETATM    8  C   UNL     1     -11.352  13.986  67.242  1.00  0.00    -0.330 C  
HETATM    9  O   UNL     1     -12.570  14.286  67.935  1.00  0.00    -0.485 OA 
HETATM   10  H   UNL     1     -12.358  15.470  63.629  1.00  0.00     0.000 HD 
HETATM   11  C   UNL     1     -11.378  14.648  65.862  1.00  0.00    -0.338 C  
HETATM   12  C   UNL     1     -12.424  13.988  64.953  1.00  0.00    -0.396 C  
HETATM   13  O   UNL     1     -10.094  14.624  65.210  1.00  0.00    -0.371 OA 
HETATM   14  H   UNL     1     -12.697  15.221  68.036  1.00  0.00     0.000 HD 
HETATM   15  O   UNL     1     -12.313  14.521  63.629  1.00  0.00    -0.704 OA 
BRANCH   6  16
HETATM   16  O   UNL     1      -9.881  12.104  66.524  1.00  0.00    -0.209 OA 
BRANCH  16  17
HETATM   17  C   UNL     1      -9.100  11.094  67.194  1.00  0.00    -0.147 C  
HETATM   18  O   UNL     1      -6.887  10.087  67.487  1.00  0.00    -0.079 OA 
HETATM   19  C   UNL     1      -7.591  11.200  66.919  1.00  0.00    -0.145 C  
HETATM   20  H   UNL     1      -5.954  10.153  67.317  1.00  0.00     0.000 HD 
HETATM   21  C   UNL     1      -7.363  12.565  69.012  1.00  0.00     0.043 C  
HETATM   22  O   UNL     1      -7.552  13.634  66.801  1.00  0.00    -0.254 OA 
HETATM   23  C   UNL     1      -7.033  12.503  67.504  1.00  0.00    -0.149 C  
HETATM   24  O   UNL     1      -6.623  11.622  69.772  1.00  0.00    -0.212 OA 
HETATM   25  O   UNL     1      -8.767  12.432  69.256  1.00  0.00     0.547 OA 
HETATM   26  H   UNL     1      -7.207  14.441  67.163  1.00  0.00     0.000 HD 
HETATM   27  H   UNL     1      -6.826  11.660  70.698  1.00  0.00     0.000 HD 
HETATM   28  C   UNL     1      -9.402  11.273  68.703  1.00  0.00    -0.164 C  
BRANCH  28  29
HETATM   29  C   UNL     1      -9.184  10.008  69.547  1.00  0.00    -0.221 C  
HETATM   30  O   UNL     1      -8.160  10.220  70.516  1.00  0.00    -0.388 OA 
HETATM   31  H   UNL     1      -8.025   9.438  71.038  1.00  0.00     0.000 HD 
ENDBRANCH  28  29
ENDBRANCH  16  17
ENDBRANCH   6  16
ENDBRANCH   3   4
TORSDOF 4
ENDMDL
MODEL      128
REMARK 921   NORMALIZED FREE ENERGY PREDICTED BY IDOCK:   -3.79 KCAL/MOL
REMARK 922        TOTAL FREE ENERGY PREDICTED BY IDOCK:   -5.98 KCAL/MOL
REMARK 923 INTER-LIGAND FREE ENERGY PREDICTED BY IDOCK:   -5.41 KCAL/MOL
REMARK 924 INTRA-LIGAND FREE ENERGY PREDICTED BY IDOCK:   -0.57 KCAL/MOL
REMARK 927      BINDING AFFINITY PREDICTED BY RF-SCORE:    0.00 PKD
ROOT
HETATM    1  O   UNL     1     -10.806   6.899  68.431  1.00  0.00    -0.317 OA 
HETATM    2  H   UNL     1     -11.464   6.898  67.745  1.00  0.00     0.000 HD 
HETATM    3  C   UNL     1     -11.394   6.542  69.683  1.00  0.00    -0.380 C  
ENDROOT
BRANCH   3   4
HETATM    4  C   UNL     1     -10.325   6.545  70.797  1.00  0.00    -0.204 C  
HETATM    5  O   UNL     1      -9.041   7.009  70.341  1.00  0.00    -0.155 OA 
HETATM    6  C   UNL     1      -8.861   8.425  70.258  1.00  0.00    -0.142 C  
HETATM    7  H   UNL     1     -12.414   9.195  71.631  1.00  0.00     0.000 HD 
HETATM    8  C   UNL     1      -9.101   9.078  71.638  1.00  0.00    -0.108 C  
HETATM    9  O   UNL     1      -8.154   8.623  72.612  1.00  0.00    -0.367 OA 
HETATM   10  H   UNL     1     -12.409   7.389  73.215  1.00  0.00     0.000 HD 
HETATM   11  C   UNL     1     -10.518   8.746  72.117  1.00  0.00    -0.314 C  
HETATM   12  C   UNL     1     -10.763   7.231  72.109  1.00  0.00    -0.219 C  
HETATM   13  O   UNL     1     -11.535   9.400  71.334  1.00  0.00    -0.323 OA 
HETATM   14  H   UNL     1      -8.301   9.024  73.460  1.00  0.00     0.000 HD 
HETATM   15  O   UNL     1     -12.139   6.968  72.408  1.00  0.00    -0.209 OA 
BRANCH   6  16
HETATM   16  O   UNL     1      -9.683   8.948  69.216  1.00  0.00    -0.161 OA 
BRANCH  16  17
HETATM   17  C   UNL     1      -9.553  10.342  68.870  1.00  0.00    -0.190 C  
HETATM   18  O   UNL     1      -8.079  12.105  68.023  1.00  0.00    -0.136 OA 
HETATM   19  C   UNL     1      -8.210  10.689  68.206  1.00  0.00    -0.120 C  
HETATM   20  H   UNL     1      -7.249  12.319  67.612  1.00  0.00     0.000 HD 
HETATM   21  C   UNL     1      -9.303  10.381  65.968  1.00  0.00    -0.178 C  
HETATM   22  O   UNL     1      -7.995   8.574  67.013  1.00  0.00    -0.098 OA 
HETATM   23  C   UNL     1      -8.093   9.990  66.845  1.00  0.00    -0.117 C  
HETATM   24  O   UNL     1      -9.257  11.736  65.549  1.00  0.00    -0.374 OA 
HETATM   25  O   UNL     1     -10.545  10.084  66.611  1.00  0.00    -0.198 OA 
HETATM   26  H   UNL     1      -7.923   8.142  66.171  1.00  0.00     0.000 HD 
HETATM   27  H   UNL     1     -10.001  11.976  65.010  1.00  0.00     0.000 HD 
HETATM   28  C   UNL     1     -10.736  10.643  67.916  1.00  0.00    -0.248 C  
BRANCH  28  29
HETATM   29  C   UNL     1     -11.162  12.119  67.882  1.00  0.00    -0.272 C  
HETATM   30  O   UNL     1     -12.049  12.360  66.792  1.00  0.00    -0.578 OA 
HETATM   31  H   UNL     1     -12.313  13.273  66.770  1.00  0.00     0.000 HD 
ENDBRANCH  28  29
ENDBRANCH  16  17
ENDBRANCH   6  16
ENDBRANCH   3   4
TORSDOF 4
ENDMDL
MODEL      129
REMARK 921   NORMALIZED FREE ENERGY PREDICTED BY IDOCK:   -3.77 KCAL/MOL
REMARK 922        TOTAL FREE ENERGY PREDICTED BY IDOCK:   -5.96 KCAL/MOL
REMARK 923 INTER-LIGAND FREE ENERGY PREDICTED BY IDOCK:   -4.65 KCAL/MOL
REMARK 924 INTRA-LIGAND FREE ENERGY PREDICTED BY IDOCK:   -1.31 KCAL/MOL
REMARK 927      BINDING AFFINITY PREDICTED BY RF-SCORE:    0.00 PKD
ROOT
HETATM    1  O   UNL     1      -8.337   3.912  72.418  1.00  0.00    -0.090 OA 
HETATM    2  H   UNL     1      -7.914   4.214  73.212  1.00  0.00     0.000 HD 
HETATM    3  C   UNL     1      -7.543   4.240  71.276  1.00  0.00    -0.060 C  
ENDROOT
BRANCH   3   4
HETATM    4  C   UNL     1      -8.232   3.748  69.985  1.00  0.00    -0.056 C  
HETATM    5  O   UNL     1      -9.665   3.864  70.034  1.00  0.00    -0.201 OA 
HETATM    6  C   UNL     1     -10.216   5.154  69.756  1.00  0.00    -0.287 C  
HETATM    7  H   UNL     1      -6.742   6.746  69.052  1.00  0.00     0.000 HD 
HETATM    8  C   UNL     1      -9.783   5.629  68.351  1.00  0.00    -0.128 C  
HETATM    9  O   UNL     1     -10.280   4.765  67.322  1.00  0.00    -0.171 OA 
HETATM   10  H   UNL     1      -5.854   4.804  67.952  1.00  0.00     0.000 HD 
HETATM   11  C   UNL     1      -8.254   5.674  68.279  1.00  0.00    -0.103 C  
HETATM   12  C   UNL     1      -7.642   4.325  68.681  1.00  0.00    -0.063 C  
HETATM   13  O   UNL     1      -7.691   6.718  69.096  1.00  0.00    -0.101 OA 
HETATM   14  H   UNL     1     -10.014   5.057  66.458  1.00  0.00     0.000 HD 
HETATM   15  O   UNL     1      -6.217   4.449  68.755  1.00  0.00    -0.030 OA 
BRANCH   6  16
HETATM   16  O   UNL     1      -9.871   6.054  70.808  1.00  0.00    -0.175 OA 
BRANCH  16  17
HETATM   17  C   UNL     1     -10.891   6.427  71.756  1.00  0.00    -0.241 C  
HETATM   18  O   UNL     1     -11.400   7.560  73.867  1.00  0.00    -0.270 OA 
HETATM   19  C   UNL     1     -10.382   7.346  72.879  1.00  0.00    -0.279 C  
HETATM   20  H   UNL     1     -11.085   8.128  74.561  1.00  0.00     0.000 HD 
HETATM   21  C   UNL     1     -11.121   9.322  71.519  1.00  0.00    -0.373 C  
HETATM   22  O   UNL     1      -8.784   8.545  71.483  1.00  0.00    -0.154 OA 
HETATM   23  C   UNL     1      -9.945   8.699  72.303  1.00  0.00    -0.291 C  
HETATM   24  O   UNL     1     -12.176   9.749  72.368  1.00  0.00    -0.067 OA 
HETATM   25  O   UNL     1     -11.607   8.443  70.500  1.00  0.00    -0.238 OA 
HETATM   26  H   UNL     1      -8.513   9.382  71.126  1.00  0.00     0.000 HD 
HETATM   27  H   UNL     1     -12.899  10.132  71.886  1.00  0.00     0.000 HD 
HETATM   28  C   UNL     1     -11.993   7.130  70.922  1.00  0.00    -0.334 C  
BRANCH  28  29
HETATM   29  C   UNL     1     -13.391   7.088  71.557  1.00  0.00    -0.294 C  
HETATM   30  O   UNL     1     -14.223   8.107  71.006  1.00  0.00    -0.646 OA 
HETATM   31  H   UNL     1     -15.088   8.081  71.399  1.00  0.00     0.000 HD 
ENDBRANCH  28  29
ENDBRANCH  16  17
ENDBRANCH   6  16
ENDBRANCH   3   4
TORSDOF 4
ENDMDL
MODEL      130
REMARK 921   NORMALIZED FREE ENERGY PREDICTED BY IDOCK:   -3.76 KCAL/MOL
REMARK 922        TOTAL FREE ENERGY PREDICTED BY IDOCK:   -5.95 KCAL/MOL
REMARK 923 INTER-LIGAND FREE ENERGY PREDICTED BY IDOCK:   -4.71 KCAL/MOL
REMARK 924 INTRA-LIGAND FREE ENERGY PREDICTED BY IDOCK:   -1.25 KCAL/MOL
REMARK 927      BINDING AFFINITY PREDICTED BY RF-SCORE:    0.00 PKD
ROOT
HETATM    1  O   UNL     1      -7.747  11.140  68.705  1.00  0.00    -0.118 OA 
HETATM    2  H   UNL     1      -7.679  11.095  69.651  1.00  0.00     0.000 HD 
HETATM    3  C   UNL     1      -8.731  12.103  68.324  1.00  0.00    -0.178 C  
ENDROOT
BRANCH   3   4
HETATM    4  C   UNL     1      -8.842  12.177  66.785  1.00  0.00    -0.198 C  
HETATM    5  O   UNL     1      -8.704  10.893  66.151  1.00  0.00    -0.172 OA 
HETATM    6  C   UNL     1      -9.865  10.058  66.128  1.00  0.00    -0.246 C  
HETATM    7  H   UNL     1     -12.094  12.709  67.888  1.00  0.00     0.000 HD 
HETATM    8  C   UNL     1     -11.028  10.780  65.413  1.00  0.00     0.110 C  
HETATM    9  O   UNL     1     -10.720  11.054  64.040  1.00  0.00    -0.427 OA 
HETATM   10  H   UNL     1     -11.103  14.583  66.759  1.00  0.00     0.000 HD 
HETATM   11  C   UNL     1     -11.331  12.096  66.135  1.00  0.00    -0.361 C  
HETATM   12  C   UNL     1     -10.067  12.958  66.265  1.00  0.00    -0.276 C  
HETATM   13  O   UNL     1     -11.907  11.893  67.439  1.00  0.00    -0.571 OA 
HETATM   14  H   UNL     1     -11.435  11.498  63.600  1.00  0.00     0.000 HD 
HETATM   15  O   UNL     1     -10.349  14.102  67.079  1.00  0.00    -0.264 OA 
BRANCH   6  16
HETATM   16  O   UNL     1     -10.171   9.633  67.455  1.00  0.00    -0.197 OA 
BRANCH  16  17
HETATM   17  C   UNL     1     -10.455   8.238  67.681  1.00  0.00    -0.235 C  
HETATM   18  O   UNL     1      -9.839   5.921  67.178  1.00  0.00    -0.125 OA 
HETATM   19  C   UNL     1      -9.425   7.288  67.048  1.00  0.00    -0.156 C  
HETATM   20  H   UNL     1      -9.201   5.335  66.787  1.00  0.00     0.000 HD 
HETATM   21  C   UNL     1      -8.200   7.250  69.238  1.00  0.00    -0.131 C  
HETATM   22  O   UNL     1      -7.512   8.755  67.412  1.00  0.00    -0.087 OA 
HETATM   23  C   UNL     1      -8.055   7.467  67.715  1.00  0.00    -0.119 C  
HETATM   24  O   UNL     1      -8.457   5.895  69.573  1.00  0.00    -0.112 OA 
HETATM   25  O   UNL     1      -9.185   8.116  69.808  1.00  0.00    -0.151 OA 
HETATM   26  H   UNL     1      -6.665   8.866  67.826  1.00  0.00     0.000 HD 
HETATM   27  H   UNL     1      -8.545   5.762  70.509  1.00  0.00     0.000 HD 
HETATM   28  C   UNL     1     -10.491   8.069  69.221  1.00  0.00    -0.215 C  
BRANCH  28  29
HETATM   29  C   UNL     1     -11.327   6.876  69.708  1.00  0.00    -0.237 C  
HETATM   30  O   UNL     1     -11.017   6.566  71.066  1.00  0.00    -0.241 OA 
HETATM   31  H   UNL     1     -11.534   5.828  71.367  1.00  0.00     0.000 HD 
ENDBRANCH  28  29
ENDBRANCH  16  17
ENDBRANCH   6  16
ENDBRANCH   3   4
TORSDOF 4
ENDMDL
MODEL      131
REMARK 921   NORMALIZED FREE ENERGY PREDICTED BY IDOCK:   -3.75 KCAL/MOL
REMARK 922        TOTAL FREE ENERGY PREDICTED BY IDOCK:   -5.93 KCAL/MOL
REMARK 923 INTER-LIGAND FREE ENERGY PREDICTED BY IDOCK:   -4.92 KCAL/MOL
REMARK 924 INTRA-LIGAND FREE ENERGY PREDICTED BY IDOCK:   -1.02 KCAL/MOL
REMARK 927      BINDING AFFINITY PREDICTED BY RF-SCORE:    0.00 PKD
ROOT
HETATM    1  O   UNL     1     -10.900  19.300  64.887  1.00  0.00    -0.236 OA 
HETATM    2  H   UNL     1     -11.431  18.654  64.437  1.00  0.00     0.000 HD 
HETATM    3  C   UNL     1     -10.546  18.831  66.190  1.00  0.00    -0.377 C  
ENDROOT
BRANCH   3   4
HETATM    4  C   UNL     1      -9.682  19.882  66.921  1.00  0.00    -0.407 C  
HETATM    5  O   UNL     1      -9.788  19.795  68.354  1.00  0.00    -0.387 OA 
HETATM    6  C   UNL     1      -8.997  18.793  68.998  1.00  0.00    -0.112 C  
HETATM    7  H   UNL     1      -7.366  17.609  65.677  1.00  0.00     0.000 HD 
HETATM    8  C   UNL     1      -7.501  19.006  68.679  1.00  0.00    -0.326 C  
HETATM    9  O   UNL     1      -7.023  20.261  69.182  1.00  0.00    -0.196 OA 
HETATM   10  H   UNL     1      -7.207  19.813  64.737  1.00  0.00     0.000 HD 
HETATM   11  C   UNL     1      -7.293  18.957  67.163  1.00  0.00    -0.213 C  
HETATM   12  C   UNL     1      -8.215  19.953  66.446  1.00  0.00    -0.335 C  
HETATM   13  O   UNL     1      -7.494  17.640  66.618  1.00  0.00    -0.196 OA 
HETATM   14  H   UNL     1      -6.104  20.392  68.986  1.00  0.00     0.000 HD 
HETATM   15  O   UNL     1      -8.110  19.769  65.030  1.00  0.00     0.114 OA 
BRANCH   6  16
HETATM   16  O   UNL     1      -9.489  17.501  68.648  1.00  0.00    -0.274 OA 
BRANCH  16  17
HETATM   17  C   UNL     1      -9.404  16.445  69.626  1.00  0.00     0.193 C  
HETATM   18  O   UNL     1     -10.628  14.790  70.954  1.00  0.00    -0.448 OA 
HETATM   19  C   UNL     1     -10.740  15.724  69.871  1.00  0.00    -0.328 C  
HETATM   20  H   UNL     1     -11.453  14.344  71.105  1.00  0.00     0.000 HD 
HETATM   21  C   UNL     1     -10.063  14.010  68.167  1.00  0.00    -0.244 C  
HETATM   22  O   UNL     1     -11.520  15.904  67.569  1.00  0.00    -0.173 OA 
HETATM   23  C   UNL     1     -11.184  14.979  68.606  1.00  0.00    -0.278 C  
HETATM   24  O   UNL     1      -9.913  12.913  69.055  1.00  0.00    -0.417 OA 
HETATM   25  O   UNL     1      -8.818  14.688  67.975  1.00  0.00    -0.159 OA 
HETATM   26  H   UNL     1     -11.795  15.442  66.786  1.00  0.00     0.000 HD 
HETATM   27  H   UNL     1      -9.224  12.317  68.785  1.00  0.00     0.000 HD 
HETATM   28  C   UNL     1      -8.337  15.462  69.080  1.00  0.00    -0.242 C  
BRANCH  28  29
HETATM   29  C   UNL     1      -7.651  14.610  70.159  1.00  0.00     0.452 C  
HETATM   30  O   UNL     1      -7.138  13.404  69.595  1.00  0.00    -0.327 OA 
HETATM   31  H   UNL     1      -6.714  12.877  70.262  1.00  0.00     0.000 HD 
ENDBRANCH  28  29
ENDBRANCH  16  17
ENDBRANCH   6  16
ENDBRANCH   3   4
TORSDOF 4
ENDMDL
MODEL      132
REMARK 921   NORMALIZED FREE ENERGY PREDICTED BY IDOCK:   -3.75 KCAL/MOL
REMARK 922        TOTAL FREE ENERGY PREDICTED BY IDOCK:   -5.93 KCAL/MOL
REMARK 923 INTER-LIGAND FREE ENERGY PREDICTED BY IDOCK:   -4.81 KCAL/MOL
REMARK 924 INTRA-LIGAND FREE ENERGY PREDICTED BY IDOCK:   -1.12 KCAL/MOL
REMARK 927      BINDING AFFINITY PREDICTED BY RF-SCORE:    0.00 PKD
ROOT
HETATM    1  O   UNL     1      -6.981  12.342  69.132  1.00  0.00    -0.169 OA 
HETATM    2  H   UNL     1      -6.804  12.245  70.060  1.00  0.00     0.000 HD 
HETATM    3  C   UNL     1      -7.408  13.674  68.844  1.00  0.00    -0.060 C  
ENDROOT
BRANCH   3   4
HETATM    4  C   UNL     1      -7.695  13.831  67.335  1.00  0.00    -0.143 C  
HETATM    5  O   UNL     1      -7.934  12.575  66.676  1.00  0.00     0.009 OA 
HETATM    6  C   UNL     1      -9.247  12.022  66.800  1.00  0.00    -0.201 C  
HETATM    7  H   UNL     1     -10.574  15.032  68.868  1.00  0.00     0.000 HD 
HETATM    8  C   UNL     1     -10.298  13.014  66.254  1.00  0.00    -0.285 C  
HETATM    9  O   UNL     1     -10.114  13.266  64.855  1.00  0.00    -0.484 OA 
HETATM   10  H   UNL     1      -9.337  16.681  67.635  1.00  0.00     0.000 HD 
HETATM   11  C   UNL     1     -10.200  14.334  67.023  1.00  0.00    -0.260 C  
HETATM   12  C   UNL     1      -8.768  14.887  66.991  1.00  0.00    -0.238 C  
HETATM   13  O   UNL     1     -10.635  14.214  68.390  1.00  0.00    -0.244 OA 
HETATM   14  H   UNL     1     -10.760  13.875  64.519  1.00  0.00     0.000 HD 
HETATM   15  O   UNL     1      -8.677  16.031  67.847  1.00  0.00    -0.164 OA 
BRANCH   6  16
HETATM   16  O   UNL     1      -9.469  11.624  68.152  1.00  0.00    -0.178 OA 
BRANCH  16  17
HETATM   17  C   UNL     1     -10.428  10.579  68.412  1.00  0.00    -0.186 C  
HETATM   18  O   UNL     1     -11.063   8.247  68.016  1.00  0.00    -0.453 OA 
HETATM   19  C   UNL     1     -10.009   9.207  67.858  1.00  0.00    -0.186 C  
HETATM   20  H   UNL     1     -10.804   7.399  67.674  1.00  0.00     0.000 HD 
HETATM   21  C   UNL     1      -9.021   8.667  70.101  1.00  0.00    -0.154 C  
HETATM   22  O   UNL     1      -7.625   9.520  68.259  1.00  0.00    -0.078 OA 
HETATM   23  C   UNL     1      -8.753   8.702  68.580  1.00  0.00    -0.139 C  
HETATM   24  O   UNL     1      -9.938   7.648  70.469  1.00  0.00    -0.184 OA 
HETATM   25  O   UNL     1      -9.441   9.941  70.598  1.00  0.00    -0.103 OA 
HETATM   26  H   UNL     1      -6.848   9.207  68.706  1.00  0.00     0.000 HD 
HETATM   27  H   UNL     1     -10.102   7.627  71.405  1.00  0.00     0.000 HD 
HETATM   28  C   UNL     1     -10.577  10.531  69.954  1.00  0.00    -0.211 C  
BRANCH  28  29
HETATM   29  C   UNL     1     -11.914   9.953  70.443  1.00  0.00    -0.195 C  
HETATM   30  O   UNL     1     -13.009  10.615  69.811  1.00  0.00    -0.506 OA 
HETATM   31  H   UNL     1     -13.835  10.258  70.114  1.00  0.00     0.000 HD 
ENDBRANCH  28  29
ENDBRANCH  16  17
ENDBRANCH   6  16
ENDBRANCH   3   4
TORSDOF 4
ENDMDL
MODEL      133
REMARK 921   NORMALIZED FREE ENERGY PREDICTED BY IDOCK:   -3.72 KCAL/MOL
REMARK 922        TOTAL FREE ENERGY PREDICTED BY IDOCK:   -5.90 KCAL/MOL
REMARK 923 INTER-LIGAND FREE ENERGY PREDICTED BY IDOCK:   -4.70 KCAL/MOL
REMARK 924 INTRA-LIGAND FREE ENERGY PREDICTED BY IDOCK:   -1.21 KCAL/MOL
REMARK 927      BINDING AFFINITY PREDICTED BY RF-SCORE:    0.00 PKD
ROOT
HETATM    1  O   UNL     1     -12.210  11.406  68.407  1.00  0.00    -0.571 OA 
HETATM    2  H   UNL     1     -12.854  10.824  68.022  1.00  0.00     0.000 HD 
HETATM    3  C   UNL     1     -12.153  12.634  67.680  1.00  0.00    -0.103 C  
ENDROOT
BRANCH   3   4
HETATM    4  C   UNL     1     -11.105  13.580  68.306  1.00  0.00    -0.261 C  
HETATM    5  O   UNL     1     -10.026  12.876  68.946  1.00  0.00    -0.064 OA 
HETATM    6  C   UNL     1      -8.982  12.391  68.097  1.00  0.00    -0.196 C  
HETATM    7  H   UNL     1     -10.575  13.888  64.885  1.00  0.00     0.000 HD 
HETATM    8  C   UNL     1      -8.343  13.559  67.313  1.00  0.00    -0.179 C  
HETATM    9  O   UNL     1      -7.722  14.509  68.188  1.00  0.00    -0.110 OA 
HETATM   10  H   UNL     1     -11.344  15.892  65.961  1.00  0.00     0.000 HD 
HETATM   11  C   UNL     1      -9.421  14.264  66.484  1.00  0.00    -0.287 C  
HETATM   12  C   UNL     1     -10.601  14.696  67.366  1.00  0.00    -0.265 C  
HETATM   13  O   UNL     1      -9.906  13.451  65.399  1.00  0.00    -0.221 OA 
HETATM   14  H   UNL     1      -7.330  15.227  67.706  1.00  0.00     0.000 HD 
HETATM   15  O   UNL     1     -11.654  15.206  66.540  1.00  0.00    -0.252 OA 
BRANCH   6  16
HETATM   16  O   UNL     1      -9.489  11.344  67.272  1.00  0.00    -0.166 OA 
BRANCH  16  17
HETATM   17  C   UNL     1      -8.648  10.200  67.018  1.00  0.00    -0.129 C  
HETATM   18  O   UNL     1      -7.221   8.460  67.985  1.00  0.00    -0.087 OA 
HETATM   19  C   UNL     1      -8.169   9.491  68.296  1.00  0.00    -0.113 C  
HETATM   20  H   UNL     1      -6.926   8.022  68.775  1.00  0.00     0.000 HD 
HETATM   21  C   UNL     1     -10.120   7.926  68.090  1.00  0.00    -0.191 C  
HETATM   22  O   UNL     1     -10.212   9.901  69.560  1.00  0.00    -0.195 OA 
HETATM   23  C   UNL     1      -9.359   8.877  69.042  1.00  0.00    -0.144 C  
HETATM   24  O   UNL     1      -9.384   6.748  67.795  1.00  0.00    -0.119 OA 
HETATM   25  O   UNL     1     -10.530   8.590  66.891  1.00  0.00    -0.308 OA 
HETATM   26  H   UNL     1     -10.949   9.520  70.022  1.00  0.00     0.000 HD 
HETATM   27  H   UNL     1      -9.852   6.164  67.210  1.00  0.00     0.000 HD 
HETATM   28  C   UNL     1      -9.501   9.247  66.143  1.00  0.00    -0.236 C  
BRANCH  28  29
HETATM   29  C   UNL     1      -8.681   8.284  65.271  1.00  0.00    -0.086 C  
HETATM   30  O   UNL     1      -8.711   8.693  63.905  1.00  0.00    -0.412 OA 
HETATM   31  H   UNL     1      -8.204   8.097  63.366  1.00  0.00     0.000 HD 
ENDBRANCH  28  29
ENDBRANCH  16  17
ENDBRANCH   6  16
ENDBRANCH   3   4
TORSDOF 4
ENDMDL
MODEL      134
REMARK 921   NORMALIZED FREE ENERGY PREDICTED BY IDOCK:   -3.71 KCAL/MOL
REMARK 922        TOTAL FREE ENERGY PREDICTED BY IDOCK:   -5.89 KCAL/MOL
REMARK 923 INTER-LIGAND FREE ENERGY PREDICTED BY IDOCK:   -5.41 KCAL/MOL
REMARK 924 INTRA-LIGAND FREE ENERGY PREDICTED BY IDOCK:   -0.48 KCAL/MOL
REMARK 927      BINDING AFFINITY PREDICTED BY RF-SCORE:    0.00 PKD
ROOT
HETATM    1  O   UNL     1     -12.743  12.266  63.919  1.00  0.00    -0.668 OA 
HETATM    2  H   UNL     1     -13.048  11.395  63.697  1.00  0.00     0.000 HD 
HETATM    3  C   UNL     1     -13.265  12.666  65.187  1.00  0.00     0.782 C  
ENDROOT
BRANCH   3   4
HETATM    4  C   UNL     1     -12.768  14.083  65.549  1.00  0.00    -0.486 C  
HETATM    5  O   UNL     1     -12.170  14.151  66.856  1.00  0.00    -0.439 OA 
HETATM    6  C   UNL     1     -10.811  13.719  66.965  1.00  0.00    -0.284 C  
HETATM    7  H   UNL     1     -10.495  12.979  63.164  1.00  0.00     0.000 HD 
HETATM    8  C   UNL     1      -9.910  14.549  66.023  1.00  0.00    -0.318 C  
HETATM    9  O   UNL     1      -9.905  15.937  66.379  1.00  0.00    -0.249 OA 
HETATM   10  H   UNL     1     -11.820  14.863  62.484  1.00  0.00     0.000 HD 
HETATM   11  C   UNL     1     -10.404  14.397  64.582  1.00  0.00    -0.182 C  
HETATM   12  C   UNL     1     -11.893  14.753  64.469  1.00  0.00    -0.419 C  
HETATM   13  O   UNL     1     -10.188  13.074  64.058  1.00  0.00    -0.384 OA 
HETATM   14  H   UNL     1      -9.351  16.447  65.800  1.00  0.00     0.000 HD 
HETATM   15  O   UNL     1     -12.359  14.450  63.149  1.00  0.00    -0.426 OA 
BRANCH   6  16
HETATM   16  O   UNL     1     -10.741  12.311  66.747  1.00  0.00    -0.230 OA 
BRANCH  16  17
HETATM   17  C   UNL     1      -9.443  11.682  66.727  1.00  0.00    -0.186 C  
HETATM   18  O   UNL     1      -7.421  11.133  67.996  1.00  0.00    -0.089 OA 
HETATM   19  C   UNL     1      -8.762  11.631  68.105  1.00  0.00    -0.159 C  
HETATM   20  H   UNL     1      -7.001  11.102  68.847  1.00  0.00     0.000 HD 
HETATM   21  C   UNL     1      -9.716   9.333  68.427  1.00  0.00    -0.154 C  
HETATM   22  O   UNL     1     -10.825  11.322  69.365  1.00  0.00    -0.295 OA 
HETATM   23  C   UNL     1      -9.559  10.733  69.060  1.00  0.00    -0.180 C  
HETATM   24  O   UNL     1      -8.493   8.614  68.384  1.00  0.00    -0.128 OA 
HETATM   25  O   UNL     1     -10.321   9.397  67.133  1.00  0.00    -0.234 OA 
HETATM   26  H   UNL     1     -11.318  10.766  69.956  1.00  0.00     0.000 HD 
HETATM   27  H   UNL     1      -8.590   7.753  67.995  1.00  0.00     0.000 HD 
HETATM   28  C   UNL     1      -9.685  10.254  66.176  1.00  0.00    -0.211 C  
BRANCH  28  29
HETATM   29  C   UNL     1      -8.455   9.613  65.517  1.00  0.00    -0.142 C  
HETATM   30  O   UNL     1      -7.626  10.611  64.922  1.00  0.00    -0.330 OA 
HETATM   31  H   UNL     1      -6.866  10.214  64.514  1.00  0.00     0.000 HD 
ENDBRANCH  28  29
ENDBRANCH  16  17
ENDBRANCH   6  16
ENDBRANCH   3   4
TORSDOF 4
ENDMDL
MODEL      135
REMARK 921   NORMALIZED FREE ENERGY PREDICTED BY IDOCK:   -3.71 KCAL/MOL
REMARK 922        TOTAL FREE ENERGY PREDICTED BY IDOCK:   -5.88 KCAL/MOL
REMARK 923 INTER-LIGAND FREE ENERGY PREDICTED BY IDOCK:   -4.72 KCAL/MOL
REMARK 924 INTRA-LIGAND FREE ENERGY PREDICTED BY IDOCK:   -1.17 KCAL/MOL
REMARK 927      BINDING AFFINITY PREDICTED BY RF-SCORE:    0.00 PKD
ROOT
HETATM    1  O   UNL     1     -11.335   4.768  65.649  1.00  0.00    -0.900 OA 
HETATM    2  H   UNL     1     -12.210   5.122  65.545  1.00  0.00     0.000 HD 
HETATM    3  C   UNL     1     -10.480   5.732  66.267  1.00  0.00    -0.071 C  
ENDROOT
BRANCH   3   4
HETATM    4  C   UNL     1      -9.057   5.156  66.437  1.00  0.00    -0.131 C  
HETATM    5  O   UNL     1      -8.029   6.065  66.005  1.00  0.00    -0.102 OA 
HETATM    6  C   UNL     1      -7.651   7.093  66.925  1.00  0.00    -0.101 C  
HETATM    7  H   UNL     1     -10.081   5.841  69.687  1.00  0.00     0.000 HD 
HETATM    8  C   UNL     1      -7.160   6.469  68.251  1.00  0.00    -0.083 C  
HETATM    9  O   UNL     1      -5.987   5.669  68.060  1.00  0.00    -0.016 OA 
HETATM   10  H   UNL     1      -9.727   3.512  69.220  1.00  0.00     0.000 HD 
HETATM   11  C   UNL     1      -8.273   5.602  68.847  1.00  0.00    -0.100 C  
HETATM   12  C   UNL     1      -8.766   4.562  67.831  1.00  0.00    -0.104 C  
HETATM   13  O   UNL     1      -9.390   6.379  69.317  1.00  0.00    -0.137 OA 
HETATM   14  H   UNL     1      -5.686   5.286  68.875  1.00  0.00     0.000 HD 
HETATM   15  O   UNL     1      -9.906   3.878  68.362  1.00  0.00    -0.088 OA 
BRANCH   6  16
HETATM   16  O   UNL     1      -8.729   8.014  67.079  1.00  0.00    -0.124 OA 
BRANCH  16  17
HETATM   17  C   UNL     1      -8.423   9.418  67.198  1.00  0.00    -0.128 C  
HETATM   18  O   UNL     1      -7.296  11.352  66.205  1.00  0.00    -0.356 OA 
HETATM   19  C   UNL     1      -7.705   9.998  65.968  1.00  0.00    -0.110 C  
HETATM   20  H   UNL     1      -6.852  11.710  65.444  1.00  0.00     0.000 HD 
HETATM   21  C   UNL     1      -9.939  10.705  65.068  1.00  0.00    -0.305 C  
HETATM   22  O   UNL     1      -8.874   8.605  64.345  1.00  0.00    -0.406 OA 
HETATM   23  C   UNL     1      -8.627   9.955  64.743  1.00  0.00    -0.178 C  
HETATM   24  O   UNL     1      -9.751  12.107  65.181  1.00  0.00    -0.376 OA 
HETATM   25  O   UNL     1     -10.579  10.177  66.233  1.00  0.00    -0.156 OA 
HETATM   26  H   UNL     1      -9.445   8.578  63.587  1.00  0.00     0.000 HD 
HETATM   27  H   UNL     1     -10.557  12.568  65.381  1.00  0.00     0.000 HD 
HETATM   28  C   UNL     1      -9.786  10.120  67.425  1.00  0.00    -0.187 C  
BRANCH  28  29
HETATM   29  C   UNL     1      -9.689  11.471  68.150  1.00  0.00    -0.192 C  
HETATM   30  O   UNL     1      -8.546  11.503  69.002  1.00  0.00    -0.363 OA 
HETATM   31  H   UNL     1      -8.486  12.338  69.450  1.00  0.00     0.000 HD 
ENDBRANCH  28  29
ENDBRANCH  16  17
ENDBRANCH   6  16
ENDBRANCH   3   4
TORSDOF 4
ENDMDL
MODEL      136
REMARK 921   NORMALIZED FREE ENERGY PREDICTED BY IDOCK:   -3.70 KCAL/MOL
REMARK 922        TOTAL FREE ENERGY PREDICTED BY IDOCK:   -5.88 KCAL/MOL
REMARK 923 INTER-LIGAND FREE ENERGY PREDICTED BY IDOCK:   -5.05 KCAL/MOL
REMARK 924 INTRA-LIGAND FREE ENERGY PREDICTED BY IDOCK:   -0.82 KCAL/MOL
REMARK 927      BINDING AFFINITY PREDICTED BY RF-SCORE:    0.00 PKD
ROOT
HETATM    1  O   UNL     1     -11.775   6.695  69.057  1.00  0.00    -0.608 OA 
HETATM    2  H   UNL     1     -12.612   6.892  68.654  1.00  0.00     0.000 HD 
HETATM    3  C   UNL     1     -10.843   6.246  68.072  1.00  0.00    -0.326 C  
ENDROOT
BRANCH   3   4
HETATM    4  C   UNL     1      -9.481   5.926  68.727  1.00  0.00    -0.126 C  
HETATM    5  O   UNL     1      -8.394   6.673  68.153  1.00  0.00    -0.116 OA 
HETATM    6  C   UNL     1      -8.223   8.017  68.611  1.00  0.00    -0.126 C  
HETATM    7  H   UNL     1     -11.162   7.777  71.141  1.00  0.00     0.000 HD 
HETATM    8  C   UNL     1      -8.013   8.038  70.142  1.00  0.00    -0.105 C  
HETATM    9  O   UNL     1      -6.819   7.343  70.524  1.00  0.00    -0.050 OA 
HETATM   10  H   UNL     1     -10.701   5.505  71.767  1.00  0.00     0.000 HD 
HETATM   11  C   UNL     1      -9.218   7.388  70.829  1.00  0.00    -0.159 C  
HETATM   12  C   UNL     1      -9.481   5.983  70.270  1.00  0.00    -0.162 C  
HETATM   13  O   UNL     1     -10.415   8.180  70.715  1.00  0.00    -0.199 OA 
HETATM   14  H   UNL     1      -6.690   7.356  71.464  1.00  0.00     0.000 HD 
HETATM   15  O   UNL     1     -10.701   5.471  70.817  1.00  0.00    -0.261 OA 
BRANCH   6  16
HETATM   16  O   UNL     1      -9.318   8.814  68.163  1.00  0.00    -0.139 OA 
BRANCH  16  17
HETATM   17  C   UNL     1      -9.064   9.843  67.185  1.00  0.00    -0.138 C  
HETATM   18  O   UNL     1     -10.015  11.300  65.461  1.00  0.00    -0.223 OA 
HETATM   19  C   UNL     1     -10.339  10.393  66.524  1.00  0.00    -0.224 C  
HETATM   20  H   UNL     1     -10.803  11.640  65.053  1.00  0.00     0.000 HD 
HETATM   21  C   UNL     1     -10.367  12.226  68.238  1.00  0.00    -0.221 C  
HETATM   22  O   UNL     1     -11.730  10.192  68.515  1.00  0.00    -0.597 OA 
HETATM   23  C   UNL     1     -11.205  11.119  67.561  1.00  0.00    -0.301 C  
HETATM   24  O   UNL     1     -10.082  13.306  67.363  1.00  0.00    -0.229 OA 
HETATM   25  O   UNL     1      -9.168  11.706  68.820  1.00  0.00    -0.143 OA 
HETATM   26  H   UNL     1     -12.266  10.641  69.158  1.00  0.00     0.000 HD 
HETATM   27  H   UNL     1      -9.567  13.986  67.779  1.00  0.00     0.000 HD 
HETATM   28  C   UNL     1      -8.309  10.961  67.948  1.00  0.00    -0.119 C  
BRANCH  28  29
HETATM   29  C   UNL     1      -7.433  11.855  67.058  1.00  0.00    -0.126 C  
HETATM   30  O   UNL     1      -7.016  11.148  65.891  1.00  0.00    -0.350 OA 
HETATM   31  H   UNL     1      -6.474  11.700  65.341  1.00  0.00     0.000 HD 
ENDBRANCH  28  29
ENDBRANCH  16  17
ENDBRANCH   6  16
ENDBRANCH   3   4
TORSDOF 4
ENDMDL
MODEL      137
REMARK 921   NORMALIZED FREE ENERGY PREDICTED BY IDOCK:   -3.69 KCAL/MOL
REMARK 922        TOTAL FREE ENERGY PREDICTED BY IDOCK:   -5.86 KCAL/MOL
REMARK 923 INTER-LIGAND FREE ENERGY PREDICTED BY IDOCK:   -5.24 KCAL/MOL
REMARK 924 INTRA-LIGAND FREE ENERGY PREDICTED BY IDOCK:   -0.62 KCAL/MOL
REMARK 927      BINDING AFFINITY PREDICTED BY RF-SCORE:    0.00 PKD
ROOT
HETATM    1  O   UNL     1      -8.507   4.828  69.519  1.00  0.00    -0.081 OA 
HETATM    2  H   UNL     1      -8.026   4.812  68.701  1.00  0.00     0.000 HD 
HETATM    3  C   UNL     1      -7.803   5.602  70.493  1.00  0.00    -0.099 C  
ENDROOT
BRANCH   3   4
HETATM    4  C   UNL     1      -8.585   5.628  71.824  1.00  0.00    -0.135 C  
HETATM    5  O   UNL     1      -8.640   6.939  72.416  1.00  0.00    -0.122 OA 
HETATM    6  C   UNL     1      -9.624   7.838  71.897  1.00  0.00    -0.165 C  
HETATM    7  H   UNL     1     -11.050   5.215  69.410  1.00  0.00     0.000 HD 
HETATM    8  C   UNL     1     -11.036   7.228  72.044  1.00  0.00    -0.238 C  
HETATM    9  O   UNL     1     -11.385   7.021  73.418  1.00  0.00    -0.529 OA 
HETATM   10  H   UNL     1     -10.806   3.361  70.917  1.00  0.00     0.000 HD 
HETATM   11  C   UNL     1     -11.091   5.889  71.301  1.00  0.00    -0.241 C  
HETATM   12  C   UNL     1      -9.971   4.951  71.771  1.00  0.00    -0.190 C  
HETATM   13  O   UNL     1     -11.017   6.045  69.872  1.00  0.00    -0.328 OA 
HETATM   14  H   UNL     1     -12.253   6.646  73.508  1.00  0.00     0.000 HD 
HETATM   15  O   UNL     1      -9.953   3.778  70.950  1.00  0.00    -0.168 OA 
BRANCH   6  16
HETATM   16  O   UNL     1      -9.281   8.198  70.560  1.00  0.00    -0.151 OA 
BRANCH  16  17
HETATM   17  C   UNL     1      -9.430   9.575  70.159  1.00  0.00    -0.246 C  
HETATM   18  O   UNL     1      -8.384  11.513  69.087  1.00  0.00    -0.370 OA 
HETATM   19  C   UNL     1      -8.250  10.105  69.327  1.00  0.00    -0.156 C  
HETATM   20  H   UNL     1      -7.654  11.840  68.573  1.00  0.00     0.000 HD 
HETATM   21  C   UNL     1      -9.522   9.508  67.248  1.00  0.00    -0.136 C  
HETATM   22  O   UNL     1      -7.816   7.998  68.182  1.00  0.00    -0.121 OA 
HETATM   23  C   UNL     1      -8.171   9.368  67.984  1.00  0.00    -0.114 C  
HETATM   24  O   UNL     1      -9.756  10.830  66.786  1.00  0.00    -0.179 OA 
HETATM   25  O   UNL     1     -10.615   9.043  68.045  1.00  0.00    -0.229 OA 
HETATM   26  H   UNL     1      -7.767   7.541  67.351  1.00  0.00     0.000 HD 
HETATM   27  H   UNL     1     -10.586  10.916  66.333  1.00  0.00     0.000 HD 
HETATM   28  C   UNL     1     -10.748   9.628  69.346  1.00  0.00    -0.228 C  
BRANCH  28  29
HETATM   29  C   UNL     1     -11.420  11.009  69.319  1.00  0.00    -0.300 C  
HETATM   30  O   UNL     1     -12.385  11.078  68.270  1.00  0.00    -0.717 OA 
HETATM   31  H   UNL     1     -12.800  11.932  68.253  1.00  0.00     0.000 HD 
ENDBRANCH  28  29
ENDBRANCH  16  17
ENDBRANCH   6  16
ENDBRANCH   3   4
TORSDOF 4
ENDMDL
MODEL      138
REMARK 921   NORMALIZED FREE ENERGY PREDICTED BY IDOCK:   -3.69 KCAL/MOL
REMARK 922        TOTAL FREE ENERGY PREDICTED BY IDOCK:   -5.86 KCAL/MOL
REMARK 923 INTER-LIGAND FREE ENERGY PREDICTED BY IDOCK:   -4.81 KCAL/MOL
REMARK 924 INTRA-LIGAND FREE ENERGY PREDICTED BY IDOCK:   -1.05 KCAL/MOL
REMARK 927      BINDING AFFINITY PREDICTED BY RF-SCORE:    0.00 PKD
ROOT
HETATM    1  O   UNL     1      -9.535  17.259  65.553  1.00  0.00    -0.422 OA 
HETATM    2  H   UNL     1      -9.660  17.181  64.615  1.00  0.00     0.000 HD 
HETATM    3  C   UNL     1      -9.281  15.976  66.128  1.00  0.00    -0.352 C  
ENDROOT
BRANCH   3   4
HETATM    4  C   UNL     1      -9.077  16.102  67.654  1.00  0.00    -0.196 C  
HETATM    5  O   UNL     1      -9.531  14.945  68.378  1.00  0.00    -0.196 OA 
HETATM    6  C   UNL     1      -8.643  13.824  68.420  1.00  0.00    -0.156 C  
HETATM    7  H   UNL     1      -5.863  15.650  66.412  1.00  0.00     0.000 HD 
HETATM    8  C   UNL     1      -7.292  14.235  69.047  1.00  0.00    -0.117 C  
HETATM    9  O   UNL     1      -7.445  14.661  70.407  1.00  0.00    -0.273 OA 
HETATM   10  H   UNL     1      -6.245  17.786  67.443  1.00  0.00     0.000 HD 
HETATM   11  C   UNL     1      -6.677  15.373  68.226  1.00  0.00    -0.119 C  
HETATM   12  C   UNL     1      -7.660  16.542  68.080  1.00  0.00    -0.161 C  
HETATM   13  O   UNL     1      -6.244  14.944  66.922  1.00  0.00     0.077 OA 
HETATM   14  H   UNL     1      -6.614  14.913  70.792  1.00  0.00     0.000 HD 
HETATM   15  O   UNL     1      -7.117  17.515  67.180  1.00  0.00    -0.159 OA 
BRANCH   6  16
HETATM   16  O   UNL     1      -8.532  13.257  67.116  1.00  0.00    -0.201 OA 
BRANCH  16  17
HETATM   17  C   UNL     1      -9.626  12.460  66.617  1.00  0.00    -0.229 C  
HETATM   18  O   UNL     1     -10.410  10.940  64.864  1.00  0.00    -0.295 OA 
HETATM   19  C   UNL     1      -9.252  11.591  65.405  1.00  0.00    -0.108 C  
HETATM   20  H   UNL     1     -10.179  10.403  64.115  1.00  0.00     0.000 HD 
HETATM   21  C   UNL     1      -8.775   9.697  66.981  1.00  0.00    -0.128 C  
HETATM   22  O   UNL     1      -6.971  11.147  66.139  1.00  0.00    -0.291 OA 
HETATM   23  C   UNL     1      -8.218  10.532  65.807  1.00  0.00    -0.160 C  
HETATM   24  O   UNL     1      -9.846   8.853  66.588  1.00  0.00    -0.215 OA 
HETATM   25  O   UNL     1      -9.150  10.520  68.089  1.00  0.00    -0.136 OA 
HETATM   26  H   UNL     1      -6.330  10.492  66.388  1.00  0.00     0.000 HD 
HETATM   27  H   UNL     1     -10.189   8.340  67.310  1.00  0.00     0.000 HD 
HETATM   28  C   UNL     1     -10.073  11.580  67.812  1.00  0.00    -0.182 C  
BRANCH  28  29
HETATM   29  C   UNL     1     -11.531  11.103  67.735  1.00  0.00    -0.272 C  
HETATM   30  O   UNL     1     -11.737   9.978  68.588  1.00  0.00    -0.516 OA 
HETATM   31  H   UNL     1     -12.639   9.683  68.541  1.00  0.00     0.000 HD 
ENDBRANCH  28  29
ENDBRANCH  16  17
ENDBRANCH   6  16
ENDBRANCH   3   4
TORSDOF 4
ENDMDL
MODEL      139
REMARK 921   NORMALIZED FREE ENERGY PREDICTED BY IDOCK:   -3.68 KCAL/MOL
REMARK 922        TOTAL FREE ENERGY PREDICTED BY IDOCK:   -5.85 KCAL/MOL
REMARK 923 INTER-LIGAND FREE ENERGY PREDICTED BY IDOCK:   -5.01 KCAL/MOL
REMARK 924 INTRA-LIGAND FREE ENERGY PREDICTED BY IDOCK:   -0.83 KCAL/MOL
REMARK 927      BINDING AFFINITY PREDICTED BY RF-SCORE:    0.00 PKD
ROOT
HETATM    1  O   UNL     1      -9.172   6.353  69.199  1.00  0.00    -0.134 OA 
HETATM    2  H   UNL     1      -8.607   6.094  68.482  1.00  0.00     0.000 HD 
HETATM    3  C   UNL     1      -8.426   7.073  70.183  1.00  0.00    -0.139 C  
ENDROOT
BRANCH   3   4
HETATM    4  C   UNL     1      -9.346   7.494  71.350  1.00  0.00    -0.141 C  
HETATM    5  O   UNL     1      -9.691   8.891  71.315  1.00  0.00    -0.235 OA 
HETATM    6  C   UNL     1     -10.750   9.270  70.433  1.00  0.00    -0.251 C  
HETATM    7  H   UNL     1     -11.417   5.618  69.285  1.00  0.00     0.000 HD 
HETATM    8  C   UNL     1     -12.044   8.504  70.789  1.00  0.00    -0.061 C  
HETATM    9  O   UNL     1     -12.505   8.825  72.108  1.00  0.00    -0.351 OA 
HETATM   10  H   UNL     1     -11.029   4.656  71.450  1.00  0.00     0.000 HD 
HETATM   11  C   UNL     1     -11.785   6.997  70.697  1.00  0.00    -0.338 C  
HETATM   12  C   UNL     1     -10.580   6.590  71.556  1.00  0.00    -0.229 C  
HETATM   13  O   UNL     1     -11.579   6.553  69.343  1.00  0.00    -0.339 OA 
HETATM   14  H   UNL     1     -13.300   8.354  72.327  1.00  0.00     0.000 HD 
HETATM   15  O   UNL     1     -10.270   5.212  71.323  1.00  0.00    -0.209 OA 
BRANCH   6  16
HETATM   16  O   UNL     1     -10.326   9.099  69.081  1.00  0.00    -0.202 OA 
BRANCH  16  17
HETATM   17  C   UNL     1     -10.591  10.158  68.139  1.00  0.00    -0.223 C  
HETATM   18  O   UNL     1     -10.486  12.563  67.688  1.00  0.00    -0.213 OA 
HETATM   19  C   UNL     1     -10.065  11.530  68.590  1.00  0.00    -0.207 C  
HETATM   20  H   UNL     1     -10.160  13.411  67.968  1.00  0.00     0.000 HD 
HETATM   21  C   UNL     1      -7.964  11.088  67.291  1.00  0.00    -0.126 C  
HETATM   22  O   UNL     1      -8.086  10.656  69.713  1.00  0.00    -0.368 OA 
HETATM   23  C   UNL     1      -8.533  11.516  68.662  1.00  0.00    -0.115 C  
HETATM   24  O   UNL     1      -8.150  12.079  66.291  1.00  0.00    -0.384 OA 
HETATM   25  O   UNL     1      -8.487   9.826  66.867  1.00  0.00    -0.120 OA 
HETATM   26  H   UNL     1      -7.137  10.646  69.757  1.00  0.00     0.000 HD 
HETATM   27  H   UNL     1      -7.800  11.815  65.448  1.00  0.00     0.000 HD 
HETATM   28  C   UNL     1      -9.914   9.713  66.818  1.00  0.00    -0.227 C  
BRANCH  28  29
HETATM   29  C   UNL     1     -10.524  10.335  65.553  1.00  0.00    -0.069 C  
HETATM   30  O   UNL     1      -9.725  10.035  64.410  1.00  0.00    -0.329 OA 
HETATM   31  H   UNL     1     -10.102  10.420  63.627  1.00  0.00     0.000 HD 
ENDBRANCH  28  29
ENDBRANCH  16  17
ENDBRANCH   6  16
ENDBRANCH   3   4
TORSDOF 4
ENDMDL
MODEL      140
REMARK 921   NORMALIZED FREE ENERGY PREDICTED BY IDOCK:   -3.66 KCAL/MOL
REMARK 922        TOTAL FREE ENERGY PREDICTED BY IDOCK:   -5.82 KCAL/MOL
REMARK 923 INTER-LIGAND FREE ENERGY PREDICTED BY IDOCK:   -4.56 KCAL/MOL
REMARK 924 INTRA-LIGAND FREE ENERGY PREDICTED BY IDOCK:   -1.26 KCAL/MOL
REMARK 927      BINDING AFFINITY PREDICTED BY RF-SCORE:    0.00 PKD
ROOT
HETATM    1  O   UNL     1     -11.207   9.453  67.608  1.00  0.00    -0.464 OA 
HETATM    2  H   UNL     1     -11.673   8.793  67.109  1.00  0.00     0.000 HD 
HETATM    3  C   UNL     1     -10.000   9.822  66.938  1.00  0.00    -0.211 C  
ENDROOT
BRANCH   3   4
HETATM    4  C   UNL     1      -9.243  10.896  67.749  1.00  0.00    -0.153 C  
HETATM    5  O   UNL     1      -9.568  10.872  69.150  1.00  0.00    -0.186 OA 
HETATM    6  C   UNL     1      -8.899   9.893  69.950  1.00  0.00    -0.195 C  
HETATM    7  H   UNL     1      -6.798   8.553  66.969  1.00  0.00     0.000 HD 
HETATM    8  C   UNL     1      -7.368  10.080  69.854  1.00  0.00    -0.161 C  
HETATM    9  O   UNL     1      -6.955  11.351  70.372  1.00  0.00    -0.431 OA 
HETATM   10  H   UNL     1      -6.465  10.713  65.974  1.00  0.00     0.000 HD 
HETATM   11  C   UNL     1      -6.932   9.963  68.391  1.00  0.00    -0.068 C  
HETATM   12  C   UNL     1      -7.720  10.934  67.501  1.00  0.00    -0.109 C  
HETATM   13  O   UNL     1      -7.068   8.625  67.877  1.00  0.00    -0.080 OA 
HETATM   14  H   UNL     1      -6.014  11.466  70.313  1.00  0.00     0.000 HD 
HETATM   15  O   UNL     1      -7.402  10.689  66.127  1.00  0.00    -0.130 OA 
BRANCH   6  16
HETATM   16  O   UNL     1      -9.350   8.591  69.582  1.00  0.00    -0.156 OA 
BRANCH  16  17
HETATM   17  C   UNL     1     -10.253   7.900  70.470  1.00  0.00    -0.198 C  
HETATM   18  O   UNL     1     -11.586   5.883  70.861  1.00  0.00    -0.172 OA 
HETATM   19  C   UNL     1     -10.574   6.463  70.026  1.00  0.00    -0.236 C  
HETATM   20  H   UNL     1     -11.784   4.995  70.587  1.00  0.00     0.000 HD 
HETATM   21  C   UNL     1      -8.718   5.652  71.508  1.00  0.00    -0.132 C  
HETATM   22  O   UNL     1      -8.366   6.014  69.097  1.00  0.00    -0.112 OA 
HETATM   23  C   UNL     1      -9.312   5.593  70.083  1.00  0.00    -0.154 C  
HETATM   24  O   UNL     1      -9.522   4.974  72.461  1.00  0.00    -0.140 OA 
HETATM   25  O   UNL     1      -8.455   6.996  71.921  1.00  0.00    -0.110 OA 
HETATM   26  H   UNL     1      -7.585   5.476  69.132  1.00  0.00     0.000 HD 
HETATM   27  H   UNL     1      -9.157   5.010  73.337  1.00  0.00     0.000 HD 
HETATM   28  C   UNL     1      -9.557   7.909  71.855  1.00  0.00    -0.173 C  
BRANCH  28  29
HETATM   29  C   UNL     1     -10.517   7.782  73.047  1.00  0.00    -0.369 C  
HETATM   30  O   UNL     1      -9.806   7.411  74.227  1.00  0.00    -0.416 OA 
HETATM   31  H   UNL     1     -10.400   7.332  74.964  1.00  0.00     0.000 HD 
ENDBRANCH  28  29
ENDBRANCH  16  17
ENDBRANCH   6  16
ENDBRANCH   3   4
TORSDOF 4
ENDMDL
MODEL      141
REMARK 921   NORMALIZED FREE ENERGY PREDICTED BY IDOCK:   -3.65 KCAL/MOL
REMARK 922        TOTAL FREE ENERGY PREDICTED BY IDOCK:   -5.82 KCAL/MOL
REMARK 923 INTER-LIGAND FREE ENERGY PREDICTED BY IDOCK:   -4.52 KCAL/MOL
REMARK 924 INTRA-LIGAND FREE ENERGY PREDICTED BY IDOCK:   -1.30 KCAL/MOL
REMARK 927      BINDING AFFINITY PREDICTED BY RF-SCORE:    0.00 PKD
ROOT
HETATM    1  O   UNL     1      -9.889  10.398  70.305  1.00  0.00    -0.377 OA 
HETATM    2  H   UNL     1      -9.246  10.888  70.803  1.00  0.00     0.000 HD 
HETATM    3  C   UNL     1      -9.832   9.012  70.649  1.00  0.00    -0.230 C  
ENDROOT
BRANCH   3   4
HETATM    4  C   UNL     1     -10.878   8.215  69.840  1.00  0.00    -0.215 C  
HETATM    5  O   UNL     1     -11.239   8.857  68.604  1.00  0.00     0.156 OA 
HETATM    6  C   UNL     1     -10.346   8.677  67.501  1.00  0.00    -0.269 C  
HETATM    7  H   UNL     1      -7.961   6.356  69.505  1.00  0.00     0.000 HD 
HETATM    8  C   UNL     1     -10.183   7.174  67.185  1.00  0.00    -0.257 C  
HETATM    9  O   UNL     1     -11.422   6.577  66.783  1.00  0.00    -0.774 OA 
HETATM   10  H   UNL     1      -9.724   5.243  70.698  1.00  0.00     0.000 HD 
HETATM   11  C   UNL     1      -9.651   6.449  68.426  1.00  0.00    -0.125 C  
HETATM   12  C   UNL     1     -10.540   6.721  69.647  1.00  0.00    -0.233 C  
HETATM   13  O   UNL     1      -8.291   6.804  68.735  1.00  0.00    -0.119 OA 
HETATM   14  H   UNL     1     -11.321   5.653  66.589  1.00  0.00     0.000 HD 
HETATM   15  O   UNL     1      -9.931   6.163  70.816  1.00  0.00    -0.182 OA 
BRANCH   6  16
HETATM   16  O   UNL     1      -9.119   9.354  67.767  1.00  0.00    -0.126 OA 
BRANCH  16  17
HETATM   17  C   UNL     1      -8.844  10.582  67.064  1.00  0.00    -0.136 C  
HETATM   18  O   UNL     1      -7.199  12.330  66.575  1.00  0.00    -0.353 OA 
HETATM   19  C   UNL     1      -7.378  11.034  67.164  1.00  0.00    -0.116 C  
HETATM   20  H   UNL     1      -6.293  12.609  66.637  1.00  0.00     0.000 HD 
HETATM   21  C   UNL     1      -6.925   9.854  64.996  1.00  0.00    -0.130 C  
HETATM   22  O   UNL     1      -6.445   8.782  67.162  1.00  0.00    -0.059 OA 
HETATM   23  C   UNL     1      -6.460  10.028  66.459  1.00  0.00    -0.073 C  
HETATM   24  O   UNL     1      -6.674  11.006  64.205  1.00  0.00    -0.141 OA 
HETATM   25  O   UNL     1      -8.299   9.466  64.916  1.00  0.00    -0.132 OA 
HETATM   26  H   UNL     1      -5.877   8.159  66.725  1.00  0.00     0.000 HD 
HETATM   27  H   UNL     1      -6.959  10.899  63.306  1.00  0.00     0.000 HD 
HETATM   28  C   UNL     1      -9.240  10.310  65.590  1.00  0.00    -0.184 C  
BRANCH  28  29
HETATM   29  C   UNL     1      -9.599  11.571  64.789  1.00  0.00    -0.174 C  
HETATM   30  O   UNL     1     -10.079  12.597  65.655  1.00  0.00    -0.271 OA 
HETATM   31  H   UNL     1     -10.302  13.376  65.160  1.00  0.00     0.000 HD 
ENDBRANCH  28  29
ENDBRANCH  16  17
ENDBRANCH   6  16
ENDBRANCH   3   4
TORSDOF 4
ENDMDL
MODEL      142
REMARK 921   NORMALIZED FREE ENERGY PREDICTED BY IDOCK:   -3.64 KCAL/MOL
REMARK 922        TOTAL FREE ENERGY PREDICTED BY IDOCK:   -5.80 KCAL/MOL
REMARK 923 INTER-LIGAND FREE ENERGY PREDICTED BY IDOCK:   -4.67 KCAL/MOL
REMARK 924 INTRA-LIGAND FREE ENERGY PREDICTED BY IDOCK:   -1.13 KCAL/MOL
REMARK 927      BINDING AFFINITY PREDICTED BY RF-SCORE:    0.00 PKD
ROOT
HETATM    1  O   UNL     1     -12.053  11.142  68.652  1.00  0.00    -0.577 OA 
HETATM    2  H   UNL     1     -12.787  10.568  68.833  1.00  0.00     0.000 HD 
HETATM    3  C   UNL     1     -11.532  10.885  67.347  1.00  0.00    -0.091 C  
ENDROOT
BRANCH   3   4
HETATM    4  C   UNL     1     -10.338  11.819  67.053  1.00  0.00    -0.214 C  
HETATM    5  O   UNL     1      -9.317  11.760  68.065  1.00  0.00    -0.171 OA 
HETATM    6  C   UNL     1      -8.396  10.669  67.988  1.00  0.00    -0.118 C  
HETATM    7  H   UNL     1      -9.985   9.252  64.738  1.00  0.00     0.000 HD 
HETATM    8  C   UNL     1      -7.667  10.681  66.626  1.00  0.00    -0.132 C  
HETATM    9  O   UNL     1      -6.879  11.866  66.456  1.00  0.00    -0.372 OA 
HETATM   10  H   UNL     1     -10.430  11.408  63.778  1.00  0.00     0.000 HD 
HETATM   11  C   UNL     1      -8.697  10.591  65.497  1.00  0.00    -0.185 C  
HETATM   12  C   UNL     1      -9.757  11.693  65.628  1.00  0.00    -0.236 C  
HETATM   13  O   UNL     1      -9.345   9.307  65.438  1.00  0.00    -0.239 OA 
HETATM   14  H   UNL     1      -6.430  11.873  65.619  1.00  0.00     0.000 HD 
HETATM   15  O   UNL     1     -10.787  11.485  64.655  1.00  0.00    -0.309 OA 
BRANCH   6  16
HETATM   16  O   UNL     1      -9.080   9.449  68.272  1.00  0.00    -0.128 OA 
BRANCH  16  17
HETATM   17  C   UNL     1      -8.455   8.502  69.162  1.00  0.00    -0.125 C  
HETATM   18  O   UNL     1      -7.517   8.107  71.390  1.00  0.00    -0.066 OA 
HETATM   19  C   UNL     1      -8.274   9.031  70.595  1.00  0.00    -0.181 C  
HETATM   20  H   UNL     1      -7.405   8.434  72.275  1.00  0.00     0.000 HD 
HETATM   21  C   UNL     1     -10.457   7.956  71.207  1.00  0.00    -0.203 C  
HETATM   22  O   UNL     1     -10.328  10.343  70.614  1.00  0.00    -0.338 OA 
HETATM   23  C   UNL     1      -9.639   9.265  71.253  1.00  0.00    -0.202 C  
HETATM   24  O   UNL     1      -9.938   6.959  72.075  1.00  0.00    -0.168 OA 
HETATM   25  O   UNL     1     -10.590   7.457  69.873  1.00  0.00    -0.226 OA 
HETATM   26  H   UNL     1     -11.173  10.488  71.022  1.00  0.00     0.000 HD 
HETATM   27  H   UNL     1     -10.440   6.154  72.046  1.00  0.00     0.000 HD 
HETATM   28  C   UNL     1      -9.373   7.254  69.145  1.00  0.00    -0.146 C  
BRANCH  28  29
HETATM   29  C   UNL     1      -8.664   5.942  69.513  1.00  0.00    -0.116 C  
HETATM   30  O   UNL     1      -9.491   4.820  69.207  1.00  0.00    -0.126 OA 
HETATM   31  H   UNL     1      -9.053   4.009  69.435  1.00  0.00     0.000 HD 
ENDBRANCH  28  29
ENDBRANCH  16  17
ENDBRANCH   6  16
ENDBRANCH   3   4
TORSDOF 4
ENDMDL
MODEL      143
REMARK 921   NORMALIZED FREE ENERGY PREDICTED BY IDOCK:   -3.63 KCAL/MOL
REMARK 922        TOTAL FREE ENERGY PREDICTED BY IDOCK:   -5.78 KCAL/MOL
REMARK 923 INTER-LIGAND FREE ENERGY PREDICTED BY IDOCK:   -4.86 KCAL/MOL
REMARK 924 INTRA-LIGAND FREE ENERGY PREDICTED BY IDOCK:   -0.92 KCAL/MOL
REMARK 927      BINDING AFFINITY PREDICTED BY RF-SCORE:    0.00 PKD
ROOT
HETATM    1  O   UNL     1     -13.528   7.399  71.203  1.00  0.00    -0.572 OA 
HETATM    2  H   UNL     1     -14.176   6.933  70.689  1.00  0.00     0.000 HD 
HETATM    3  C   UNL     1     -12.248   6.777  71.072  1.00  0.00    -0.352 C  
ENDROOT
BRANCH   3   4
HETATM    4  C   UNL     1     -11.195   7.536  71.908  1.00  0.00    -0.248 C  
HETATM    5  O   UNL     1      -9.932   6.851  71.974  1.00  0.00    -0.168 OA 
HETATM    6  C   UNL     1      -9.056   7.006  70.854  1.00  0.00    -0.153 C  
HETATM    7  H   UNL     1     -11.474   9.418  69.000  1.00  0.00     0.000 HD 
HETATM    8  C   UNL     1      -8.736   8.500  70.628  1.00  0.00    -0.154 C  
HETATM    9  O   UNL     1      -8.041   9.070  71.745  1.00  0.00    -0.348 OA 
HETATM   10  H   UNL     1     -12.194  10.547  70.993  1.00  0.00     0.000 HD 
HETATM   11  C   UNL     1     -10.040   9.270  70.398  1.00  0.00    -0.236 C  
HETATM   12  C   UNL     1     -11.035   9.027  71.542  1.00  0.00    -0.348 C  
HETATM   13  O   UNL     1     -10.664   8.941  69.143  1.00  0.00    -0.217 OA 
HETATM   14  H   UNL     1      -7.845   9.988  71.606  1.00  0.00     0.000 HD 
HETATM   15  O   UNL     1     -12.293   9.629  71.219  1.00  0.00    -0.317 OA 
BRANCH   6  16
HETATM   16  O   UNL     1      -9.619   6.353  69.717  1.00  0.00    -0.151 OA 
BRANCH  16  17
HETATM   17  C   UNL     1      -8.782   5.461  68.952  1.00  0.00    -0.097 C  
HETATM   18  O   UNL     1      -8.701   3.591  67.373  1.00  0.00    -0.101 OA 
HETATM   19  C   UNL     1      -9.567   4.551  67.993  1.00  0.00    -0.154 C  
HETATM   20  H   UNL     1      -9.186   3.029  66.781  1.00  0.00     0.000 HD 
HETATM   21  C   UNL     1      -9.191   6.240  66.175  1.00  0.00    -0.120 C  
HETATM   22  O   UNL     1     -11.285   6.200  67.471  1.00  0.00    -0.474 OA 
HETATM   23  C   UNL     1     -10.253   5.389  66.906  1.00  0.00    -0.240 C  
HETATM   24  O   UNL     1      -8.326   5.456  65.367  1.00  0.00    -0.126 OA 
HETATM   25  O   UNL     1      -8.446   7.057  67.082  1.00  0.00    -0.119 OA 
HETATM   26  H   UNL     1     -11.709   6.719  66.798  1.00  0.00     0.000 HD 
HETATM   27  H   UNL     1      -7.673   5.979  64.918  1.00  0.00     0.000 HD 
HETATM   28  C   UNL     1      -7.808   6.379  68.171  1.00  0.00    -0.105 C  
BRANCH  28  29
HETATM   29  C   UNL     1      -6.487   5.705  67.770  1.00  0.00    -0.047 C  
HETATM   30  O   UNL     1      -5.795   6.491  66.802  1.00  0.00    -0.013 OA 
HETATM   31  H   UNL     1      -4.979   6.074  66.554  1.00  0.00     0.000 HD 
ENDBRANCH  28  29
ENDBRANCH  16  17
ENDBRANCH   6  16
ENDBRANCH   3   4
TORSDOF 4
ENDMDL
MODEL      144
REMARK 921   NORMALIZED FREE ENERGY PREDICTED BY IDOCK:   -3.60 KCAL/MOL
REMARK 922        TOTAL FREE ENERGY PREDICTED BY IDOCK:   -5.75 KCAL/MOL
REMARK 923 INTER-LIGAND FREE ENERGY PREDICTED BY IDOCK:   -4.63 KCAL/MOL
REMARK 924 INTRA-LIGAND FREE ENERGY PREDICTED BY IDOCK:   -1.13 KCAL/MOL
REMARK 927      BINDING AFFINITY PREDICTED BY RF-SCORE:    0.00 PKD
ROOT
HETATM    1  O   UNL     1     -12.330  10.618  69.295  1.00  0.00    -0.664 OA 
HETATM    2  H   UNL     1     -13.144  10.135  69.228  1.00  0.00     0.000 HD 
HETATM    3  C   UNL     1     -11.850  10.964  67.994  1.00  0.00     0.012 C  
ENDROOT
BRANCH   3   4
HETATM    4  C   UNL     1     -10.524  11.749  68.103  1.00  0.00    -0.201 C  
HETATM    5  O   UNL     1      -9.582  11.138  69.002  1.00  0.00    -0.175 OA 
HETATM    6  C   UNL     1      -8.816  10.046  68.486  1.00  0.00    -0.120 C  
HETATM    7  H   UNL     1     -10.391  10.307  64.943  1.00  0.00     0.000 HD 
HETATM    8  C   UNL     1      -8.013  10.496  67.245  1.00  0.00    -0.114 C  
HETATM    9  O   UNL     1      -7.062  11.519  67.569  1.00  0.00    -0.092 OA 
HETATM   10  H   UNL     1     -10.481  12.707  64.943  1.00  0.00     0.000 HD 
HETATM   11  C   UNL     1      -8.978  11.022  66.178  1.00  0.00    -0.191 C  
HETATM   12  C   UNL     1      -9.885  12.122  66.748  1.00  0.00    -0.206 C  
HETATM   13  O   UNL     1      -9.791   9.981  65.605  1.00  0.00    -0.257 OA 
HETATM   14  H   UNL     1      -6.569  11.796  66.806  1.00  0.00     0.000 HD 
HETATM   15  O   UNL     1     -10.875  12.478  65.777  1.00  0.00    -0.265 OA 
BRANCH   6  16
HETATM   16  O   UNL     1      -9.674   8.931  68.251  1.00  0.00    -0.151 OA 
BRANCH  16  17
HETATM   17  C   UNL     1      -9.749   7.898  69.254  1.00  0.00    -0.159 C  
HETATM   18  O   UNL     1     -11.055   6.047  70.185  1.00  0.00    -0.338 OA 
HETATM   19  C   UNL     1     -10.951   6.956  69.079  1.00  0.00    -0.181 C  
HETATM   20  H   UNL     1     -11.798   5.465  70.076  1.00  0.00     0.000 HD 
HETATM   21  C   UNL     1      -9.470   5.398  67.785  1.00  0.00    -0.120 C  
HETATM   22  O   UNL     1     -10.934   7.016  66.643  1.00  0.00    -0.513 OA 
HETATM   23  C   UNL     1     -10.816   6.155  67.778  1.00  0.00    -0.325 C  
HETATM   24  O   UNL     1      -9.447   4.335  68.726  1.00  0.00    -0.146 OA 
HETATM   25  O   UNL     1      -8.362   6.282  67.981  1.00  0.00    -0.114 OA 
HETATM   26  H   UNL     1     -10.850   6.521  65.837  1.00  0.00     0.000 HD 
HETATM   27  H   UNL     1      -8.619   3.870  68.730  1.00  0.00     0.000 HD 
HETATM   28  C   UNL     1      -8.414   7.118  69.143  1.00  0.00    -0.133 C  
BRANCH  28  29
HETATM   29  C   UNL     1      -7.997   6.389  70.429  1.00  0.00    -0.112 C  
HETATM   30  O   UNL     1      -6.940   5.469  70.165  1.00  0.00    -0.059 OA 
HETATM   31  H   UNL     1      -6.683   5.017  70.960  1.00  0.00     0.000 HD 
ENDBRANCH  28  29
ENDBRANCH  16  17
ENDBRANCH   6  16
ENDBRANCH   3   4
TORSDOF 4
ENDMDL
MODEL      145
REMARK 921   NORMALIZED FREE ENERGY PREDICTED BY IDOCK:   -3.57 KCAL/MOL
REMARK 922        TOTAL FREE ENERGY PREDICTED BY IDOCK:   -5.72 KCAL/MOL
REMARK 923 INTER-LIGAND FREE ENERGY PREDICTED BY IDOCK:   -4.33 KCAL/MOL
REMARK 924 INTRA-LIGAND FREE ENERGY PREDICTED BY IDOCK:   -1.39 KCAL/MOL
REMARK 927      BINDING AFFINITY PREDICTED BY RF-SCORE:    0.00 PKD
ROOT
HETATM    1  O   UNL     1     -10.503   6.550  66.367  1.00  0.00    -0.452 OA 
HETATM    2  H   UNL     1     -11.417   6.810  66.375  1.00  0.00     0.000 HD 
HETATM    3  C   UNL     1     -10.353   5.247  66.933  1.00  0.00    -0.255 C  
ENDROOT
BRANCH   3   4
HETATM    4  C   UNL     1      -8.868   4.824  66.919  1.00  0.00    -0.110 C  
HETATM    5  O   UNL     1      -7.966   5.944  66.958  1.00  0.00    -0.101 OA 
HETATM    6  C   UNL     1      -7.718   6.527  68.240  1.00  0.00    -0.105 C  
HETATM    7  H   UNL     1      -9.959   3.957  70.103  1.00  0.00     0.000 HD 
HETATM    8  C   UNL     1      -7.148   5.467  69.209  1.00  0.00    -0.064 C  
HETATM    9  O   UNL     1      -5.883   4.964  68.761  1.00  0.00    -0.019 OA 
HETATM   10  H   UNL     1      -9.314   2.097  68.727  1.00  0.00     0.000 HD 
HETATM   11  C   UNL     1      -8.139   4.306  69.332  1.00  0.00    -0.059 C  
HETATM   12  C   UNL     1      -8.499   3.738  67.952  1.00  0.00    -0.094 C  
HETATM   13  O   UNL     1      -9.344   4.677  70.027  1.00  0.00    -0.118 OA 
HETATM   14  H   UNL     1      -5.532   4.313  69.356  1.00  0.00     0.000 HD 
HETATM   15  O   UNL     1      -9.541   2.766  68.092  1.00  0.00    -0.196 OA 
BRANCH   6  16
HETATM   16  O   UNL     1      -8.905   7.165  68.709  1.00  0.00    -0.130 OA 
BRANCH  16  17
HETATM   17  C   UNL     1      -8.781   8.205  69.700  1.00  0.00    -0.142 C  
HETATM   18  O   UNL     1      -8.366  10.582  70.124  1.00  0.00    -0.324 OA 
HETATM   19  C   UNL     1      -8.634   9.614  69.100  1.00  0.00    -0.146 C  
HETATM   20  H   UNL     1      -8.275  11.452  69.753  1.00  0.00     0.000 HD 
HETATM   21  C   UNL     1     -11.118   9.901  69.312  1.00  0.00    -0.181 C  
HETATM   22  O   UNL     1     -10.087   9.198  67.188  1.00  0.00    -0.199 OA 
HETATM   23  C   UNL     1      -9.913  10.010  68.352  1.00  0.00    -0.160 C  
HETATM   24  O   UNL     1     -11.105  10.903  70.318  1.00  0.00    -0.441 OA 
HETATM   25  O   UNL     1     -11.223   8.596  69.889  1.00  0.00    -0.177 OA 
HETATM   26  H   UNL     1     -10.880   9.443  66.725  1.00  0.00     0.000 HD 
HETATM   27  H   UNL     1     -11.846  10.836  70.908  1.00  0.00     0.000 HD 
HETATM   28  C   UNL     1     -10.061   8.104  70.567  1.00  0.00    -0.192 C  
BRANCH  28  29
HETATM   29  C   UNL     1      -9.910   8.667  71.988  1.00  0.00    -0.325 C  
HETATM   30  O   UNL     1      -8.545   8.625  72.402  1.00  0.00    -0.341 OA 
HETATM   31  H   UNL     1      -8.452   8.972  73.281  1.00  0.00     0.000 HD 
ENDBRANCH  28  29
ENDBRANCH  16  17
ENDBRANCH   6  16
ENDBRANCH   3   4
TORSDOF 4
ENDMDL
MODEL      146
REMARK 921   NORMALIZED FREE ENERGY PREDICTED BY IDOCK:   -3.57 KCAL/MOL
REMARK 922        TOTAL FREE ENERGY PREDICTED BY IDOCK:   -5.71 KCAL/MOL
REMARK 923 INTER-LIGAND FREE ENERGY PREDICTED BY IDOCK:   -4.51 KCAL/MOL
REMARK 924 INTRA-LIGAND FREE ENERGY PREDICTED BY IDOCK:   -1.20 KCAL/MOL
REMARK 927      BINDING AFFINITY PREDICTED BY RF-SCORE:    0.00 PKD
ROOT
HETATM    1  O   UNL     1     -10.373   5.056  69.581  1.00  0.00    -0.260 OA 
HETATM    2  H   UNL     1     -11.311   4.928  69.649  1.00  0.00     0.000 HD 
HETATM    3  C   UNL     1     -10.087   6.336  69.015  1.00  0.00    -0.172 C  
ENDROOT
BRANCH   3   4
HETATM    4  C   UNL     1      -8.560   6.545  68.905  1.00  0.00    -0.125 C  
HETATM    5  O   UNL     1      -8.188   7.394  67.805  1.00  0.00    -0.117 OA 
HETATM    6  C   UNL     1      -8.299   8.805  68.014  1.00  0.00    -0.119 C  
HETATM    7  H   UNL     1      -9.465   8.404  71.699  1.00  0.00     0.000 HD 
HETATM    8  C   UNL     1      -7.432   9.236  69.218  1.00  0.00    -0.075 C  
HETATM    9  O   UNL     1      -6.039   8.987  68.986  1.00  0.00    -0.042 OA 
HETATM   10  H   UNL     1      -8.020   6.542  72.162  1.00  0.00     0.000 HD 
HETATM   11  C   UNL     1      -7.881   8.473  70.468  1.00  0.00    -0.086 C  
HETATM   12  C   UNL     1      -7.871   6.958  70.223  1.00  0.00    -0.109 C  
HETATM   13  O   UNL     1      -9.185   8.877  70.924  1.00  0.00    -0.188 OA 
HETATM   14  H   UNL     1      -5.506   9.252  69.725  1.00  0.00     0.000 HD 
HETATM   15  O   UNL     1      -8.444   6.288  71.351  1.00  0.00    -0.126 OA 
BRANCH   6  16
HETATM   16  O   UNL     1      -9.675   9.161  68.131  1.00  0.00    -0.149 OA 
BRANCH  16  17
HETATM   17  C   UNL     1     -10.255  10.007  67.117  1.00  0.00    -0.228 C  
HETATM   18  O   UNL     1     -11.993  11.646  66.575  1.00  0.00    -0.474 OA 
HETATM   19  C   UNL     1     -11.355  10.941  67.649  1.00  0.00    -0.270 C  
HETATM   20  H   UNL     1     -12.672  12.223  66.904  1.00  0.00     0.000 HD 
HETATM   21  C   UNL     1      -9.616  12.726  67.946  1.00  0.00    -0.211 C  
HETATM   22  O   UNL     1     -10.317  11.296  69.826  1.00  0.00    -0.426 OA 
HETATM   23  C   UNL     1     -10.762  11.954  68.637  1.00  0.00    -0.235 C  
HETATM   24  O   UNL     1     -10.085  13.613  66.942  1.00  0.00    -0.251 OA 
HETATM   25  O   UNL     1      -8.617  11.844  67.427  1.00  0.00    -0.151 OA 
HETATM   26  H   UNL     1      -9.950  11.923  70.437  1.00  0.00     0.000 HD 
HETATM   27  H   UNL     1      -9.380  14.087  66.517  1.00  0.00     0.000 HD 
HETATM   28  C   UNL     1      -9.072  10.821  66.534  1.00  0.00    -0.165 C  
BRANCH  28  29
HETATM   29  C   UNL     1      -9.299  11.329  65.102  1.00  0.00    -0.189 C  
HETATM   30  O   UNL     1     -10.234  10.498  64.416  1.00  0.00    -0.346 OA 
HETATM   31  H   UNL     1     -10.374  10.811  63.531  1.00  0.00     0.000 HD 
ENDBRANCH  28  29
ENDBRANCH  16  17
ENDBRANCH   6  16
ENDBRANCH   3   4
TORSDOF 4
ENDMDL
MODEL      147
REMARK 921   NORMALIZED FREE ENERGY PREDICTED BY IDOCK:   -3.55 KCAL/MOL
REMARK 922        TOTAL FREE ENERGY PREDICTED BY IDOCK:   -5.70 KCAL/MOL
REMARK 923 INTER-LIGAND FREE ENERGY PREDICTED BY IDOCK:   -4.74 KCAL/MOL
REMARK 924 INTRA-LIGAND FREE ENERGY PREDICTED BY IDOCK:   -0.95 KCAL/MOL
REMARK 927      BINDING AFFINITY PREDICTED BY RF-SCORE:    0.00 PKD
ROOT
HETATM    1  O   UNL     1      -7.380   8.833  67.901  1.00  0.00    -0.086 OA 
HETATM    2  H   UNL     1      -6.749   9.344  68.393  1.00  0.00     0.000 HD 
HETATM    3  C   UNL     1      -6.756   7.672  67.350  1.00  0.00    -0.068 C  
ENDROOT
BRANCH   3   4
HETATM    4  C   UNL     1      -7.782   6.840  66.550  1.00  0.00    -0.102 C  
HETATM    5  O   UNL     1      -8.390   5.796  67.333  1.00  0.00    -0.105 OA 
HETATM    6  C   UNL     1      -9.469   6.180  68.189  1.00  0.00    -0.113 C  
HETATM    7  H   UNL     1      -9.373   9.890  67.040  1.00  0.00     0.000 HD 
HETATM    8  C   UNL     1     -10.602   6.829  67.364  1.00  0.00    -0.302 C  
HETATM    9  O   UNL     1     -11.165   5.910  66.419  1.00  0.00    -0.749 OA 
HETATM   10  H   UNL     1      -8.886   9.374  64.745  1.00  0.00     0.000 HD 
HETATM   11  C   UNL     1     -10.052   8.049  66.618  1.00  0.00    -0.259 C  
HETATM   12  C   UNL     1      -8.824   7.674  65.777  1.00  0.00    -0.100 C  
HETATM   13  O   UNL     1      -9.714   9.134  67.502  1.00  0.00    -0.148 OA 
HETATM   14  H   UNL     1     -11.861   6.309  65.911  1.00  0.00     0.000 HD 
HETATM   15  O   UNL     1      -8.245   8.860  65.222  1.00  0.00    -0.121 OA 
BRANCH   6  16
HETATM   16  O   UNL     1      -8.970   7.003  69.242  1.00  0.00    -0.138 OA 
BRANCH  16  17
HETATM   17  C   UNL     1      -9.002   6.490  70.590  1.00  0.00    -0.148 C  
HETATM   18  O   UNL     1      -9.070   7.029  72.978  1.00  0.00    -0.128 OA 
HETATM   19  C   UNL     1      -9.196   7.578  71.659  1.00  0.00    -0.134 C  
HETATM   20  H   UNL     1      -9.191   7.702  73.638  1.00  0.00     0.000 HD 
HETATM   21  C   UNL     1     -11.665   7.133  71.581  1.00  0.00    -0.291 C  
HETATM   22  O   UNL     1     -10.655   8.976  70.296  1.00  0.00    -0.200 OA 
HETATM   23  C   UNL     1     -10.578   8.228  71.512  1.00  0.00    -0.235 C  
HETATM   24  O   UNL     1     -11.796   6.577  72.880  1.00  0.00    -0.477 OA 
HETATM   25  O   UNL     1     -11.453   6.110  70.603  1.00  0.00    -0.338 OA 
HETATM   26  H   UNL     1     -11.511   9.378  70.205  1.00  0.00     0.000 HD 
HETATM   27  H   UNL     1     -12.464   5.903  72.922  1.00  0.00     0.000 HD 
HETATM   28  C   UNL     1     -10.170   5.473  70.616  1.00  0.00    -0.240 C  
BRANCH  28  29
HETATM   29  C   UNL     1     -10.045   4.393  71.702  1.00  0.00    -0.160 C  
HETATM   30  O   UNL     1      -8.680   4.210  72.074  1.00  0.00    -0.103 OA 
HETATM   31  H   UNL     1      -8.603   3.543  72.745  1.00  0.00     0.000 HD 
ENDBRANCH  28  29
ENDBRANCH  16  17
ENDBRANCH   6  16
ENDBRANCH   3   4
TORSDOF 4
ENDMDL
MODEL      148
REMARK 921   NORMALIZED FREE ENERGY PREDICTED BY IDOCK:   -3.53 KCAL/MOL
REMARK 922        TOTAL FREE ENERGY PREDICTED BY IDOCK:   -5.67 KCAL/MOL
REMARK 923 INTER-LIGAND FREE ENERGY PREDICTED BY IDOCK:   -4.64 KCAL/MOL
REMARK 924 INTRA-LIGAND FREE ENERGY PREDICTED BY IDOCK:   -1.03 KCAL/MOL
REMARK 927      BINDING AFFINITY PREDICTED BY RF-SCORE:    0.00 PKD
ROOT
HETATM    1  O   UNL     1     -11.159   8.981  68.937  1.00  0.00    -0.439 OA 
HETATM    2  H   UNL     1     -10.890   9.824  69.282  1.00  0.00     0.000 HD 
HETATM    3  C   UNL     1     -10.610   7.924  69.724  1.00  0.00    -0.242 C  
ENDROOT
BRANCH   3   4
HETATM    4  C   UNL     1     -11.047   6.553  69.163  1.00  0.00    -0.326 C  
HETATM    5  O   UNL     1     -11.395   6.605  67.768  1.00  0.00    -0.227 OA 
HETATM    6  C   UNL     1     -10.314   6.567  66.833  1.00  0.00    -0.243 C  
HETATM    7  H   UNL     1      -7.616   6.222  69.608  1.00  0.00     0.000 HD 
HETATM    8  C   UNL     1      -9.479   5.283  67.032  1.00  0.00    -0.134 C  
HETATM    9  O   UNL     1     -10.251   4.102  66.779  1.00  0.00    -0.308 OA 
HETATM   10  H   UNL     1      -8.948   4.788  71.001  1.00  0.00     0.000 HD 
HETATM   11  C   UNL     1      -8.946   5.241  68.467  1.00  0.00    -0.108 C  
HETATM   12  C   UNL     1     -10.086   5.389  69.484  1.00  0.00    -0.240 C  
HETATM   13  O   UNL     1      -7.947   6.247  68.717  1.00  0.00    -0.100 OA 
HETATM   14  H   UNL     1      -9.738   3.313  66.902  1.00  0.00     0.000 HD 
HETATM   15  O   UNL     1      -9.539   5.505  70.802  1.00  0.00    -0.160 OA 
BRANCH   6  16
HETATM   16  O   UNL     1      -9.559   7.774  66.931  1.00  0.00    -0.170 OA 
BRANCH  16  17
HETATM   17  C   UNL     1      -9.367   8.563  65.740  1.00  0.00    -0.118 C  
HETATM   18  O   UNL     1      -9.561  10.774  64.702  1.00  0.00    -0.223 OA 
HETATM   19  C   UNL     1      -9.622  10.065  65.948  1.00  0.00    -0.224 C  
HETATM   20  H   UNL     1      -9.719  11.702  64.832  1.00  0.00     0.000 HD 
HETATM   21  C   UNL     1      -7.167  10.365  66.375  1.00  0.00    -0.119 C  
HETATM   22  O   UNL     1      -8.769  10.125  68.230  1.00  0.00    -0.117 OA 
HETATM   23  C   UNL     1      -8.586  10.652  66.915  1.00  0.00    -0.126 C  
HETATM   24  O   UNL     1      -6.865  11.117  65.209  1.00  0.00    -0.329 OA 
HETATM   25  O   UNL     1      -6.954   8.968  66.154  1.00  0.00    -0.082 OA 
HETATM   26  H   UNL     1      -8.127  10.488  68.829  1.00  0.00     0.000 HD 
HETATM   27  H   UNL     1      -5.993  10.940  64.877  1.00  0.00     0.000 HD 
HETATM   28  C   UNL     1      -7.901   8.306  65.306  1.00  0.00    -0.120 C  
BRANCH  28  29
HETATM   29  C   UNL     1      -7.633   8.534  63.811  1.00  0.00    -0.130 C  
HETATM   30  O   UNL     1      -8.299   7.546  63.025  1.00  0.00    -0.353 OA 
HETATM   31  H   UNL     1      -8.133   7.687  62.101  1.00  0.00     0.000 HD 
ENDBRANCH  28  29
ENDBRANCH  16  17
ENDBRANCH   6  16
ENDBRANCH   3   4
TORSDOF 4
ENDMDL
MODEL      149
REMARK 921   NORMALIZED FREE ENERGY PREDICTED BY IDOCK:   -3.50 KCAL/MOL
REMARK 922        TOTAL FREE ENERGY PREDICTED BY IDOCK:   -5.63 KCAL/MOL
REMARK 923 INTER-LIGAND FREE ENERGY PREDICTED BY IDOCK:   -4.95 KCAL/MOL
REMARK 924 INTRA-LIGAND FREE ENERGY PREDICTED BY IDOCK:   -0.68 KCAL/MOL
REMARK 927      BINDING AFFINITY PREDICTED BY RF-SCORE:    0.00 PKD
ROOT
HETATM    1  O   UNL     1     -14.112   7.615  70.989  1.00  0.00    -0.655 OA 
HETATM    2  H   UNL     1     -14.681   7.282  70.305  1.00  0.00     0.000 HD 
HETATM    3  C   UNL     1     -12.826   6.999  70.907  1.00  0.00    -0.105 C  
ENDROOT
BRANCH   3   4
HETATM    4  C   UNL     1     -11.900   7.539  72.019  1.00  0.00    -0.294 C  
HETATM    5  O   UNL     1     -10.591   6.943  71.998  1.00  0.00    -0.209 OA 
HETATM    6  C   UNL     1      -9.657   7.474  71.055  1.00  0.00    -0.160 C  
HETATM    7  H   UNL     1     -12.135  10.175  69.766  1.00  0.00     0.000 HD 
HETATM    8  C   UNL     1      -9.449   8.986  71.301  1.00  0.00    -0.269 C  
HETATM    9  O   UNL     1      -8.884   9.241  72.593  1.00  0.00     0.198 OA 
HETATM   10  H   UNL     1     -13.085  10.620  71.927  1.00  0.00     0.000 HD 
HETATM   11  C   UNL     1     -10.795   9.709  71.186  1.00  0.00    -0.334 C  
HETATM   12  C   UNL     1     -11.841   9.079  72.115  1.00  0.00    -0.313 C  
HETATM   13  O   UNL     1     -11.300   9.727  69.838  1.00  0.00    -0.240 OA 
HETATM   14  H   UNL     1      -8.757  10.169  72.744  1.00  0.00     0.000 HD 
HETATM   15  O   UNL     1     -13.120   9.673  71.867  1.00  0.00    -0.374 OA 
BRANCH   6  16
HETATM   16  O   UNL     1     -10.082   7.153  69.732  1.00  0.00    -0.188 OA 
BRANCH  16  17
HETATM   17  C   UNL     1      -9.151   7.337  68.646  1.00  0.00    -0.133 C  
HETATM   18  O   UNL     1      -7.419   6.315  67.248  1.00  0.00    -0.082 OA 
HETATM   19  C   UNL     1      -8.435   6.043  68.224  1.00  0.00    -0.112 C  
HETATM   20  H   UNL     1      -6.976   5.515  66.988  1.00  0.00     0.000 HD 
HETATM   21  C   UNL     1     -10.197   5.707  66.470  1.00  0.00    -0.211 C  
HETATM   22  O   UNL     1     -10.335   4.580  68.656  1.00  0.00     0.046 OA 
HETATM   23  C   UNL     1      -9.441   5.043  67.641  1.00  0.00    -0.132 C  
HETATM   24  O   UNL     1      -9.371   5.910  65.333  1.00  0.00    -0.365 OA 
HETATM   25  O   UNL     1     -10.831   6.926  66.868  1.00  0.00    -0.351 OA 
HETATM   26  H   UNL     1     -10.959   3.961  68.295  1.00  0.00     0.000 HD 
HETATM   27  H   UNL     1      -9.837   6.318  64.613  1.00  0.00     0.000 HD 
HETATM   28  C   UNL     1      -9.989   7.912  67.477  1.00  0.00    -0.192 C  
BRANCH  28  29
HETATM   29  C   UNL     1      -9.178   8.724  66.456  1.00  0.00    -0.179 C  
HETATM   30  O   UNL     1      -9.934   8.932  65.264  1.00  0.00    -0.296 OA 
HETATM   31  H   UNL     1      -9.432   9.433  64.633  1.00  0.00     0.000 HD 
ENDBRANCH  28  29
ENDBRANCH  16  17
ENDBRANCH   6  16
ENDBRANCH   3   4
TORSDOF 4
ENDMDL
MODEL      150
REMARK 921   NORMALIZED FREE ENERGY PREDICTED BY IDOCK:   -3.47 KCAL/MOL
REMARK 922        TOTAL FREE ENERGY PREDICTED BY IDOCK:   -5.59 KCAL/MOL
REMARK 923 INTER-LIGAND FREE ENERGY PREDICTED BY IDOCK:   -4.86 KCAL/MOL
REMARK 924 INTRA-LIGAND FREE ENERGY PREDICTED BY IDOCK:   -0.73 KCAL/MOL
REMARK 927      BINDING AFFINITY PREDICTED BY RF-SCORE:    0.00 PKD
ROOT
HETATM    1  O   UNL     1     -12.131  10.801  68.707  1.00  0.00    -0.717 OA 
HETATM    2  H   UNL     1     -11.921  10.508  69.585  1.00  0.00     0.000 HD 
HETATM    3  C   UNL     1     -11.066  10.479  67.809  1.00  0.00    -0.317 C  
ENDROOT
BRANCH   3   4
HETATM    4  C   UNL     1     -11.408  10.954  66.380  1.00  0.00     0.270 C  
HETATM    5  O   UNL     1     -11.755  12.349  66.321  1.00  0.00    -0.388 OA 
HETATM    6  C   UNL     1     -10.671  13.282  66.299  1.00  0.00    -0.286 C  
HETATM    7  H   UNL     1      -7.964  10.495  66.312  1.00  0.00     0.000 HD 
HETATM    8  C   UNL     1      -9.751  13.005  65.090  1.00  0.00     0.055 C  
HETATM    9  O   UNL     1     -10.440  13.183  63.846  1.00  0.00    -0.503 OA 
HETATM   10  H   UNL     1      -9.198   9.014  64.880  1.00  0.00     0.000 HD 
HETATM   11  C   UNL     1      -9.220  11.570  65.174  1.00  0.00    -0.051 C  
HETATM   12  C   UNL     1     -10.370  10.563  65.307  1.00  0.00    -0.229 C  
HETATM   13  O   UNL     1      -8.293  11.385  66.259  1.00  0.00    -0.168 OA 
HETATM   14  H   UNL     1      -9.874  13.012  63.103  1.00  0.00     0.000 HD 
HETATM   15  O   UNL     1      -9.836   9.255  65.541  1.00  0.00    -0.265 OA 
BRANCH   6  16
HETATM   16  O   UNL     1     -10.000  13.260  67.558  1.00  0.00    -0.218 OA 
BRANCH  16  17
HETATM   17  C   UNL     1     -10.583  13.986  68.660  1.00  0.00    -0.257 C  
HETATM   18  O   UNL     1     -10.175  15.202  70.746  1.00  0.00    -0.448 OA 
HETATM   19  C   UNL     1      -9.543  14.625  69.595  1.00  0.00     0.266 C  
HETATM   20  H   UNL     1      -9.532  15.598  71.324  1.00  0.00     0.000 HD 
HETATM   21  C   UNL     1      -9.744  16.749  68.273  1.00  0.00    -0.252 C  
HETATM   22  O   UNL     1      -7.937  15.133  67.833  1.00  0.00    -0.122 OA 
HETATM   23  C   UNL     1      -8.756  15.712  68.852  1.00  0.00    -0.215 C  
HETATM   24  O   UNL     1     -10.357  17.539  69.280  1.00  0.00    -0.327 OA 
HETATM   25  O   UNL     1     -10.726  16.136  67.432  1.00  0.00    -0.312 OA 
HETATM   26  H   UNL     1      -7.450  15.806  67.373  1.00  0.00     0.000 HD 
HETATM   27  H   UNL     1     -10.965  18.176  68.924  1.00  0.00     0.000 HD 
HETATM   28  C   UNL     1     -11.483  15.067  68.012  1.00  0.00    -0.342 C  
BRANCH  28  29
HETATM   29  C   UNL     1     -12.629  15.559  68.909  1.00  0.00     0.478 C  
HETATM   30  O   UNL     1     -13.035  14.532  69.813  1.00  0.00    -0.515 OA 
HETATM   31  H   UNL     1     -13.744  14.836  70.368  1.00  0.00     0.000 HD 
ENDBRANCH  28  29
ENDBRANCH  16  17
ENDBRANCH   6  16
ENDBRANCH   3   4
TORSDOF 4
ENDMDL
MODEL      151
REMARK 921   NORMALIZED FREE ENERGY PREDICTED BY IDOCK:   -3.47 KCAL/MOL
REMARK 922        TOTAL FREE ENERGY PREDICTED BY IDOCK:   -5.59 KCAL/MOL
REMARK 923 INTER-LIGAND FREE ENERGY PREDICTED BY IDOCK:   -4.47 KCAL/MOL
REMARK 924 INTRA-LIGAND FREE ENERGY PREDICTED BY IDOCK:   -1.12 KCAL/MOL
REMARK 927      BINDING AFFINITY PREDICTED BY RF-SCORE:    0.00 PKD
ROOT
HETATM    1  O   UNL     1      -6.811  10.328  71.168  1.00  0.00    -0.297 OA 
HETATM    2  H   UNL     1      -5.916  10.459  70.880  1.00  0.00     0.000 HD 
HETATM    3  C   UNL     1      -7.532   9.552  70.210  1.00  0.00    -0.143 C  
ENDROOT
BRANCH   3   4
HETATM    4  C   UNL     1      -8.988   9.339  70.679  1.00  0.00    -0.243 C  
HETATM    5  O   UNL     1      -9.953   9.583  69.640  1.00  0.00    -0.181 OA 
HETATM    6  C   UNL     1     -10.171   8.526  68.702  1.00  0.00    -0.197 C  
HETATM    7  H   UNL     1      -7.691   6.121  70.480  1.00  0.00     0.000 HD 
HETATM    8  C   UNL     1     -10.628   7.246  69.437  1.00  0.00    -0.229 C  
HETATM    9  O   UNL     1     -11.882   7.436  70.105  1.00  0.00    -0.507 OA 
HETATM   10  H   UNL     1      -8.291   6.821  72.698  1.00  0.00     0.000 HD 
HETATM   11  C   UNL     1      -9.565   6.840  70.462  1.00  0.00    -0.169 C  
HETATM   12  C   UNL     1      -9.240   8.003  71.410  1.00  0.00    -0.144 C  
HETATM   13  O   UNL     1      -8.351   6.372  69.845  1.00  0.00    -0.126 OA 
HETATM   14  H   UNL     1     -12.163   6.649  70.557  1.00  0.00     0.000 HD 
HETATM   15  O   UNL     1      -8.136   7.643  72.248  1.00  0.00    -0.098 OA 
BRANCH   6  16
HETATM   16  O   UNL     1      -9.003   8.352  67.902  1.00  0.00    -0.136 OA 
BRANCH  16  17
HETATM   17  C   UNL     1      -9.147   8.353  66.467  1.00  0.00    -0.176 C  
HETATM   18  O   UNL     1      -9.980   9.551  64.500  1.00  0.00    -0.332 OA 
HETATM   19  C   UNL     1      -9.723   9.664  65.907  1.00  0.00    -0.275 C  
HETATM   20  H   UNL     1     -10.336  10.362  64.154  1.00  0.00     0.000 HD 
HETATM   21  C   UNL     1      -7.376  10.470  65.533  1.00  0.00    -0.106 C  
HETATM   22  O   UNL     1      -8.642  11.106  67.548  1.00  0.00    -0.127 OA 
HETATM   23  C   UNL     1      -8.747  10.822  66.151  1.00  0.00    -0.180 C  
HETATM   24  O   UNL     1      -7.401  10.470  64.114  1.00  0.00    -0.328 OA 
HETATM   25  O   UNL     1      -6.866   9.232  66.038  1.00  0.00    -0.085 OA 
HETATM   26  H   UNL     1      -8.038  11.823  67.699  1.00  0.00     0.000 HD 
HETATM   27  H   UNL     1      -6.558  10.253  63.735  1.00  0.00     0.000 HD 
HETATM   28  C   UNL     1      -7.724   8.092  65.910  1.00  0.00    -0.092 C  
BRANCH  28  29
HETATM   29  C   UNL     1      -7.698   7.473  64.504  1.00  0.00    -0.123 C  
HETATM   30  O   UNL     1      -8.842   6.646  64.298  1.00  0.00    -0.172 OA 
HETATM   31  H   UNL     1      -8.826   6.264  63.429  1.00  0.00     0.000 HD 
ENDBRANCH  28  29
ENDBRANCH  16  17
ENDBRANCH   6  16
ENDBRANCH   3   4
TORSDOF 4
ENDMDL
MODEL      152
REMARK 921   NORMALIZED FREE ENERGY PREDICTED BY IDOCK:   -3.40 KCAL/MOL
REMARK 922        TOTAL FREE ENERGY PREDICTED BY IDOCK:   -5.51 KCAL/MOL
REMARK 923 INTER-LIGAND FREE ENERGY PREDICTED BY IDOCK:   -4.51 KCAL/MOL
REMARK 924 INTRA-LIGAND FREE ENERGY PREDICTED BY IDOCK:   -1.00 KCAL/MOL
REMARK 927      BINDING AFFINITY PREDICTED BY RF-SCORE:    0.00 PKD
ROOT
HETATM    1  O   UNL     1      -6.594   5.049  68.034  1.00  0.00    -0.046 OA 
HETATM    2  H   UNL     1      -5.837   5.179  68.592  1.00  0.00     0.000 HD 
HETATM    3  C   UNL     1      -7.292   3.862  68.414  1.00  0.00    -0.055 C  
ENDROOT
BRANCH   3   4
HETATM    4  C   UNL     1      -8.525   3.651  67.507  1.00  0.00    -0.096 C  
HETATM    5  O   UNL     1      -9.757   4.050  68.135  1.00  0.00    -0.149 OA 
HETATM    6  C   UNL     1     -10.066   5.446  68.116  1.00  0.00    -0.166 C  
HETATM    7  H   UNL     1      -6.886   6.364  66.081  1.00  0.00     0.000 HD 
HETATM    8  C   UNL     1     -10.124   5.962  66.661  1.00  0.00    -0.183 C  
HETATM    9  O   UNL     1     -11.167   5.324  65.913  1.00  0.00    -0.796 OA 
HETATM   10  H   UNL     1      -6.965   4.403  64.696  1.00  0.00     0.000 HD 
HETATM   11  C   UNL     1      -8.779   5.703  65.976  1.00  0.00    -0.144 C  
HETATM   12  C   UNL     1      -8.381   4.225  66.082  1.00  0.00    -0.109 C  
HETATM   13  O   UNL     1      -7.721   6.524  66.505  1.00  0.00    -0.095 OA 
HETATM   14  H   UNL     1     -11.203   5.641  65.019  1.00  0.00     0.000 HD 
HETATM   15  O   UNL     1      -7.054   4.050  65.573  1.00  0.00    -0.060 OA 
BRANCH   6  16
HETATM   16  O   UNL     1      -9.142   6.148  68.946  1.00  0.00    -0.124 OA 
BRANCH  16  17
HETATM   17  C   UNL     1      -9.612   6.680  70.201  1.00  0.00    -0.161 C  
HETATM   18  O   UNL     1      -9.113   8.108  72.128  1.00  0.00    -0.147 OA 
HETATM   19  C   UNL     1      -8.670   7.728  70.818  1.00  0.00    -0.134 C  
HETATM   20  H   UNL     1      -8.531   8.756  72.508  1.00  0.00     0.000 HD 
HETATM   21  C   UNL     1     -10.030   9.521  69.707  1.00  0.00    -0.213 C  
HETATM   22  O   UNL     1      -7.956   8.671  68.687  1.00  0.00    -0.111 OA 
HETATM   23  C   UNL     1      -8.602   8.974  69.925  1.00  0.00    -0.140 C  
HETATM   24  O   UNL     1     -10.579  10.095  70.883  1.00  0.00    -0.361 OA 
HETATM   25  O   UNL     1     -10.904   8.527  69.164  1.00  0.00    -0.159 OA 
HETATM   26  H   UNL     1      -7.914   9.442  68.134  1.00  0.00     0.000 HD 
HETATM   27  H   UNL     1     -11.457  10.431  70.749  1.00  0.00     0.000 HD 
HETATM   28  C   UNL     1     -11.000   7.297  69.893  1.00  0.00    -0.243 C  
BRANCH  28  29
HETATM   29  C   UNL     1     -11.936   7.388  71.108  1.00  0.00    -0.320 C  
HETATM   30  O   UNL     1     -12.855   8.468  70.954  1.00  0.00    -0.500 OA 
HETATM   31  H   UNL     1     -13.434   8.525  71.705  1.00  0.00     0.000 HD 
ENDBRANCH  28  29
ENDBRANCH  16  17
ENDBRANCH   6  16
ENDBRANCH   3   4
TORSDOF 4
ENDMDL
MODEL      153
REMARK 921   NORMALIZED FREE ENERGY PREDICTED BY IDOCK:   -3.40 KCAL/MOL
REMARK 922        TOTAL FREE ENERGY PREDICTED BY IDOCK:   -5.51 KCAL/MOL
REMARK 923 INTER-LIGAND FREE ENERGY PREDICTED BY IDOCK:   -4.50 KCAL/MOL
REMARK 924 INTRA-LIGAND FREE ENERGY PREDICTED BY IDOCK:   -1.01 KCAL/MOL
REMARK 927      BINDING AFFINITY PREDICTED BY RF-SCORE:    0.00 PKD
ROOT
HETATM    1  O   UNL     1      -8.227   3.089  71.210  1.00  0.00    -0.061 OA 
HETATM    2  H   UNL     1      -8.346   2.535  70.448  1.00  0.00     0.000 HD 
HETATM    3  C   UNL     1      -9.428   3.812  71.489  1.00  0.00    -0.151 C  
ENDROOT
BRANCH   3   4
HETATM    4  C   UNL     1      -9.235   4.713  72.728  1.00  0.00    -0.128 C  
HETATM    5  O   UNL     1      -8.304   5.787  72.502  1.00  0.00    -0.116 OA 
HETATM    6  C   UNL     1      -8.806   6.941  71.823  1.00  0.00    -0.131 C  
HETATM    7  H   UNL     1     -12.416   5.525  71.586  1.00  0.00     0.000 HD 
HETATM    8  C   UNL     1      -9.994   7.546  72.603  1.00  0.00    -0.207 C  
HETATM    9  O   UNL     1      -9.600   8.001  73.904  1.00  0.00    -0.283 OA 
HETATM   10  H   UNL     1     -12.366   4.491  73.753  1.00  0.00     0.000 HD 
HETATM   11  C   UNL     1     -11.096   6.491  72.749  1.00  0.00    -0.245 C  
HETATM   12  C   UNL     1     -10.547   5.203  73.378  1.00  0.00    -0.255 C  
HETATM   13  O   UNL     1     -11.733   6.179  71.496  1.00  0.00    -0.290 OA 
HETATM   14  H   UNL     1     -10.331   8.372  74.384  1.00  0.00     0.000 HD 
HETATM   15  O   UNL     1     -11.559   4.190  73.353  1.00  0.00    -0.231 OA 
BRANCH   6  16
HETATM   16  O   UNL     1      -9.108   6.604  70.471  1.00  0.00    -0.151 OA 
BRANCH  16  17
HETATM   17  C   UNL     1      -8.488   7.368  69.417  1.00  0.00    -0.133 C  
HETATM   18  O   UNL     1      -8.275   7.715  67.001  1.00  0.00    -0.114 OA 
HETATM   19  C   UNL     1      -9.030   7.036  68.016  1.00  0.00    -0.126 C  
HETATM   20  H   UNL     1      -8.611   7.510  66.136  1.00  0.00     0.000 HD 
HETATM   21  C   UNL     1     -10.647   8.940  68.253  1.00  0.00    -0.152 C  
HETATM   22  O   UNL     1     -11.317   6.622  68.749  1.00  0.00    -0.544 OA 
HETATM   23  C   UNL     1     -10.505   7.442  67.905  1.00  0.00    -0.205 C  
HETATM   24  O   UNL     1     -10.088   9.786  67.260  1.00  0.00    -0.183 OA 
HETATM   25  O   UNL     1     -10.110   9.241  69.545  1.00  0.00    -0.183 OA 
HETATM   26  H   UNL     1     -12.230   6.873  68.681  1.00  0.00     0.000 HD 
HETATM   27  H   UNL     1     -10.176  10.707  67.474  1.00  0.00     0.000 HD 
HETATM   28  C   UNL     1      -8.750   8.853  69.774  1.00  0.00    -0.139 C  
BRANCH  28  29
HETATM   29  C   UNL     1      -7.734   9.837  69.176  1.00  0.00    -0.092 C  
HETATM   30  O   UNL     1      -8.185  11.181  69.331  1.00  0.00    -0.376 OA 
HETATM   31  H   UNL     1      -7.557  11.790  68.960  1.00  0.00     0.000 HD 
ENDBRANCH  28  29
ENDBRANCH  16  17
ENDBRANCH   6  16
ENDBRANCH   3   4
TORSDOF 4
ENDMDL
MODEL      154
REMARK 921   NORMALIZED FREE ENERGY PREDICTED BY IDOCK:   -3.39 KCAL/MOL
REMARK 922        TOTAL FREE ENERGY PREDICTED BY IDOCK:   -5.50 KCAL/MOL
REMARK 923 INTER-LIGAND FREE ENERGY PREDICTED BY IDOCK:   -4.43 KCAL/MOL
REMARK 924 INTRA-LIGAND FREE ENERGY PREDICTED BY IDOCK:   -1.06 KCAL/MOL
REMARK 927      BINDING AFFINITY PREDICTED BY RF-SCORE:    0.00 PKD
ROOT
HETATM    1  O   UNL     1      -6.636  10.077  69.201  1.00  0.00    -0.050 OA 
HETATM    2  H   UNL     1      -7.281   9.480  69.562  1.00  0.00     0.000 HD 
HETATM    3  C   UNL     1      -7.278  11.237  68.667  1.00  0.00    -0.098 C  
ENDROOT
BRANCH   3   4
HETATM    4  C   UNL     1      -6.229  12.207  68.081  1.00  0.00    -0.055 C  
HETATM    5  O   UNL     1      -6.749  13.012  67.007  1.00  0.00    -0.096 OA 
HETATM    6  C   UNL     1      -7.511  14.164  67.377  1.00  0.00    -0.134 C  
HETATM    7  H   UNL     1      -6.998  13.574  71.183  1.00  0.00     0.000 HD 
HETATM    8  C   UNL     1      -6.663  15.105  68.262  1.00  0.00    -0.119 C  
HETATM    9  O   UNL     1      -5.518  15.605  67.561  1.00  0.00    -0.261 OA 
HETATM   10  H   UNL     1      -4.731  12.811  70.961  1.00  0.00     0.000 HD 
HETATM   11  C   UNL     1      -6.200  14.347  69.510  1.00  0.00    -0.121 C  
HETATM   12  C   UNL     1      -5.474  13.049  69.131  1.00  0.00    -0.071 C  
HETATM   13  O   UNL     1      -7.284  14.044  70.408  1.00  0.00     0.445 OA 
HETATM   14  H   UNL     1      -4.997  16.183  68.105  1.00  0.00     0.000 HD 
HETATM   15  O   UNL     1      -5.197  12.293  70.315  1.00  0.00    -0.085 OA 
BRANCH   6  16
HETATM   16  O   UNL     1      -8.738  13.750  67.975  1.00  0.00    -0.163 OA 
BRANCH  16  17
HETATM   17  C   UNL     1      -9.937  14.490  67.666  1.00  0.00    -0.224 C  
HETATM   18  O   UNL     1     -12.331  14.377  67.160  1.00  0.00    -0.598 OA 
HETATM   19  C   UNL     1     -11.202  13.617  67.615  1.00  0.00    -0.279 C  
HETATM   20  H   UNL     1     -13.113  13.838  67.128  1.00  0.00     0.000 HD 
HETATM   21  C   UNL     1     -11.631  14.197  70.019  1.00  0.00    -0.248 C  
HETATM   22  O   UNL     1     -10.503  12.100  69.389  1.00  0.00    -0.429 OA 
HETATM   23  C   UNL     1     -11.508  13.040  69.003  1.00  0.00    -0.303 C  
HETATM   24  O   UNL     1     -12.800  14.977  69.818  1.00  0.00    -0.596 OA 
HETATM   25  O   UNL     1     -10.461  15.020  70.033  1.00  0.00    -0.205 OA 
HETATM   26  H   UNL     1     -10.693  11.742  70.249  1.00  0.00     0.000 HD 
HETATM   27  H   UNL     1     -12.875  15.689  70.442  1.00  0.00     0.000 HD 
HETATM   28  C   UNL     1     -10.053  15.568  68.773  1.00  0.00    -0.211 C  
BRANCH  28  29
HETATM   29  C   UNL     1     -10.862  16.809  68.366  1.00  0.00    -0.355 C  
HETATM   30  O   UNL     1     -10.858  16.968  66.949  1.00  0.00    -0.176 OA 
HETATM   31  H   UNL     1     -11.357  17.736  66.697  1.00  0.00     0.000 HD 
ENDBRANCH  28  29
ENDBRANCH  16  17
ENDBRANCH   6  16
ENDBRANCH   3   4
TORSDOF 4
ENDMDL
MODEL      155
REMARK 921   NORMALIZED FREE ENERGY PREDICTED BY IDOCK:   -3.39 KCAL/MOL
REMARK 922        TOTAL FREE ENERGY PREDICTED BY IDOCK:   -5.49 KCAL/MOL
REMARK 923 INTER-LIGAND FREE ENERGY PREDICTED BY IDOCK:   -4.63 KCAL/MOL
REMARK 924 INTRA-LIGAND FREE ENERGY PREDICTED BY IDOCK:   -0.87 KCAL/MOL
REMARK 927      BINDING AFFINITY PREDICTED BY RF-SCORE:    0.00 PKD
ROOT
HETATM    1  O   UNL     1      -6.298   8.991  67.707  1.00  0.00    -0.055 OA 
HETATM    2  H   UNL     1      -5.914   8.474  68.405  1.00  0.00     0.000 HD 
HETATM    3  C   UNL     1      -6.763   8.140  66.658  1.00  0.00    -0.063 C  
ENDROOT
BRANCH   3   4
HETATM    4  C   UNL     1      -7.387   8.980  65.523  1.00  0.00    -0.085 C  
HETATM    5  O   UNL     1      -8.818   8.850  65.451  1.00  0.00    -0.183 OA 
HETATM    6  C   UNL     1      -9.583   9.640  66.365  1.00  0.00    -0.210 C  
HETATM    7  H   UNL     1      -6.440  11.340  67.891  1.00  0.00     0.000 HD 
HETATM    8  C   UNL     1      -9.266  11.140  66.171  1.00  0.00    -0.198 C  
HETATM    9  O   UNL     1      -9.634  11.596  64.863  1.00  0.00    -0.314 OA 
HETATM   10  H   UNL     1      -5.264  11.493  65.802  1.00  0.00     0.000 HD 
HETATM   11  C   UNL     1      -7.767  11.374  66.385  1.00  0.00    -0.051 C  
HETATM   12  C   UNL     1      -6.930  10.454  65.487  1.00  0.00    -0.134 C  
HETATM   13  O   UNL     1      -7.369  11.196  67.757  1.00  0.00    -0.088 OA 
HETATM   14  H   UNL     1      -9.439  12.517  64.743  1.00  0.00     0.000 HD 
HETATM   15  O   UNL     1      -5.545  10.586  65.825  1.00  0.00    -0.076 OA 
BRANCH   6  16
HETATM   16  O   UNL     1      -9.370   9.168  67.694  1.00  0.00    -0.134 OA 
BRANCH  16  17
HETATM   17  C   UNL     1     -10.513   9.014  68.560  1.00  0.00    -0.196 C  
HETATM   18  O   UNL     1     -11.901   7.463  69.852  1.00  0.00    -0.497 OA 
HETATM   19  C   UNL     1     -10.672   7.592  69.123  1.00  0.00    -0.151 C  
HETATM   20  H   UNL     1     -11.999   6.585  70.200  1.00  0.00     0.000 HD 
HETATM   21  C   UNL     1      -9.401   8.318  71.162  1.00  0.00    -0.165 C  
HETATM   22  O   UNL     1      -8.282   7.151  69.304  1.00  0.00    -0.125 OA 
HETATM   23  C   UNL     1      -9.498   7.251  70.049  1.00  0.00    -0.161 C  
HETATM   24  O   UNL     1     -10.473   8.236  72.090  1.00  0.00    -0.251 OA 
HETATM   25  O   UNL     1      -9.287   9.639  70.625  1.00  0.00    -0.239 OA 
HETATM   26  H   UNL     1      -7.555   6.940  69.877  1.00  0.00     0.000 HD 
HETATM   27  H   UNL     1     -10.413   8.892  72.773  1.00  0.00     0.000 HD 
HETATM   28  C   UNL     1     -10.307  10.041  69.702  1.00  0.00    -0.247 C  
BRANCH  28  29
HETATM   29  C   UNL     1     -11.603  10.487  70.395  1.00  0.00    -0.342 C  
HETATM   30  O   UNL     1     -12.695  10.467  69.477  1.00  0.00    -0.659 OA 
HETATM   31  H   UNL     1     -13.497  10.743  69.905  1.00  0.00     0.000 HD 
ENDBRANCH  28  29
ENDBRANCH  16  17
ENDBRANCH   6  16
ENDBRANCH   3   4
TORSDOF 4
ENDMDL
MODEL      156
REMARK 921   NORMALIZED FREE ENERGY PREDICTED BY IDOCK:   -3.37 KCAL/MOL
REMARK 922        TOTAL FREE ENERGY PREDICTED BY IDOCK:   -5.47 KCAL/MOL
REMARK 923 INTER-LIGAND FREE ENERGY PREDICTED BY IDOCK:   -4.48 KCAL/MOL
REMARK 924 INTRA-LIGAND FREE ENERGY PREDICTED BY IDOCK:   -0.99 KCAL/MOL
REMARK 927      BINDING AFFINITY PREDICTED BY RF-SCORE:    0.00 PKD
ROOT
HETATM    1  O   UNL     1     -10.925   7.103  66.761  1.00  0.00    -0.510 OA 
HETATM    2  H   UNL     1     -10.635   6.221  66.563  1.00  0.00     0.000 HD 
HETATM    3  C   UNL     1      -9.909   8.047  66.420  1.00  0.00    -0.167 C  
ENDROOT
BRANCH   3   4
HETATM    4  C   UNL     1     -10.380   9.482  66.743  1.00  0.00    -0.228 C  
HETATM    5  O   UNL     1     -10.858   9.625  68.092  1.00  0.00    -0.237 OA 
HETATM    6  C   UNL     1      -9.869   9.793  69.111  1.00  0.00    -0.188 C  
HETATM    7  H   UNL     1      -6.919   9.751  66.583  1.00  0.00     0.000 HD 
HETATM    8  C   UNL     1      -9.003  11.038  68.816  1.00  0.00    -0.149 C  
HETATM    9  O   UNL     1      -9.781  12.241  68.829  1.00  0.00    -0.390 OA 
HETATM   10  H   UNL     1      -8.096  10.976  64.886  1.00  0.00     0.000 HD 
HETATM   11  C   UNL     1      -8.337  10.880  67.446  1.00  0.00    -0.117 C  
HETATM   12  C   UNL     1      -9.378  10.591  66.356  1.00  0.00    -0.168 C  
HETATM   13  O   UNL     1      -7.332   9.850  67.433  1.00  0.00    -0.089 OA 
HETATM   14  H   UNL     1      -9.249  13.006  68.647  1.00  0.00     0.000 HD 
HETATM   15  O   UNL     1      -8.712  10.294  65.124  1.00  0.00    -0.158 OA 
BRANCH   6  16
HETATM   16  O   UNL     1      -9.123   8.585  69.253  1.00  0.00    -0.151 OA 
BRANCH  16  17
HETATM   17  C   UNL     1      -9.399   7.736  70.385  1.00  0.00    -0.160 C  
HETATM   18  O   UNL     1      -8.848   5.659  71.561  1.00  0.00    -0.135 OA 
HETATM   19  C   UNL     1      -8.435   6.544  70.511  1.00  0.00    -0.138 C  
HETATM   20  H   UNL     1      -8.252   4.923  71.638  1.00  0.00     0.000 HD 
HETATM   21  C   UNL     1      -7.026   7.922  72.065  1.00  0.00    -0.068 C  
HETATM   22  O   UNL     1      -6.486   7.741  69.669  1.00  0.00    -0.031 OA 
HETATM   23  C   UNL     1      -7.012   7.039  70.798  1.00  0.00    -0.065 C  
HETATM   24  O   UNL     1      -7.265   7.173  73.247  1.00  0.00    -0.073 OA 
HETATM   25  O   UNL     1      -7.951   9.006  71.948  1.00  0.00    -0.348 OA 
HETATM   26  H   UNL     1      -5.605   8.047  69.846  1.00  0.00     0.000 HD 
HETATM   27  H   UNL     1      -7.274   7.716  74.027  1.00  0.00     0.000 HD 
HETATM   28  C   UNL     1      -9.303   8.658  71.626  1.00  0.00    -0.263 C  
BRANCH  28  29
HETATM   29  C   UNL     1     -10.105   8.170  72.842  1.00  0.00    -0.278 C  
HETATM   30  O   UNL     1     -11.495   8.100  72.532  1.00  0.00    -0.370 OA 
HETATM   31  H   UNL     1     -11.991   7.798  73.284  1.00  0.00     0.000 HD 
ENDBRANCH  28  29
ENDBRANCH  16  17
ENDBRANCH   6  16
ENDBRANCH   3   4
TORSDOF 4
ENDMDL
MODEL      157
REMARK 921   NORMALIZED FREE ENERGY PREDICTED BY IDOCK:   -3.37 KCAL/MOL
REMARK 922        TOTAL FREE ENERGY PREDICTED BY IDOCK:   -5.47 KCAL/MOL
REMARK 923 INTER-LIGAND FREE ENERGY PREDICTED BY IDOCK:   -4.60 KCAL/MOL
REMARK 924 INTRA-LIGAND FREE ENERGY PREDICTED BY IDOCK:   -0.87 KCAL/MOL
REMARK 927      BINDING AFFINITY PREDICTED BY RF-SCORE:    0.00 PKD
ROOT
HETATM    1  O   UNL     1     -11.420   6.583  69.089  1.00  0.00    -0.580 OA 
HETATM    2  H   UNL     1     -12.122   6.871  68.518  1.00  0.00     0.000 HD 
HETATM    3  C   UNL     1     -10.466   5.814  68.353  1.00  0.00    -0.222 C  
ENDROOT
BRANCH   3   4
HETATM    4  C   UNL     1      -9.325   5.345  69.282  1.00  0.00    -0.120 C  
HETATM    5  O   UNL     1      -8.021   5.717  68.799  1.00  0.00    -0.099 OA 
HETATM    6  C   UNL     1      -7.595   7.057  69.063  1.00  0.00    -0.104 C  
HETATM    7  H   UNL     1     -10.822   7.943  71.038  1.00  0.00     0.000 HD 
HETATM    8  C   UNL     1      -7.597   7.328  70.584  1.00  0.00    -0.091 C  
HETATM    9  O   UNL     1      -6.669   6.483  71.275  1.00  0.00    -0.055 OA 
HETATM   10  H   UNL     1     -11.011   5.790  72.085  1.00  0.00     0.000 HD 
HETATM   11  C   UNL     1      -9.005   7.096  71.140  1.00  0.00    -0.145 C  
HETATM   12  C   UNL     1      -9.520   5.698  70.771  1.00  0.00    -0.165 C  
HETATM   13  O   UNL     1      -9.948   8.087  70.694  1.00  0.00    -0.188 OA 
HETATM   14  H   UNL     1      -6.670   6.650  72.210  1.00  0.00     0.000 HD 
HETATM   15  O   UNL     1     -10.890   5.573  71.168  1.00  0.00    -0.239 OA 
BRANCH   6  16
HETATM   16  O   UNL     1      -8.394   7.966  68.308  1.00  0.00    -0.122 OA 
BRANCH  16  17
HETATM   17  C   UNL     1      -7.956   8.330  66.983  1.00  0.00    -0.100 C  
HETATM   18  O   UNL     1      -8.552   8.513  64.615  1.00  0.00    -0.320 OA 
HETATM   19  C   UNL     1      -9.077   8.289  65.931  1.00  0.00    -0.149 C  
HETATM   20  H   UNL     1      -9.245   8.488  63.965  1.00  0.00     0.000 HD 
HETATM   21  C   UNL     1      -9.457  10.738  66.325  1.00  0.00    -0.181 C  
HETATM   22  O   UNL     1     -10.836   9.032  67.446  1.00  0.00    -0.424 OA 
HETATM   23  C   UNL     1     -10.137   9.353  66.241  1.00  0.00    -0.258 C  
HETATM   24  O   UNL     1      -9.009  11.203  65.061  1.00  0.00    -0.312 OA 
HETATM   25  O   UNL     1      -8.395  10.753  67.283  1.00  0.00    -0.122 OA 
HETATM   26  H   UNL     1     -11.492   9.691  67.638  1.00  0.00     0.000 HD 
HETATM   27  H   UNL     1      -8.591  12.054  65.113  1.00  0.00     0.000 HD 
HETATM   28  C   UNL     1      -7.375   9.760  67.119  1.00  0.00    -0.087 C  
BRANCH  28  29
HETATM   29  C   UNL     1      -6.344  10.129  66.042  1.00  0.00    -0.094 C  
HETATM   30  O   UNL     1      -6.142  11.541  66.002  1.00  0.00    -0.422 OA 
HETATM   31  H   UNL     1      -5.505  11.770  65.336  1.00  0.00     0.000 HD 
ENDBRANCH  28  29
ENDBRANCH  16  17
ENDBRANCH   6  16
ENDBRANCH   3   4
TORSDOF 4
ENDMDL
MODEL      158
REMARK 921   NORMALIZED FREE ENERGY PREDICTED BY IDOCK:   -3.36 KCAL/MOL
REMARK 922        TOTAL FREE ENERGY PREDICTED BY IDOCK:   -5.45 KCAL/MOL
REMARK 923 INTER-LIGAND FREE ENERGY PREDICTED BY IDOCK:   -4.98 KCAL/MOL
REMARK 924 INTRA-LIGAND FREE ENERGY PREDICTED BY IDOCK:   -0.48 KCAL/MOL
REMARK 927      BINDING AFFINITY PREDICTED BY RF-SCORE:    0.00 PKD
ROOT
HETATM    1  O   UNL     1      -6.601  11.525  66.569  1.00  0.00    -0.277 OA 
HETATM    2  H   UNL     1      -6.051  12.299  66.564  1.00  0.00     0.000 HD 
HETATM    3  C   UNL     1      -6.823  11.082  67.909  1.00  0.00    -0.068 C  
ENDROOT
BRANCH   3   4
HETATM    4  C   UNL     1      -7.718   9.823  67.917  1.00  0.00    -0.087 C  
HETATM    5  O   UNL     1      -9.065  10.096  68.344  1.00  0.00    -0.128 OA 
HETATM    6  C   UNL     1      -9.953  10.639  67.363  1.00  0.00    -0.181 C  
HETATM    7  H   UNL     1      -7.285  10.525  64.541  1.00  0.00     0.000 HD 
HETATM    8  C   UNL     1     -10.058   9.687  66.151  1.00  0.00    -0.258 C  
HETATM    9  O   UNL     1     -10.615   8.419  66.518  1.00  0.00    -0.338 OA 
HETATM   10  H   UNL     1      -6.325   8.444  65.260  1.00  0.00     0.000 HD 
HETATM   11  C   UNL     1      -8.665   9.473  65.550  1.00  0.00    -0.154 C  
HETATM   12  C   UNL     1      -7.672   8.993  66.617  1.00  0.00    -0.096 C  
HETATM   13  O   UNL     1      -8.149  10.657  64.913  1.00  0.00    -0.127 OA 
HETATM   14  H   UNL     1     -10.680   7.834  65.773  1.00  0.00     0.000 HD 
HETATM   15  O   UNL     1      -6.353   8.956  66.060  1.00  0.00    -0.055 OA 
BRANCH   6  16
HETATM   16  O   UNL     1      -9.539  11.963  67.030  1.00  0.00    -0.185 OA 
BRANCH  16  17
HETATM   17  C   UNL     1     -10.549  12.928  66.670  1.00  0.00    -0.261 C  
HETATM   18  O   UNL     1     -12.754  13.863  67.182  1.00  0.00    -0.375 OA 
HETATM   19  C   UNL     1     -11.717  12.999  67.668  1.00  0.00    -0.366 C  
HETATM   20  H   UNL     1     -13.476  13.906  67.799  1.00  0.00     0.000 HD 
HETATM   21  C   UNL     1     -10.532  14.880  68.833  1.00  0.00    -0.242 C  
HETATM   22  O   UNL     1     -10.355  12.559  69.641  1.00  0.00    -0.086 OA 
HETATM   23  C   UNL     1     -11.226  13.513  69.027  1.00  0.00    -0.269 C  
HETATM   24  O   UNL     1     -11.448  15.912  68.500  1.00  0.00    -0.367 OA 
HETATM   25  O   UNL     1      -9.470  14.807  67.878  1.00  0.00    -0.197 OA 
HETATM   26  H   UNL     1     -10.051  12.878  70.483  1.00  0.00     0.000 HD 
HETATM   27  H   UNL     1     -11.021  16.753  68.381  1.00  0.00     0.000 HD 
HETATM   28  C   UNL     1      -9.809  14.288  66.587  1.00  0.00    -0.281 C  
BRANCH  28  29
HETATM   29  C   UNL     1     -10.488  15.324  65.680  1.00  0.00    -0.358 C  
HETATM   30  O   UNL     1      -9.927  15.290  64.369  1.00  0.00    -0.223 OA 
HETATM   31  H   UNL     1     -10.347  15.931  63.808  1.00  0.00     0.000 HD 
ENDBRANCH  28  29
ENDBRANCH  16  17
ENDBRANCH   6  16
ENDBRANCH   3   4
TORSDOF 4
ENDMDL
MODEL      159
REMARK 921   NORMALIZED FREE ENERGY PREDICTED BY IDOCK:   -3.34 KCAL/MOL
REMARK 922        TOTAL FREE ENERGY PREDICTED BY IDOCK:   -5.43 KCAL/MOL
REMARK 923 INTER-LIGAND FREE ENERGY PREDICTED BY IDOCK:   -4.77 KCAL/MOL
REMARK 924 INTRA-LIGAND FREE ENERGY PREDICTED BY IDOCK:   -0.67 KCAL/MOL
REMARK 927      BINDING AFFINITY PREDICTED BY RF-SCORE:    0.00 PKD
ROOT
HETATM    1  O   UNL     1     -12.218   6.612  70.825  1.00  0.00    -0.378 OA 
HETATM    2  H   UNL     1     -12.883   6.043  70.456  1.00  0.00     0.000 HD 
HETATM    3  C   UNL     1     -11.781   6.108  72.089  1.00  0.00    -0.309 C  
ENDROOT
BRANCH   3   4
HETATM    4  C   UNL     1     -10.700   7.032  72.690  1.00  0.00    -0.259 C  
HETATM    5  O   UNL     1      -9.362   6.561  72.449  1.00  0.00    -0.138 OA 
HETATM    6  C   UNL     1      -8.800   6.850  71.166  1.00  0.00    -0.142 C  
HETATM    7  H   UNL     1     -11.927   8.827  69.979  1.00  0.00     0.000 HD 
HETATM    8  C   UNL     1      -8.782   8.375  70.921  1.00  0.00    -0.154 C  
HETATM    9  O   UNL     1      -7.951   9.056  71.870  1.00  0.00    -0.348 OA 
HETATM   10  H   UNL     1     -12.346   9.836  72.117  1.00  0.00     0.000 HD 
HETATM   11  C   UNL     1     -10.209   8.922  71.014  1.00  0.00    -0.254 C  
HETATM   12  C   UNL     1     -10.866   8.527  72.343  1.00  0.00    -0.308 C  
HETATM   13  O   UNL     1     -11.041   8.489  69.921  1.00  0.00    -0.218 OA 
HETATM   14  H   UNL     1      -7.940   9.993  71.719  1.00  0.00     0.000 HD 
HETATM   15  O   UNL     1     -12.244   8.916  72.330  1.00  0.00    -0.358 OA 
BRANCH   6  16
HETATM   16  O   UNL     1      -9.495   6.107  70.165  1.00  0.00    -0.156 OA 
BRANCH  16  17
HETATM   17  C   UNL     1      -9.122   6.298  68.785  1.00  0.00    -0.127 C  
HETATM   18  O   UNL     1      -7.356   6.089  67.100  1.00  0.00    -0.074 OA 
HETATM   19  C   UNL     1      -7.731   5.740  68.440  1.00  0.00    -0.096 C  
HETATM   20  H   UNL     1      -6.497   5.744  66.887  1.00  0.00     0.000 HD 
HETATM   21  C   UNL     1      -8.832   3.608  67.703  1.00  0.00    -0.121 C  
HETATM   22  O   UNL     1      -7.867   3.838  69.958  1.00  0.00    -0.048 OA 
HETATM   23  C   UNL     1      -7.718   4.213  68.587  1.00  0.00    -0.062 C  
HETATM   24  O   UNL     1      -8.548   3.721  66.317  1.00  0.00    -0.109 OA 
HETATM   25  O   UNL     1     -10.115   4.160  68.012  1.00  0.00    -0.010 OA 
HETATM   26  H   UNL     1      -7.860   2.893  70.049  1.00  0.00     0.000 HD 
HETATM   27  H   UNL     1      -9.233   3.349  65.774  1.00  0.00     0.000 HD 
HETATM   28  C   UNL     1     -10.224   5.587  67.958  1.00  0.00    -0.181 C  
BRANCH  28  29
HETATM   29  C   UNL     1     -10.389   6.126  66.529  1.00  0.00    -0.123 C  
HETATM   30  O   UNL     1     -11.249   5.278  65.769  1.00  0.00    -0.791 OA 
HETATM   31  H   UNL     1     -11.351   5.611  64.886  1.00  0.00     0.000 HD 
ENDBRANCH  28  29
ENDBRANCH  16  17
ENDBRANCH   6  16
ENDBRANCH   3   4
TORSDOF 4
ENDMDL
MODEL      160
REMARK 921   NORMALIZED FREE ENERGY PREDICTED BY IDOCK:   -3.28 KCAL/MOL
REMARK 922        TOTAL FREE ENERGY PREDICTED BY IDOCK:   -5.36 KCAL/MOL
REMARK 923 INTER-LIGAND FREE ENERGY PREDICTED BY IDOCK:   -5.17 KCAL/MOL
REMARK 924 INTRA-LIGAND FREE ENERGY PREDICTED BY IDOCK:   -0.18 KCAL/MOL
REMARK 927      BINDING AFFINITY PREDICTED BY RF-SCORE:    0.00 PKD
ROOT
HETATM    1  O   UNL     1     -12.136  14.066  63.340  1.00  0.00    -0.919 OA 
HETATM    2  H   UNL     1     -11.923  14.660  62.630  1.00  0.00     0.000 HD 
HETATM    3  C   UNL     1     -11.108  14.090  64.332  1.00  0.00    -0.286 C  
ENDROOT
BRANCH   3   4
HETATM    4  C   UNL     1     -11.454  13.124  65.486  1.00  0.00    -0.315 C  
HETATM    5  O   UNL     1     -10.301  12.726  66.249  1.00  0.00    -0.250 OA 
HETATM    6  C   UNL     1      -9.840  13.643  67.245  1.00  0.00    -0.241 C  
HETATM    7  H   UNL     1     -12.693  16.190  66.557  1.00  0.00     0.000 HD 
HETATM    8  C   UNL     1     -10.964  13.936  68.264  1.00  0.00    -0.255 C  
HETATM    9  O   UNL     1     -11.356  12.755  68.976  1.00  0.00    -0.264 OA 
HETATM   10  H   UNL     1     -14.369  14.512  66.178  1.00  0.00     0.000 HD 
HETATM   11  C   UNL     1     -12.179  14.510  67.530  1.00  0.00    -0.121 C  
HETATM   12  C   UNL     1     -12.620  13.587  66.385  1.00  0.00    -0.186 C  
HETATM   13  O   UNL     1     -11.940  15.833  67.013  1.00  0.00     0.374 OA 
HETATM   14  H   UNL     1     -12.047  12.935  69.602  1.00  0.00     0.000 HD 
HETATM   15  O   UNL     1     -13.651  14.227  65.625  1.00  0.00    -0.394 OA 
BRANCH   6  16
HETATM   16  O   UNL     1      -9.312  14.807  66.611  1.00  0.00    -0.240 OA 
BRANCH  16  17
HETATM   17  C   UNL     1      -8.965  15.940  67.432  1.00  0.00    -0.192 C  
HETATM   18  O   UNL     1      -7.799  16.728  69.437  1.00  0.00    -0.128 OA 
HETATM   19  C   UNL     1      -7.988  15.600  68.570  1.00  0.00    -0.138 C  
HETATM   20  H   UNL     1      -7.195  16.517  70.140  1.00  0.00     0.000 HD 
HETATM   21  C   UNL     1      -6.095  16.285  67.071  1.00  0.00    -0.039 C  
HETATM   22  O   UNL     1      -6.749  13.922  67.310  1.00  0.00    -0.393 OA 
HETATM   23  C   UNL     1      -6.632  15.171  67.997  1.00  0.00    -0.145 C  
HETATM   24  O   UNL     1      -5.699  17.444  67.788  1.00  0.00    -0.126 OA 
HETATM   25  O   UNL     1      -7.028  16.614  66.038  1.00  0.00     0.015 OA 
HETATM   26  H   UNL     1      -5.909  13.656  66.955  1.00  0.00     0.000 HD 
HETATM   27  H   UNL     1      -5.369  18.130  67.219  1.00  0.00     0.000 HD 
HETATM   28  C   UNL     1      -8.347  16.978  66.462  1.00  0.00    -0.278 C  
BRANCH  28  29
HETATM   29  C   UNL     1      -8.443  18.433  66.946  1.00  0.00    -0.265 C  
HETATM   30  O   UNL     1      -9.337  19.179  66.122  1.00  0.00    -0.388 OA 
HETATM   31  H   UNL     1      -9.397  20.078  66.420  1.00  0.00     0.000 HD 
ENDBRANCH  28  29
ENDBRANCH  16  17
ENDBRANCH   6  16
ENDBRANCH   3   4
TORSDOF 4
ENDMDL
MODEL      161
REMARK 921   NORMALIZED FREE ENERGY PREDICTED BY IDOCK:   -3.28 KCAL/MOL
REMARK 922        TOTAL FREE ENERGY PREDICTED BY IDOCK:   -5.36 KCAL/MOL
REMARK 923 INTER-LIGAND FREE ENERGY PREDICTED BY IDOCK:   -4.48 KCAL/MOL
REMARK 924 INTRA-LIGAND FREE ENERGY PREDICTED BY IDOCK:   -0.88 KCAL/MOL
REMARK 927      BINDING AFFINITY PREDICTED BY RF-SCORE:    0.00 PKD
ROOT
HETATM    1  O   UNL     1     -12.157  11.674  67.735  1.00  0.00    -0.613 OA 
HETATM    2  H   UNL     1     -13.028  11.295  67.741  1.00  0.00     0.000 HD 
HETATM    3  C   UNL     1     -11.177  10.671  68.010  1.00  0.00    -0.307 C  
ENDROOT
BRANCH   3   4
HETATM    4  C   UNL     1      -9.761  11.287  68.000  1.00  0.00    -0.179 C  
HETATM    5  O   UNL     1      -8.750  10.376  68.467  1.00  0.00    -0.123 OA 
HETATM    6  C   UNL     1      -8.266   9.415  67.525  1.00  0.00    -0.117 C  
HETATM    7  H   UNL     1     -10.480  10.778  64.638  1.00  0.00     0.000 HD 
HETATM    8  C   UNL     1      -7.680  10.128  66.286  1.00  0.00    -0.110 C  
HETATM    9  O   UNL     1      -6.549  10.940  66.627  1.00  0.00    -0.100 OA 
HETATM   10  H   UNL     1     -10.232  13.082  65.269  1.00  0.00     0.000 HD 
HETATM   11  C   UNL     1      -8.759  11.005  65.646  1.00  0.00    -0.157 C  
HETATM   12  C   UNL     1      -9.367  11.971  66.674  1.00  0.00    -0.219 C  
HETATM   13  O   UNL     1      -9.810  10.234  65.035  1.00  0.00    -0.287 OA 
HETATM   14  H   UNL     1      -6.189  11.379  65.866  1.00  0.00     0.000 HD 
HETATM   15  O   UNL     1     -10.475  12.661  66.085  1.00  0.00    -0.250 OA 
BRANCH   6  16
HETATM   16  O   UNL     1      -9.302   8.481  67.224  1.00  0.00    -0.143 OA 
BRANCH  16  17
HETATM   17  C   UNL     1      -8.937   7.113  66.954  1.00  0.00    -0.134 C  
HETATM   18  O   UNL     1      -7.666   5.155  67.695  1.00  0.00    -0.087 OA 
HETATM   19  C   UNL     1      -8.125   6.458  68.083  1.00  0.00    -0.113 C  
HETATM   20  H   UNL     1      -7.164   4.750  68.394  1.00  0.00     0.000 HD 
HETATM   21  C   UNL     1     -10.268   5.554  69.024  1.00  0.00    -0.228 C  
HETATM   22  O   UNL     1      -9.264   7.629  69.891  1.00  0.00    -0.148 OA 
HETATM   23  C   UNL     1      -8.977   6.337  69.352  1.00  0.00    -0.126 C  
HETATM   24  O   UNL     1     -10.022   4.180  68.766  1.00  0.00    -0.076 OA 
HETATM   25  O   UNL     1     -10.998   6.155  67.950  1.00  0.00    -0.312 OA 
HETATM   26  H   UNL     1      -9.793   7.555  70.677  1.00  0.00     0.000 HD 
HETATM   27  H   UNL     1     -10.815   3.699  68.564  1.00  0.00     0.000 HD 
HETATM   28  C   UNL     1     -10.276   6.365  66.730  1.00  0.00    -0.195 C  
BRANCH  28  29
HETATM   29  C   UNL     1     -10.158   5.095  65.874  1.00  0.00    -0.123 C  
HETATM   30  O   UNL     1     -11.372   4.348  65.913  1.00  0.00    -0.331 OA 
HETATM   31  H   UNL     1     -11.299   3.563  65.384  1.00  0.00     0.000 HD 
ENDBRANCH  28  29
ENDBRANCH  16  17
ENDBRANCH   6  16
ENDBRANCH   3   4
TORSDOF 4
ENDMDL
MODEL      162
REMARK 921   NORMALIZED FREE ENERGY PREDICTED BY IDOCK:   -3.26 KCAL/MOL
REMARK 922        TOTAL FREE ENERGY PREDICTED BY IDOCK:   -5.33 KCAL/MOL
REMARK 923 INTER-LIGAND FREE ENERGY PREDICTED BY IDOCK:   -4.62 KCAL/MOL
REMARK 924 INTRA-LIGAND FREE ENERGY PREDICTED BY IDOCK:   -0.72 KCAL/MOL
REMARK 927      BINDING AFFINITY PREDICTED BY RF-SCORE:    0.00 PKD
ROOT
HETATM    1  O   UNL     1      -8.852   4.847  68.410  1.00  0.00    -0.100 OA 
HETATM    2  H   UNL     1      -8.773   4.258  69.151  1.00  0.00     0.000 HD 
HETATM    3  C   UNL     1     -10.045   4.565  67.677  1.00  0.00    -0.015 C  
ENDROOT
BRANCH   3   4
HETATM    4  C   UNL     1     -10.173   5.523  66.472  1.00  0.00    -0.228 C  
HETATM    5  O   UNL     1     -11.088   6.607  66.712  1.00  0.00    -0.354 OA 
HETATM    6  C   UNL     1     -10.587   7.719  67.457  1.00  0.00    -0.248 C  
HETATM    7  H   UNL     1      -7.019   6.210  67.760  1.00  0.00     0.000 HD 
HETATM    8  C   UNL     1      -9.358   8.329  66.747  1.00  0.00    -0.182 C  
HETATM    9  O   UNL     1      -9.695   8.849  65.454  1.00  0.00    -0.455 OA 
HETATM   10  H   UNL     1      -7.012   5.273  65.549  1.00  0.00     0.000 HD 
HETATM   11  C   UNL     1      -8.275   7.257  66.595  1.00  0.00    -0.118 C  
HETATM   12  C   UNL     1      -8.828   6.010  65.891  1.00  0.00    -0.149 C  
HETATM   13  O   UNL     1      -7.691   6.876  67.854  1.00  0.00    -0.108 OA 
HETATM   14  H   UNL     1      -8.939   9.223  65.018  1.00  0.00     0.000 HD 
HETATM   15  O   UNL     1      -7.840   4.973  65.907  1.00  0.00    -0.090 OA 
BRANCH   6  16
HETATM   16  O   UNL     1     -10.341   7.317  68.804  1.00  0.00    -0.191 OA 
BRANCH  16  17
HETATM   17  C   UNL     1     -10.205   8.339  69.812  1.00  0.00    -0.204 C  
HETATM   18  O   UNL     1     -11.360   9.866  71.340  1.00  0.00    -0.364 OA 
HETATM   19  C   UNL     1     -11.539   8.749  70.458  1.00  0.00    -0.147 C  
HETATM   20  H   UNL     1     -12.185  10.119  71.739  1.00  0.00     0.000 HD 
HETATM   21  C   UNL     1     -11.103   7.084  72.284  1.00  0.00    -0.252 C  
HETATM   22  O   UNL     1     -12.532   6.525  70.357  1.00  0.00    -0.369 OA 
HETATM   23  C   UNL     1     -12.135   7.574  71.244  1.00  0.00    -0.323 C  
HETATM   24  O   UNL     1     -10.913   8.011  73.341  1.00  0.00    -0.172 OA 
HETATM   25  O   UNL     1      -9.856   6.737  71.675  1.00  0.00    -0.167 OA 
HETATM   26  H   UNL     1     -12.901   5.798  70.844  1.00  0.00     0.000 HD 
HETATM   27  H   UNL     1     -10.279   7.710  73.981  1.00  0.00     0.000 HD 
HETATM   28  C   UNL     1      -9.238   7.748  70.870  1.00  0.00    -0.152 C  
BRANCH  28  29
HETATM   29  C   UNL     1      -8.485   8.801  71.697  1.00  0.00    -0.141 C  
HETATM   30  O   UNL     1      -7.117   8.868  71.300  1.00  0.00    -0.088 OA 
HETATM   31  H   UNL     1      -6.651   9.519  71.812  1.00  0.00     0.000 HD 
ENDBRANCH  28  29
ENDBRANCH  16  17
ENDBRANCH   6  16
ENDBRANCH   3   4
TORSDOF 4
ENDMDL
MODEL      163
REMARK 921   NORMALIZED FREE ENERGY PREDICTED BY IDOCK:   -3.23 KCAL/MOL
REMARK 922        TOTAL FREE ENERGY PREDICTED BY IDOCK:   -5.29 KCAL/MOL
REMARK 923 INTER-LIGAND FREE ENERGY PREDICTED BY IDOCK:   -4.37 KCAL/MOL
REMARK 924 INTRA-LIGAND FREE ENERGY PREDICTED BY IDOCK:   -0.93 KCAL/MOL
REMARK 927      BINDING AFFINITY PREDICTED BY RF-SCORE:    0.00 PKD
ROOT
HETATM    1  O   UNL     1     -10.288   3.785  65.847  1.00  0.00    -0.409 OA 
HETATM    2  H   UNL     1     -11.106   3.305  65.888  1.00  0.00     0.000 HD 
HETATM    3  C   UNL     1     -10.098   4.545  67.042  1.00  0.00    -0.138 C  
ENDROOT
BRANCH   3   4
HETATM    4  C   UNL     1      -8.768   5.327  66.975  1.00  0.00    -0.107 C  
HETATM    5  O   UNL     1      -8.874   6.660  67.503  1.00  0.00    -0.118 OA 
HETATM    6  C   UNL     1      -8.804   6.797  68.925  1.00  0.00    -0.128 C  
HETATM    7  H   UNL     1      -8.244   2.994  69.497  1.00  0.00     0.000 HD 
HETATM    8  C   UNL     1      -7.473   6.217  69.453  1.00  0.00    -0.093 C  
HETATM    9  O   UNL     1      -6.342   6.932  68.939  1.00  0.00    -0.026 OA 
HETATM   10  H   UNL     1      -6.847   2.707  67.566  1.00  0.00     0.000 HD 
HETATM   11  C   UNL     1      -7.365   4.743  69.052  1.00  0.00    -0.053 C  
HETATM   12  C   UNL     1      -7.547   4.569  67.538  1.00  0.00    -0.078 C  
HETATM   13  O   UNL     1      -8.311   3.909  69.747  1.00  0.00    -0.056 OA 
HETATM   14  H   UNL     1      -5.524   6.576  69.264  1.00  0.00     0.000 HD 
HETATM   15  O   UNL     1      -7.598   3.174  67.220  1.00  0.00    -0.072 OA 
BRANCH   6  16
HETATM   16  O   UNL     1      -9.966   6.217  69.516  1.00  0.00    -0.156 OA 
BRANCH  16  17
HETATM   17  C   UNL     1     -11.068   7.081  69.857  1.00  0.00    -0.264 C  
HETATM   18  O   UNL     1     -13.162   7.324  71.106  1.00  0.00    -0.540 OA 
HETATM   19  C   UNL     1     -12.011   6.489  70.918  1.00  0.00    -0.291 C  
HETATM   20  H   UNL     1     -13.744   6.958  71.762  1.00  0.00     0.000 HD 
HETATM   21  C   UNL     1     -10.696   7.700  72.680  1.00  0.00    -0.321 C  
HETATM   22  O   UNL     1     -10.259   5.333  72.156  1.00  0.00    -0.186 OA 
HETATM   23  C   UNL     1     -11.276   6.332  72.255  1.00  0.00    -0.283 C  
HETATM   24  O   UNL     1     -11.704   8.623  73.064  1.00  0.00    -0.014 OA 
HETATM   25  O   UNL     1      -9.848   8.255  71.671  1.00  0.00    -0.169 OA 
HETATM   26  H   UNL     1      -9.803   5.236  72.984  1.00  0.00     0.000 HD 
HETATM   27  H   UNL     1     -11.347   9.463  73.325  1.00  0.00     0.000 HD 
HETATM   28  C   UNL     1     -10.420   8.395  70.365  1.00  0.00    -0.214 C  
BRANCH  28  29
HETATM   29  C   UNL     1     -11.314   9.636  70.228  1.00  0.00    -0.257 C  
HETATM   30  O   UNL     1     -11.325  10.102  68.880  1.00  0.00    -0.394 OA 
HETATM   31  H   UNL     1     -11.878  10.870  68.796  1.00  0.00     0.000 HD 
ENDBRANCH  28  29
ENDBRANCH  16  17
ENDBRANCH   6  16
ENDBRANCH   3   4
TORSDOF 4
ENDMDL
MODEL      164
REMARK 921   NORMALIZED FREE ENERGY PREDICTED BY IDOCK:   -3.21 KCAL/MOL
REMARK 922        TOTAL FREE ENERGY PREDICTED BY IDOCK:   -5.28 KCAL/MOL
REMARK 923 INTER-LIGAND FREE ENERGY PREDICTED BY IDOCK:   -4.22 KCAL/MOL
REMARK 924 INTRA-LIGAND FREE ENERGY PREDICTED BY IDOCK:   -1.06 KCAL/MOL
REMARK 927      BINDING AFFINITY PREDICTED BY RF-SCORE:    0.00 PKD
ROOT
HETATM    1  O   UNL     1     -11.416   4.679  65.457  1.00  0.00    -0.924 OA 
HETATM    2  H   UNL     1     -12.323   4.697  65.738  1.00  0.00     0.000 HD 
HETATM    3  C   UNL     1     -10.556   5.052  66.534  1.00  0.00    -0.231 C  
ENDROOT
BRANCH   3   4
HETATM    4  C   UNL     1      -9.081   5.024  66.077  1.00  0.00    -0.146 C  
HETATM    5  O   UNL     1      -8.243   5.916  66.833  1.00  0.00    -0.105 OA 
HETATM    6  C   UNL     1      -7.787   5.448  68.105  1.00  0.00    -0.092 C  
HETATM    7  H   UNL     1      -9.511   1.988  67.714  1.00  0.00     0.000 HD 
HETATM    8  C   UNL     1      -6.994   4.133  67.939  1.00  0.00    -0.059 C  
HETATM    9  O   UNL     1      -5.813   4.321  67.149  1.00  0.00    -0.021 OA 
HETATM   10  H   UNL     1      -9.046   1.800  65.365  1.00  0.00     0.000 HD 
HETATM   11  C   UNL     1      -7.887   3.082  67.272  1.00  0.00    -0.074 C  
HETATM   12  C   UNL     1      -8.472   3.611  65.955  1.00  0.00    -0.111 C  
HETATM   13  O   UNL     1      -8.957   2.640  68.128  1.00  0.00    -0.117 OA 
HETATM   14  H   UNL     1      -5.326   3.512  67.047  1.00  0.00     0.000 HD 
HETATM   15  O   UNL     1      -9.421   2.670  65.441  1.00  0.00    -0.102 OA 
BRANCH   6  16
HETATM   16  O   UNL     1      -8.894   5.352  69.000  1.00  0.00    -0.100 OA 
BRANCH  16  17
HETATM   17  C   UNL     1      -9.495   6.570  69.484  1.00  0.00    -0.146 C  
HETATM   18  O   UNL     1     -11.350   7.578  70.726  1.00  0.00    -0.273 OA 
HETATM   19  C   UNL     1     -10.709   6.337  70.399  1.00  0.00    -0.271 C  
HETATM   20  H   UNL     1     -12.100   7.433  71.291  1.00  0.00     0.000 HD 
HETATM   21  C   UNL     1      -9.172   6.472  72.378  1.00  0.00    -0.136 C  
HETATM   22  O   UNL     1      -9.837   4.303  71.419  1.00  0.00    -0.177 OA 
HETATM   23  C   UNL     1     -10.275   5.636  71.692  1.00  0.00    -0.208 C  
HETATM   24  O   UNL     1      -9.667   7.689  72.917  1.00  0.00    -0.182 OA 
HETATM   25  O   UNL     1      -8.064   6.710  71.506  1.00  0.00    -0.109 OA 
HETATM   26  H   UNL     1      -9.567   3.869  72.220  1.00  0.00     0.000 HD 
HETATM   27  H   UNL     1      -8.989   8.203  73.338  1.00  0.00     0.000 HD 
HETATM   28  C   UNL     1      -8.366   7.313  70.243  1.00  0.00    -0.135 C  
BRANCH  28  29
HETATM   29  C   UNL     1      -8.559   8.835  70.333  1.00  0.00    -0.163 C  
HETATM   30  O   UNL     1      -7.650   9.402  71.275  1.00  0.00    -0.333 OA 
HETATM   31  H   UNL     1      -7.770  10.342  71.331  1.00  0.00     0.000 HD 
ENDBRANCH  28  29
ENDBRANCH  16  17
ENDBRANCH   6  16
ENDBRANCH   3   4
TORSDOF 4
ENDMDL
MODEL      165
REMARK 921   NORMALIZED FREE ENERGY PREDICTED BY IDOCK:   -3.21 KCAL/MOL
REMARK 922        TOTAL FREE ENERGY PREDICTED BY IDOCK:   -5.26 KCAL/MOL
REMARK 923 INTER-LIGAND FREE ENERGY PREDICTED BY IDOCK:   -4.84 KCAL/MOL
REMARK 924 INTRA-LIGAND FREE ENERGY PREDICTED BY IDOCK:   -0.42 KCAL/MOL
REMARK 927      BINDING AFFINITY PREDICTED BY RF-SCORE:    0.00 PKD
ROOT
HETATM    1  O   UNL     1     -10.236   7.296  70.978  1.00  0.00    -0.193 OA 
HETATM    2  H   UNL     1     -10.324   7.973  71.637  1.00  0.00     0.000 HD 
HETATM    3  C   UNL     1     -11.229   7.457  69.963  1.00  0.00    -0.180 C  
ENDROOT
BRANCH   3   4
HETATM    4  C   UNL     1     -11.085   6.355  68.891  1.00  0.00    -0.348 C  
HETATM    5  O   UNL     1     -11.356   6.829  67.560  1.00  0.00    -0.242 OA 
HETATM    6  C   UNL     1     -10.295   7.521  66.895  1.00  0.00    -0.309 C  
HETATM    7  H   UNL     1      -7.812   7.034  69.843  1.00  0.00     0.000 HD 
HETATM    8  C   UNL     1      -9.046   6.617  66.796  1.00  0.00    -0.142 C  
HETATM    9  O   UNL     1      -9.299   5.446  66.009  1.00  0.00    -0.156 OA 
HETATM   10  H   UNL     1      -8.568   4.817  70.374  1.00  0.00     0.000 HD 
HETATM   11  C   UNL     1      -8.610   6.197  68.202  1.00  0.00    -0.115 C  
HETATM   12  C   UNL     1      -9.771   5.549  68.970  1.00  0.00    -0.144 C  
HETATM   13  O   UNL     1      -8.082   7.294  68.970  1.00  0.00    -0.120 OA 
HETATM   14  H   UNL     1      -8.531   4.891  65.948  1.00  0.00     0.000 HD 
HETATM   15  O   UNL     1      -9.376   5.314  70.326  1.00  0.00    -0.147 OA 
BRANCH   6  16
HETATM   16  O   UNL     1     -10.061   8.769  67.545  1.00  0.00    -0.189 OA 
BRANCH  16  17
HETATM   17  C   UNL     1      -9.369   9.804  66.818  1.00  0.00    -0.152 C  
HETATM   18  O   UNL     1      -9.576  11.773  65.376  1.00  0.00    -0.249 OA 
HETATM   19  C   UNL     1     -10.306  10.859  66.207  1.00  0.00    -0.250 C  
HETATM   20  H   UNL     1     -10.156  12.425  64.999  1.00  0.00     0.000 HD 
HETATM   21  C   UNL     1      -9.964  12.266  68.257  1.00  0.00    -0.216 C  
HETATM   22  O   UNL     1     -11.929  10.799  68.024  1.00  0.00    -0.780 OA 
HETATM   23  C   UNL     1     -11.019  11.644  67.316  1.00  0.00    -0.267 C  
HETATM   24  O   UNL     1      -9.240  13.320  67.643  1.00  0.00    -0.192 OA 
HETATM   25  O   UNL     1      -9.079  11.278  68.792  1.00  0.00    -0.174 OA 
HETATM   26  H   UNL     1     -12.371  11.284  68.710  1.00  0.00     0.000 HD 
HETATM   27  H   UNL     1      -8.591  13.703  68.222  1.00  0.00     0.000 HD 
HETATM   28  C   UNL     1      -8.400  10.450  67.841  1.00  0.00    -0.114 C  
BRANCH  28  29
HETATM   29  C   UNL     1      -7.178  11.134  67.210  1.00  0.00    -0.113 C  
HETATM   30  O   UNL     1      -6.086  11.158  68.129  1.00  0.00    -0.049 OA 
HETATM   31  H   UNL     1      -5.331  11.582  67.739  1.00  0.00     0.000 HD 
ENDBRANCH  28  29
ENDBRANCH  16  17
ENDBRANCH   6  16
ENDBRANCH   3   4
TORSDOF 4
ENDMDL
MODEL      166
REMARK 921   NORMALIZED FREE ENERGY PREDICTED BY IDOCK:   -3.17 KCAL/MOL
REMARK 922        TOTAL FREE ENERGY PREDICTED BY IDOCK:   -5.22 KCAL/MOL
REMARK 923 INTER-LIGAND FREE ENERGY PREDICTED BY IDOCK:   -4.01 KCAL/MOL
REMARK 924 INTRA-LIGAND FREE ENERGY PREDICTED BY IDOCK:   -1.21 KCAL/MOL
REMARK 927      BINDING AFFINITY PREDICTED BY RF-SCORE:    0.00 PKD
ROOT
HETATM    1  O   UNL     1     -10.329   7.841  73.346  1.00  0.00    -0.332 OA 
HETATM    2  H   UNL     1     -11.093   8.394  73.463  1.00  0.00     0.000 HD 
HETATM    3  C   UNL     1      -9.830   7.962  72.013  1.00  0.00    -0.192 C  
ENDROOT
BRANCH   3   4
HETATM    4  C   UNL     1      -8.589   7.063  71.821  1.00  0.00    -0.114 C  
HETATM    5  O   UNL     1      -8.463   6.558  70.480  1.00  0.00    -0.134 OA 
HETATM    6  C   UNL     1      -7.890   7.441  69.511  1.00  0.00    -0.121 C  
HETATM    7  H   UNL     1      -7.270  10.266  72.106  1.00  0.00     0.000 HD 
HETATM    8  C   UNL     1      -6.475   7.874  69.954  1.00  0.00    -0.037 C  
HETATM    9  O   UNL     1      -5.580   6.758  70.039  1.00  0.00    -0.018 OA 
HETATM   10  H   UNL     1      -6.657   8.771  73.883  1.00  0.00     0.000 HD 
HETATM   11  C   UNL     1      -6.558   8.561  71.320  1.00  0.00    -0.062 C  
HETATM   12  C   UNL     1      -7.269   7.668  72.346  1.00  0.00    -0.077 C  
HETATM   13  O   UNL     1      -7.218   9.839  71.259  1.00  0.00    -0.309 OA 
HETATM   14  H   UNL     1      -4.710   7.024  70.311  1.00  0.00     0.000 HD 
HETATM   15  O   UNL     1      -7.469   8.399  73.560  1.00  0.00    -0.246 OA 
BRANCH   6  16
HETATM   16  O   UNL     1      -8.783   8.527  69.271  1.00  0.00    -0.131 OA 
BRANCH  16  17
HETATM   17  C   UNL     1      -9.213   8.777  67.918  1.00  0.00    -0.139 C  
HETATM   18  O   UNL     1     -10.513  10.217  66.422  1.00  0.00    -0.224 OA 
HETATM   19  C   UNL     1      -9.985  10.097  67.751  1.00  0.00    -0.168 C  
HETATM   20  H   UNL     1     -10.990  11.033  66.319  1.00  0.00     0.000 HD 
HETATM   21  C   UNL     1      -7.828  11.213  67.123  1.00  0.00    -0.139 C  
HETATM   22  O   UNL     1      -8.704  11.322  69.422  1.00  0.00    -0.364 OA 
HETATM   23  C   UNL     1      -9.068  11.291  68.040  1.00  0.00    -0.156 C  
HETATM   24  O   UNL     1      -8.139  11.472  65.762  1.00  0.00    -0.369 OA 
HETATM   25  O   UNL     1      -7.138   9.968  67.264  1.00  0.00    -0.083 OA 
HETATM   26  H   UNL     1      -8.135  12.062  69.602  1.00  0.00     0.000 HD 
HETATM   27  H   UNL     1      -7.377  11.424  65.198  1.00  0.00     0.000 HD 
HETATM   28  C   UNL     1      -7.918   8.783  67.068  1.00  0.00    -0.095 C  
BRANCH  28  29
HETATM   29  C   UNL     1      -8.131   8.441  65.585  1.00  0.00    -0.125 C  
HETATM   30  O   UNL     1      -9.267   7.592  65.424  1.00  0.00    -0.375 OA 
HETATM   31  H   UNL     1      -9.399   7.381  64.508  1.00  0.00     0.000 HD 
ENDBRANCH  28  29
ENDBRANCH  16  17
ENDBRANCH   6  16
ENDBRANCH   3   4
TORSDOF 4
ENDMDL
MODEL      167
REMARK 921   NORMALIZED FREE ENERGY PREDICTED BY IDOCK:   -3.12 KCAL/MOL
REMARK 922        TOTAL FREE ENERGY PREDICTED BY IDOCK:   -5.15 KCAL/MOL
REMARK 923 INTER-LIGAND FREE ENERGY PREDICTED BY IDOCK:   -4.35 KCAL/MOL
REMARK 924 INTRA-LIGAND FREE ENERGY PREDICTED BY IDOCK:   -0.80 KCAL/MOL
REMARK 927      BINDING AFFINITY PREDICTED BY RF-SCORE:    0.00 PKD
ROOT
HETATM    1  O   UNL     1      -6.821   6.189  72.068  1.00  0.00    -0.069 OA 
HETATM    2  H   UNL     1      -5.967   6.005  71.698  1.00  0.00     0.000 HD 
HETATM    3  C   UNL     1      -7.742   6.549  71.036  1.00  0.00    -0.094 C  
ENDROOT
BRANCH   3   4
HETATM    4  C   UNL     1      -9.132   6.849  71.638  1.00  0.00    -0.139 C  
HETATM    5  O   UNL     1      -9.783   7.970  71.014  1.00  0.00    -0.159 OA 
HETATM    6  C   UNL     1     -10.449   7.719  69.774  1.00  0.00    -0.233 C  
HETATM    7  H   UNL     1      -9.615   3.924  69.824  1.00  0.00     0.000 HD 
HETATM    8  C   UNL     1     -11.527   6.628  69.956  1.00  0.00    -0.375 C  
HETATM    9  O   UNL     1     -12.552   7.041  70.869  1.00  0.00    -0.518 OA 
HETATM   10  H   UNL     1      -9.908   3.688  72.196  1.00  0.00     0.000 HD 
HETATM   11  C   UNL     1     -10.871   5.347  70.479  1.00  0.00    -0.130 C  
HETATM   12  C   UNL     1     -10.061   5.622  71.754  1.00  0.00    -0.192 C  
HETATM   13  O   UNL     1     -10.023   4.719  69.500  1.00  0.00    -0.209 OA 
HETATM   14  H   UNL     1     -13.215   6.371  70.982  1.00  0.00     0.000 HD 
HETATM   15  O   UNL     1      -9.336   4.444  72.124  1.00  0.00    -0.123 OA 
BRANCH   6  16
HETATM   16  O   UNL     1      -9.482   7.420  68.768  1.00  0.00    -0.144 OA 
BRANCH  16  17
HETATM   17  C   UNL     1      -8.651   8.489  68.274  1.00  0.00    -0.139 C  
HETATM   18  O   UNL     1      -7.043   9.203  66.570  1.00  0.00    -0.080 OA 
HETATM   19  C   UNL     1      -7.967   8.169  66.934  1.00  0.00    -0.104 C  
HETATM   20  H   UNL     1      -6.621   9.005  65.742  1.00  0.00     0.000 HD 
HETATM   21  C   UNL     1      -9.876   9.295  65.756  1.00  0.00    -0.231 C  
HETATM   22  O   UNL     1      -9.815   6.850  66.047  1.00  0.00    -0.404 OA 
HETATM   23  C   UNL     1      -9.015   8.014  65.825  1.00  0.00    -0.102 C  
HETATM   24  O   UNL     1      -9.154  10.409  65.253  1.00  0.00    -0.171 OA 
HETATM   25  O   UNL     1     -10.479   9.600  67.017  1.00  0.00    -0.247 OA 
HETATM   26  H   UNL     1     -10.464   6.754  65.360  1.00  0.00     0.000 HD 
HETATM   27  H   UNL     1      -9.683  11.197  65.211  1.00  0.00     0.000 HD 
HETATM   28  C   UNL     1      -9.592   9.713  68.136  1.00  0.00    -0.143 C  
BRANCH  28  29
HETATM   29  C   UNL     1      -8.878  11.071  68.204  1.00  0.00    -0.141 C  
HETATM   30  O   UNL     1      -9.826  12.135  68.255  1.00  0.00    -0.204 OA 
HETATM   31  H   UNL     1      -9.385  12.975  68.296  1.00  0.00     0.000 HD 
ENDBRANCH  28  29
ENDBRANCH  16  17
ENDBRANCH   6  16
ENDBRANCH   3   4
TORSDOF 4
ENDMDL
MODEL      168
REMARK 921   NORMALIZED FREE ENERGY PREDICTED BY IDOCK:   -3.03 KCAL/MOL
REMARK 922        TOTAL FREE ENERGY PREDICTED BY IDOCK:   -5.05 KCAL/MOL
REMARK 923 INTER-LIGAND FREE ENERGY PREDICTED BY IDOCK:   -4.04 KCAL/MOL
REMARK 924 INTRA-LIGAND FREE ENERGY PREDICTED BY IDOCK:   -1.01 KCAL/MOL
REMARK 927      BINDING AFFINITY PREDICTED BY RF-SCORE:    0.00 PKD
ROOT
HETATM    1  O   UNL     1      -8.875   6.791  65.004  1.00  0.00    -0.357 OA 
HETATM    2  H   UNL     1      -8.175   6.195  64.767  1.00  0.00     0.000 HD 
HETATM    3  C   UNL     1      -8.980   6.891  66.426  1.00  0.00    -0.153 C  
ENDROOT
BRANCH   3   4
HETATM    4  C   UNL     1     -10.118   7.861  66.812  1.00  0.00    -0.281 C  
HETATM    5  O   UNL     1     -10.986   7.329  67.829  1.00  0.00    -0.165 OA 
HETATM    6  C   UNL     1     -10.531   7.431  69.181  1.00  0.00    -0.213 C  
HETATM    7  H   UNL     1      -7.276   9.310  68.192  1.00  0.00     0.000 HD 
HETATM    8  C   UNL     1     -10.274   8.910  69.549  1.00  0.00    -0.204 C  
HETATM    9  O   UNL     1     -11.474   9.690  69.484  1.00  0.00    -0.431 OA 
HETATM   10  H   UNL     1      -8.315  10.603  66.455  1.00  0.00     0.000 HD 
HETATM   11  C   UNL     1      -9.235   9.499  68.590  1.00  0.00    -0.135 C  
HETATM   12  C   UNL     1      -9.658   9.300  67.128  1.00  0.00    -0.159 C  
HETATM   13  O   UNL     1      -7.921   8.945  68.787  1.00  0.00    -0.099 OA 
HETATM   14  H   UNL     1     -11.316  10.599  69.710  1.00  0.00     0.000 HD 
HETATM   15  O   UNL     1      -8.597   9.717  66.261  1.00  0.00    -0.125 OA 
BRANCH   6  16
HETATM   16  O   UNL     1      -9.401   6.580  69.368  1.00  0.00    -0.143 OA 
BRANCH  16  17
HETATM   17  C   UNL     1      -9.571   5.372  70.136  1.00  0.00    -0.177 C  
HETATM   18  O   UNL     1      -8.590   3.234  70.822  1.00  0.00    -0.067 OA 
HETATM   19  C   UNL     1      -8.316   4.483  70.172  1.00  0.00    -0.070 C  
HETATM   20  H   UNL     1      -7.815   2.686  70.843  1.00  0.00     0.000 HD 
HETATM   21  C   UNL     1      -7.660   5.595  72.324  1.00  0.00    -0.101 C  
HETATM   22  O   UNL     1      -6.729   6.333  70.167  1.00  0.00    -0.046 OA 
HETATM   23  C   UNL     1      -7.178   5.198  70.911  1.00  0.00    -0.064 C  
HETATM   24  O   UNL     1      -7.833   4.472  73.175  1.00  0.00    -0.089 OA 
HETATM   25  O   UNL     1      -8.846   6.393  72.278  1.00  0.00    -0.135 OA 
HETATM   26  H   UNL     1      -6.024   6.776  70.624  1.00  0.00     0.000 HD 
HETATM   27  H   UNL     1      -8.130   4.716  74.044  1.00  0.00     0.000 HD 
HETATM   28  C   UNL     1      -9.957   5.841  71.562  1.00  0.00    -0.180 C  
BRANCH  28  29
HETATM   29  C   UNL     1     -10.744   4.804  72.378  1.00  0.00    -0.149 C  
HETATM   30  O   UNL     1     -11.539   5.447  73.374  1.00  0.00    -0.494 OA 
HETATM   31  H   UNL     1     -12.025   4.806  73.878  1.00  0.00     0.000 HD 
ENDBRANCH  28  29
ENDBRANCH  16  17
ENDBRANCH   6  16
ENDBRANCH   3   4
TORSDOF 4
ENDMDL
MODEL      169
REMARK 921   NORMALIZED FREE ENERGY PREDICTED BY IDOCK:   -3.03 KCAL/MOL
REMARK 922        TOTAL FREE ENERGY PREDICTED BY IDOCK:   -5.04 KCAL/MOL
REMARK 923 INTER-LIGAND FREE ENERGY PREDICTED BY IDOCK:   -4.09 KCAL/MOL
REMARK 924 INTRA-LIGAND FREE ENERGY PREDICTED BY IDOCK:   -0.96 KCAL/MOL
REMARK 927      BINDING AFFINITY PREDICTED BY RF-SCORE:    0.00 PKD
ROOT
HETATM    1  O   UNL     1     -10.999  15.921  70.122  1.00  0.00    -0.307 OA 
HETATM    2  H   UNL     1     -11.897  15.959  69.817  1.00  0.00     0.000 HD 
HETATM    3  C   UNL     1     -10.097  15.990  69.016  1.00  0.00    -0.239 C  
ENDROOT
BRANCH   3   4
HETATM    4  C   UNL     1      -8.635  15.928  69.510  1.00  0.00    -0.095 C  
HETATM    5  O   UNL     1      -8.165  14.582  69.700  1.00  0.00     0.116 OA 
HETATM    6  C   UNL     1      -7.728  13.881  68.532  1.00  0.00    -0.139 C  
HETATM    7  H   UNL     1      -8.357  16.918  66.191  1.00  0.00     0.000 HD 
HETATM    8  C   UNL     1      -6.584  14.656  67.841  1.00  0.00    -0.164 C  
HETATM    9  O   UNL     1      -5.429  14.761  68.683  1.00  0.00    -0.086 OA 
HETATM   10  H   UNL     1      -7.620  18.554  67.786  1.00  0.00     0.000 HD 
HETATM   11  C   UNL     1      -7.071  16.060  67.471  1.00  0.00    -0.171 C  
HETATM   12  C   UNL     1      -7.643  16.786  68.697  1.00  0.00    -0.222 C  
HETATM   13  O   UNL     1      -8.054  16.047  66.420  1.00  0.00    -0.278 OA 
HETATM   14  H   UNL     1      -4.726  15.237  68.259  1.00  0.00     0.000 HD 
HETATM   15  O   UNL     1      -8.230  18.026  68.287  1.00  0.00    -0.274 OA 
BRANCH   6  16
HETATM   16  O   UNL     1      -8.849  13.622  67.688  1.00  0.00    -0.173 OA 
BRANCH  16  17
HETATM   17  C   UNL     1      -8.867  12.397  66.927  1.00  0.00    -0.205 C  
HETATM   18  O   UNL     1      -8.849   9.949  66.998  1.00  0.00    -0.133 OA 
HETATM   19  C   UNL     1      -8.987  11.134  67.795  1.00  0.00    -0.139 C  
HETATM   20  H   UNL     1      -8.924   9.168  67.535  1.00  0.00     0.000 HD 
HETATM   21  C   UNL     1     -11.473  11.212  67.464  1.00  0.00    -0.216 C  
HETATM   22  O   UNL     1     -10.420  12.154  69.482  1.00  0.00    -0.406 OA 
HETATM   23  C   UNL     1     -10.342  11.107  68.512  1.00  0.00    -0.193 C  
HETATM   24  O   UNL     1     -11.594  10.039  66.674  1.00  0.00     0.407 OA 
HETATM   25  O   UNL     1     -11.331  12.373  66.642  1.00  0.00    -0.299 OA 
HETATM   26  H   UNL     1     -11.260  12.137  69.925  1.00  0.00     0.000 HD 
HETATM   27  H   UNL     1     -12.289  10.104  66.030  1.00  0.00     0.000 HD 
HETATM   28  C   UNL     1     -10.077  12.526  65.967  1.00  0.00    -0.253 C  
BRANCH  28  29
HETATM   29  C   UNL     1      -9.969  11.671  64.695  1.00  0.00    -0.253 C  
HETATM   30  O   UNL     1      -8.629  11.224  64.502  1.00  0.00    -0.367 OA 
HETATM   31  H   UNL     1      -8.562  10.696  63.715  1.00  0.00     0.000 HD 
ENDBRANCH  28  29
ENDBRANCH  16  17
ENDBRANCH   6  16
ENDBRANCH   3   4
TORSDOF 4
ENDMDL
MODEL      170
REMARK 921   NORMALIZED FREE ENERGY PREDICTED BY IDOCK:   -3.01 KCAL/MOL
REMARK 922        TOTAL FREE ENERGY PREDICTED BY IDOCK:   -5.03 KCAL/MOL
REMARK 923 INTER-LIGAND FREE ENERGY PREDICTED BY IDOCK:   -4.16 KCAL/MOL
REMARK 924 INTRA-LIGAND FREE ENERGY PREDICTED BY IDOCK:   -0.86 KCAL/MOL
REMARK 927      BINDING AFFINITY PREDICTED BY RF-SCORE:    0.00 PKD
ROOT
HETATM    1  O   UNL     1      -7.952   3.948  68.216  1.00  0.00    -0.075 OA 
HETATM    2  H   UNL     1      -7.660   3.148  68.636  1.00  0.00     0.000 HD 
HETATM    3  C   UNL     1      -9.090   3.688  67.392  1.00  0.00    -0.161 C  
ENDROOT
BRANCH   3   4
HETATM    4  C   UNL     1      -9.566   4.989  66.709  1.00  0.00    -0.155 C  
HETATM    5  O   UNL     1     -10.718   5.568  67.348  1.00  0.00    -0.228 OA 
HETATM    6  C   UNL     1     -10.479   6.350  68.521  1.00  0.00    -0.224 C  
HETATM    7  H   UNL     1      -6.624   5.910  68.314  1.00  0.00     0.000 HD 
HETATM    8  C   UNL     1      -9.520   7.518  68.198  1.00  0.00    -0.143 C  
HETATM    9  O   UNL     1     -10.085   8.420  67.239  1.00  0.00    -0.205 OA 
HETATM   10  H   UNL     1      -6.538   6.041  65.918  1.00  0.00     0.000 HD 
HETATM   11  C   UNL     1      -8.203   6.958  67.652  1.00  0.00    -0.117 C  
HETATM   12  C   UNL     1      -8.452   6.028  66.457  1.00  0.00    -0.115 C  
HETATM   13  O   UNL     1      -7.441   6.258  68.653  1.00  0.00    -0.084 OA 
HETATM   14  H   UNL     1      -9.496   9.138  67.041  1.00  0.00     0.000 HD 
HETATM   15  O   UNL     1      -7.223   5.402  66.074  1.00  0.00    -0.073 OA 
BRANCH   6  16
HETATM   16  O   UNL     1     -10.029   5.501  69.574  1.00  0.00    -0.174 OA 
BRANCH  16  17
HETATM   17  C   UNL     1     -10.865   5.347  70.739  1.00  0.00    -0.120 C  
HETATM   18  O   UNL     1     -11.132   4.301  72.937  1.00  0.00    -0.156 OA 
HETATM   19  C   UNL     1     -10.203   4.547  71.872  1.00  0.00    -0.171 C  
HETATM   20  H   UNL     1     -10.722   3.806  73.638  1.00  0.00     0.000 HD 
HETATM   21  C   UNL     1      -9.440   6.715  72.880  1.00  0.00    -0.138 C  
HETATM   22  O   UNL     1      -7.950   5.375  71.447  1.00  0.00    -0.109 OA 
HETATM   23  C   UNL     1      -8.991   5.309  72.425  1.00  0.00    -0.131 C  
HETATM   24  O   UNL     1     -10.253   6.678  74.043  1.00  0.00    -0.312 OA 
HETATM   25  O   UNL     1     -10.085   7.436  71.825  1.00  0.00    -0.176 OA 
HETATM   26  H   UNL     1      -7.200   5.847  71.789  1.00  0.00     0.000 HD 
HETATM   27  H   UNL     1     -10.529   7.542  74.322  1.00  0.00     0.000 HD 
HETATM   28  C   UNL     1     -11.199   6.788  71.200  1.00  0.00    -0.283 C  
BRANCH  28  29
HETATM   29  C   UNL     1     -12.498   6.909  72.011  1.00  0.00    -0.248 C  
HETATM   30  O   UNL     1     -13.594   7.235  71.158  1.00  0.00    -0.563 OA 
HETATM   31  H   UNL     1     -14.398   7.310  71.660  1.00  0.00     0.000 HD 
ENDBRANCH  28  29
ENDBRANCH  16  17
ENDBRANCH   6  16
ENDBRANCH   3   4
TORSDOF 4
ENDMDL
MODEL      171
REMARK 921   NORMALIZED FREE ENERGY PREDICTED BY IDOCK:   -2.97 KCAL/MOL
REMARK 922        TOTAL FREE ENERGY PREDICTED BY IDOCK:   -4.97 KCAL/MOL
REMARK 923 INTER-LIGAND FREE ENERGY PREDICTED BY IDOCK:   -3.99 KCAL/MOL
REMARK 924 INTRA-LIGAND FREE ENERGY PREDICTED BY IDOCK:   -0.98 KCAL/MOL
REMARK 927      BINDING AFFINITY PREDICTED BY RF-SCORE:    0.00 PKD
ROOT
HETATM    1  O   UNL     1     -12.095  10.837  68.283  1.00  0.00    -0.805 OA 
HETATM    2  H   UNL     1     -12.597  10.201  67.787  1.00  0.00     0.000 HD 
HETATM    3  C   UNL     1     -11.841  11.997  67.490  1.00  0.00    -0.205 C  
ENDROOT
BRANCH   3   4
HETATM    4  C   UNL     1     -11.025  13.031  68.296  1.00  0.00    -0.260 C  
HETATM    5  O   UNL     1     -10.017  12.425  69.125  1.00  0.00     0.126 OA 
HETATM    6  C   UNL     1      -8.792  12.057  68.485  1.00  0.00    -0.095 C  
HETATM    7  H   UNL     1      -9.909  13.443  65.031  1.00  0.00     0.000 HD 
HETATM    8  C   UNL     1      -8.139  13.295  67.829  1.00  0.00    -0.166 C  
HETATM    9  O   UNL     1      -7.786  14.287  68.801  1.00  0.00    -0.134 OA 
HETATM   10  H   UNL     1     -11.057  15.346  65.942  1.00  0.00     0.000 HD 
HETATM   11  C   UNL     1      -9.111  13.904  66.814  1.00  0.00    -0.223 C  
HETATM   12  C   UNL     1     -10.470  14.205  67.462  1.00  0.00    -0.249 C  
HETATM   13  O   UNL     1      -9.306  13.065  65.660  1.00  0.00     0.012 OA 
HETATM   14  H   UNL     1      -7.385  15.047  68.398  1.00  0.00     0.000 HD 
HETATM   15  O   UNL     1     -11.398  14.623  66.455  1.00  0.00    -0.341 OA 
BRANCH   6  16
HETATM   16  O   UNL     1      -9.033  10.979  67.583  1.00  0.00    -0.139 OA 
BRANCH  16  17
HETATM   17  C   UNL     1      -8.930   9.630  68.081  1.00  0.00    -0.123 C  
HETATM   18  O   UNL     1      -9.923   7.391  68.132  1.00  0.00    -0.155 OA 
HETATM   19  C   UNL     1      -9.980   8.673  67.491  1.00  0.00    -0.199 C  
HETATM   20  H   UNL     1     -10.572   6.801  67.767  1.00  0.00     0.000 HD 
HETATM   21  C   UNL     1      -8.308   8.007  65.742  1.00  0.00    -0.138 C  
HETATM   22  O   UNL     1     -10.023   9.715  65.288  1.00  0.00    -0.396 OA 
HETATM   23  C   UNL     1      -9.753   8.496  65.984  1.00  0.00    -0.125 C  
HETATM   24  O   UNL     1      -8.105   6.671  66.176  1.00  0.00    -0.108 OA 
HETATM   25  O   UNL     1      -7.343   8.888  66.324  1.00  0.00    -0.085 OA 
HETATM   26  H   UNL     1      -9.882   9.606  64.355  1.00  0.00     0.000 HD 
HETATM   27  H   UNL     1      -7.217   6.370  66.028  1.00  0.00     0.000 HD 
HETATM   28  C   UNL     1      -7.495   9.166  67.721  1.00  0.00    -0.085 C  
BRANCH  28  29
HETATM   29  C   UNL     1      -6.947   8.049  68.621  1.00  0.00    -0.071 C  
HETATM   30  O   UNL     1      -5.858   7.381  67.986  1.00  0.00    -0.028 OA 
HETATM   31  H   UNL     1      -5.519   6.690  68.543  1.00  0.00     0.000 HD 
ENDBRANCH  28  29
ENDBRANCH  16  17
ENDBRANCH   6  16
ENDBRANCH   3   4
TORSDOF 4
ENDMDL
MODEL      172
REMARK 921   NORMALIZED FREE ENERGY PREDICTED BY IDOCK:   -2.95 KCAL/MOL
REMARK 922        TOTAL FREE ENERGY PREDICTED BY IDOCK:   -4.95 KCAL/MOL
REMARK 923 INTER-LIGAND FREE ENERGY PREDICTED BY IDOCK:   -4.16 KCAL/MOL
REMARK 924 INTRA-LIGAND FREE ENERGY PREDICTED BY IDOCK:   -0.79 KCAL/MOL
REMARK 927      BINDING AFFINITY PREDICTED BY RF-SCORE:    0.00 PKD
ROOT
HETATM    1  O   UNL     1     -10.377   8.955  69.912  1.00  0.00    -0.194 OA 
HETATM    2  H   UNL     1      -9.818   9.441  70.506  1.00  0.00     0.000 HD 
HETATM    3  C   UNL     1      -9.957   7.591  69.841  1.00  0.00    -0.189 C  
ENDROOT
BRANCH   3   4
HETATM    4  C   UNL     1     -10.866   6.800  68.875  1.00  0.00    -0.243 C  
HETATM    5  O   UNL     1     -10.949   7.396  67.568  1.00  0.00    -0.204 OA 
HETATM    6  C   UNL     1      -9.871   7.126  66.668  1.00  0.00    -0.169 C  
HETATM    7  H   UNL     1      -8.035   4.807  69.188  1.00  0.00     0.000 HD 
HETATM    8  C   UNL     1      -9.725   5.604  66.450  1.00  0.00    -0.156 C  
HETATM    9  O   UNL     1     -10.891   5.040  65.837  1.00  0.00    -0.616 OA 
HETATM   10  H   UNL     1     -10.048   3.827  70.057  1.00  0.00     0.000 HD 
HETATM   11  C   UNL     1      -9.479   4.918  67.797  1.00  0.00    -0.138 C  
HETATM   12  C   UNL     1     -10.572   5.286  68.811  1.00  0.00    -0.045 C  
HETATM   13  O   UNL     1      -8.188   5.232  68.351  1.00  0.00    -0.091 OA 
HETATM   14  H   UNL     1     -10.802   4.105  65.703  1.00  0.00     0.000 HD 
HETATM   15  O   UNL     1     -10.228   4.759  70.097  1.00  0.00    -0.249 OA 
BRANCH   6  16
HETATM   16  O   UNL     1      -8.686   7.763  67.142  1.00  0.00    -0.122 OA 
BRANCH  16  17
HETATM   17  C   UNL     1      -8.521   9.175  66.900  1.00  0.00    -0.123 C  
HETATM   18  O   UNL     1      -7.052  11.124  67.110  1.00  0.00    -0.097 OA 
HETATM   19  C   UNL     1      -7.111   9.695  67.227  1.00  0.00    -0.086 C  
HETATM   20  H   UNL     1      -6.180  11.445  67.312  1.00  0.00     0.000 HD 
HETATM   21  C   UNL     1      -6.489   9.354  64.820  1.00  0.00    -0.079 C  
HETATM   22  O   UNL     1      -5.954   7.666  66.532  1.00  0.00    -0.038 OA 
HETATM   23  C   UNL     1      -6.079   9.068  66.281  1.00  0.00    -0.063 C  
HETATM   24  O   UNL     1      -6.338  10.721  64.469  1.00  0.00    -0.370 OA 
HETATM   25  O   UNL     1      -7.815   8.895  64.539  1.00  0.00    -0.113 OA 
HETATM   26  H   UNL     1      -5.316   7.277  65.946  1.00  0.00     0.000 HD 
HETATM   27  H   UNL     1      -6.591  10.897  63.571  1.00  0.00     0.000 HD 
HETATM   28  C   UNL     1      -8.852   9.379  65.400  1.00  0.00    -0.184 C  
BRANCH  28  29
HETATM   29  C   UNL     1      -9.319  10.798  65.042  1.00  0.00    -0.223 C  
HETATM   30  O   UNL     1     -10.495  10.751  64.235  1.00  0.00    -0.367 OA 
HETATM   31  H   UNL     1     -10.783  11.628  64.013  1.00  0.00     0.000 HD 
ENDBRANCH  28  29
ENDBRANCH  16  17
ENDBRANCH   6  16
ENDBRANCH   3   4
TORSDOF 4
ENDMDL
MODEL      173
REMARK 921   NORMALIZED FREE ENERGY PREDICTED BY IDOCK:   -2.92 KCAL/MOL
REMARK 922        TOTAL FREE ENERGY PREDICTED BY IDOCK:   -4.91 KCAL/MOL
REMARK 923 INTER-LIGAND FREE ENERGY PREDICTED BY IDOCK:   -3.80 KCAL/MOL
REMARK 924 INTRA-LIGAND FREE ENERGY PREDICTED BY IDOCK:   -1.11 KCAL/MOL
REMARK 927      BINDING AFFINITY PREDICTED BY RF-SCORE:    0.00 PKD
ROOT
HETATM    1  O   UNL     1      -7.657   6.666  67.721  1.00  0.00    -0.101 OA 
HETATM    2  H   UNL     1      -7.518   7.585  67.527  1.00  0.00     0.000 HD 
HETATM    3  C   UNL     1      -6.548   6.141  68.454  1.00  0.00    -0.058 C  
ENDROOT
BRANCH   3   4
HETATM    4  C   UNL     1      -6.773   4.647  68.771  1.00  0.00    -0.050 C  
HETATM    5  O   UNL     1      -7.319   4.428  70.084  1.00  0.00    -0.045 OA 
HETATM    6  C   UNL     1      -8.731   4.602  70.231  1.00  0.00    -0.082 C  
HETATM    7  H   UNL     1      -9.263   5.401  66.466  1.00  0.00     0.000 HD 
HETATM    8  C   UNL     1      -9.490   3.656  69.274  1.00  0.00    -0.174 C  
HETATM    9  O   UNL     1      -9.236   2.278  69.577  1.00  0.00    -0.106 OA 
HETATM   10  H   UNL     1      -7.635   3.812  65.695  1.00  0.00     0.000 HD 
HETATM   11  C   UNL     1      -9.063   3.943  67.832  1.00  0.00    -0.149 C  
HETATM   12  C   UNL     1      -7.538   3.866  67.681  1.00  0.00    -0.068 C  
HETATM   13  O   UNL     1      -9.527   5.222  67.361  1.00  0.00    -0.119 OA 
HETATM   14  H   UNL     1      -9.702   1.697  68.989  1.00  0.00     0.000 HD 
HETATM   15  O   UNL     1      -7.165   4.293  66.366  1.00  0.00    -0.072 OA 
BRANCH   6  16
HETATM   16  O   UNL     1      -9.059   5.981  70.068  1.00  0.00    -0.143 OA 
BRANCH  16  17
HETATM   17  C   UNL     1      -9.216   6.795  71.247  1.00  0.00    -0.154 C  
HETATM   18  O   UNL     1      -8.890   8.999  72.266  1.00  0.00    -0.363 OA 
HETATM   19  C   UNL     1      -8.857   8.274  71.028  1.00  0.00    -0.150 C  
HETATM   20  H   UNL     1      -8.668   9.913  72.129  1.00  0.00     0.000 HD 
HETATM   21  C   UNL     1     -11.279   8.733  70.558  1.00  0.00    -0.247 C  
HETATM   22  O   UNL     1      -9.668   8.365  68.731  1.00  0.00    -0.158 OA 
HETATM   23  C   UNL     1      -9.836   8.919  70.039  1.00  0.00    -0.174 C  
HETATM   24  O   UNL     1     -11.549   9.517  71.710  1.00  0.00    -0.385 OA 
HETATM   25  O   UNL     1     -11.589   7.356  70.789  1.00  0.00    -0.290 OA 
HETATM   26  H   UNL     1     -10.275   8.764  68.119  1.00  0.00     0.000 HD 
HETATM   27  H   UNL     1     -12.436   9.402  72.030  1.00  0.00     0.000 HD 
HETATM   28  C   UNL     1     -10.703   6.641  71.659  1.00  0.00    -0.229 C  
BRANCH  28  29
HETATM   29  C   UNL     1     -10.978   6.903  73.147  1.00  0.00    -0.263 C  
HETATM   30  O   UNL     1      -9.764   6.873  73.896  1.00  0.00    -0.216 OA 
HETATM   31  H   UNL     1      -9.934   7.035  74.816  1.00  0.00     0.000 HD 
ENDBRANCH  28  29
ENDBRANCH  16  17
ENDBRANCH   6  16
ENDBRANCH   3   4
TORSDOF 4
ENDMDL
MODEL      174
REMARK 921   NORMALIZED FREE ENERGY PREDICTED BY IDOCK:   -2.90 KCAL/MOL
REMARK 922        TOTAL FREE ENERGY PREDICTED BY IDOCK:   -4.89 KCAL/MOL
REMARK 923 INTER-LIGAND FREE ENERGY PREDICTED BY IDOCK:   -3.81 KCAL/MOL
REMARK 924 INTRA-LIGAND FREE ENERGY PREDICTED BY IDOCK:   -1.08 KCAL/MOL
REMARK 927      BINDING AFFINITY PREDICTED BY RF-SCORE:    0.00 PKD
ROOT
HETATM    1  O   UNL     1      -5.976   3.890  73.317  1.00  0.00    -0.007 OA 
HETATM    2  H   UNL     1      -5.243   4.024  72.728  1.00  0.00     0.000 HD 
HETATM    3  C   UNL     1      -7.121   4.609  72.856  1.00  0.00    -0.077 C  
ENDROOT
BRANCH   3   4
HETATM    4  C   UNL     1      -8.313   4.391  73.813  1.00  0.00    -0.100 C  
HETATM    5  O   UNL     1      -9.120   5.570  73.982  1.00  0.00    -0.125 OA 
HETATM    6  C   UNL     1     -10.080   5.845  72.958  1.00  0.00    -0.181 C  
HETATM    7  H   UNL     1      -9.205   2.637  70.949  1.00  0.00     0.000 HD 
HETATM    8  C   UNL     1     -11.058   4.659  72.809  1.00  0.00    -0.132 C  
HETATM    9  O   UNL     1     -11.818   4.444  74.005  1.00  0.00    -0.000 OA 
HETATM   10  H   UNL     1      -8.872   1.269  72.895  1.00  0.00     0.000 HD 
HETATM   11  C   UNL     1     -10.270   3.389  72.475  1.00  0.00    -0.146 C  
HETATM   12  C   UNL     1      -9.163   3.138  73.508  1.00  0.00    -0.084 C  
HETATM   13  O   UNL     1      -9.694   3.424  71.156  1.00  0.00    -0.165 OA 
HETATM   14  H   UNL     1     -12.419   3.715  73.914  1.00  0.00     0.000 HD 
HETATM   15  O   UNL     1      -8.350   2.040  73.082  1.00  0.00    -0.059 OA 
BRANCH   6  16
HETATM   16  O   UNL     1      -9.401   6.195  71.753  1.00  0.00    -0.151 OA 
BRANCH  16  17
HETATM   17  C   UNL     1     -10.173   6.735  70.661  1.00  0.00    -0.195 C  
HETATM   18  O   UNL     1     -11.647   8.537  69.898  1.00  0.00    -0.452 OA 
HETATM   19  C   UNL     1     -10.773   8.120  70.957  1.00  0.00    -0.217 C  
HETATM   20  H   UNL     1     -12.018   9.392  70.082  1.00  0.00     0.000 HD 
HETATM   21  C   UNL     1      -8.765   9.159  69.867  1.00  0.00    -0.163 C  
HETATM   22  O   UNL     1      -8.901   8.893  72.312  1.00  0.00    -0.397 OA 
HETATM   23  C   UNL     1      -9.657   9.158  71.128  1.00  0.00    -0.277 C  
HETATM   24  O   UNL     1      -9.426   9.700  68.733  1.00  0.00    -0.144 OA 
HETATM   25  O   UNL     1      -8.241   7.859  69.584  1.00  0.00    -0.119 OA 
HETATM   26  H   UNL     1      -8.209   9.535  72.418  1.00  0.00     0.000 HD 
HETATM   27  H   UNL     1      -8.878   9.700  67.958  1.00  0.00     0.000 HD 
HETATM   28  C   UNL     1      -9.198   6.800  69.458  1.00  0.00    -0.147 C  
BRANCH  28  29
HETATM   29  C   UNL     1      -9.884   6.769  68.084  1.00  0.00    -0.137 C  
HETATM   30  O   UNL     1     -11.138   6.093  68.164  1.00  0.00    -0.332 OA 
HETATM   31  H   UNL     1     -11.562   6.074  67.314  1.00  0.00     0.000 HD 
ENDBRANCH  28  29
ENDBRANCH  16  17
ENDBRANCH   6  16
ENDBRANCH   3   4
TORSDOF 4
ENDMDL
MODEL      175
REMARK 921   NORMALIZED FREE ENERGY PREDICTED BY IDOCK:   -2.86 KCAL/MOL
REMARK 922        TOTAL FREE ENERGY PREDICTED BY IDOCK:   -4.84 KCAL/MOL
REMARK 923 INTER-LIGAND FREE ENERGY PREDICTED BY IDOCK:   -3.81 KCAL/MOL
REMARK 924 INTRA-LIGAND FREE ENERGY PREDICTED BY IDOCK:   -1.04 KCAL/MOL
REMARK 927      BINDING AFFINITY PREDICTED BY RF-SCORE:    0.00 PKD
ROOT
HETATM    1  O   UNL     1     -11.128   8.980  67.918  1.00  0.00    -0.506 OA 
HETATM    2  H   UNL     1     -11.869   8.386  67.915  1.00  0.00     0.000 HD 
HETATM    3  C   UNL     1     -10.133   8.538  66.993  1.00  0.00    -0.277 C  
ENDROOT
BRANCH   3   4
HETATM    4  C   UNL     1      -8.928   9.503  66.998  1.00  0.00    -0.134 C  
HETATM    5  O   UNL     1      -8.704  10.113  68.282  1.00  0.00    -0.117 OA 
HETATM    6  C   UNL     1      -7.997   9.334  69.250  1.00  0.00    -0.098 C  
HETATM    7  H   UNL     1      -7.477   6.351  66.814  1.00  0.00     0.000 HD 
HETATM    8  C   UNL     1      -6.609   8.933  68.703  1.00  0.00    -0.054 C  
HETATM    9  O   UNL     1      -5.785  10.078  68.452  1.00  0.00    -0.042 OA 
HETATM   10  H   UNL     1      -7.112   7.733  64.884  1.00  0.00     0.000 HD 
HETATM   11  C   UNL     1      -6.784   8.141  67.404  1.00  0.00    -0.066 C  
HETATM   12  C   UNL     1      -7.634   8.921  66.392  1.00  0.00    -0.092 C  
HETATM   13  O   UNL     1      -7.368   6.843  67.620  1.00  0.00    -0.091 OA 
HETATM   14  H   UNL     1      -4.932   9.832  68.116  1.00  0.00     0.000 HD 
HETATM   15  O   UNL     1      -7.909   8.091  65.258  1.00  0.00    -0.098 OA 
BRANCH   6  16
HETATM   16  O   UNL     1      -8.805   8.229  69.653  1.00  0.00    -0.137 OA 
BRANCH  16  17
HETATM   17  C   UNL     1      -9.355   8.230  70.986  1.00  0.00    -0.162 C  
HETATM   18  O   UNL     1     -11.351   7.916  72.370  1.00  0.00    -0.314 OA 
HETATM   19  C   UNL     1     -10.816   7.752  71.050  1.00  0.00    -0.239 C  
HETATM   20  H   UNL     1     -12.254   7.620  72.409  1.00  0.00     0.000 HD 
HETATM   21  C   UNL     1      -9.977   5.440  71.548  1.00  0.00    -0.181 C  
HETATM   22  O   UNL     1     -10.595   6.112  69.260  1.00  0.00    -0.221 OA 
HETATM   23  C   UNL     1     -10.911   6.276  70.645  1.00  0.00    -0.280 C  
HETATM   24  O   UNL     1     -10.445   5.355  72.885  1.00  0.00    -0.188 OA 
HETATM   25  O   UNL     1      -8.628   5.916  71.505  1.00  0.00    -0.130 OA 
HETATM   26  H   UNL     1     -10.654   5.198  69.010  1.00  0.00     0.000 HD 
HETATM   27  H   UNL     1      -9.870   4.841  73.440  1.00  0.00     0.000 HD 
HETATM   28  C   UNL     1      -8.432   7.301  71.813  1.00  0.00    -0.111 C  
BRANCH  28  29
HETATM   29  C   UNL     1      -8.434   7.588  73.323  1.00  0.00    -0.137 C  
HETATM   30  O   UNL     1      -7.201   8.184  73.722  1.00  0.00    -0.130 OA 
HETATM   31  H   UNL     1      -7.202   8.361  74.655  1.00  0.00     0.000 HD 
ENDBRANCH  28  29
ENDBRANCH  16  17
ENDBRANCH   6  16
ENDBRANCH   3   4
TORSDOF 4
ENDMDL
MODEL      176
REMARK 921   NORMALIZED FREE ENERGY PREDICTED BY IDOCK:   -2.86 KCAL/MOL
REMARK 922        TOTAL FREE ENERGY PREDICTED BY IDOCK:   -4.84 KCAL/MOL
REMARK 923 INTER-LIGAND FREE ENERGY PREDICTED BY IDOCK:   -3.92 KCAL/MOL
REMARK 924 INTRA-LIGAND FREE ENERGY PREDICTED BY IDOCK:   -0.92 KCAL/MOL
REMARK 927      BINDING AFFINITY PREDICTED BY RF-SCORE:    0.00 PKD
ROOT
HETATM    1  O   UNL     1      -9.762   6.665  71.183  1.00  0.00    -0.174 OA 
HETATM    2  H   UNL     1     -10.206   7.227  71.807  1.00  0.00     0.000 HD 
HETATM    3  C   UNL     1     -10.704   5.815  70.526  1.00  0.00    -0.291 C  
ENDROOT
BRANCH   3   4
HETATM    4  C   UNL     1      -9.983   4.901  69.511  1.00  0.00    -0.225 C  
HETATM    5  O   UNL     1     -10.234   5.273  68.144  1.00  0.00    -0.172 OA 
HETATM    6  C   UNL     1      -9.458   6.354  67.619  1.00  0.00    -0.119 C  
HETATM    7  H   UNL     1      -7.423   6.797  70.899  1.00  0.00     0.000 HD 
HETATM    8  C   UNL     1      -7.951   6.029  67.718  1.00  0.00    -0.105 C  
HETATM    9  O   UNL     1      -7.602   4.883  66.932  1.00  0.00    -0.086 OA 
HETATM   10  H   UNL     1      -7.293   4.446  71.371  1.00  0.00     0.000 HD 
HETATM   11  C   UNL     1      -7.583   5.768  69.182  1.00  0.00    -0.089 C  
HETATM   12  C   UNL     1      -8.481   4.684  69.793  1.00  0.00    -0.073 C  
HETATM   13  O   UNL     1      -7.651   6.958  69.991  1.00  0.00    -0.094 OA 
HETATM   14  H   UNL     1      -6.676   4.683  66.993  1.00  0.00     0.000 HD 
HETATM   15  O   UNL     1      -8.217   4.579  71.197  1.00  0.00    -0.083 OA 
BRANCH   6  16
HETATM   16  O   UNL     1      -9.836   7.568  68.266  1.00  0.00    -0.155 OA 
BRANCH  16  17
HETATM   17  C   UNL     1     -10.039   8.744  67.457  1.00  0.00    -0.222 C  
HETATM   18  O   UNL     1     -11.015  10.987  67.325  1.00  0.00    -0.267 OA 
HETATM   19  C   UNL     1     -10.704   9.905  68.215  1.00  0.00    -0.234 C  
HETATM   20  H   UNL     1     -11.426  11.704  67.793  1.00  0.00     0.000 HD 
HETATM   21  C   UNL     1      -8.419  10.814  68.712  1.00  0.00    -0.148 C  
HETATM   22  O   UNL     1      -9.630   9.428  70.349  1.00  0.00    -0.230 OA 
HETATM   23  C   UNL     1      -9.779  10.415  69.326  1.00  0.00    -0.214 C  
HETATM   24  O   UNL     1      -8.504  11.984  67.913  1.00  0.00    -0.143 OA 
HETATM   25  O   UNL     1      -7.827   9.735  67.983  1.00  0.00    -0.086 OA 
HETATM   26  H   UNL     1      -9.057   9.743  71.038  1.00  0.00     0.000 HD 
HETATM   27  H   UNL     1      -7.668  12.229  67.535  1.00  0.00     0.000 HD 
HETATM   28  C   UNL     1      -8.630   9.147  66.953  1.00  0.00    -0.123 C  
BRANCH  28  29
HETATM   29  C   UNL     1      -8.632   9.962  65.651  1.00  0.00    -0.145 C  
HETATM   30  O   UNL     1      -9.391   9.296  64.643  1.00  0.00    -0.436 OA 
HETATM   31  H   UNL     1      -9.392   9.800  63.838  1.00  0.00     0.000 HD 
ENDBRANCH  28  29
ENDBRANCH  16  17
ENDBRANCH   6  16
ENDBRANCH   3   4
TORSDOF 4
ENDMDL
MODEL      177
REMARK 921   NORMALIZED FREE ENERGY PREDICTED BY IDOCK:   -2.86 KCAL/MOL
REMARK 922        TOTAL FREE ENERGY PREDICTED BY IDOCK:   -4.84 KCAL/MOL
REMARK 923 INTER-LIGAND FREE ENERGY PREDICTED BY IDOCK:   -4.36 KCAL/MOL
REMARK 924 INTRA-LIGAND FREE ENERGY PREDICTED BY IDOCK:   -0.48 KCAL/MOL
REMARK 927      BINDING AFFINITY PREDICTED BY RF-SCORE:    0.00 PKD
ROOT
HETATM    1  O   UNL     1     -10.794  10.815  64.536  1.00  0.00    -0.238 OA 
HETATM    2  H   UNL     1     -10.623   9.946  64.194  1.00  0.00     0.000 HD 
HETATM    3  C   UNL     1     -11.372  10.731  65.840  1.00  0.00     0.531 C  
ENDROOT
BRANCH   3   4
HETATM    4  C   UNL     1     -11.650  12.144  66.396  1.00  0.00    -0.364 C  
HETATM    5  O   UNL     1     -10.732  12.529  67.436  1.00  0.00    -0.223 OA 
HETATM    6  C   UNL     1      -9.455  13.018  67.017  1.00  0.00    -0.237 C  
HETATM    7  H   UNL     1     -10.318  12.731  63.240  1.00  0.00     0.000 HD 
HETATM    8  C   UNL     1      -9.627  14.251  66.103  1.00  0.00    -0.275 C  
HETATM    9  O   UNL     1     -10.253  15.340  66.793  1.00  0.00    -0.262 OA 
HETATM   10  H   UNL     1     -12.602  13.425  63.506  1.00  0.00     0.000 HD 
HETATM   11  C   UNL     1     -10.476  13.867  64.887  1.00  0.00    -0.426 C  
HETATM   12  C   UNL     1     -11.808  13.240  65.320  1.00  0.00    -0.357 C  
HETATM   13  O   UNL     1      -9.792  12.969  63.994  1.00  0.00    -0.232 OA 
HETATM   14  H   UNL     1     -10.359  16.098  66.231  1.00  0.00     0.000 HD 
HETATM   15  O   UNL     1     -12.504  12.751  64.168  1.00  0.00    -0.545 OA 
BRANCH   6  16
HETATM   16  O   UNL     1      -8.709  11.954  66.427  1.00  0.00    -0.186 OA 
BRANCH  16  17
HETATM   17  C   UNL     1      -8.478  10.762  67.204  1.00  0.00    -0.126 C  
HETATM   18  O   UNL     1      -7.516   8.510  67.251  1.00  0.00    -0.090 OA 
HETATM   19  C   UNL     1      -7.587   9.728  66.497  1.00  0.00    -0.098 C  
HETATM   20  H   UNL     1      -6.965   7.872  66.813  1.00  0.00     0.000 HD 
HETATM   21  C   UNL     1      -5.604  10.714  67.678  1.00  0.00    -0.043 C  
HETATM   22  O   UNL     1      -6.180  11.373  65.375  1.00  0.00    -0.333 OA 
HETATM   23  C   UNL     1      -6.171  10.287  66.306  1.00  0.00    -0.084 C  
HETATM   24  O   UNL     1      -5.316   9.606  68.517  1.00  0.00    -0.034 OA 
HETATM   25  O   UNL     1      -6.459  11.650  68.340  1.00  0.00    -0.050 OA 
HETATM   26  H   UNL     1      -5.303  11.719  65.258  1.00  0.00     0.000 HD 
HETATM   27  H   UNL     1      -4.967   9.868  69.360  1.00  0.00     0.000 HD 
HETATM   28  C   UNL     1      -7.823  11.249  68.522  1.00  0.00    -0.138 C  
BRANCH  28  29
HETATM   29  C   UNL     1      -8.018  10.301  69.714  1.00  0.00    -0.126 C  
HETATM   30  O   UNL     1      -7.062  10.577  70.737  1.00  0.00    -0.426 OA 
HETATM   31  H   UNL     1      -7.182   9.990  71.474  1.00  0.00     0.000 HD 
ENDBRANCH  28  29
ENDBRANCH  16  17
ENDBRANCH   6  16
ENDBRANCH   3   4
TORSDOF 4
ENDMDL
MODEL      178
REMARK 921   NORMALIZED FREE ENERGY PREDICTED BY IDOCK:   -2.84 KCAL/MOL
REMARK 922        TOTAL FREE ENERGY PREDICTED BY IDOCK:   -4.81 KCAL/MOL
REMARK 923 INTER-LIGAND FREE ENERGY PREDICTED BY IDOCK:   -3.82 KCAL/MOL
REMARK 924 INTRA-LIGAND FREE ENERGY PREDICTED BY IDOCK:   -0.99 KCAL/MOL
REMARK 927      BINDING AFFINITY PREDICTED BY RF-SCORE:    0.00 PKD
ROOT
HETATM    1  O   UNL     1      -9.414   6.611  71.368  1.00  0.00    -0.159 OA 
HETATM    2  H   UNL     1      -9.771   7.470  71.181  1.00  0.00     0.000 HD 
HETATM    3  C   UNL     1     -10.469   5.661  71.534  1.00  0.00    -0.239 C  
ENDROOT
BRANCH   3   4
HETATM    4  C   UNL     1      -9.888   4.263  71.838  1.00  0.00    -0.179 C  
HETATM    5  O   UNL     1      -9.849   3.408  70.681  1.00  0.00    -0.153 OA 
HETATM    6  C   UNL     1      -8.753   3.593  69.781  1.00  0.00    -0.075 C  
HETATM    7  H   UNL     1      -7.124   6.365  71.963  1.00  0.00     0.000 HD 
HETATM    8  C   UNL     1      -7.412   3.394  70.523  1.00  0.00    -0.040 C  
HETATM    9  O   UNL     1      -7.277   2.060  71.028  1.00  0.00    -0.032 OA 
HETATM   10  H   UNL     1      -7.684   5.326  74.054  1.00  0.00     0.000 HD 
HETATM   11  C   UNL     1      -7.322   4.387  71.686  1.00  0.00    -0.064 C  
HETATM   12  C   UNL     1      -8.547   4.275  72.603  1.00  0.00    -0.105 C  
HETATM   13  O   UNL     1      -7.179   5.749  71.242  1.00  0.00    -0.070 OA 
HETATM   14  H   UNL     1      -6.454   1.937  71.484  1.00  0.00     0.000 HD 
HETATM   15  O   UNL     1      -8.508   5.318  73.583  1.00  0.00    -0.112 OA 
BRANCH   6  16
HETATM   16  O   UNL     1      -8.878   4.858  69.134  1.00  0.00    -0.090 OA 
BRANCH  16  17
HETATM   17  C   UNL     1      -9.660   4.938  67.926  1.00  0.00    -0.145 C  
HETATM   18  O   UNL     1     -11.241   6.259  66.600  1.00  0.00    -0.724 OA 
HETATM   19  C   UNL     1     -10.364   6.292  67.735  1.00  0.00    -0.195 C  
HETATM   20  H   UNL     1     -11.675   7.096  66.483  1.00  0.00     0.000 HD 
HETATM   21  C   UNL     1      -8.410   7.049  66.355  1.00  0.00    -0.125 C  
HETATM   22  O   UNL     1      -8.585   7.616  68.745  1.00  0.00    -0.128 OA 
HETATM   23  C   UNL     1      -9.330   7.408  67.543  1.00  0.00    -0.130 C  
HETATM   24  O   UNL     1      -9.081   7.123  65.106  1.00  0.00    -0.318 OA 
HETATM   25  O   UNL     1      -7.788   5.773  66.529  1.00  0.00    -0.099 OA 
HETATM   26  H   UNL     1      -7.944   8.307  68.626  1.00  0.00     0.000 HD 
HETATM   27  H   UNL     1      -8.516   6.903  64.375  1.00  0.00     0.000 HD 
HETATM   28  C   UNL     1      -8.664   4.666  66.770  1.00  0.00    -0.111 C  
BRANCH  28  29
HETATM   29  C   UNL     1      -9.313   4.120  65.490  1.00  0.00    -0.162 C  
HETATM   30  O   UNL     1      -9.810   2.800  65.701  1.00  0.00    -0.364 OA 
HETATM   31  H   UNL     1     -10.211   2.462  64.909  1.00  0.00     0.000 HD 
ENDBRANCH  28  29
ENDBRANCH  16  17
ENDBRANCH   6  16
ENDBRANCH   3   4
TORSDOF 4
ENDMDL
MODEL      179
REMARK 921   NORMALIZED FREE ENERGY PREDICTED BY IDOCK:   -2.82 KCAL/MOL
REMARK 922        TOTAL FREE ENERGY PREDICTED BY IDOCK:   -4.79 KCAL/MOL
REMARK 923 INTER-LIGAND FREE ENERGY PREDICTED BY IDOCK:   -4.30 KCAL/MOL
REMARK 924 INTRA-LIGAND FREE ENERGY PREDICTED BY IDOCK:   -0.49 KCAL/MOL
REMARK 927      BINDING AFFINITY PREDICTED BY RF-SCORE:    0.00 PKD
ROOT
HETATM    1  O   UNL     1     -11.140  13.322  63.547  1.00  0.00    -0.542 OA 
HETATM    2  H   UNL     1     -11.525  14.149  63.285  1.00  0.00     0.000 HD 
HETATM    3  C   UNL     1     -10.024  13.545  64.411  1.00  0.00     0.169 C  
ENDROOT
BRANCH   3   4
HETATM    4  C   UNL     1      -9.398  12.199  64.838  1.00  0.00     0.264 C  
HETATM    5  O   UNL     1      -8.726  12.272  66.107  1.00  0.00    -0.034 OA 
HETATM    6  C   UNL     1      -9.545  12.185  67.276  1.00  0.00    -0.185 C  
HETATM    7  H   UNL     1     -12.815  11.701  65.234  1.00  0.00     0.000 HD 
HETATM    8  C   UNL     1     -10.342  10.861  67.274  1.00  0.00    -0.216 C  
HETATM    9  O   UNL     1      -9.476   9.720  67.322  1.00  0.00    -0.149 OA 
HETATM   10  H   UNL     1     -11.794  10.329  63.547  1.00  0.00     0.000 HD 
HETATM   11  C   UNL     1     -11.204  10.789  66.010  1.00  0.00     0.303 C  
HETATM   12  C   UNL     1     -10.353  10.989  64.748  1.00  0.00    -0.324 C  
HETATM   13  O   UNL     1     -12.280  11.745  66.018  1.00  0.00    -0.322 OA 
HETATM   14  H   UNL     1      -9.965   8.906  67.320  1.00  0.00     0.000 HD 
HETATM   15  O   UNL     1     -11.207  11.074  63.603  1.00  0.00    -0.140 OA 
BRANCH   6  16
HETATM   16  O   UNL     1     -10.358  13.353  67.374  1.00  0.00    -0.237 OA 
BRANCH  16  17
HETATM   17  C   UNL     1     -10.417  14.046  68.638  1.00  0.00    -0.247 C  
HETATM   18  O   UNL     1      -9.197  15.368  70.300  1.00  0.00    -0.202 OA 
HETATM   19  C   UNL     1      -9.135  14.826  68.973  1.00  0.00    -0.136 C  
HETATM   20  H   UNL     1      -8.404  15.850  70.506  1.00  0.00     0.000 HD 
HETATM   21  C   UNL     1     -10.184  16.870  67.963  1.00  0.00    -0.310 C  
HETATM   22  O   UNL     1      -8.642  15.451  66.669  1.00  0.00    -0.255 OA 
HETATM   23  C   UNL     1      -8.930  15.969  67.970  1.00  0.00    -0.187 C  
HETATM   24  O   UNL     1     -10.323  17.621  69.159  1.00  0.00    -0.353 OA 
HETATM   25  O   UNL     1     -11.373  16.126  67.682  1.00  0.00    -0.213 OA 
HETATM   26  H   UNL     1      -8.515  16.158  66.048  1.00  0.00     0.000 HD 
HETATM   27  H   UNL     1     -11.094  18.175  69.155  1.00  0.00     0.000 HD 
HETATM   28  C   UNL     1     -11.633  15.000  68.529  1.00  0.00    -0.326 C  
BRANCH  28  29
HETATM   29  C   UNL     1     -12.254  15.391  69.878  1.00  0.00    -0.334 C  
HETATM   30  O   UNL     1     -12.628  14.228  70.615  1.00  0.00    -0.324 OA 
HETATM   31  H   UNL     1     -13.012  14.470  71.450  1.00  0.00     0.000 HD 
ENDBRANCH  28  29
ENDBRANCH  16  17
ENDBRANCH   6  16
ENDBRANCH   3   4
TORSDOF 4
ENDMDL
MODEL      180
REMARK 921   NORMALIZED FREE ENERGY PREDICTED BY IDOCK:   -2.81 KCAL/MOL
REMARK 922        TOTAL FREE ENERGY PREDICTED BY IDOCK:   -4.78 KCAL/MOL
REMARK 923 INTER-LIGAND FREE ENERGY PREDICTED BY IDOCK:   -3.83 KCAL/MOL
REMARK 924 INTRA-LIGAND FREE ENERGY PREDICTED BY IDOCK:   -0.95 KCAL/MOL
REMARK 927      BINDING AFFINITY PREDICTED BY RF-SCORE:    0.00 PKD
ROOT
HETATM    1  O   UNL     1      -9.687   3.927  70.640  1.00  0.00    -0.178 OA 
HETATM    2  H   UNL     1     -10.496   3.702  70.196  1.00  0.00     0.000 HD 
HETATM    3  C   UNL     1      -9.466   5.337  70.585  1.00  0.00    -0.168 C  
ENDROOT
BRANCH   3   4
HETATM    4  C   UNL     1      -8.152   5.703  71.307  1.00  0.00    -0.114 C  
HETATM    5  O   UNL     1      -7.354   6.650  70.573  1.00  0.00    -0.077 OA 
HETATM    6  C   UNL     1      -7.722   8.027  70.689  1.00  0.00    -0.089 C  
HETATM    7  H   UNL     1     -10.609   7.291  73.182  1.00  0.00     0.000 HD 
HETATM    8  C   UNL     1      -7.682   8.470  72.168  1.00  0.00    -0.078 C  
HETATM    9  O   UNL     1      -6.361   8.374  72.716  1.00  0.00    -0.083 OA 
HETATM   10  H   UNL     1      -9.426   5.557  74.349  1.00  0.00     0.000 HD 
HETATM   11  C   UNL     1      -8.634   7.592  72.987  1.00  0.00    -0.148 C  
HETATM   12  C   UNL     1      -8.320   6.103  72.788  1.00  0.00    -0.117 C  
HETATM   13  O   UNL     1     -10.019   7.835  72.675  1.00  0.00    -0.195 OA 
HETATM   14  H   UNL     1      -6.337   8.646  73.626  1.00  0.00     0.000 HD 
HETATM   15  O   UNL     1      -9.322   5.312  73.437  1.00  0.00    -0.134 OA 
BRANCH   6  16
HETATM   16  O   UNL     1      -8.981   8.237  70.051  1.00  0.00    -0.140 OA 
BRANCH  16  17
HETATM   17  C   UNL     1      -9.125   9.370  69.171  1.00  0.00    -0.148 C  
HETATM   18  O   UNL     1      -8.212  10.600  67.260  1.00  0.00    -0.115 OA 
HETATM   19  C   UNL     1      -8.118   9.381  68.010  1.00  0.00    -0.106 C  
HETATM   20  H   UNL     1      -7.589  10.606  66.543  1.00  0.00     0.000 HD 
HETATM   21  C   UNL     1      -9.835   8.233  66.585  1.00  0.00    -0.267 C  
HETATM   22  O   UNL     1      -8.066   6.960  67.733  1.00  0.00    -0.112 OA 
HETATM   23  C   UNL     1      -8.370   8.192  67.075  1.00  0.00    -0.116 C  
HETATM   24  O   UNL     1     -10.079   9.304  65.686  1.00  0.00    -0.403 OA 
HETATM   25  O   UNL     1     -10.761   8.256  67.675  1.00  0.00    -0.219 OA 
HETATM   26  H   UNL     1      -8.222   6.224  67.155  1.00  0.00     0.000 HD 
HETATM   27  H   UNL     1     -10.979   9.329  65.385  1.00  0.00     0.000 HD 
HETATM   28  C   UNL     1     -10.580   9.298  68.641  1.00  0.00    -0.187 C  
BRANCH  28  29
HETATM   29  C   UNL     1     -11.156  10.647  68.186  1.00  0.00    -0.285 C  
HETATM   30  O   UNL     1     -12.047  11.170  69.170  1.00  0.00    -0.348 OA 
HETATM   31  H   UNL     1     -12.404  12.005  68.889  1.00  0.00     0.000 HD 
ENDBRANCH  28  29
ENDBRANCH  16  17
ENDBRANCH   6  16
ENDBRANCH   3   4
TORSDOF 4
ENDMDL
MODEL      181
REMARK 921   NORMALIZED FREE ENERGY PREDICTED BY IDOCK:   -2.74 KCAL/MOL
REMARK 922        TOTAL FREE ENERGY PREDICTED BY IDOCK:   -4.69 KCAL/MOL
REMARK 923 INTER-LIGAND FREE ENERGY PREDICTED BY IDOCK:   -4.54 KCAL/MOL
REMARK 924 INTRA-LIGAND FREE ENERGY PREDICTED BY IDOCK:   -0.15 KCAL/MOL
REMARK 927      BINDING AFFINITY PREDICTED BY RF-SCORE:    0.00 PKD
ROOT
HETATM    1  O   UNL     1     -13.081   6.732  72.099  1.00  0.00    -0.548 OA 
HETATM    2  H   UNL     1     -13.634   7.495  72.218  1.00  0.00     0.000 HD 
HETATM    3  C   UNL     1     -11.969   7.051  71.260  1.00  0.00    -0.346 C  
ENDROOT
BRANCH   3   4
HETATM    4  C   UNL     1     -11.070   5.811  71.067  1.00  0.00    -0.194 C  
HETATM    5  O   UNL     1     -10.162   5.943  69.959  1.00  0.00    -0.192 OA 
HETATM    6  C   UNL     1      -8.965   6.691  70.194  1.00  0.00    -0.152 C  
HETATM    7  H   UNL     1      -9.813   7.323  73.933  1.00  0.00     0.000 HD 
HETATM    8  C   UNL     1      -8.160   6.062  71.352  1.00  0.00    -0.115 C  
HETATM    9  O   UNL     1      -7.730   4.731  71.039  1.00  0.00    -0.077 OA 
HETATM   10  H   UNL     1     -10.771   5.150  74.289  1.00  0.00     0.000 HD 
HETATM   11  C   UNL     1      -9.025   6.030  72.615  1.00  0.00    -0.127 C  
HETATM   12  C   UNL     1     -10.362   5.324  72.350  1.00  0.00    -0.209 C  
HETATM   13  O   UNL     1      -9.275   7.343  73.149  1.00  0.00    -0.146 OA 
HETATM   14  H   UNL     1      -7.234   4.344  71.750  1.00  0.00     0.000 HD 
HETATM   15  O   UNL     1     -11.206   5.450  73.499  1.00  0.00    -0.274 OA 
BRANCH   6  16
HETATM   16  O   UNL     1      -9.295   8.065  70.393  1.00  0.00    -0.157 OA 
BRANCH  16  17
HETATM   17  C   UNL     1     -10.176   8.704  69.447  1.00  0.00    -0.210 C  
HETATM   18  O   UNL     1     -11.283  10.782  68.770  1.00  0.00    -0.233 OA 
HETATM   19  C   UNL     1     -10.285  10.226  69.638  1.00  0.00    -0.235 C  
HETATM   20  H   UNL     1     -11.350  11.722  68.889  1.00  0.00     0.000 HD 
HETATM   21  C   UNL     1      -8.470  10.512  67.928  1.00  0.00    -0.119 C  
HETATM   22  O   UNL     1      -7.971  10.532  70.340  1.00  0.00    -0.364 OA 
HETATM   23  C   UNL     1      -8.936  10.897  69.350  1.00  0.00     0.126 C  
HETATM   24  O   UNL     1      -9.261  11.115  66.915  1.00  0.00    -0.164 OA 
HETATM   25  O   UNL     1      -8.405   9.094  67.754  1.00  0.00    -0.116 OA 
HETATM   26  H   UNL     1      -7.136  10.946  70.162  1.00  0.00     0.000 HD 
HETATM   27  H   UNL     1      -8.975  10.879  66.041  1.00  0.00     0.000 HD 
HETATM   28  C   UNL     1      -9.600   8.361  68.050  1.00  0.00    -0.149 C  
BRANCH  28  29
HETATM   29  C   UNL     1     -10.631   8.406  66.912  1.00  0.00    -0.215 C  
HETATM   30  O   UNL     1     -11.486   7.265  66.964  1.00  0.00    -0.325 OA 
HETATM   31  H   UNL     1     -12.123   7.292  66.260  1.00  0.00     0.000 HD 
ENDBRANCH  28  29
ENDBRANCH  16  17
ENDBRANCH   6  16
ENDBRANCH   3   4
TORSDOF 4
ENDMDL
MODEL      182
REMARK 921   NORMALIZED FREE ENERGY PREDICTED BY IDOCK:   -2.74 KCAL/MOL
REMARK 922        TOTAL FREE ENERGY PREDICTED BY IDOCK:   -4.69 KCAL/MOL
REMARK 923 INTER-LIGAND FREE ENERGY PREDICTED BY IDOCK:   -3.67 KCAL/MOL
REMARK 924 INTRA-LIGAND FREE ENERGY PREDICTED BY IDOCK:   -1.01 KCAL/MOL
REMARK 927      BINDING AFFINITY PREDICTED BY RF-SCORE:    0.00 PKD
ROOT
HETATM    1  O   UNL     1      -8.684  10.701  69.697  1.00  0.00    -0.391 OA 
HETATM    2  H   UNL     1      -8.931  10.556  70.603  1.00  0.00     0.000 HD 
HETATM    3  C   UNL     1      -7.262  10.677  69.561  1.00  0.00    -0.140 C  
ENDROOT
BRANCH   3   4
HETATM    4  C   UNL     1      -6.860  10.913  68.089  1.00  0.00    -0.067 C  
HETATM    5  O   UNL     1      -6.676   9.689  67.355  1.00  0.00    -0.070 OA 
HETATM    6  C   UNL     1      -7.857   9.051  66.860  1.00  0.00    -0.101 C  
HETATM    7  H   UNL     1     -10.209  11.837  68.204  1.00  0.00     0.000 HD 
HETATM    8  C   UNL     1      -8.634  10.010  65.931  1.00  0.00    -0.139 C  
HETATM    9  O   UNL     1      -7.869  10.362  64.771  1.00  0.00    -0.201 OA 
HETATM   10  H   UNL     1      -8.693  13.633  67.706  1.00  0.00     0.000 HD 
HETATM   11  C   UNL     1      -8.997  11.282  66.703  1.00  0.00    -0.176 C  
HETATM   12  C   UNL     1      -7.751  11.921  67.332  1.00  0.00    -0.158 C  
HETATM   13  O   UNL     1      -9.983  11.048  67.725  1.00  0.00    -0.169 OA 
HETATM   14  H   UNL     1      -8.346  10.952  64.200  1.00  0.00     0.000 HD 
HETATM   15  O   UNL     1      -8.145  13.012  68.172  1.00  0.00    -0.139 OA 
BRANCH   6  16
HETATM   16  O   UNL     1      -8.623   8.555  67.957  1.00  0.00    -0.132 OA 
BRANCH  16  17
HETATM   17  C   UNL     1      -8.179   7.353  68.617  1.00  0.00    -0.125 C  
HETATM   18  O   UNL     1      -8.106   6.081  70.710  1.00  0.00    -0.115 OA 
HETATM   19  C   UNL     1      -8.698   7.214  70.058  1.00  0.00    -0.141 C  
HETATM   20  H   UNL     1      -8.427   5.996  71.600  1.00  0.00     0.000 HD 
HETATM   21  C   UNL     1     -10.614   5.854  69.176  1.00  0.00    -0.299 C  
HETATM   22  O   UNL     1     -10.854   8.265  69.624  1.00  0.00    -0.312 OA 
HETATM   23  C   UNL     1     -10.224   7.058  70.062  1.00  0.00    -0.194 C  
HETATM   24  O   UNL     1     -10.243   4.611  69.752  1.00  0.00    -0.234 OA 
HETATM   25  O   UNL     1     -10.098   5.980  67.849  1.00  0.00    -0.133 OA 
HETATM   26  H   UNL     1     -11.799   8.168  69.627  1.00  0.00     0.000 HD 
HETATM   27  H   UNL     1     -10.483   3.871  69.208  1.00  0.00     0.000 HD 
HETATM   28  C   UNL     1      -8.684   6.185  67.732  1.00  0.00    -0.112 C  
BRANCH  28  29
HETATM   29  C   UNL     1      -7.874   4.887  67.873  1.00  0.00    -0.086 C  
HETATM   30  O   UNL     1      -6.530   5.173  68.256  1.00  0.00    -0.037 OA 
HETATM   31  H   UNL     1      -6.029   4.371  68.343  1.00  0.00     0.000 HD 
ENDBRANCH  28  29
ENDBRANCH  16  17
ENDBRANCH   6  16
ENDBRANCH   3   4
TORSDOF 4
ENDMDL
MODEL      183
REMARK 921   NORMALIZED FREE ENERGY PREDICTED BY IDOCK:   -2.71 KCAL/MOL
REMARK 922        TOTAL FREE ENERGY PREDICTED BY IDOCK:   -4.65 KCAL/MOL
REMARK 923 INTER-LIGAND FREE ENERGY PREDICTED BY IDOCK:   -3.82 KCAL/MOL
REMARK 924 INTRA-LIGAND FREE ENERGY PREDICTED BY IDOCK:   -0.83 KCAL/MOL
REMARK 927      BINDING AFFINITY PREDICTED BY RF-SCORE:    0.00 PKD
ROOT
HETATM    1  O   UNL     1      -7.668  10.218  70.596  1.00  0.00    -0.412 OA 
HETATM    2  H   UNL     1      -7.023  10.499  71.235  1.00  0.00     0.000 HD 
HETATM    3  C   UNL     1      -8.558   9.263  71.176  1.00  0.00    -0.025 C  
ENDROOT
BRANCH   3   4
HETATM    4  C   UNL     1      -9.606   8.807  70.137  1.00  0.00    -0.173 C  
HETATM    5  O   UNL     1      -9.229   7.598  69.455  1.00  0.00    -0.149 OA 
HETATM    6  C   UNL     1      -9.473   6.368  70.142  1.00  0.00    -0.160 C  
HETATM    7  H   UNL     1     -11.105   8.127  73.198  1.00  0.00     0.000 HD 
HETATM    8  C   UNL     1     -10.975   6.234  70.481  1.00  0.00    -0.312 C  
HETATM    9  O   UNL     1     -11.784   6.185  69.299  1.00  0.00    -0.384 OA 
HETATM   10  H   UNL     1     -12.221   9.803  71.889  1.00  0.00     0.000 HD 
HETATM   11  C   UNL     1     -11.410   7.423  71.343  1.00  0.00    -0.256 C  
HETATM   12  C   UNL     1     -11.055   8.754  70.666  1.00  0.00    -0.246 C  
HETATM   13  O   UNL     1     -10.836   7.390  72.663  1.00  0.00    -0.252 OA 
HETATM   14  H   UNL     1     -12.707   6.103  69.507  1.00  0.00     0.000 HD 
HETATM   15  O   UNL     1     -11.329   9.835  71.564  1.00  0.00    -0.367 OA 
BRANCH   6  16
HETATM   16  O   UNL     1      -8.611   6.277  71.275  1.00  0.00    -0.124 OA 
BRANCH  16  17
HETATM   17  C   UNL     1      -7.984   5.010  71.562  1.00  0.00    -0.112 C  
HETATM   18  O   UNL     1      -6.350   3.805  72.931  1.00  0.00    -0.012 OA 
HETATM   19  C   UNL     1      -7.054   5.046  72.786  1.00  0.00    -0.083 C  
HETATM   20  H   UNL     1      -5.775   3.828  73.688  1.00  0.00     0.000 HD 
HETATM   21  C   UNL     1      -8.974   4.259  74.197  1.00  0.00    -0.094 C  
HETATM   22  O   UNL     1      -8.395   6.648  74.042  1.00  0.00    -0.122 OA 
HETATM   23  C   UNL     1      -7.861   5.322  74.060  1.00  0.00    -0.097 C  
HETATM   24  O   UNL     1      -8.463   2.971  74.507  1.00  0.00    -0.071 OA 
HETATM   25  O   UNL     1      -9.812   4.213  73.038  1.00  0.00    -0.125 OA 
HETATM   26  H   UNL     1      -8.895   6.818  74.831  1.00  0.00     0.000 HD 
HETATM   27  H   UNL     1      -9.147   2.318  74.591  1.00  0.00     0.000 HD 
HETATM   28  C   UNL     1      -9.151   4.014  71.782  1.00  0.00    -0.122 C  
BRANCH  28  29
HETATM   29  C   UNL     1      -8.788   2.545  71.519  1.00  0.00    -0.076 C  
HETATM   30  O   UNL     1      -7.975   2.430  70.352  1.00  0.00    -0.042 OA 
HETATM   31  H   UNL     1      -7.751   1.522  70.188  1.00  0.00     0.000 HD 
ENDBRANCH  28  29
ENDBRANCH  16  17
ENDBRANCH   6  16
ENDBRANCH   3   4
TORSDOF 4
ENDMDL
MODEL      184
REMARK 921   NORMALIZED FREE ENERGY PREDICTED BY IDOCK:   -2.69 KCAL/MOL
REMARK 922        TOTAL FREE ENERGY PREDICTED BY IDOCK:   -4.63 KCAL/MOL
REMARK 923 INTER-LIGAND FREE ENERGY PREDICTED BY IDOCK:   -3.65 KCAL/MOL
REMARK 924 INTRA-LIGAND FREE ENERGY PREDICTED BY IDOCK:   -0.98 KCAL/MOL
REMARK 927      BINDING AFFINITY PREDICTED BY RF-SCORE:    0.00 PKD
ROOT
HETATM    1  O   UNL     1      -9.647   9.032  65.103  1.00  0.00    -0.452 OA 
HETATM    2  H   UNL     1      -8.886   9.333  64.623  1.00  0.00     0.000 HD 
HETATM    3  C   UNL     1      -9.459   9.227  66.506  1.00  0.00    -0.202 C  
ENDROOT
BRANCH   3   4
HETATM    4  C   UNL     1     -10.698   8.737  67.287  1.00  0.00    -0.147 C  
HETATM    5  O   UNL     1     -11.137   7.429  66.878  1.00  0.00    -0.236 OA 
HETATM    6  C   UNL     1     -10.433   6.313  67.428  1.00  0.00    -0.248 C  
HETATM    7  H   UNL     1      -8.114   8.545  69.604  1.00  0.00     0.000 HD 
HETATM    8  C   UNL     1     -10.506   6.341  68.971  1.00  0.00    -0.237 C  
HETATM    9  O   UNL     1     -11.855   6.218  69.441  1.00  0.00    -0.468 OA 
HETATM   10  H   UNL     1      -9.827  10.140  70.146  1.00  0.00     0.000 HD 
HETATM   11  C   UNL     1      -9.909   7.654  69.484  1.00  0.00    -0.178 C  
HETATM   12  C   UNL     1     -10.583   8.863  68.821  1.00  0.00    -0.157 C  
HETATM   13  O   UNL     1      -8.485   7.731  69.286  1.00  0.00    -0.134 OA 
HETATM   14  H   UNL     1     -11.900   6.235  70.389  1.00  0.00     0.000 HD 
HETATM   15  O   UNL     1      -9.897  10.061  69.202  1.00  0.00    -0.182 OA 
BRANCH   6  16
HETATM   16  O   UNL     1      -9.104   6.287  66.909  1.00  0.00    -0.122 OA 
BRANCH  16  17
HETATM   17  C   UNL     1      -8.868   5.605  65.660  1.00  0.00    -0.146 C  
HETATM   18  O   UNL     1      -7.814   5.699  63.451  1.00  0.00    -0.087 OA 
HETATM   19  C   UNL     1      -7.894   6.346  64.729  1.00  0.00    -0.111 C  
HETATM   20  H   UNL     1      -7.212   6.157  62.876  1.00  0.00     0.000 HD 
HETATM   21  C   UNL     1      -6.026   4.964  65.677  1.00  0.00    -0.023 C  
HETATM   22  O   UNL     1      -6.497   7.230  66.520  1.00  0.00    -0.048 OA 
HETATM   23  C   UNL     1      -6.495   6.401  65.356  1.00  0.00    -0.039 C  
HETATM   24  O   UNL     1      -5.738   4.211  64.509  1.00  0.00    -0.013 OA 
HETATM   25  O   UNL     1      -6.956   4.275  66.517  1.00  0.00    -0.057 OA 
HETATM   26  H   UNL     1      -5.631   7.264  66.908  1.00  0.00     0.000 HD 
HETATM   27  H   UNL     1      -5.450   3.328  64.707  1.00  0.00     0.000 HD 
HETATM   28  C   UNL     1      -8.309   4.213  66.050  1.00  0.00    -0.109 C  
BRANCH  28  29
HETATM   29  C   UNL     1      -8.531   3.122  64.991  1.00  0.00    -0.096 C  
HETATM   30  O   UNL     1      -9.792   3.298  64.346  1.00  0.00    -0.160 OA 
HETATM   31  H   UNL     1      -9.929   2.624  63.691  1.00  0.00     0.000 HD 
ENDBRANCH  28  29
ENDBRANCH  16  17
ENDBRANCH   6  16
ENDBRANCH   3   4
TORSDOF 4
ENDMDL
MODEL      185
REMARK 921   NORMALIZED FREE ENERGY PREDICTED BY IDOCK:   -2.68 KCAL/MOL
REMARK 922        TOTAL FREE ENERGY PREDICTED BY IDOCK:   -4.61 KCAL/MOL
REMARK 923 INTER-LIGAND FREE ENERGY PREDICTED BY IDOCK:   -3.66 KCAL/MOL
REMARK 924 INTRA-LIGAND FREE ENERGY PREDICTED BY IDOCK:   -0.95 KCAL/MOL
REMARK 927      BINDING AFFINITY PREDICTED BY RF-SCORE:    0.00 PKD
ROOT
HETATM    1  O   UNL     1      -8.892   4.704  71.699  1.00  0.00    -0.121 OA 
HETATM    2  H   UNL     1      -8.249   4.862  72.380  1.00  0.00     0.000 HD 
HETATM    3  C   UNL     1      -8.322   3.921  70.649  1.00  0.00    -0.069 C  
ENDROOT
BRANCH   3   4
HETATM    4  C   UNL     1      -9.368   3.664  69.543  1.00  0.00    -0.176 C  
HETATM    5  O   UNL     1     -10.224   4.797  69.306  1.00  0.00    -0.189 OA 
HETATM    6  C   UNL     1      -9.700   5.837  68.475  1.00  0.00    -0.131 C  
HETATM    7  H   UNL     1      -6.369   3.950  67.811  1.00  0.00     0.000 HD 
HETATM    8  C   UNL     1      -9.320   5.273  67.088  1.00  0.00    -0.122 C  
HETATM    9  O   UNL     1     -10.464   4.759  66.392  1.00  0.00    -0.282 OA 
HETATM   10  H   UNL     1      -7.392   1.780  67.687  1.00  0.00     0.000 HD 
HETATM   11  C   UNL     1      -8.288   4.154  67.259  1.00  0.00    -0.099 C  
HETATM   12  C   UNL     1      -8.792   3.082  68.235  1.00  0.00    -0.123 C  
HETATM   13  O   UNL     1      -7.009   4.643  67.704  1.00  0.00    -0.058 OA 
HETATM   14  H   UNL     1     -10.231   4.413  65.540  1.00  0.00     0.000 HD 
HETATM   15  O   UNL     1      -7.746   2.139  68.492  1.00  0.00    -0.053 OA 
BRANCH   6  16
HETATM   16  O   UNL     1      -8.627   6.490  69.152  1.00  0.00    -0.128 OA 
BRANCH  16  17
HETATM   17  C   UNL     1      -8.935   7.602  70.016  1.00  0.00    -0.143 C  
HETATM   18  O   UNL     1      -8.094   9.180  71.690  1.00  0.00    -0.346 OA 
HETATM   19  C   UNL     1      -7.706   8.180  70.738  1.00  0.00    -0.080 C  
HETATM   20  H   UNL     1      -7.335   9.537  72.136  1.00  0.00     0.000 HD 
HETATM   21  C   UNL     1      -7.480   9.860  68.888  1.00  0.00    -0.081 C  
HETATM   22  O   UNL     1      -6.156   7.783  68.900  1.00  0.00    -0.033 OA 
HETATM   23  C   UNL     1      -6.734   8.797  69.725  1.00  0.00    -0.045 C  
HETATM   24  O   UNL     1      -7.808  11.016  69.643  1.00  0.00    -0.369 OA 
HETATM   25  O   UNL     1      -8.639   9.318  68.248  1.00  0.00    -0.123 OA 
HETATM   26  H   UNL     1      -5.554   8.165  68.272  1.00  0.00     0.000 HD 
HETATM   27  H   UNL     1      -8.267  11.669  69.128  1.00  0.00     0.000 HD 
HETATM   28  C   UNL     1      -9.590   8.667  69.100  1.00  0.00    -0.163 C  
BRANCH  28  29
HETATM   29  C   UNL     1     -10.514   9.651  69.833  1.00  0.00    -0.253 C  
HETATM   30  O   UNL     1     -11.628  10.000  69.013  1.00  0.00    -0.476 OA 
HETATM   31  H   UNL     1     -12.199  10.609  69.466  1.00  0.00     0.000 HD 
ENDBRANCH  28  29
ENDBRANCH  16  17
ENDBRANCH   6  16
ENDBRANCH   3   4
TORSDOF 4
ENDMDL
MODEL      186
REMARK 921   NORMALIZED FREE ENERGY PREDICTED BY IDOCK:   -2.68 KCAL/MOL
REMARK 922        TOTAL FREE ENERGY PREDICTED BY IDOCK:   -4.61 KCAL/MOL
REMARK 923 INTER-LIGAND FREE ENERGY PREDICTED BY IDOCK:   -4.27 KCAL/MOL
REMARK 924 INTRA-LIGAND FREE ENERGY PREDICTED BY IDOCK:   -0.34 KCAL/MOL
REMARK 927      BINDING AFFINITY PREDICTED BY RF-SCORE:    0.00 PKD
ROOT
HETATM    1  O   UNL     1      -8.524   3.364  70.705  1.00  0.00    -0.066 OA 
HETATM    2  H   UNL     1      -8.836   2.688  70.115  1.00  0.00     0.000 HD 
HETATM    3  C   UNL     1      -9.626   4.041  71.312  1.00  0.00    -0.175 C  
ENDROOT
BRANCH   3   4
HETATM    4  C   UNL     1      -9.119   5.140  72.271  1.00  0.00    -0.131 C  
HETATM    5  O   UNL     1      -8.261   6.096  71.624  1.00  0.00    -0.116 OA 
HETATM    6  C   UNL     1      -8.902   7.136  70.880  1.00  0.00    -0.150 C  
HETATM    7  H   UNL     1     -12.474   5.916  71.802  1.00  0.00     0.000 HD 
HETATM    8  C   UNL     1      -9.851   7.942  71.795  1.00  0.00    -0.173 C  
HETATM    9  O   UNL     1      -9.138   8.602  72.848  1.00  0.00    -0.314 OA 
HETATM   10  H   UNL     1     -11.897   5.295  74.049  1.00  0.00     0.000 HD 
HETATM   11  C   UNL     1     -10.893   6.999  72.402  1.00  0.00    -0.240 C  
HETATM   12  C   UNL     1     -10.221   5.817  73.114  1.00  0.00    -0.193 C  
HETATM   13  O   UNL     1     -11.827   6.502  71.426  1.00  0.00    -0.317 OA 
HETATM   14  H   UNL     1      -9.721   9.098  73.411  1.00  0.00     0.000 HD 
HETATM   15  O   UNL     1     -11.219   4.878  73.530  1.00  0.00    -0.323 OA 
BRANCH   6  16
HETATM   16  O   UNL     1      -9.537   6.576  69.731  1.00  0.00    -0.152 OA 
BRANCH  16  17
HETATM   17  C   UNL     1      -9.034   6.928  68.427  1.00  0.00    -0.121 C  
HETATM   18  O   UNL     1      -7.770   6.194  66.461  1.00  0.00    -0.099 OA 
HETATM   19  C   UNL     1      -8.381   5.752  67.681  1.00  0.00    -0.104 C  
HETATM   20  H   UNL     1      -7.368   5.467  66.000  1.00  0.00     0.000 HD 
HETATM   21  C   UNL     1     -10.584   5.317  66.559  1.00  0.00    -0.285 C  
HETATM   22  O   UNL     1      -9.896   4.057  68.561  1.00  0.00    -0.103 OA 
HETATM   23  C   UNL     1      -9.428   4.677  67.361  1.00  0.00    -0.153 C  
HETATM   24  O   UNL     1     -10.198   5.678  65.242  1.00  0.00    -0.067 OA 
HETATM   25  O   UNL     1     -11.160   6.429  67.249  1.00  0.00    -0.368 OA 
HETATM   26  H   UNL     1     -10.544   3.392  68.363  1.00  0.00     0.000 HD 
HETATM   27  H   UNL     1     -10.908   6.071  64.749  1.00  0.00     0.000 HD 
HETATM   28  C   UNL     1     -10.257   7.469  67.645  1.00  0.00    -0.213 C  
BRANCH  28  29
HETATM   29  C   UNL     1      -9.902   8.427  66.497  1.00  0.00    -0.268 C  
HETATM   30  O   UNL     1      -9.292   9.613  67.004  1.00  0.00    -0.142 OA 
HETATM   31  H   UNL     1      -9.073  10.205  66.294  1.00  0.00     0.000 HD 
ENDBRANCH  28  29
ENDBRANCH  16  17
ENDBRANCH   6  16
ENDBRANCH   3   4
TORSDOF 4
ENDMDL
MODEL      187
REMARK 921   NORMALIZED FREE ENERGY PREDICTED BY IDOCK:   -2.68 KCAL/MOL
REMARK 922        TOTAL FREE ENERGY PREDICTED BY IDOCK:   -4.61 KCAL/MOL
REMARK 923 INTER-LIGAND FREE ENERGY PREDICTED BY IDOCK:   -3.78 KCAL/MOL
REMARK 924 INTRA-LIGAND FREE ENERGY PREDICTED BY IDOCK:   -0.83 KCAL/MOL
REMARK 927      BINDING AFFINITY PREDICTED BY RF-SCORE:    0.00 PKD
ROOT
HETATM    1  O   UNL     1      -6.316   6.679  68.241  1.00  0.00    -0.034 OA 
HETATM    2  H   UNL     1      -5.763   7.180  68.829  1.00  0.00     0.000 HD 
HETATM    3  C   UNL     1      -6.276   5.292  68.584  1.00  0.00    -0.030 C  
ENDROOT
BRANCH   3   4
HETATM    4  C   UNL     1      -7.175   4.478  67.628  1.00  0.00    -0.065 C  
HETATM    5  O   UNL     1      -8.431   4.104  68.223  1.00  0.00    -0.091 OA 
HETATM    6  C   UNL     1      -9.459   5.099  68.234  1.00  0.00    -0.128 C  
HETATM    7  H   UNL     1      -7.285   7.703  66.339  1.00  0.00     0.000 HD 
HETATM    8  C   UNL     1      -9.772   5.560  66.793  1.00  0.00    -0.155 C  
HETATM    9  O   UNL     1     -10.280   4.487  65.990  1.00  0.00    -0.246 OA 
HETATM   10  H   UNL     1      -6.250   6.085  64.897  1.00  0.00     0.000 HD 
HETATM   11  C   UNL     1      -8.498   6.115  66.148  1.00  0.00    -0.137 C  
HETATM   12  C   UNL     1      -7.352   5.097  66.226  1.00  0.00    -0.082 C  
HETATM   13  O   UNL     1      -8.075   7.359  66.738  1.00  0.00    -0.117 OA 
HETATM   14  H   UNL     1     -10.472   4.770  65.104  1.00  0.00     0.000 HD 
HETATM   15  O   UNL     1      -6.141   5.704  65.760  1.00  0.00    -0.027 OA 
BRANCH   6  16
HETATM   16  O   UNL     1      -9.087   6.157  69.116  1.00  0.00    -0.128 OA 
BRANCH  16  17
HETATM   17  C   UNL     1     -10.131   6.947  69.720  1.00  0.00    -0.184 C  
HETATM   18  O   UNL     1     -12.178   6.940  71.064  1.00  0.00    -0.373 OA 
HETATM   19  C   UNL     1     -11.081   6.133  70.614  1.00  0.00    -0.317 C  
HETATM   20  H   UNL     1     -12.765   6.437  71.616  1.00  0.00     0.000 HD 
HETATM   21  C   UNL     1      -9.661   6.753  72.588  1.00  0.00    -0.149 C  
HETATM   22  O   UNL     1      -9.369   4.600  71.426  1.00  0.00    -0.136 OA 
HETATM   23  C   UNL     1     -10.326   5.582  71.830  1.00  0.00    -0.216 C  
HETATM   24  O   UNL     1     -10.606   7.583  73.245  1.00  0.00    -0.356 OA 
HETATM   25  O   UNL     1      -8.806   7.521  71.737  1.00  0.00    -0.114 OA 
HETATM   26  H   UNL     1      -8.902   4.259  72.180  1.00  0.00     0.000 HD 
HETATM   27  H   UNL     1     -10.197   8.303  73.711  1.00  0.00     0.000 HD 
HETATM   28  C   UNL     1      -9.398   8.039  70.540  1.00  0.00    -0.155 C  
BRANCH  28  29
HETATM   29  C   UNL     1     -10.224   9.312  70.779  1.00  0.00    -0.286 C  
HETATM   30  O   UNL     1     -11.153   9.515  69.716  1.00  0.00    -0.256 OA 
HETATM   31  H   UNL     1     -11.664  10.302  69.863  1.00  0.00     0.000 HD 
ENDBRANCH  28  29
ENDBRANCH  16  17
ENDBRANCH   6  16
ENDBRANCH   3   4
TORSDOF 4
ENDMDL
MODEL      188
REMARK 921   NORMALIZED FREE ENERGY PREDICTED BY IDOCK:   -2.62 KCAL/MOL
REMARK 922        TOTAL FREE ENERGY PREDICTED BY IDOCK:   -4.54 KCAL/MOL
REMARK 923 INTER-LIGAND FREE ENERGY PREDICTED BY IDOCK:   -3.57 KCAL/MOL
REMARK 924 INTRA-LIGAND FREE ENERGY PREDICTED BY IDOCK:   -0.97 KCAL/MOL
REMARK 927      BINDING AFFINITY PREDICTED BY RF-SCORE:    0.00 PKD
ROOT
HETATM    1  O   UNL     1      -7.233   2.775  72.196  1.00  0.00    -0.040 OA 
HETATM    2  H   UNL     1      -7.106   2.082  71.560  1.00  0.00     0.000 HD 
HETATM    3  C   UNL     1      -7.392   4.032  71.534  1.00  0.00    -0.054 C  
ENDROOT
BRANCH   3   4
HETATM    4  C   UNL     1      -7.599   5.160  72.568  1.00  0.00    -0.097 C  
HETATM    5  O   UNL     1      -7.282   6.463  72.047  1.00  0.00    -0.087 OA 
HETATM    6  C   UNL     1      -8.285   7.100  71.252  1.00  0.00    -0.108 C  
HETATM    7  H   UNL     1     -10.828   4.200  71.718  1.00  0.00     0.000 HD 
HETATM    8  C   UNL     1      -9.591   7.255  72.063  1.00  0.00    -0.150 C  
HETATM    9  O   UNL     1      -9.410   8.099  73.207  1.00  0.00    -0.271 OA 
HETATM   10  H   UNL     1     -10.230   3.777  74.005  1.00  0.00     0.000 HD 
HETATM   11  C   UNL     1     -10.070   5.875  72.523  1.00  0.00    -0.179 C  
HETATM   12  C   UNL     1      -8.965   5.133  73.287  1.00  0.00    -0.120 C  
HETATM   13  O   UNL     1     -10.532   5.056  71.433  1.00  0.00    -0.204 OA 
HETATM   14  H   UNL     1     -10.212   8.194  73.705  1.00  0.00     0.000 HD 
HETATM   15  O   UNL     1      -9.390   3.794  73.562  1.00  0.00    -0.100 OA 
BRANCH   6  16
HETATM   16  O   UNL     1      -8.442   6.388  70.026  1.00  0.00    -0.131 OA 
BRANCH  16  17
HETATM   17  C   UNL     1      -9.358   6.909  69.041  1.00  0.00    -0.135 C  
HETATM   18  O   UNL     1      -9.947   8.801  67.601  1.00  0.00    -0.170 OA 
HETATM   19  C   UNL     1      -8.929   8.266  68.458  1.00  0.00    -0.137 C  
HETATM   20  H   UNL     1      -9.682   9.639  67.241  1.00  0.00     0.000 HD 
HETATM   21  C   UNL     1      -7.816   7.041  66.572  1.00  0.00    -0.106 C  
HETATM   22  O   UNL     1      -6.538   7.801  68.536  1.00  0.00    -0.053 OA 
HETATM   23  C   UNL     1      -7.626   8.117  67.664  1.00  0.00    -0.098 C  
HETATM   24  O   UNL     1      -8.685   7.467  65.534  1.00  0.00    -0.282 OA 
HETATM   25  O   UNL     1      -8.246   5.793  67.123  1.00  0.00    -0.102 OA 
HETATM   26  H   UNL     1      -5.731   7.709  68.044  1.00  0.00     0.000 HD 
HETATM   27  H   UNL     1      -8.802   6.805  64.863  1.00  0.00     0.000 HD 
HETATM   28  C   UNL     1      -9.429   5.829  67.932  1.00  0.00    -0.110 C  
BRANCH  28  29
HETATM   29  C   UNL     1     -10.723   5.855  67.105  1.00  0.00    -0.306 C  
HETATM   30  O   UNL     1     -11.778   6.471  67.842  1.00  0.00    -0.531 OA 
HETATM   31  H   UNL     1     -12.578   6.487  67.331  1.00  0.00     0.000 HD 
ENDBRANCH  28  29
ENDBRANCH  16  17
ENDBRANCH   6  16
ENDBRANCH   3   4
TORSDOF 4
ENDMDL
MODEL      189
REMARK 921   NORMALIZED FREE ENERGY PREDICTED BY IDOCK:   -2.60 KCAL/MOL
REMARK 922        TOTAL FREE ENERGY PREDICTED BY IDOCK:   -4.52 KCAL/MOL
REMARK 923 INTER-LIGAND FREE ENERGY PREDICTED BY IDOCK:   -3.65 KCAL/MOL
REMARK 924 INTRA-LIGAND FREE ENERGY PREDICTED BY IDOCK:   -0.86 KCAL/MOL
REMARK 927      BINDING AFFINITY PREDICTED BY RF-SCORE:    0.00 PKD
ROOT
HETATM    1  O   UNL     1      -7.607  10.030  70.487  1.00  0.00    -0.333 OA 
HETATM    2  H   UNL     1      -7.046  10.271  71.214  1.00  0.00     0.000 HD 
HETATM    3  C   UNL     1      -8.614   9.113  70.921  1.00  0.00    -0.206 C  
ENDROOT
BRANCH   3   4
HETATM    4  C   UNL     1      -9.527   8.721  69.739  1.00  0.00    -0.167 C  
HETATM    5  O   UNL     1      -9.275   7.389  69.255  1.00  0.00    -0.148 OA 
HETATM    6  C   UNL     1      -9.872   6.315  69.986  1.00  0.00    -0.169 C  
HETATM    7  H   UNL     1     -11.654   8.695  72.487  1.00  0.00     0.000 HD 
HETATM    8  C   UNL     1     -11.407   6.486  70.029  1.00  0.00    -0.410 C  
HETATM    9  O   UNL     1     -11.985   6.432  68.719  1.00  0.00    -0.188 OA 
HETATM   10  H   UNL     1     -12.171  10.364  70.839  1.00  0.00     0.000 HD 
HETATM   11  C   UNL     1     -11.751   7.830  70.678  1.00  0.00    -0.175 C  
HETATM   12  C   UNL     1     -11.030   8.985  69.971  1.00  0.00    -0.214 C  
HETATM   13  O   UNL     1     -11.441   7.861  72.084  1.00  0.00    -0.283 OA 
HETATM   14  H   UNL     1     -12.928   6.537  68.745  1.00  0.00     0.000 HD 
HETATM   15  O   UNL     1     -11.246  10.200  70.697  1.00  0.00    -0.305 OA 
BRANCH   6  16
HETATM   16  O   UNL     1      -9.261   6.217  71.271  1.00  0.00    -0.149 OA 
BRANCH  16  17
HETATM   17  C   UNL     1      -9.338   4.961  71.975  1.00  0.00    -0.141 C  
HETATM   18  O   UNL     1      -8.901   2.552  71.907  1.00  0.00    -0.071 OA 
HETATM   19  C   UNL     1      -8.663   3.796  71.233  1.00  0.00    -0.082 C  
HETATM   20  H   UNL     1      -8.483   1.832  71.448  1.00  0.00     0.000 HD 
HETATM   21  C   UNL     1      -6.573   4.245  72.549  1.00  0.00    -0.037 C  
HETATM   22  O   UNL     1      -6.873   5.145  70.276  1.00  0.00    -0.042 OA 
HETATM   23  C   UNL     1      -7.151   4.034  71.131  1.00  0.00    -0.033 C  
HETATM   24  O   UNL     1      -6.579   3.054  73.322  1.00  0.00    -0.020 OA 
HETATM   25  O   UNL     1      -7.233   5.309  73.240  1.00  0.00    -0.086 OA 
HETATM   26  H   UNL     1      -5.937   5.293  70.213  1.00  0.00     0.000 HD 
HETATM   27  H   UNL     1      -6.225   3.184  74.193  1.00  0.00     0.000 HD 
HETATM   28  C   UNL     1      -8.658   5.214  73.345  1.00  0.00    -0.115 C  
BRANCH  28  29
HETATM   29  C   UNL     1      -9.118   4.267  74.464  1.00  0.00    -0.099 C  
HETATM   30  O   UNL     1     -10.449   3.814  74.224  1.00  0.00    -0.183 OA 
HETATM   31  H   UNL     1     -10.734   3.229  74.916  1.00  0.00     0.000 HD 
ENDBRANCH  28  29
ENDBRANCH  16  17
ENDBRANCH   6  16
ENDBRANCH   3   4
TORSDOF 4
ENDMDL
MODEL      190
REMARK 921   NORMALIZED FREE ENERGY PREDICTED BY IDOCK:   -2.60 KCAL/MOL
REMARK 922        TOTAL FREE ENERGY PREDICTED BY IDOCK:   -4.51 KCAL/MOL
REMARK 923 INTER-LIGAND FREE ENERGY PREDICTED BY IDOCK:   -3.54 KCAL/MOL
REMARK 924 INTRA-LIGAND FREE ENERGY PREDICTED BY IDOCK:   -0.98 KCAL/MOL
REMARK 927      BINDING AFFINITY PREDICTED BY RF-SCORE:    0.00 PKD
ROOT
HETATM    1  O   UNL     1      -9.054   4.221  73.407  1.00  0.00    -0.103 OA 
HETATM    2  H   UNL     1      -8.650   4.679  74.134  1.00  0.00     0.000 HD 
HETATM    3  C   UNL     1      -8.068   3.499  72.667  1.00  0.00    -0.077 C  
ENDROOT
BRANCH   3   4
HETATM    4  C   UNL     1      -8.723   2.754  71.484  1.00  0.00    -0.070 C  
HETATM    5  O   UNL     1      -9.964   3.350  71.064  1.00  0.00    -0.128 OA 
HETATM    6  C   UNL     1      -9.872   4.492  70.208  1.00  0.00    -0.229 C  
HETATM    7  H   UNL     1      -5.992   4.360  70.056  1.00  0.00     0.000 HD 
HETATM    8  C   UNL     1      -9.098   4.134  68.920  1.00  0.00    -0.129 C  
HETATM    9  O   UNL     1      -9.774   3.128  68.155  1.00  0.00    -0.133 OA 
HETATM   10  H   UNL     1      -5.877   1.961  70.010  1.00  0.00     0.000 HD 
HETATM   11  C   UNL     1      -7.699   3.631  69.291  1.00  0.00    -0.052 C  
HETATM   12  C   UNL     1      -7.778   2.473  70.296  1.00  0.00    -0.043 C  
HETATM   13  O   UNL     1      -6.859   4.672  69.825  1.00  0.00    -0.042 OA 
HETATM   14  H   UNL     1      -9.298   2.908  67.364  1.00  0.00     0.000 HD 
HETATM   15  O   UNL     1      -6.459   2.135  70.740  1.00  0.00    -0.023 OA 
BRANCH   6  16
HETATM   16  O   UNL     1      -9.319   5.588  70.935  1.00  0.00    -0.151 OA 
BRANCH  16  17
HETATM   17  C   UNL     1      -9.920   6.889  70.779  1.00  0.00    -0.190 C  
HETATM   18  O   UNL     1     -10.451   9.032  71.840  1.00  0.00    -0.343 OA 
HETATM   19  C   UNL     1      -9.709   7.814  71.990  1.00  0.00    -0.173 C  
HETATM   20  H   UNL     1     -10.321   9.603  72.588  1.00  0.00     0.000 HD 
HETATM   21  C   UNL     1      -7.690   8.763  70.842  1.00  0.00    -0.109 C  
HETATM   22  O   UNL     1      -7.483   6.979  72.527  1.00  0.00    -0.087 OA 
HETATM   23  C   UNL     1      -8.221   8.145  72.154  1.00  0.00    -0.149 C  
HETATM   24  O   UNL     1      -8.203  10.065  70.606  1.00  0.00    -0.400 OA 
HETATM   25  O   UNL     1      -7.921   7.908  69.719  1.00  0.00    -0.109 OA 
HETATM   26  H   UNL     1      -6.562   7.184  72.629  1.00  0.00     0.000 HD 
HETATM   27  H   UNL     1      -7.877  10.445  69.799  1.00  0.00     0.000 HD 
HETATM   28  C   UNL     1      -9.275   7.491  69.505  1.00  0.00    -0.146 C  
BRANCH  28  29
HETATM   29  C   UNL     1     -10.131   8.559  68.807  1.00  0.00    -0.196 C  
HETATM   30  O   UNL     1     -11.145   7.949  68.010  1.00  0.00    -0.457 OA 
HETATM   31  H   UNL     1     -11.674   8.610  67.578  1.00  0.00     0.000 HD 
ENDBRANCH  28  29
ENDBRANCH  16  17
ENDBRANCH   6  16
ENDBRANCH   3   4
TORSDOF 4
ENDMDL
MODEL      191
REMARK 921   NORMALIZED FREE ENERGY PREDICTED BY IDOCK:   -2.59 KCAL/MOL
REMARK 922        TOTAL FREE ENERGY PREDICTED BY IDOCK:   -4.51 KCAL/MOL
REMARK 923 INTER-LIGAND FREE ENERGY PREDICTED BY IDOCK:   -3.59 KCAL/MOL
REMARK 924 INTRA-LIGAND FREE ENERGY PREDICTED BY IDOCK:   -0.92 KCAL/MOL
REMARK 927      BINDING AFFINITY PREDICTED BY RF-SCORE:    0.00 PKD
ROOT
HETATM    1  O   UNL     1     -10.819   4.921  69.413  1.00  0.00     0.213 OA 
HETATM    2  H   UNL     1     -11.357   4.814  68.637  1.00  0.00     0.000 HD 
HETATM    3  C   UNL     1     -10.786   6.293  69.809  1.00  0.00    -0.336 C  
ENDROOT
BRANCH   3   4
HETATM    4  C   UNL     1      -9.912   6.466  71.070  1.00  0.00    -0.181 C  
HETATM    5  O   UNL     1      -8.529   6.720  70.762  1.00  0.00    -0.130 OA 
HETATM    6  C   UNL     1      -8.182   8.064  70.419  1.00  0.00    -0.118 C  
HETATM    7  H   UNL     1     -11.799   9.382  70.950  1.00  0.00     0.000 HD 
HETATM    8  C   UNL     1      -8.563   9.025  71.568  1.00  0.00    -0.041 C  
HETATM    9  O   UNL     1      -7.836   8.731  72.768  1.00  0.00    -0.377 OA 
HETATM   10  H   UNL     1     -12.243   7.982  72.850  1.00  0.00     0.000 HD 
HETATM   11  C   UNL     1     -10.065   8.915  71.847  1.00  0.00    -0.322 C  
HETATM   12  C   UNL     1     -10.472   7.459  72.111  1.00  0.00    -0.209 C  
HETATM   13  O   UNL     1     -10.867   9.450  70.778  1.00  0.00    -0.253 OA 
HETATM   14  H   UNL     1      -8.069   9.321  73.474  1.00  0.00     0.000 HD 
HETATM   15  O   UNL     1     -11.898   7.371  72.209  1.00  0.00    -0.291 OA 
BRANCH   6  16
HETATM   16  O   UNL     1      -8.768   8.399  69.162  1.00  0.00    -0.139 OA 
BRANCH  16  17
HETATM   17  C   UNL     1      -7.932   9.001  68.153  1.00  0.00    -0.101 C  
HETATM   18  O   UNL     1      -6.043   8.700  66.622  1.00  0.00    -0.055 OA 
HETATM   19  C   UNL     1      -6.944   8.016  67.505  1.00  0.00    -0.075 C  
HETATM   20  H   UNL     1      -5.433   8.091  66.222  1.00  0.00     0.000 HD 
HETATM   21  C   UNL     1      -8.621   7.620  65.681  1.00  0.00    -0.123 C  
HETATM   22  O   UNL     1      -8.439   6.095  67.606  1.00  0.00    -0.109 OA 
HETATM   23  C   UNL     1      -7.702   6.939  66.719  1.00  0.00    -0.102 C  
HETATM   24  O   UNL     1      -7.893   8.225  64.623  1.00  0.00    -0.116 OA 
HETATM   25  O   UNL     1      -9.512   8.557  66.292  1.00  0.00    -0.207 OA 
HETATM   26  H   UNL     1      -8.909   5.428  67.120  1.00  0.00     0.000 HD 
HETATM   27  H   UNL     1      -8.458   8.644  63.985  1.00  0.00     0.000 HD 
HETATM   28  C   UNL     1      -8.909   9.578  67.097  1.00  0.00    -0.131 C  
BRANCH  28  29
HETATM   29  C   UNL     1      -8.335  10.737  66.270  1.00  0.00    -0.160 C  
HETATM   30  O   UNL     1      -9.378  11.607  65.832  1.00  0.00    -0.225 OA 
HETATM   31  H   UNL     1      -9.023  12.323  65.320  1.00  0.00     0.000 HD 
ENDBRANCH  28  29
ENDBRANCH  16  17
ENDBRANCH   6  16
ENDBRANCH   3   4
TORSDOF 4
ENDMDL
MODEL      192
REMARK 921   NORMALIZED FREE ENERGY PREDICTED BY IDOCK:   -2.59 KCAL/MOL
REMARK 922        TOTAL FREE ENERGY PREDICTED BY IDOCK:   -4.50 KCAL/MOL
REMARK 923 INTER-LIGAND FREE ENERGY PREDICTED BY IDOCK:   -3.52 KCAL/MOL
REMARK 924 INTRA-LIGAND FREE ENERGY PREDICTED BY IDOCK:   -0.98 KCAL/MOL
REMARK 927      BINDING AFFINITY PREDICTED BY RF-SCORE:    0.00 PKD
ROOT
HETATM    1  O   UNL     1     -10.520  16.861  67.078  1.00  0.00    -0.314 OA 
HETATM    2  H   UNL     1      -9.920  17.591  67.172  1.00  0.00     0.000 HD 
HETATM    3  C   UNL     1     -10.993  16.439  68.359  1.00  0.00    -0.353 C  
ENDROOT
BRANCH   3   4
HETATM    4  C   UNL     1     -11.968  15.251  68.206  1.00  0.00    -0.127 C  
HETATM    5  O   UNL     1     -11.464  14.220  67.339  1.00  0.00    -0.312 OA 
HETATM    6  C   UNL     1     -10.534  13.296  67.911  1.00  0.00    -0.240 C  
HETATM    7  H   UNL     1     -10.733  14.915  71.437  1.00  0.00     0.000 HD 
HETATM    8  C   UNL     1     -11.169  12.581  69.124  1.00  0.00    -0.239 C  
HETATM    9  O   UNL     1     -12.308  11.799  68.745  1.00  0.00    -0.314 OA 
HETATM   10  H   UNL     1     -13.086  15.378  71.310  1.00  0.00     0.000 HD 
HETATM   11  C   UNL     1     -11.593  13.623  70.163  1.00  0.00    -0.138 C  
HETATM   12  C   UNL     1     -12.507  14.686  69.538  1.00  0.00    -0.116 C  
HETATM   13  O   UNL     1     -10.470  14.268  70.793  1.00  0.00     0.896 OA 
HETATM   14  H   UNL     1     -12.698  11.360  69.491  1.00  0.00     0.000 HD 
HETATM   15  O   UNL     1     -12.754  15.725  70.491  1.00  0.00    -0.424 OA 
BRANCH   6  16
HETATM   16  O   UNL     1      -9.313  13.972  68.206  1.00  0.00    -0.199 OA 
BRANCH  16  17
HETATM   17  C   UNL     1      -8.126  13.595  67.480  1.00  0.00    -0.184 C  
HETATM   18  O   UNL     1      -5.749  14.035  67.084  1.00  0.00    -0.221 OA 
HETATM   19  C   UNL     1      -6.861  14.341  67.937  1.00  0.00    -0.164 C  
HETATM   20  H   UNL     1      -4.968  14.496  67.367  1.00  0.00     0.000 HD 
HETATM   21  C   UNL     1      -6.358  12.426  69.479  1.00  0.00    -0.116 C  
HETATM   22  O   UNL     1      -7.501  14.453  70.286  1.00  0.00    -0.293 OA 
HETATM   23  C   UNL     1      -6.511  13.960  69.381  1.00  0.00    -0.119 C  
HETATM   24  O   UNL     1      -5.197  11.951  68.814  1.00  0.00    -0.050 OA 
HETATM   25  O   UNL     1      -7.528  11.743  69.020  1.00  0.00    -0.104 OA 
HETATM   26  H   UNL     1      -7.284  14.217  71.180  1.00  0.00     0.000 HD 
HETATM   27  H   UNL     1      -5.103  11.007  68.875  1.00  0.00     0.000 HD 
HETATM   28  C   UNL     1      -7.977  12.068  67.698  1.00  0.00    -0.150 C  
BRANCH  28  29
HETATM   29  C   UNL     1      -7.183  11.345  66.599  1.00  0.00    -0.102 C  
HETATM   30  O   UNL     1      -8.004  10.386  65.934  1.00  0.00    -0.139 OA 
HETATM   31  H   UNL     1      -7.513   9.940  65.255  1.00  0.00     0.000 HD 
ENDBRANCH  28  29
ENDBRANCH  16  17
ENDBRANCH   6  16
ENDBRANCH   3   4
TORSDOF 4
ENDMDL
MODEL      193
REMARK 921   NORMALIZED FREE ENERGY PREDICTED BY IDOCK:   -2.59 KCAL/MOL
REMARK 922        TOTAL FREE ENERGY PREDICTED BY IDOCK:   -4.50 KCAL/MOL
REMARK 923 INTER-LIGAND FREE ENERGY PREDICTED BY IDOCK:   -3.35 KCAL/MOL
REMARK 924 INTRA-LIGAND FREE ENERGY PREDICTED BY IDOCK:   -1.15 KCAL/MOL
REMARK 927      BINDING AFFINITY PREDICTED BY RF-SCORE:    0.00 PKD
ROOT
HETATM    1  O   UNL     1      -8.172  10.952  66.188  1.00  0.00    -0.163 OA 
HETATM    2  H   UNL     1      -7.751  11.008  65.339  1.00  0.00     0.000 HD 
HETATM    3  C   UNL     1      -7.217  11.161  67.230  1.00  0.00    -0.113 C  
ENDROOT
BRANCH   3   4
HETATM    4  C   UNL     1      -7.901  11.071  68.612  1.00  0.00    -0.136 C  
HETATM    5  O   UNL     1      -8.975  10.114  68.644  1.00  0.00    -0.125 OA 
HETATM    6  C   UNL     1      -8.609   8.741  68.810  1.00  0.00    -0.137 C  
HETATM    7  H   UNL     1      -4.819   9.543  69.101  1.00  0.00     0.000 HD 
HETATM    8  C   UNL     1      -7.813   8.555  70.121  1.00  0.00    -0.099 C  
HETATM    9  O   UNL     1      -8.599   8.890  71.272  1.00  0.00    -0.187 OA 
HETATM   10  H   UNL     1      -5.140  11.568  70.351  1.00  0.00     0.000 HD 
HETATM   11  C   UNL     1      -6.564   9.441  70.087  1.00  0.00    -0.062 C  
HETATM   12  C   UNL     1      -6.932  10.904  69.801  1.00  0.00    -0.120 C  
HETATM   13  O   UNL     1      -5.593   8.994  69.123  1.00  0.00    -0.036 OA 
HETATM   14  H   UNL     1      -8.110   8.775  72.078  1.00  0.00     0.000 HD 
HETATM   15  O   UNL     1      -5.737  11.671  69.619  1.00  0.00    -0.067 OA 
BRANCH   6  16
HETATM   16  O   UNL     1      -7.925   8.287  67.644  1.00  0.00    -0.114 OA 
BRANCH  16  17
HETATM   17  C   UNL     1      -8.631   7.436  66.720  1.00  0.00    -0.127 C  
HETATM   18  O   UNL     1      -8.490   6.044  64.709  1.00  0.00    -0.250 OA 
HETATM   19  C   UNL     1      -7.718   6.756  65.686  1.00  0.00    -0.102 C  
HETATM   20  H   UNL     1      -7.925   5.625  64.070  1.00  0.00     0.000 HD 
HETATM   21  C   UNL     1      -7.582   4.761  67.203  1.00  0.00    -0.087 C  
HETATM   22  O   UNL     1      -5.825   6.488  67.199  1.00  0.00    -0.016 OA 
HETATM   23  C   UNL     1      -6.760   5.780  66.382  1.00  0.00    -0.057 C  
HETATM   24  O   UNL     1      -8.300   3.852  66.383  1.00  0.00    -0.103 OA 
HETATM   25  O   UNL     1      -8.451   5.407  68.137  1.00  0.00    -0.098 OA 
HETATM   26  H   UNL     1      -5.233   5.884  67.630  1.00  0.00     0.000 HD 
HETATM   27  H   UNL     1      -8.805   3.226  66.888  1.00  0.00     0.000 HD 
HETATM   28  C   UNL     1      -9.353   6.382  67.599  1.00  0.00    -0.117 C  
BRANCH  28  29
HETATM   29  C   UNL     1     -10.596   5.758  66.947  1.00  0.00    -0.308 C  
HETATM   30  O   UNL     1     -11.657   6.709  66.876  1.00  0.00    -0.726 OA 
HETATM   31  H   UNL     1     -12.425   6.323  66.473  1.00  0.00     0.000 HD 
ENDBRANCH  28  29
ENDBRANCH  16  17
ENDBRANCH   6  16
ENDBRANCH   3   4
TORSDOF 4
ENDMDL
MODEL      194
REMARK 921   NORMALIZED FREE ENERGY PREDICTED BY IDOCK:   -2.56 KCAL/MOL
REMARK 922        TOTAL FREE ENERGY PREDICTED BY IDOCK:   -4.47 KCAL/MOL
REMARK 923 INTER-LIGAND FREE ENERGY PREDICTED BY IDOCK:   -4.69 KCAL/MOL
REMARK 924 INTRA-LIGAND FREE ENERGY PREDICTED BY IDOCK:    0.22 KCAL/MOL
REMARK 927      BINDING AFFINITY PREDICTED BY RF-SCORE:    0.00 PKD
ROOT
HETATM    1  O   UNL     1      -9.766  13.571  65.278  1.00  0.00    -0.527 OA 
HETATM    2  H   UNL     1      -9.265  13.454  64.480  1.00  0.00     0.000 HD 
HETATM    3  C   UNL     1     -10.490  14.802  65.234  1.00  0.00    -0.404 C  
ENDROOT
BRANCH   3   4
HETATM    4  C   UNL     1     -11.306  14.991  66.531  1.00  0.00    -0.280 C  
HETATM    5  O   UNL     1     -11.626  13.747  67.179  1.00  0.00    -0.326 OA 
HETATM    6  C   UNL     1     -10.602  13.160  67.987  1.00  0.00    -0.236 C  
HETATM    7  H   UNL     1      -8.117  16.084  67.377  1.00  0.00     0.000 HD 
HETATM    8  C   UNL     1     -10.174  14.140  69.102  1.00  0.00    -0.051 C  
HETATM    9  O   UNL     1     -11.255  14.433  69.997  1.00  0.00    -0.387 OA 
HETATM   10  H   UNL     1      -9.805  17.792  67.427  1.00  0.00     0.000 HD 
HETATM   11  C   UNL     1      -9.675  15.443  68.470  1.00  0.00    -0.204 C  
HETATM   12  C   UNL     1     -10.722  16.029  67.513  1.00  0.00    -0.314 C  
HETATM   13  O   UNL     1      -8.427  15.276  67.770  1.00  0.00    -0.144 OA 
HETATM   14  H   UNL     1     -10.992  15.035  70.682  1.00  0.00     0.000 HD 
HETATM   15  O   UNL     1     -10.164  17.153  66.823  1.00  0.00    -0.295 OA 
BRANCH   6  16
HETATM   16  O   UNL     1      -9.531  12.722  67.154  1.00  0.00    -0.209 OA 
BRANCH  16  17
HETATM   17  C   UNL     1      -8.820  11.523  67.521  1.00  0.00    -0.155 C  
HETATM   18  O   UNL     1      -8.988   9.158  68.136  1.00  0.00    -0.129 OA 
HETATM   19  C   UNL     1      -9.720  10.280  67.625  1.00  0.00    -0.164 C  
HETATM   20  H   UNL     1      -9.545   8.390  68.199  1.00  0.00     0.000 HD 
HETATM   21  C   UNL     1      -9.137   9.730  65.247  1.00  0.00    -0.211 C  
HETATM   22  O   UNL     1     -11.213  10.931  65.811  1.00  0.00     0.029 OA 
HETATM   23  C   UNL     1     -10.297   9.924  66.249  1.00  0.00    -0.163 C  
HETATM   24  O   UNL     1      -8.384   8.555  65.505  1.00  0.00    -0.137 OA 
HETATM   25  O   UNL     1      -8.288  10.880  65.185  1.00  0.00    -0.120 OA 
HETATM   26  H   UNL     1     -11.569  10.710  64.959  1.00  0.00     0.000 HD 
HETATM   27  H   UNL     1      -7.671   8.436  64.890  1.00  0.00     0.000 HD 
HETATM   28  C   UNL     1      -7.738  11.333  66.428  1.00  0.00    -0.089 C  
BRANCH  28  29
HETATM   29  C   UNL     1      -6.518  10.517  66.879  1.00  0.00    -0.080 C  
HETATM   30  O   UNL     1      -5.334  10.984  66.234  1.00  0.00    -0.095 OA 
HETATM   31  H   UNL     1      -4.580  10.479  66.512  1.00  0.00     0.000 HD 
ENDBRANCH  28  29
ENDBRANCH  16  17
ENDBRANCH   6  16
ENDBRANCH   3   4
TORSDOF 4
ENDMDL
MODEL      195
REMARK 921   NORMALIZED FREE ENERGY PREDICTED BY IDOCK:   -2.52 KCAL/MOL
REMARK 922        TOTAL FREE ENERGY PREDICTED BY IDOCK:   -4.41 KCAL/MOL
REMARK 923 INTER-LIGAND FREE ENERGY PREDICTED BY IDOCK:   -4.40 KCAL/MOL
REMARK 924 INTRA-LIGAND FREE ENERGY PREDICTED BY IDOCK:   -0.02 KCAL/MOL
REMARK 927      BINDING AFFINITY PREDICTED BY RF-SCORE:    0.00 PKD
ROOT
HETATM    1  O   UNL     1      -6.422  13.927  70.582  1.00  0.00    -0.411 OA 
HETATM    2  H   UNL     1      -5.742  14.421  71.023  1.00  0.00     0.000 HD 
HETATM    3  C   UNL     1      -7.274  14.805  69.843  1.00  0.00    -0.044 C  
ENDROOT
BRANCH   3   4
HETATM    4  C   UNL     1      -8.380  14.001  69.126  1.00  0.00     0.250 C  
HETATM    5  O   UNL     1      -9.632  14.706  69.059  1.00  0.00    -0.207 OA 
HETATM    6  C   UNL     1      -9.766  15.685  68.025  1.00  0.00    -0.204 C  
HETATM    7  H   UNL     1      -6.240  14.961  66.561  1.00  0.00     0.000 HD 
HETATM    8  C   UNL     1      -9.553  15.033  66.641  1.00  0.00    -0.263 C  
HETATM    9  O   UNL     1     -10.547  14.038  66.364  1.00  0.00    -0.276 OA 
HETATM   10  H   UNL     1      -6.354  12.591  66.932  1.00  0.00     0.000 HD 
HETATM   11  C   UNL     1      -8.164  14.388  66.591  1.00  0.00     0.283 C  
HETATM   12  C   UNL     1      -7.965  13.414  67.760  1.00  0.00    -0.167 C  
HETATM   13  O   UNL     1      -7.102  15.360  66.591  1.00  0.00    -0.030 OA 
HETATM   14  H   UNL     1     -10.416  13.637  65.513  1.00  0.00     0.000 HD 
HETATM   15  O   UNL     1      -6.609  12.953  67.773  1.00  0.00    -0.107 OA 
BRANCH   6  16
HETATM   16  O   UNL     1      -8.893  16.781  68.293  1.00  0.00    -0.213 OA 
BRANCH  16  17
HETATM   17  C   UNL     1      -8.662  17.747  67.248  1.00  0.00    -0.237 C  
HETATM   18  O   UNL     1      -9.652  19.092  65.456  1.00  0.00    -0.207 OA 
HETATM   19  C   UNL     1      -9.952  18.253  66.580  1.00  0.00    -0.364 C  
HETATM   20  H   UNL     1     -10.449  19.404  65.044  1.00  0.00     0.000 HD 
HETATM   21  C   UNL     1      -9.951  20.188  68.177  1.00  0.00    -0.350 C  
HETATM   22  O   UNL     1     -11.302  18.174  68.608  1.00  0.00     0.285 OA 
HETATM   23  C   UNL     1     -10.799  19.040  67.587  1.00  0.00    -0.352 C  
HETATM   24  O   UNL     1      -9.687  21.212  67.230  1.00  0.00    -0.630 OA 
HETATM   25  O   UNL     1      -8.739  19.708  68.765  1.00  0.00    -0.333 OA 
HETATM   26  H   UNL     1     -11.826  18.661  69.232  1.00  0.00     0.000 HD 
HETATM   27  H   UNL     1      -9.166  21.918  67.593  1.00  0.00     0.000 HD 
HETATM   28  C   UNL     1      -7.896  18.912  67.924  1.00  0.00    -0.263 C  
BRANCH  28  29
HETATM   29  C   UNL     1      -7.040  19.750  66.963  1.00  0.00    -0.215 C  
HETATM   30  O   UNL     1      -6.724  21.014  67.543  1.00  0.00    -0.340 OA 
HETATM   31  H   UNL     1      -6.195  21.533  66.949  1.00  0.00     0.000 HD 
ENDBRANCH  28  29
ENDBRANCH  16  17
ENDBRANCH   6  16
ENDBRANCH   3   4
TORSDOF 4
ENDMDL
MODEL      196
REMARK 921   NORMALIZED FREE ENERGY PREDICTED BY IDOCK:   -2.50 KCAL/MOL
REMARK 922        TOTAL FREE ENERGY PREDICTED BY IDOCK:   -4.40 KCAL/MOL
REMARK 923 INTER-LIGAND FREE ENERGY PREDICTED BY IDOCK:   -3.26 KCAL/MOL
REMARK 924 INTRA-LIGAND FREE ENERGY PREDICTED BY IDOCK:   -1.14 KCAL/MOL
REMARK 927      BINDING AFFINITY PREDICTED BY RF-SCORE:    0.00 PKD
ROOT
HETATM    1  O   UNL     1      -6.538  10.595  70.573  1.00  0.00    -0.293 OA 
HETATM    2  H   UNL     1      -5.599  10.734  70.602  1.00  0.00     0.000 HD 
HETATM    3  C   UNL     1      -6.904   9.930  69.362  1.00  0.00    -0.060 C  
ENDROOT
BRANCH   3   4
HETATM    4  C   UNL     1      -8.431   9.704  69.314  1.00  0.00    -0.150 C  
HETATM    5  O   UNL     1      -9.020  10.123  68.070  1.00  0.00    -0.124 OA 
HETATM    6  C   UNL     1      -8.919   9.213  66.972  1.00  0.00    -0.123 C  
HETATM    7  H   UNL     1      -7.101   6.502  69.079  1.00  0.00     0.000 HD 
HETATM    8  C   UNL     1      -9.570   7.860  67.336  1.00  0.00    -0.152 C  
HETATM    9  O   UNL     1     -10.973   7.999  67.596  1.00  0.00    -0.504 OA 
HETATM   10  H   UNL     1      -8.379   6.909  71.071  1.00  0.00     0.000 HD 
HETATM   11  C   UNL     1      -8.881   7.281  68.574  1.00  0.00    -0.129 C  
HETATM   12  C   UNL     1      -8.886   8.290  69.731  1.00  0.00    -0.142 C  
HETATM   13  O   UNL     1      -7.529   6.861  68.311  1.00  0.00    -0.094 OA 
HETATM   14  H   UNL     1     -11.373   7.167  67.820  1.00  0.00     0.000 HD 
HETATM   15  O   UNL     1      -8.099   7.780  70.814  1.00  0.00    -0.099 OA 
BRANCH   6  16
HETATM   16  O   UNL     1      -7.556   9.111  66.563  1.00  0.00    -0.092 OA 
BRANCH  16  17
HETATM   17  C   UNL     1      -7.199   9.565  65.242  1.00  0.00    -0.104 C  
HETATM   18  O   UNL     1      -5.432   9.750  63.555  1.00  0.00    -0.075 OA 
HETATM   19  C   UNL     1      -5.784   9.147  64.808  1.00  0.00    -0.063 C  
HETATM   20  H   UNL     1      -4.558   9.491  63.288  1.00  0.00     0.000 HD 
HETATM   21  C   UNL     1      -6.782   7.131  63.695  1.00  0.00    -0.044 C  
HETATM   22  O   UNL     1      -5.820   6.999  65.959  1.00  0.00    -0.033 OA 
HETATM   23  C   UNL     1      -5.695   7.621  64.678  1.00  0.00    -0.037 C  
HETATM   24  O   UNL     1      -6.510   7.505  62.353  1.00  0.00    -0.068 OA 
HETATM   25  O   UNL     1      -8.089   7.555  64.092  1.00  0.00    -0.131 OA 
HETATM   26  H   UNL     1      -5.766   6.054  65.878  1.00  0.00     0.000 HD 
HETATM   27  H   UNL     1      -7.178   7.204  61.749  1.00  0.00     0.000 HD 
HETATM   28  C   UNL     1      -8.268   8.962  64.296  1.00  0.00    -0.169 C  
BRANCH  28  29
HETATM   29  C   UNL     1      -8.466   9.740  62.986  1.00  0.00    -0.180 C  
HETATM   30  O   UNL     1      -8.403  11.145  63.222  1.00  0.00    -0.392 OA 
HETATM   31  H   UNL     1      -8.526  11.626  62.412  1.00  0.00     0.000 HD 
ENDBRANCH  28  29
ENDBRANCH  16  17
ENDBRANCH   6  16
ENDBRANCH   3   4
TORSDOF 4
ENDMDL
MODEL      197
REMARK 921   NORMALIZED FREE ENERGY PREDICTED BY IDOCK:   -2.45 KCAL/MOL
REMARK 922        TOTAL FREE ENERGY PREDICTED BY IDOCK:   -4.34 KCAL/MOL
REMARK 923 INTER-LIGAND FREE ENERGY PREDICTED BY IDOCK:   -3.59 KCAL/MOL
REMARK 924 INTRA-LIGAND FREE ENERGY PREDICTED BY IDOCK:   -0.75 KCAL/MOL
REMARK 927      BINDING AFFINITY PREDICTED BY RF-SCORE:    0.00 PKD
ROOT
HETATM    1  O   UNL     1     -11.796   7.087  69.911  1.00  0.00    -0.579 OA 
HETATM    2  H   UNL     1     -12.428   6.813  69.257  1.00  0.00     0.000 HD 
HETATM    3  C   UNL     1     -10.983   5.982  70.308  1.00  0.00    -0.342 C  
ENDROOT
BRANCH   3   4
HETATM    4  C   UNL     1      -9.954   6.427  71.371  1.00  0.00    -0.184 C  
HETATM    5  O   UNL     1      -8.608   6.039  71.045  1.00  0.00    -0.129 OA 
HETATM    6  C   UNL     1      -7.906   6.868  70.115  1.00  0.00    -0.106 C  
HETATM    7  H   UNL     1     -10.848   9.382  69.775  1.00  0.00     0.000 HD 
HETATM    8  C   UNL     1      -7.831   8.318  70.641  1.00  0.00    -0.092 C  
HETATM    9  O   UNL     1      -7.094   8.401  71.868  1.00  0.00    -0.081 OA 
HETATM   10  H   UNL     1     -11.474   9.269  72.090  1.00  0.00     0.000 HD 
HETATM   11  C   UNL     1      -9.249   8.851  70.867  1.00  0.00    -0.231 C  
HETATM   12  C   UNL     1     -10.053   7.913  71.778  1.00  0.00    -0.185 C  
HETATM   13  O   UNL     1      -9.968   9.053  69.635  1.00  0.00    -0.181 OA 
HETATM   14  H   UNL     1      -7.048   9.292  72.191  1.00  0.00     0.000 HD 
HETATM   15  O   UNL     1     -11.413   8.355  71.839  1.00  0.00    -0.276 OA 
BRANCH   6  16
HETATM   16  O   UNL     1      -8.503   6.746  68.825  1.00  0.00    -0.123 OA 
BRANCH  16  17
HETATM   17  C   UNL     1      -7.666   6.904  67.662  1.00  0.00    -0.111 C  
HETATM   18  O   UNL     1      -6.146   5.817  66.078  1.00  0.00    -0.027 OA 
HETATM   19  C   UNL     1      -7.084   5.580  67.138  1.00  0.00    -0.074 C  
HETATM   20  H   UNL     1      -5.787   4.999  65.755  1.00  0.00     0.000 HD 
HETATM   21  C   UNL     1      -9.021   5.423  65.550  1.00  0.00    -0.144 C  
HETATM   22  O   UNL     1      -9.034   4.234  67.708  1.00  0.00    -0.107 OA 
HETATM   23  C   UNL     1      -8.207   4.670  66.626  1.00  0.00    -0.106 C  
HETATM   24  O   UNL     1      -8.292   5.608  64.347  1.00  0.00    -0.137 OA 
HETATM   25  O   UNL     1      -9.529   6.667  66.040  1.00  0.00    -0.078 OA 
HETATM   26  H   UNL     1      -9.729   3.670  67.391  1.00  0.00     0.000 HD 
HETATM   27  H   UNL     1      -8.792   6.071  63.685  1.00  0.00     0.000 HD 
HETATM   28  C   UNL     1      -8.567   7.573  66.593  1.00  0.00    -0.130 C  
BRANCH  28  29
HETATM   29  C   UNL     1      -7.799   8.364  65.523  1.00  0.00    -0.109 C  
HETATM   30  O   UNL     1      -6.528   8.780  66.020  1.00  0.00    -0.056 OA 
HETATM   31  H   UNL     1      -6.054   9.268  65.359  1.00  0.00     0.000 HD 
ENDBRANCH  28  29
ENDBRANCH  16  17
ENDBRANCH   6  16
ENDBRANCH   3   4
TORSDOF 4
ENDMDL
MODEL      198
REMARK 921   NORMALIZED FREE ENERGY PREDICTED BY IDOCK:   -2.44 KCAL/MOL
REMARK 922        TOTAL FREE ENERGY PREDICTED BY IDOCK:   -4.32 KCAL/MOL
REMARK 923 INTER-LIGAND FREE ENERGY PREDICTED BY IDOCK:   -3.22 KCAL/MOL
REMARK 924 INTRA-LIGAND FREE ENERGY PREDICTED BY IDOCK:   -1.10 KCAL/MOL
REMARK 927      BINDING AFFINITY PREDICTED BY RF-SCORE:    0.00 PKD
ROOT
HETATM    1  O   UNL     1     -10.357  10.499  69.693  1.00  0.00    -0.273 OA 
HETATM    2  H   UNL     1     -10.858  10.772  70.452  1.00  0.00     0.000 HD 
HETATM    3  C   UNL     1      -9.669   9.277  69.965  1.00  0.00    -0.207 C  
ENDROOT
BRANCH   3   4
HETATM    4  C   UNL     1      -8.854   8.833  68.731  1.00  0.00    -0.134 C  
HETATM    5  O   UNL     1      -7.810   7.897  69.055  1.00  0.00    -0.106 OA 
HETATM    6  C   UNL     1      -8.197   6.529  69.208  1.00  0.00    -0.123 C  
HETATM    7  H   UNL     1     -11.916   7.239  68.333  1.00  0.00     0.000 HD 
HETATM    8  C   UNL     1      -8.865   6.014  67.913  1.00  0.00    -0.110 C  
HETATM    9  O   UNL     1      -7.959   6.040  66.802  1.00  0.00    -0.100 OA 
HETATM   10  H   UNL     1     -11.414   8.874  66.647  1.00  0.00     0.000 HD 
HETATM   11  C   UNL     1     -10.085   6.882  67.591  1.00  0.00    -0.161 C  
HETATM   12  C   UNL     1      -9.705   8.368  67.531  1.00  0.00    -0.162 C  
HETATM   13  O   UNL     1     -11.159   6.700  68.532  1.00  0.00    -0.256 OA 
HETATM   14  H   UNL     1      -8.370   5.724  66.006  1.00  0.00     0.000 HD 
HETATM   15  O   UNL     1     -10.890   9.159  67.386  1.00  0.00    -0.243 OA 
BRANCH   6  16
HETATM   16  O   UNL     1      -9.007   6.392  70.375  1.00  0.00    -0.152 OA 
BRANCH  16  17
HETATM   17  C   UNL     1      -8.360   6.393  71.664  1.00  0.00    -0.125 C  
HETATM   18  O   UNL     1      -8.632   6.660  74.083  1.00  0.00    -0.128 OA 
HETATM   19  C   UNL     1      -9.339   6.515  72.843  1.00  0.00    -0.135 C  
HETATM   20  H   UNL     1      -9.238   6.736  74.812  1.00  0.00     0.000 HD 
HETATM   21  C   UNL     1      -9.360   4.011  73.011  1.00  0.00    -0.110 C  
HETATM   22  O   UNL     1     -11.122   5.227  71.793  1.00  0.00    -0.141 OA 
HETATM   23  C   UNL     1     -10.241   5.276  72.918  1.00  0.00    -0.183 C  
HETATM   24  O   UNL     1      -8.695   3.902  74.261  1.00  0.00    -0.094 OA 
HETATM   25  O   UNL     1      -8.431   3.927  71.926  1.00  0.00    -0.094 OA 
HETATM   26  H   UNL     1     -11.680   4.459  71.838  1.00  0.00     0.000 HD 
HETATM   27  H   UNL     1      -8.153   3.124  74.318  1.00  0.00     0.000 HD 
HETATM   28  C   UNL     1      -7.575   5.059  71.732  1.00  0.00    -0.104 C  
BRANCH  28  29
HETATM   29  C   UNL     1      -6.376   5.078  72.693  1.00  0.00    -0.039 C  
HETATM   30  O   UNL     1      -5.788   6.378  72.736  1.00  0.00    -0.037 OA 
HETATM   31  H   UNL     1      -5.047   6.390  73.330  1.00  0.00     0.000 HD 
ENDBRANCH  28  29
ENDBRANCH  16  17
ENDBRANCH   6  16
ENDBRANCH   3   4
TORSDOF 4
ENDMDL
MODEL      199
REMARK 921   NORMALIZED FREE ENERGY PREDICTED BY IDOCK:   -2.43 KCAL/MOL
REMARK 922        TOTAL FREE ENERGY PREDICTED BY IDOCK:   -4.30 KCAL/MOL
REMARK 923 INTER-LIGAND FREE ENERGY PREDICTED BY IDOCK:   -3.33 KCAL/MOL
REMARK 924 INTRA-LIGAND FREE ENERGY PREDICTED BY IDOCK:   -0.98 KCAL/MOL
REMARK 927      BINDING AFFINITY PREDICTED BY RF-SCORE:    0.00 PKD
ROOT
HETATM    1  O   UNL     1      -9.297   5.447  69.180  1.00  0.00    -0.113 OA 
HETATM    2  H   UNL     1      -9.334   4.684  69.744  1.00  0.00     0.000 HD 
HETATM    3  C   UNL     1     -10.532   6.163  69.232  1.00  0.00    -0.254 C  
ENDROOT
BRANCH   3   4
HETATM    4  C   UNL     1     -10.472   7.404  68.315  1.00  0.00    -0.189 C  
HETATM    5  O   UNL     1     -10.303   8.633  69.044  1.00  0.00    -0.208 OA 
HETATM    6  C   UNL     1      -8.974   8.958  69.458  1.00  0.00    -0.145 C  
HETATM    7  H   UNL     1      -7.429   5.814  67.777  1.00  0.00     0.000 HD 
HETATM    8  C   UNL     1      -8.037   9.040  68.232  1.00  0.00    -0.109 C  
HETATM    9  O   UNL     1      -8.429  10.084  67.333  1.00  0.00    -0.121 OA 
HETATM   10  H   UNL     1      -8.871   5.887  65.858  1.00  0.00     0.000 HD 
HETATM   11  C   UNL     1      -8.053   7.700  67.490  1.00  0.00    -0.120 C  
HETATM   12  C   UNL     1      -9.486   7.284  67.133  1.00  0.00    -0.145 C  
HETATM   13  O   UNL     1      -7.419   6.645  68.237  1.00  0.00    -0.091 OA 
HETATM   14  H   UNL     1      -7.853  10.135  66.579  1.00  0.00     0.000 HD 
HETATM   15  O   UNL     1      -9.478   5.961  66.585  1.00  0.00    -0.142 OA 
BRANCH   6  16
HETATM   16  O   UNL     1      -8.547   8.032  70.456  1.00  0.00    -0.129 OA 
BRANCH  16  17
HETATM   17  C   UNL     1      -7.837   8.538  71.605  1.00  0.00    -0.124 C  
HETATM   18  O   UNL     1      -7.807   8.780  74.042  1.00  0.00    -0.408 OA 
HETATM   19  C   UNL     1      -8.465   8.128  72.947  1.00  0.00    -0.196 C  
HETATM   20  H   UNL     1      -8.195   8.526  74.871  1.00  0.00     0.000 HD 
HETATM   21  C   UNL     1      -6.899   6.168  73.016  1.00  0.00    -0.078 C  
HETATM   22  O   UNL     1      -9.207   5.933  72.189  1.00  0.00    -0.146 OA 
HETATM   23  C   UNL     1      -8.375   6.608  73.135  1.00  0.00    -0.116 C  
HETATM   24  O   UNL     1      -6.113   6.596  74.118  1.00  0.00    -0.063 OA 
HETATM   25  O   UNL     1      -6.317   6.585  71.778  1.00  0.00    -0.041 OA 
HETATM   26  H   UNL     1      -9.151   4.992  72.305  1.00  0.00     0.000 HD 
HETATM   27  H   UNL     1      -5.205   6.326  74.045  1.00  0.00     0.000 HD 
HETATM   28  C   UNL     1      -6.396   7.983  71.476  1.00  0.00    -0.040 C  
BRANCH  28  29
HETATM   29  C   UNL     1      -5.329   8.817  72.201  1.00  0.00    -0.051 C  
HETATM   30  O   UNL     1      -5.686  10.198  72.202  1.00  0.00    -0.297 OA 
HETATM   31  H   UNL     1      -5.026  10.714  72.650  1.00  0.00     0.000 HD 
ENDBRANCH  28  29
ENDBRANCH  16  17
ENDBRANCH   6  16
ENDBRANCH   3   4
TORSDOF 4
ENDMDL
MODEL      200
REMARK 921   NORMALIZED FREE ENERGY PREDICTED BY IDOCK:   -2.41 KCAL/MOL
REMARK 922        TOTAL FREE ENERGY PREDICTED BY IDOCK:   -4.28 KCAL/MOL
REMARK 923 INTER-LIGAND FREE ENERGY PREDICTED BY IDOCK:   -5.40 KCAL/MOL
REMARK 924 INTRA-LIGAND FREE ENERGY PREDICTED BY IDOCK:    1.12 KCAL/MOL
REMARK 927      BINDING AFFINITY PREDICTED BY RF-SCORE:    0.00 PKD
ROOT
HETATM    1  O   UNL     1      -7.077  21.340  67.821  1.00  0.00    -0.351 OA 
HETATM    2  H   UNL     1      -7.785  21.868  67.472  1.00  0.00     0.000 HD 
HETATM    3  C   UNL     1      -7.536  20.014  68.094  1.00  0.00    -0.266 C  
ENDROOT
BRANCH   3   4
HETATM    4  C   UNL     1      -6.385  19.155  68.661  1.00  0.00    -0.248 C  
HETATM    5  O   UNL     1      -6.839  18.149  69.584  1.00  0.00    -0.113 OA 
HETATM    6  C   UNL     1      -7.368  16.947  69.018  1.00  0.00    -0.231 C  
HETATM    7  H   UNL     1      -6.686  18.089  65.367  1.00  0.00     0.000 HD 
HETATM    8  C   UNL     1      -6.313  16.272  68.114  1.00  0.00    -0.123 C  
HETATM    9  O   UNL     1      -5.154  15.873  68.857  1.00  0.00    -0.101 OA 
HETATM   10  H   UNL     1      -4.602  19.165  65.882  1.00  0.00     0.000 HD 
HETATM   11  C   UNL     1      -5.894  17.245  67.007  1.00  0.00    -0.164 C  
HETATM   12  C   UNL     1      -5.425  18.583  67.597  1.00  0.00    -0.159 C  
HETATM   13  O   UNL     1      -6.945  17.485  66.053  1.00  0.00    -0.285 OA 
HETATM   14  H   UNL     1      -4.505  15.459  68.301  1.00  0.00     0.000 HD 
HETATM   15  O   UNL     1      -5.193  19.517  66.537  1.00  0.00    -0.163 OA 
BRANCH   6  16
HETATM   16  O   UNL     1      -8.600  17.235  68.359  1.00  0.00    -0.236 OA 
BRANCH  16  17
HETATM   17  C   UNL     1      -9.060  16.330  67.335  1.00  0.00    -0.195 C  
HETATM   18  O   UNL     1      -9.606  14.014  66.752  1.00  0.00    -0.265 OA 
HETATM   19  C   UNL     1      -9.296  14.896  67.840  1.00  0.00    -0.191 C  
HETATM   20  H   UNL     1      -9.751  13.129  67.064  1.00  0.00     0.000 HD 
HETATM   21  C   UNL     1     -11.708  15.484  68.207  1.00  0.00    -0.274 C  
HETATM   22  O   UNL     1     -10.076  15.561  70.051  1.00  0.00    -0.313 OA 
HETATM   23  C   UNL     1     -10.446  14.871  68.854  1.00  0.00    -0.242 C  
HETATM   24  O   UNL     1     -12.259  14.653  67.196  1.00  0.00    -0.523 OA 
HETATM   25  O   UNL     1     -11.466  16.804  67.712  1.00  0.00    -0.024 OA 
HETATM   26  H   UNL     1     -10.788  15.546  70.679  1.00  0.00     0.000 HD 
HETATM   27  H   UNL     1     -13.035  15.030  66.798  1.00  0.00     0.000 HD 
HETATM   28  C   UNL     1     -10.374  16.950  66.796  1.00  0.00    -0.298 C  
BRANCH  28  29
HETATM   29  C   UNL     1     -10.731  16.530  65.362  1.00  0.00    -0.259 C  
HETATM   30  O   UNL     1     -10.355  15.174  65.127  1.00  0.00    -0.379 OA 
HETATM   31  H   UNL     1     -10.575  14.915  64.241  1.00  0.00     0.000 HD 
ENDBRANCH  28  29
ENDBRANCH  16  17
ENDBRANCH   6  16
ENDBRANCH   3   4
TORSDOF 4
ENDMDL
MODEL      201
REMARK 921   NORMALIZED FREE ENERGY PREDICTED BY IDOCK:   -2.37 KCAL/MOL
REMARK 922        TOTAL FREE ENERGY PREDICTED BY IDOCK:   -4.23 KCAL/MOL
REMARK 923 INTER-LIGAND FREE ENERGY PREDICTED BY IDOCK:   -3.30 KCAL/MOL
REMARK 924 INTRA-LIGAND FREE ENERGY PREDICTED BY IDOCK:   -0.93 KCAL/MOL
REMARK 927      BINDING AFFINITY PREDICTED BY RF-SCORE:    0.00 PKD
ROOT
HETATM    1  O   UNL     1      -5.853   5.701  67.308  1.00  0.00    -0.016 OA 
HETATM    2  H   UNL     1      -5.293   6.457  67.440  1.00  0.00     0.000 HD 
HETATM    3  C   UNL     1      -5.553   4.687  68.268  1.00  0.00    -0.016 C  
ENDROOT
BRANCH   3   4
HETATM    4  C   UNL     1      -6.464   3.459  68.054  1.00  0.00    -0.037 C  
HETATM    5  O   UNL     1      -7.588   3.430  68.952  1.00  0.00    -0.052 OA 
HETATM    6  C   UNL     1      -8.712   4.241  68.603  1.00  0.00    -0.096 C  
HETATM    7  H   UNL     1      -7.096   5.466  65.289  1.00  0.00     0.000 HD 
HETATM    8  C   UNL     1      -9.250   3.839  67.211  1.00  0.00    -0.183 C  
HETATM    9  O   UNL     1      -9.727   2.487  67.196  1.00  0.00    -0.400 OA 
HETATM   10  H   UNL     1      -6.068   3.357  64.778  1.00  0.00     0.000 HD 
HETATM   11  C   UNL     1      -8.136   3.993  66.172  1.00  0.00    -0.098 C  
HETATM   12  C   UNL     1      -6.880   3.214  66.588  1.00  0.00    -0.053 C  
HETATM   13  O   UNL     1      -7.788   5.370  65.933  1.00  0.00    -0.100 OA 
HETATM   14  H   UNL     1     -10.057   2.240  66.341  1.00  0.00     0.000 HD 
HETATM   15  O   UNL     1      -5.813   3.508  65.680  1.00  0.00    -0.018 OA 
BRANCH   6  16
HETATM   16  O   UNL     1      -8.358   5.618  68.714  1.00  0.00    -0.102 OA 
BRANCH  16  17
HETATM   17  C   UNL     1      -9.414   6.598  68.769  1.00  0.00    -0.129 C  
HETATM   18  O   UNL     1     -11.114   7.691  70.153  1.00  0.00    -0.261 OA 
HETATM   19  C   UNL     1      -9.973   6.823  70.184  1.00  0.00    -0.177 C  
HETATM   20  H   UNL     1     -11.459   7.830  71.028  1.00  0.00     0.000 HD 
HETATM   21  C   UNL     1      -8.373   8.738  70.450  1.00  0.00    -0.140 C  
HETATM   22  O   UNL     1      -7.843   6.496  71.323  1.00  0.00    -0.100 OA 
HETATM   23  C   UNL     1      -8.897   7.434  71.091  1.00  0.00    -0.142 C  
HETATM   24  O   UNL     1      -9.334   9.782  70.477  1.00  0.00    -0.330 OA 
HETATM   25  O   UNL     1      -7.887   8.521  69.122  1.00  0.00    -0.096 OA 
HETATM   26  H   UNL     1      -7.176   6.875  71.884  1.00  0.00     0.000 HD 
HETATM   27  H   UNL     1      -9.012  10.584  70.083  1.00  0.00     0.000 HD 
HETATM   28  C   UNL     1      -8.797   7.903  68.204  1.00  0.00    -0.125 C  
BRANCH  28  29
HETATM   29  C   UNL     1      -9.821   8.885  67.617  1.00  0.00    -0.182 C  
HETATM   30  O   UNL     1     -11.041   8.214  67.308  1.00  0.00    -0.451 OA 
HETATM   31  H   UNL     1     -11.675   8.821  66.945  1.00  0.00     0.000 HD 
ENDBRANCH  28  29
ENDBRANCH  16  17
ENDBRANCH   6  16
ENDBRANCH   3   4
TORSDOF 4
ENDMDL
MODEL      202
REMARK 921   NORMALIZED FREE ENERGY PREDICTED BY IDOCK:   -2.37 KCAL/MOL
REMARK 922        TOTAL FREE ENERGY PREDICTED BY IDOCK:   -4.23 KCAL/MOL
REMARK 923 INTER-LIGAND FREE ENERGY PREDICTED BY IDOCK:   -3.46 KCAL/MOL
REMARK 924 INTRA-LIGAND FREE ENERGY PREDICTED BY IDOCK:   -0.77 KCAL/MOL
REMARK 927      BINDING AFFINITY PREDICTED BY RF-SCORE:    0.00 PKD
ROOT
HETATM    1  O   UNL     1      -7.524   5.225  68.209  1.00  0.00    -0.074 OA 
HETATM    2  H   UNL     1      -6.809   4.603  68.270  1.00  0.00     0.000 HD 
HETATM    3  C   UNL     1      -8.770   4.538  68.085  1.00  0.00    -0.103 C  
ENDROOT
BRANCH   3   4
HETATM    4  C   UNL     1      -9.933   5.550  67.985  1.00  0.00    -0.149 C  
HETATM    5  O   UNL     1     -10.509   5.871  69.264  1.00  0.00    -0.217 OA 
HETATM    6  C   UNL     1      -9.820   6.843  70.055  1.00  0.00    -0.173 C  
HETATM    7  H   UNL     1      -7.099   7.460  67.350  1.00  0.00     0.000 HD 
HETATM    8  C   UNL     1      -9.698   8.174  69.279  1.00  0.00    -0.170 C  
HETATM    9  O   UNL     1     -10.982   8.744  68.997  1.00  0.00    -0.426 OA 
HETATM   10  H   UNL     1      -8.617   7.277  65.497  1.00  0.00     0.000 HD 
HETATM   11  C   UNL     1      -8.952   7.929  67.964  1.00  0.00    -0.127 C  
HETATM   12  C   UNL     1      -9.619   6.810  67.151  1.00  0.00    -0.144 C  
HETATM   13  O   UNL     1      -7.562   7.612  68.165  1.00  0.00    -0.108 OA 
HETATM   14  H   UNL     1     -10.907   9.561  68.520  1.00  0.00     0.000 HD 
HETATM   15  O   UNL     1      -8.810   6.501  66.011  1.00  0.00    -0.152 OA 
BRANCH   6  16
HETATM   16  O   UNL     1      -8.571   6.305  70.488  1.00  0.00    -0.135 OA 
BRANCH  16  17
HETATM   17  C   UNL     1      -8.380   6.060  71.896  1.00  0.00    -0.115 C  
HETATM   18  O   UNL     1      -6.771   5.635  73.693  1.00  0.00    -0.076 OA 
HETATM   19  C   UNL     1      -6.902   6.028  72.320  1.00  0.00    -0.073 C  
HETATM   20  H   UNL     1      -5.858   5.615  73.955  1.00  0.00     0.000 HD 
HETATM   21  C   UNL     1      -7.079   8.461  72.910  1.00  0.00    -0.067 C  
HETATM   22  O   UNL     1      -6.176   7.733  70.737  1.00  0.00    -0.034 OA 
HETATM   23  C   UNL     1      -6.263   7.409  72.127  1.00  0.00    -0.040 C  
HETATM   24  O   UNL     1      -6.937   8.323  74.316  1.00  0.00    -0.139 OA 
HETATM   25  O   UNL     1      -8.458   8.457  72.530  1.00  0.00    -0.192 OA 
HETATM   26  H   UNL     1      -5.780   8.588  70.617  1.00  0.00     0.000 HD 
HETATM   27  H   UNL     1      -7.439   8.970  74.797  1.00  0.00     0.000 HD 
HETATM   28  C   UNL     1      -9.139   7.200  72.620  1.00  0.00    -0.134 C  
BRANCH  28  29
HETATM   29  C   UNL     1      -9.583   6.857  74.050  1.00  0.00    -0.266 C  
HETATM   30  O   UNL     1     -10.987   6.607  74.094  1.00  0.00    -0.350 OA 
HETATM   31  H   UNL     1     -11.261   6.395  74.978  1.00  0.00     0.000 HD 
ENDBRANCH  28  29
ENDBRANCH  16  17
ENDBRANCH   6  16
ENDBRANCH   3   4
TORSDOF 4
ENDMDL
MODEL      203
REMARK 921   NORMALIZED FREE ENERGY PREDICTED BY IDOCK:   -2.34 KCAL/MOL
REMARK 922        TOTAL FREE ENERGY PREDICTED BY IDOCK:   -4.19 KCAL/MOL
REMARK 923 INTER-LIGAND FREE ENERGY PREDICTED BY IDOCK:   -3.51 KCAL/MOL
REMARK 924 INTRA-LIGAND FREE ENERGY PREDICTED BY IDOCK:   -0.69 KCAL/MOL
REMARK 927      BINDING AFFINITY PREDICTED BY RF-SCORE:    0.00 PKD
ROOT
HETATM    1  O   UNL     1      -8.515   4.411  68.869  1.00  0.00    -0.082 OA 
HETATM    2  H   UNL     1      -8.494   4.152  69.782  1.00  0.00     0.000 HD 
HETATM    3  C   UNL     1      -9.663   3.857  68.223  1.00  0.00    -0.051 C  
ENDROOT
BRANCH   3   4
HETATM    4  C   UNL     1      -9.698   4.277  66.738  1.00  0.00    -0.219 C  
HETATM    5  O   UNL     1     -10.422   5.502  66.519  1.00  0.00    -0.245 OA 
HETATM    6  C   UNL     1      -9.719   6.720  66.777  1.00  0.00    -0.171 C  
HETATM    7  H   UNL     1      -6.418   4.893  67.708  1.00  0.00     0.000 HD 
HETATM    8  C   UNL     1      -8.446   6.798  65.906  1.00  0.00    -0.144 C  
HETATM    9  O   UNL     1      -8.759   6.821  64.508  1.00  0.00    -0.338 OA 
HETATM   10  H   UNL     1      -6.663   3.182  66.041  1.00  0.00     0.000 HD 
HETATM   11  C   UNL     1      -7.551   5.591  66.204  1.00  0.00    -0.091 C  
HETATM   12  C   UNL     1      -8.324   4.276  66.036  1.00  0.00    -0.109 C  
HETATM   13  O   UNL     1      -6.973   5.642  67.522  1.00  0.00    -0.062 OA 
HETATM   14  H   UNL     1      -7.977   6.869  63.972  1.00  0.00     0.000 HD 
HETATM   15  O   UNL     1      -7.509   3.183  66.473  1.00  0.00    -0.073 OA 
BRANCH   6  16
HETATM   16  O   UNL     1      -9.475   6.839  68.178  1.00  0.00    -0.123 OA 
BRANCH  16  17
HETATM   17  C   UNL     1      -9.239   8.152  68.725  1.00  0.00    -0.144 C  
HETATM   18  O   UNL     1      -9.959   9.851  70.336  1.00  0.00    -0.320 OA 
HETATM   19  C   UNL     1     -10.133   8.486  69.931  1.00  0.00    -0.195 C  
HETATM   20  H   UNL     1     -10.511  10.057  71.082  1.00  0.00     0.000 HD 
HETATM   21  C   UNL     1      -8.297   7.680  71.441  1.00  0.00    -0.107 C  
HETATM   22  O   UNL     1     -10.176   6.215  70.816  1.00  0.00    -0.187 OA 
HETATM   23  C   UNL     1      -9.802   7.563  71.111  1.00  0.00    -0.173 C  
HETATM   24  O   UNL     1      -7.961   8.935  72.014  1.00  0.00    -0.350 OA 
HETATM   25  O   UNL     1      -7.478   7.400  70.302  1.00  0.00    -0.079 OA 
HETATM   26  H   UNL     1      -9.970   5.644  71.546  1.00  0.00     0.000 HD 
HETATM   27  H   UNL     1      -7.036   9.007  72.216  1.00  0.00     0.000 HD 
HETATM   28  C   UNL     1      -7.742   8.171  69.123  1.00  0.00    -0.098 C  
BRANCH  28  29
HETATM   29  C   UNL     1      -7.116   9.572  69.168  1.00  0.00    -0.062 C  
HETATM   30  O   UNL     1      -7.242  10.220  67.903  1.00  0.00    -0.084 OA 
HETATM   31  H   UNL     1      -6.854  11.086  67.930  1.00  0.00     0.000 HD 
ENDBRANCH  28  29
ENDBRANCH  16  17
ENDBRANCH   6  16
ENDBRANCH   3   4
TORSDOF 4
ENDMDL
MODEL      204
REMARK 921   NORMALIZED FREE ENERGY PREDICTED BY IDOCK:   -2.23 KCAL/MOL
REMARK 922        TOTAL FREE ENERGY PREDICTED BY IDOCK:   -4.07 KCAL/MOL
REMARK 923 INTER-LIGAND FREE ENERGY PREDICTED BY IDOCK:   -3.20 KCAL/MOL
REMARK 924 INTRA-LIGAND FREE ENERGY PREDICTED BY IDOCK:   -0.86 KCAL/MOL
REMARK 927      BINDING AFFINITY PREDICTED BY RF-SCORE:    0.00 PKD
ROOT
HETATM    1  O   UNL     1     -10.319   3.657  64.849  1.00  0.00    -0.390 OA 
HETATM    2  H   UNL     1     -11.044   4.024  64.357  1.00  0.00     0.000 HD 
HETATM    3  C   UNL     1      -9.210   4.557  64.844  1.00  0.00    -0.156 C  
ENDROOT
BRANCH   3   4
HETATM    4  C   UNL     1      -8.032   3.961  65.644  1.00  0.00    -0.093 C  
HETATM    5  O   UNL     1      -6.755   4.487  65.239  1.00  0.00    -0.046 OA 
HETATM    6  C   UNL     1      -6.386   5.761  65.773  1.00  0.00    -0.042 C  
HETATM    7  H   UNL     1      -9.612   6.061  67.917  1.00  0.00     0.000 HD 
HETATM    8  C   UNL     1      -6.371   5.710  67.317  1.00  0.00    -0.042 C  
HETATM    9  O   UNL     1      -5.394   4.784  67.809  1.00  0.00    -0.010 OA 
HETATM   10  H   UNL     1      -9.685   3.731  68.493  1.00  0.00     0.000 HD 
HETATM   11  C   UNL     1      -7.757   5.299  67.825  1.00  0.00    -0.091 C  
HETATM   12  C   UNL     1      -8.216   3.986  67.176  1.00  0.00    -0.099 C  
HETATM   13  O   UNL     1      -8.752   6.316  67.603  1.00  0.00    -0.114 OA 
HETATM   14  H   UNL     1      -5.385   4.753  68.758  1.00  0.00     0.000 HD 
HETATM   15  O   UNL     1      -9.571   3.716  67.550  1.00  0.00    -0.202 OA 
BRANCH   6  16
HETATM   16  O   UNL     1      -7.238   6.769  65.232  1.00  0.00    -0.068 OA 
BRANCH  16  17
HETATM   17  C   UNL     1      -6.760   8.129  65.200  1.00  0.00    -0.052 C  
HETATM   18  O   UNL     1      -6.048  10.010  63.803  1.00  0.00    -0.116 OA 
HETATM   19  C   UNL     1      -6.666   8.716  63.782  1.00  0.00    -0.087 C  
HETATM   20  H   UNL     1      -5.990  10.373  62.926  1.00  0.00     0.000 HD 
HETATM   21  C   UNL     1      -8.964   9.678  64.088  1.00  0.00    -0.229 C  
HETATM   22  O   UNL     1      -8.617   7.537  62.919  1.00  0.00    -0.374 OA 
HETATM   23  C   UNL     1      -8.063   8.833  63.160  1.00  0.00    -0.176 C  
HETATM   24  O   UNL     1      -8.592  11.047  64.109  1.00  0.00    -0.371 OA 
HETATM   25  O   UNL     1      -9.016   9.140  65.413  1.00  0.00    -0.187 OA 
HETATM   26  H   UNL     1      -9.482   7.610  62.534  1.00  0.00     0.000 HD 
HETATM   27  H   UNL     1      -9.146  11.566  64.680  1.00  0.00     0.000 HD 
HETATM   28  C   UNL     1      -7.759   8.937  66.068  1.00  0.00    -0.098 C  
BRANCH  28  29
HETATM   29  C   UNL     1      -7.177  10.227  66.667  1.00  0.00    -0.109 C  
HETATM   30  O   UNL     1      -5.909   9.974  67.268  1.00  0.00    -0.049 OA 
HETATM   31  H   UNL     1      -5.549  10.771  67.639  1.00  0.00     0.000 HD 
ENDBRANCH  28  29
ENDBRANCH  16  17
ENDBRANCH   6  16
ENDBRANCH   3   4
TORSDOF 4
ENDMDL
MODEL      205
REMARK 921   NORMALIZED FREE ENERGY PREDICTED BY IDOCK:   -2.22 KCAL/MOL
REMARK 922        TOTAL FREE ENERGY PREDICTED BY IDOCK:   -4.05 KCAL/MOL
REMARK 923 INTER-LIGAND FREE ENERGY PREDICTED BY IDOCK:   -3.18 KCAL/MOL
REMARK 924 INTRA-LIGAND FREE ENERGY PREDICTED BY IDOCK:   -0.87 KCAL/MOL
REMARK 927      BINDING AFFINITY PREDICTED BY RF-SCORE:    0.00 PKD
ROOT
HETATM    1  O   UNL     1      -7.688  10.458  70.253  1.00  0.00    -0.414 OA 
HETATM    2  H   UNL     1      -6.972  11.082  70.232  1.00  0.00     0.000 HD 
HETATM    3  C   UNL     1      -7.585   9.547  69.157  1.00  0.00    -0.075 C  
ENDROOT
BRANCH   3   4
HETATM    4  C   UNL     1      -8.749   8.533  69.191  1.00  0.00    -0.134 C  
HETATM    5  O   UNL     1     -10.036   9.150  69.005  1.00  0.00    -0.173 OA 
HETATM    6  C   UNL     1     -10.420   9.444  67.659  1.00  0.00    -0.268 C  
HETATM    7  H   UNL     1      -7.183   7.912  66.151  1.00  0.00     0.000 HD 
HETATM    8  C   UNL     1     -10.422   8.153  66.810  1.00  0.00    -0.246 C  
HETATM    9  O   UNL     1     -11.383   7.204  67.289  1.00  0.00    -0.584 OA 
HETATM   10  H   UNL     1      -7.073   6.098  67.721  1.00  0.00     0.000 HD 
HETATM   11  C   UNL     1      -9.028   7.521  66.841  1.00  0.00    -0.135 C  
HETATM   12  C   UNL     1      -8.555   7.299  68.285  1.00  0.00    -0.123 C  
HETATM   13  O   UNL     1      -8.049   8.303  66.132  1.00  0.00    -0.103 OA 
HETATM   14  H   UNL     1     -11.385   6.411  66.767  1.00  0.00     0.000 HD 
HETATM   15  O   UNL     1      -7.193   6.858  68.279  1.00  0.00    -0.085 OA 
BRANCH   6  16
HETATM   16  O   UNL     1      -9.586  10.480  67.142  1.00  0.00    -0.164 OA 
BRANCH  16  17
HETATM   17  C   UNL     1     -10.202  11.556  66.407  1.00  0.00    -0.224 C  
HETATM   18  O   UNL     1      -9.858  13.638  65.164  1.00  0.00    -0.549 OA 
HETATM   19  C   UNL     1      -9.192  12.512  65.751  1.00  0.00     0.122 C  
HETATM   20  H   UNL     1      -9.233  14.228  64.758  1.00  0.00     0.000 HD 
HETATM   21  C   UNL     1      -9.369  11.159  63.644  1.00  0.00    -0.211 C  
HETATM   22  O   UNL     1      -7.541  10.788  65.254  1.00  0.00    -0.331 OA 
HETATM   23  C   UNL     1      -8.391  11.778  64.668  1.00  0.00     1.335 C  
HETATM   24  O   UNL     1     -10.014  12.140  62.846  1.00  0.00    -0.446 OA 
HETATM   25  O   UNL     1     -10.324  10.299  64.272  1.00  0.00    -0.198 OA 
HETATM   26  H   UNL     1      -7.046  10.334  64.583  1.00  0.00     0.000 HD 
HETATM   27  H   UNL     1     -10.615  11.759  62.217  1.00  0.00     0.000 HD 
HETATM   28  C   UNL     1     -11.091  10.870  65.339  1.00  0.00     0.150 C  
BRANCH  28  29
HETATM   29  C   UNL     1     -12.263  11.731  64.843  1.00  0.00     0.198 C  
HETATM   30  O   UNL     1     -12.652  12.673  65.841  1.00  0.00    -0.526 OA 
HETATM   31  H   UNL     1     -13.377  13.205  65.535  1.00  0.00     0.000 HD 
ENDBRANCH  28  29
ENDBRANCH  16  17
ENDBRANCH   6  16
ENDBRANCH   3   4
TORSDOF 4
ENDMDL
MODEL      206
REMARK 921   NORMALIZED FREE ENERGY PREDICTED BY IDOCK:   -2.22 KCAL/MOL
REMARK 922        TOTAL FREE ENERGY PREDICTED BY IDOCK:   -4.05 KCAL/MOL
REMARK 923 INTER-LIGAND FREE ENERGY PREDICTED BY IDOCK:   -4.78 KCAL/MOL
REMARK 924 INTRA-LIGAND FREE ENERGY PREDICTED BY IDOCK:    0.73 KCAL/MOL
REMARK 927      BINDING AFFINITY PREDICTED BY RF-SCORE:    0.00 PKD
ROOT
HETATM    1  O   UNL     1      -7.437   9.948  68.065  1.00  0.00    -0.084 OA 
HETATM    2  H   UNL     1      -6.553   9.695  68.302  1.00  0.00     0.000 HD 
HETATM    3  C   UNL     1      -7.979   9.028  67.117  1.00  0.00    -0.102 C  
ENDROOT
BRANCH   3   4
HETATM    4  C   UNL     1      -9.417   9.439  66.732  1.00  0.00    -0.165 C  
HETATM    5  O   UNL     1     -10.421   8.768  67.515  1.00  0.00    -0.257 OA 
HETATM    6  C   UNL     1     -10.687   9.303  68.814  1.00  0.00    -0.154 C  
HETATM    7  H   UNL     1      -8.161  12.224  68.388  1.00  0.00     0.000 HD 
HETATM    8  C   UNL     1     -11.127  10.780  68.705  1.00  0.00    -0.259 C  
HETATM    9  O   UNL     1     -12.350  10.917  67.971  1.00  0.00    -0.518 OA 
HETATM   10  H   UNL     1      -8.664  12.585  66.067  1.00  0.00     0.000 HD 
HETATM   11  C   UNL     1     -10.027  11.588  68.010  1.00  0.00    -0.189 C  
HETATM   12  C   UNL     1      -9.653  10.963  66.659  1.00  0.00    -0.185 C  
HETATM   13  O   UNL     1      -8.844  11.724  68.819  1.00  0.00    -0.102 OA 
HETATM   14  H   UNL     1     -12.621  11.825  67.904  1.00  0.00     0.000 HD 
HETATM   15  O   UNL     1      -8.520  11.647  66.113  1.00  0.00    -0.126 OA 
BRANCH   6  16
HETATM   16  O   UNL     1      -9.554   9.094  69.656  1.00  0.00    -0.165 OA 
BRANCH  16  17
HETATM   17  C   UNL     1      -9.423   7.825  70.328  1.00  0.00    -0.160 C  
HETATM   18  O   UNL     1      -9.368   6.650  72.477  1.00  0.00    -0.139 OA 
HETATM   19  C   UNL     1      -9.658   7.906  71.846  1.00  0.00    -0.173 C  
HETATM   20  H   UNL     1      -9.514   6.701  73.415  1.00  0.00     0.000 HD 
HETATM   21  C   UNL     1     -12.057   7.288  71.449  1.00  0.00    -0.335 C  
HETATM   22  O   UNL     1     -11.368   9.638  71.719  1.00  0.00    -0.347 OA 
HETATM   23  C   UNL     1     -11.112   8.296  72.140  1.00  0.00    -0.328 C  
HETATM   24  O   UNL     1     -12.024   6.005  72.056  1.00  0.00    -0.294 OA 
HETATM   25  O   UNL     1     -11.806   7.199  70.044  1.00  0.00    -0.129 OA 
HETATM   26  H   UNL     1     -12.268   9.879  71.900  1.00  0.00     0.000 HD 
HETATM   27  H   UNL     1     -12.605   5.386  71.631  1.00  0.00     0.000 HD 
HETATM   28  C   UNL     1     -10.461   6.892  69.656  1.00  0.00    -0.218 C  
BRANCH  28  29
HETATM   29  C   UNL     1     -10.130   5.396  69.762  1.00  0.00    -0.249 C  
HETATM   30  O   UNL     1      -8.722   5.200  69.880  1.00  0.00    -0.101 OA 
HETATM   31  H   UNL     1      -8.517   4.275  69.945  1.00  0.00     0.000 HD 
ENDBRANCH  28  29
ENDBRANCH  16  17
ENDBRANCH   6  16
ENDBRANCH   3   4
TORSDOF 4
ENDMDL
MODEL      207
REMARK 921   NORMALIZED FREE ENERGY PREDICTED BY IDOCK:   -2.21 KCAL/MOL
REMARK 922        TOTAL FREE ENERGY PREDICTED BY IDOCK:   -4.03 KCAL/MOL
REMARK 923 INTER-LIGAND FREE ENERGY PREDICTED BY IDOCK:   -3.08 KCAL/MOL
REMARK 924 INTRA-LIGAND FREE ENERGY PREDICTED BY IDOCK:   -0.96 KCAL/MOL
REMARK 927      BINDING AFFINITY PREDICTED BY RF-SCORE:    0.00 PKD
ROOT
HETATM    1  O   UNL     1     -10.844  16.779  68.244  1.00  0.00    -0.353 OA 
HETATM    2  H   UNL     1      -9.970  16.971  67.925  1.00  0.00     0.000 HD 
HETATM    3  C   UNL     1     -10.858  16.760  69.673  1.00  0.00    -0.204 C  
ENDROOT
BRANCH   3   4
HETATM    4  C   UNL     1     -12.279  16.448  70.191  1.00  0.00     0.693 C  
HETATM    5  O   UNL     1     -12.880  15.319  69.532  1.00  0.00     0.049 OA 
HETATM    6  C   UNL     1     -12.498  14.022  69.999  1.00  0.00    -0.281 C  
HETATM    7  H   UNL     1     -10.198  15.447  72.789  1.00  0.00     0.000 HD 
HETATM    8  C   UNL     1     -12.820  13.879  71.504  1.00  0.00    -0.361 C  
HETATM    9  O   UNL     1     -14.227  13.983  71.758  1.00  0.00    -0.416 OA 
HETATM   10  H   UNL     1     -11.649  17.285  73.322  1.00  0.00     0.000 HD 
HETATM   11  C   UNL     1     -12.082  14.969  72.288  1.00  0.00    -0.362 C  
HETATM   12  C   UNL     1     -12.399  16.362  71.727  1.00  0.00     0.050 C  
HETATM   13  O   UNL     1     -10.656  14.771  72.303  1.00  0.00     1.090 OA 
HETATM   14  H   UNL     1     -14.425  13.896  72.682  1.00  0.00     0.000 HD 
HETATM   15  O   UNL     1     -11.575  17.337  72.377  1.00  0.00     0.257 OA 
BRANCH   6  16
HETATM   16  O   UNL     1     -11.130  13.784  69.672  1.00  0.00    -0.166 OA 
BRANCH  16  17
HETATM   17  C   UNL     1     -10.792  12.568  68.974  1.00  0.00    -0.137 C  
HETATM   18  O   UNL     1     -11.425  10.976  67.223  1.00  0.00    -0.470 OA 
HETATM   19  C   UNL     1     -11.716  12.265  67.782  1.00  0.00    -0.337 C  
HETATM   20  H   UNL     1     -11.996  10.790  66.487  1.00  0.00     0.000 HD 
HETATM   21  C   UNL     1     -10.066  13.419  66.284  1.00  0.00    -0.299 C  
HETATM   22  O   UNL     1     -12.047  14.596  67.154  1.00  0.00    -0.487 OA 
HETATM   23  C   UNL     1     -11.553  13.336  66.696  1.00  0.00    -0.365 C  
HETATM   24  O   UNL     1      -9.637  12.275  65.562  1.00  0.00    -0.373 OA 
HETATM   25  O   UNL     1      -9.215  13.668  67.406  1.00  0.00    -0.204 OA 
HETATM   26  H   UNL     1     -11.946  15.260  66.482  1.00  0.00     0.000 HD 
HETATM   27  H   UNL     1      -8.723  12.326  65.309  1.00  0.00     0.000 HD 
HETATM   28  C   UNL     1      -9.327  12.756  68.505  1.00  0.00    -0.077 C  
BRANCH  28  29
HETATM   29  C   UNL     1      -8.562  11.443  68.277  1.00  0.00    -0.156 C  
HETATM   30  O   UNL     1      -8.995  10.444  69.199  1.00  0.00    -0.169 OA 
HETATM   31  H   UNL     1      -8.522   9.632  69.058  1.00  0.00     0.000 HD 
ENDBRANCH  28  29
ENDBRANCH  16  17
ENDBRANCH   6  16
ENDBRANCH   3   4
TORSDOF 4
ENDMDL
MODEL      208
REMARK 921   NORMALIZED FREE ENERGY PREDICTED BY IDOCK:   -2.19 KCAL/MOL
REMARK 922        TOTAL FREE ENERGY PREDICTED BY IDOCK:   -4.01 KCAL/MOL
REMARK 923 INTER-LIGAND FREE ENERGY PREDICTED BY IDOCK:   -3.21 KCAL/MOL
REMARK 924 INTRA-LIGAND FREE ENERGY PREDICTED BY IDOCK:   -0.80 KCAL/MOL
REMARK 927      BINDING AFFINITY PREDICTED BY RF-SCORE:    0.00 PKD
ROOT
HETATM    1  O   UNL     1      -7.991   9.057  67.838  1.00  0.00    -0.101 OA 
HETATM    2  H   UNL     1      -7.963   9.970  68.100  1.00  0.00     0.000 HD 
HETATM    3  C   UNL     1      -6.723   8.438  68.060  1.00  0.00    -0.065 C  
ENDROOT
BRANCH   3   4
HETATM    4  C   UNL     1      -6.769   6.954  67.634  1.00  0.00    -0.067 C  
HETATM    5  O   UNL     1      -6.935   6.057  68.747  1.00  0.00    -0.067 OA 
HETATM    6  C   UNL     1      -8.266   5.886  69.243  1.00  0.00    -0.113 C  
HETATM    7  H   UNL     1      -9.818   8.231  66.561  1.00  0.00     0.000 HD 
HETATM    8  C   UNL     1      -9.194   5.373  68.119  1.00  0.00    -0.111 C  
HETATM    9  O   UNL     1      -8.789   4.083  67.643  1.00  0.00    -0.104 OA 
HETATM   10  H   UNL     1      -8.362   7.503  64.795  1.00  0.00     0.000 HD 
HETATM   11  C   UNL     1      -9.181   6.368  66.955  1.00  0.00    -0.135 C  
HETATM   12  C   UNL     1      -7.747   6.645  66.481  1.00  0.00    -0.102 C  
HETATM   13  O   UNL     1      -9.826   7.613  67.283  1.00  0.00    -0.157 OA 
HETATM   14  H   UNL     1      -9.359   3.768  66.953  1.00  0.00     0.000 HD 
HETATM   15  O   UNL     1      -7.760   7.693  65.505  1.00  0.00    -0.090 OA 
BRANCH   6  16
HETATM   16  O   UNL     1      -8.705   7.099  69.852  1.00  0.00    -0.140 OA 
BRANCH  16  17
HETATM   17  C   UNL     1      -8.079   7.517  71.082  1.00  0.00    -0.100 C  
HETATM   18  O   UNL     1      -8.011   9.185  72.874  1.00  0.00    -0.052 OA 
HETATM   19  C   UNL     1      -8.762   8.726  71.741  1.00  0.00    -0.153 C  
HETATM   20  H   UNL     1      -8.434   9.932  73.281  1.00  0.00     0.000 HD 
HETATM   21  C   UNL     1     -10.112   7.132  73.133  1.00  0.00    -0.251 C  
HETATM   22  O   UNL     1     -11.020   8.109  71.062  1.00  0.00    -0.235 OA 
HETATM   23  C   UNL     1     -10.181   8.356  72.192  1.00  0.00    -0.320 C  
HETATM   24  O   UNL     1      -9.531   7.443  74.390  1.00  0.00    -0.420 OA 
HETATM   25  O   UNL     1      -9.444   6.026  72.519  1.00  0.00    -0.148 OA 
HETATM   26  H   UNL     1     -11.898   7.879  71.341  1.00  0.00     0.000 HD 
HETATM   27  H   UNL     1      -9.489   6.691  74.968  1.00  0.00     0.000 HD 
HETATM   28  C   UNL     1      -8.129   6.278  72.011  1.00  0.00    -0.109 C  
BRANCH  28  29
HETATM   29  C   UNL     1      -7.048   6.261  73.103  1.00  0.00    -0.083 C  
HETATM   30  O   UNL     1      -7.353   5.285  74.097  1.00  0.00    -0.085 OA 
HETATM   31  H   UNL     1      -6.686   5.275  74.773  1.00  0.00     0.000 HD 
ENDBRANCH  28  29
ENDBRANCH  16  17
ENDBRANCH   6  16
ENDBRANCH   3   4
TORSDOF 4
ENDMDL
MODEL      209
REMARK 921   NORMALIZED FREE ENERGY PREDICTED BY IDOCK:   -2.13 KCAL/MOL
REMARK 922        TOTAL FREE ENERGY PREDICTED BY IDOCK:   -3.94 KCAL/MOL
REMARK 923 INTER-LIGAND FREE ENERGY PREDICTED BY IDOCK:   -4.45 KCAL/MOL
REMARK 924 INTRA-LIGAND FREE ENERGY PREDICTED BY IDOCK:    0.51 KCAL/MOL
REMARK 927      BINDING AFFINITY PREDICTED BY RF-SCORE:    0.00 PKD
ROOT
HETATM    1  O   UNL     1      -7.407  10.096  70.803  1.00  0.00    -0.401 OA 
HETATM    2  H   UNL     1      -6.496   9.990  70.559  1.00  0.00     0.000 HD 
HETATM    3  C   UNL     1      -8.177   8.983  70.343  1.00  0.00    -0.151 C  
ENDROOT
BRANCH   3   4
HETATM    4  C   UNL     1      -9.659   9.156  70.739  1.00  0.00    -0.275 C  
HETATM    5  O   UNL     1     -10.568   8.797  69.682  1.00  0.00    -0.219 OA 
HETATM    6  C   UNL     1     -10.844   7.404  69.517  1.00  0.00    -0.189 C  
HETATM    7  H   UNL     1      -8.630   6.366  72.536  1.00  0.00     0.000 HD 
HETATM    8  C   UNL     1     -11.429   6.816  70.820  1.00  0.00    -0.342 C  
HETATM    9  O   UNL     1     -12.683   7.422  71.161  1.00  0.00    -0.456 OA 
HETATM   10  H   UNL     1      -9.239   8.255  73.887  1.00  0.00     0.000 HD 
HETATM   11  C   UNL     1     -10.436   7.032  71.966  1.00  0.00    -0.208 C  
HETATM   12  C   UNL     1     -10.045   8.511  72.087  1.00  0.00    -0.323 C  
HETATM   13  O   UNL     1      -9.246   6.232  71.826  1.00  0.00    -0.145 OA 
HETATM   14  H   UNL     1     -13.042   7.061  71.962  1.00  0.00     0.000 HD 
HETATM   15  O   UNL     1      -9.001   8.652  73.058  1.00  0.00    -0.326 OA 
BRANCH   6  16
HETATM   16  O   UNL     1      -9.670   6.738  69.054  1.00  0.00    -0.145 OA 
BRANCH  16  17
HETATM   17  C   UNL     1      -8.743   7.474  68.230  1.00  0.00    -0.123 C  
HETATM   18  O   UNL     1      -6.541   7.498  67.156  1.00  0.00    -0.058 OA 
HETATM   19  C   UNL     1      -7.489   6.671  67.846  1.00  0.00    -0.098 C  
HETATM   20  H   UNL     1      -5.767   7.001  66.919  1.00  0.00     0.000 HD 
HETATM   21  C   UNL     1      -8.637   6.004  65.716  1.00  0.00    -0.155 C  
HETATM   22  O   UNL     1      -8.634   4.525  67.686  1.00  0.00    -0.103 OA 
HETATM   23  C   UNL     1      -7.869   5.484  66.952  1.00  0.00    -0.101 C  
HETATM   24  O   UNL     1      -7.804   6.725  64.821  1.00  0.00    -0.108 OA 
HETATM   25  O   UNL     1      -9.782   6.777  66.087  1.00  0.00    -0.053 OA 
HETATM   26  H   UNL     1      -8.870   3.791  67.132  1.00  0.00     0.000 HD 
HETATM   27  H   UNL     1      -8.276   7.045  64.062  1.00  0.00     0.000 HD 
HETATM   28  C   UNL     1      -9.546   7.882  66.969  1.00  0.00    -0.192 C  
BRANCH  28  29
HETATM   29  C   UNL     1      -9.002   9.123  66.246  1.00  0.00    -0.158 C  
HETATM   30  O   UNL     1      -8.207   9.911  67.130  1.00  0.00    -0.119 OA 
HETATM   31  H   UNL     1      -7.871  10.679  66.684  1.00  0.00     0.000 HD 
ENDBRANCH  28  29
ENDBRANCH  16  17
ENDBRANCH   6  16
ENDBRANCH   3   4
TORSDOF 4
ENDMDL
MODEL      210
REMARK 921   NORMALIZED FREE ENERGY PREDICTED BY IDOCK:   -2.06 KCAL/MOL
REMARK 922        TOTAL FREE ENERGY PREDICTED BY IDOCK:   -3.86 KCAL/MOL
REMARK 923 INTER-LIGAND FREE ENERGY PREDICTED BY IDOCK:   -3.09 KCAL/MOL
REMARK 924 INTRA-LIGAND FREE ENERGY PREDICTED BY IDOCK:   -0.76 KCAL/MOL
REMARK 927      BINDING AFFINITY PREDICTED BY RF-SCORE:    0.00 PKD
ROOT
HETATM    1  O   UNL     1      -7.631   5.547  68.190  1.00  0.00    -0.079 OA 
HETATM    2  H   UNL     1      -7.925   5.470  69.090  1.00  0.00     0.000 HD 
HETATM    3  C   UNL     1      -8.604   4.992  67.302  1.00  0.00    -0.104 C  
ENDROOT
BRANCH   3   4
HETATM    4  C   UNL     1      -8.127   5.117  65.838  1.00  0.00    -0.109 C  
HETATM    5  O   UNL     1      -8.742   6.215  65.140  1.00  0.00    -0.099 OA 
HETATM    6  C   UNL     1      -8.183   7.513  65.363  1.00  0.00    -0.135 C  
HETATM    7  H   UNL     1      -5.391   6.168  67.706  1.00  0.00     0.000 HD 
HETATM    8  C   UNL     1      -6.688   7.525  64.975  1.00  0.00    -0.047 C  
HETATM    9  O   UNL     1      -6.499   7.256  63.580  1.00  0.00    -0.047 OA 
HETATM   10  H   UNL     1      -5.027   4.156  66.446  1.00  0.00     0.000 HD 
HETATM   11  C   UNL     1      -5.940   6.473  65.799  1.00  0.00    -0.029 C  
HETATM   12  C   UNL     1      -6.594   5.092  65.656  1.00  0.00    -0.044 C  
HETATM   13  O   UNL     1      -5.854   6.820  67.194  1.00  0.00    -0.013 OA 
HETATM   14  H   UNL     1      -5.580   7.264  63.341  1.00  0.00     0.000 HD 
HETATM   15  O   UNL     1      -5.970   4.172  66.558  1.00  0.00    -0.025 OA 
BRANCH   6  16
HETATM   16  O   UNL     1      -8.439   7.916  66.707  1.00  0.00    -0.123 OA 
BRANCH  16  17
HETATM   17  C   UNL     1      -8.383   9.321  67.026  1.00  0.00    -0.120 C  
HETATM   18  O   UNL     1      -9.582  11.457  67.059  1.00  0.00    -0.174 OA 
HETATM   19  C   UNL     1      -9.733  10.042  66.874  1.00  0.00    -0.189 C  
HETATM   20  H   UNL     1     -10.416  11.902  66.965  1.00  0.00     0.000 HD 
HETATM   21  C   UNL     1     -10.154   9.648  69.316  1.00  0.00    -0.193 C  
HETATM   22  O   UNL     1     -11.084   8.148  67.598  1.00  0.00    -0.492 OA 
HETATM   23  C   UNL     1     -10.743   9.504  67.895  1.00  0.00    -0.228 C  
HETATM   24  O   UNL     1     -10.079  11.000  69.740  1.00  0.00    -0.422 OA 
HETATM   25  O   UNL     1      -8.884   9.001  69.435  1.00  0.00    -0.137 OA 
HETATM   26  H   UNL     1     -11.709   7.814  68.230  1.00  0.00     0.000 HD 
HETATM   27  H   UNL     1      -9.717  11.089  70.614  1.00  0.00     0.000 HD 
HETATM   28  C   UNL     1      -7.880   9.392  68.491  1.00  0.00    -0.089 C  
BRANCH  28  29
HETATM   29  C   UNL     1      -7.188  10.713  68.859  1.00  0.00    -0.090 C  
HETATM   30  O   UNL     1      -6.424  10.563  70.055  1.00  0.00    -0.101 OA 
HETATM   31  H   UNL     1      -5.996  11.380  70.283  1.00  0.00     0.000 HD 
ENDBRANCH  28  29
ENDBRANCH  16  17
ENDBRANCH   6  16
ENDBRANCH   3   4
TORSDOF 4
ENDMDL
MODEL      211
REMARK 921   NORMALIZED FREE ENERGY PREDICTED BY IDOCK:   -1.87 KCAL/MOL
REMARK 922        TOTAL FREE ENERGY PREDICTED BY IDOCK:   -3.62 KCAL/MOL
REMARK 923 INTER-LIGAND FREE ENERGY PREDICTED BY IDOCK:   -2.97 KCAL/MOL
REMARK 924 INTRA-LIGAND FREE ENERGY PREDICTED BY IDOCK:   -0.65 KCAL/MOL
REMARK 927      BINDING AFFINITY PREDICTED BY RF-SCORE:    0.00 PKD
ROOT
HETATM    1  O   UNL     1      -6.974   5.143  68.530  1.00  0.00    -0.054 OA 
HETATM    2  H   UNL     1      -6.382   4.566  68.997  1.00  0.00     0.000 HD 
HETATM    3  C   UNL     1      -8.207   4.474  68.258  1.00  0.00    -0.090 C  
ENDROOT
BRANCH   3   4
HETATM    4  C   UNL     1      -9.170   5.412  67.498  1.00  0.00    -0.112 C  
HETATM    5  O   UNL     1     -10.162   6.008  68.353  1.00  0.00    -0.150 OA 
HETATM    6  C   UNL     1      -9.756   7.151  69.111  1.00  0.00    -0.158 C  
HETATM    7  H   UNL     1      -6.179   7.178  67.594  1.00  0.00     0.000 HD 
HETATM    8  C   UNL     1      -9.256   8.268  68.169  1.00  0.00    -0.134 C  
HETATM    9  O   UNL     1     -10.294   8.732  67.296  1.00  0.00    -0.248 OA 
HETATM   10  H   UNL     1      -6.893   6.541  65.391  1.00  0.00     0.000 HD 
HETATM   11  C   UNL     1      -8.088   7.740  67.330  1.00  0.00    -0.119 C  
HETATM   12  C   UNL     1      -8.476   6.451  66.593  1.00  0.00    -0.115 C  
HETATM   13  O   UNL     1      -6.903   7.506  68.114  1.00  0.00    -0.059 OA 
HETATM   14  H   UNL     1      -9.987   9.418  66.717  1.00  0.00     0.000 HD 
HETATM   15  O   UNL     1      -7.321   5.902  65.949  1.00  0.00    -0.074 OA 
BRANCH   6  16
HETATM   16  O   UNL     1      -8.805   6.752  70.098  1.00  0.00    -0.140 OA 
BRANCH  16  17
HETATM   17  C   UNL     1      -9.056   7.100  71.474  1.00  0.00    -0.142 C  
HETATM   18  O   UNL     1     -10.510   6.802  73.423  1.00  0.00    -0.253 OA 
HETATM   19  C   UNL     1     -10.212   6.310  72.109  1.00  0.00    -0.184 C  
HETATM   20  H   UNL     1     -11.224   6.313  73.815  1.00  0.00     0.000 HD 
HETATM   21  C   UNL     1      -8.532   4.660  72.978  1.00  0.00    -0.099 C  
HETATM   22  O   UNL     1      -9.771   4.246  70.890  1.00  0.00    -0.172 OA 
HETATM   23  C   UNL     1      -9.855   4.820  72.196  1.00  0.00    -0.172 C  
HETATM   24  O   UNL     1      -8.676   4.956  74.359  1.00  0.00    -0.112 OA 
HETATM   25  O   UNL     1      -7.473   5.427  72.397  1.00  0.00    -0.092 OA 
HETATM   26  H   UNL     1      -9.550   3.324  70.944  1.00  0.00     0.000 HD 
HETATM   27  H   UNL     1      -7.863   4.858  74.839  1.00  0.00     0.000 HD 
HETATM   28  C   UNL     1      -7.724   6.826  72.218  1.00  0.00    -0.094 C  
BRANCH  28  29
HETATM   29  C   UNL     1      -7.540   7.640  73.508  1.00  0.00    -0.114 C  
HETATM   30  O   UNL     1      -6.198   8.110  73.618  1.00  0.00    -0.083 OA 
HETATM   31  H   UNL     1      -6.084   8.613  74.416  1.00  0.00     0.000 HD 
ENDBRANCH  28  29
ENDBRANCH  16  17
ENDBRANCH   6  16
ENDBRANCH   3   4
TORSDOF 4
ENDMDL
MODEL      212
REMARK 921   NORMALIZED FREE ENERGY PREDICTED BY IDOCK:   -1.85 KCAL/MOL
REMARK 922        TOTAL FREE ENERGY PREDICTED BY IDOCK:   -3.59 KCAL/MOL
REMARK 923 INTER-LIGAND FREE ENERGY PREDICTED BY IDOCK:   -2.94 KCAL/MOL
REMARK 924 INTRA-LIGAND FREE ENERGY PREDICTED BY IDOCK:   -0.65 KCAL/MOL
REMARK 927      BINDING AFFINITY PREDICTED BY RF-SCORE:    0.00 PKD
ROOT
HETATM    1  O   UNL     1      -5.701  10.355  66.985  1.00  0.00    -0.045 OA 
HETATM    2  H   UNL     1      -5.243  10.918  67.597  1.00  0.00     0.000 HD 
HETATM    3  C   UNL     1      -6.876   9.815  67.592  1.00  0.00    -0.085 C  
ENDROOT
BRANCH   3   4
HETATM    4  C   UNL     1      -7.622   8.900  66.596  1.00  0.00    -0.089 C  
HETATM    5  O   UNL     1      -7.545   7.507  66.949  1.00  0.00    -0.098 OA 
HETATM    6  C   UNL     1      -8.455   7.046  67.951  1.00  0.00    -0.124 C  
HETATM    7  H   UNL     1     -10.169  10.512  68.325  1.00  0.00     0.000 HD 
HETATM    8  C   UNL     1      -9.913   7.310  67.512  1.00  0.00    -0.169 C  
HETATM    9  O   UNL     1     -10.248   6.587  66.321  1.00  0.00    -0.417 OA 
HETATM   10  H   UNL     1     -10.060  11.041  65.985  1.00  0.00     0.000 HD 
HETATM   11  C   UNL     1     -10.105   8.809  67.265  1.00  0.00    -0.236 C  
HETATM   12  C   UNL     1      -9.064   9.343  66.271  1.00  0.00    -0.163 C  
HETATM   13  O   UNL     1     -10.050   9.582  68.478  1.00  0.00    -0.166 OA 
HETATM   14  H   UNL     1     -11.144   6.749  66.051  1.00  0.00     0.000 HD 
HETATM   15  O   UNL     1      -9.172  10.768  66.186  1.00  0.00    -0.169 OA 
BRANCH   6  16
HETATM   16  O   UNL     1      -8.111   7.626  69.208  1.00  0.00    -0.123 OA 
BRANCH  16  17
HETATM   17  C   UNL     1      -7.348   6.837  70.143  1.00  0.00    -0.085 C  
HETATM   18  O   UNL     1      -6.859   6.369  72.497  1.00  0.00    -0.067 OA 
HETATM   19  C   UNL     1      -7.748   7.063  71.611  1.00  0.00    -0.093 C  
HETATM   20  H   UNL     1      -7.107   6.509  73.404  1.00  0.00     0.000 HD 
HETATM   21  C   UNL     1      -9.296   5.096  71.432  1.00  0.00    -0.148 C  
HETATM   22  O   UNL     1     -10.117   7.402  71.150  1.00  0.00    -0.187 OA 
HETATM   23  C   UNL     1      -9.183   6.578  71.852  1.00  0.00    -0.148 C  
HETATM   24  O   UNL     1      -8.597   4.226  72.308  1.00  0.00    -0.105 OA 
HETATM   25  O   UNL     1      -8.890   4.895  70.075  1.00  0.00    -0.092 OA 
HETATM   26  H   UNL     1     -11.006   7.101  71.299  1.00  0.00     0.000 HD 
HETATM   27  H   UNL     1      -8.666   3.315  72.049  1.00  0.00     0.000 HD 
HETATM   28  C   UNL     1      -7.581   5.363  69.727  1.00  0.00    -0.070 C  
BRANCH  28  29
HETATM   29  C   UNL     1      -6.464   4.399  70.154  1.00  0.00    -0.031 C  
HETATM   30  O   UNL     1      -6.509   3.202  69.379  1.00  0.00    -0.032 OA 
HETATM   31  H   UNL     1      -5.818   2.606  69.644  1.00  0.00     0.000 HD 
ENDBRANCH  28  29
ENDBRANCH  16  17
ENDBRANCH   6  16
ENDBRANCH   3   4
TORSDOF 4
ENDMDL
MODEL      213
REMARK 921   NORMALIZED FREE ENERGY PREDICTED BY IDOCK:   -1.77 KCAL/MOL
REMARK 922        TOTAL FREE ENERGY PREDICTED BY IDOCK:   -3.49 KCAL/MOL
REMARK 923 INTER-LIGAND FREE ENERGY PREDICTED BY IDOCK:   -2.38 KCAL/MOL
REMARK 924 INTRA-LIGAND FREE ENERGY PREDICTED BY IDOCK:   -1.10 KCAL/MOL
REMARK 927      BINDING AFFINITY PREDICTED BY RF-SCORE:    0.00 PKD
ROOT
HETATM    1  O   UNL     1      -5.692   2.503  73.729  1.00  0.00     0.000 OA 
HETATM    2  H   UNL     1      -5.194   1.984  73.108  1.00  0.00     0.000 HD 
HETATM    3  C   UNL     1      -6.388   3.552  73.053  1.00  0.00    -0.016 C  
ENDROOT
BRANCH   3   4
HETATM    4  C   UNL     1      -7.197   4.395  74.062  1.00  0.00    -0.072 C  
HETATM    5  O   UNL     1      -7.266   5.787  73.702  1.00  0.00    -0.085 OA 
HETATM    6  C   UNL     1      -8.239   6.150  72.720  1.00  0.00    -0.117 C  
HETATM    7  H   UNL     1      -9.612   2.529  72.399  1.00  0.00     0.000 HD 
HETATM    8  C   UNL     1      -9.654   5.747  73.194  1.00  0.00    -0.147 C  
HETATM    9  O   UNL     1     -10.032   6.441  74.389  1.00  0.00    -0.280 OA 
HETATM   10  H   UNL     1      -9.398   2.028  74.738  1.00  0.00     0.000 HD 
HETATM   11  C   UNL     1      -9.692   4.237  73.451  1.00  0.00    -0.121 C  
HETATM   12  C   UNL     1      -8.581   3.814  74.422  1.00  0.00    -0.091 C  
HETATM   13  O   UNL     1      -9.589   3.466  72.240  1.00  0.00    -0.118 OA 
HETATM   14  H   UNL     1     -10.901   6.193  74.680  1.00  0.00     0.000 HD 
HETATM   15  O   UNL     1      -8.547   2.386  74.516  1.00  0.00    -0.068 OA 
BRANCH   6  16
HETATM   16  O   UNL     1      -7.869   5.599  71.457  1.00  0.00    -0.107 OA 
BRANCH  16  17
HETATM   17  C   UNL     1      -7.920   6.450  70.294  1.00  0.00    -0.112 C  
HETATM   18  O   UNL     1      -6.956   6.973  68.104  1.00  0.00    -0.074 OA 
HETATM   19  C   UNL     1      -6.971   6.010  69.167  1.00  0.00    -0.064 C  
HETATM   20  H   UNL     1      -6.370   6.701  67.408  1.00  0.00     0.000 HD 
HETATM   21  C   UNL     1      -8.871   4.731  68.143  1.00  0.00    -0.104 C  
HETATM   22  O   UNL     1      -7.212   3.622  69.587  1.00  0.00    -0.042 OA 
HETATM   23  C   UNL     1      -7.400   4.648  68.609  1.00  0.00    -0.061 C  
HETATM   24  O   UNL     1      -9.029   5.529  66.980  1.00  0.00    -0.114 OA 
HETATM   25  O   UNL     1      -9.738   5.172  69.191  1.00  0.00    -0.137 OA 
HETATM   26  H   UNL     1      -7.478   2.778  69.241  1.00  0.00     0.000 HD 
HETATM   27  H   UNL     1      -9.933   5.580  66.693  1.00  0.00     0.000 HD 
HETATM   28  C   UNL     1      -9.395   6.413  69.821  1.00  0.00    -0.146 C  
BRANCH  28  29
HETATM   29  C   UNL     1      -9.831   7.641  69.008  1.00  0.00    -0.168 C  
HETATM   30  O   UNL     1      -9.023   8.771  69.334  1.00  0.00    -0.141 OA 
HETATM   31  H   UNL     1      -9.292   9.531  68.832  1.00  0.00     0.000 HD 
ENDBRANCH  28  29
ENDBRANCH  16  17
ENDBRANCH   6  16
ENDBRANCH   3   4
TORSDOF 4
ENDMDL
MODEL      214
REMARK 921   NORMALIZED FREE ENERGY PREDICTED BY IDOCK:   -1.76 KCAL/MOL
REMARK 922        TOTAL FREE ENERGY PREDICTED BY IDOCK:   -3.49 KCAL/MOL
REMARK 923 INTER-LIGAND FREE ENERGY PREDICTED BY IDOCK:   -3.04 KCAL/MOL
REMARK 924 INTRA-LIGAND FREE ENERGY PREDICTED BY IDOCK:   -0.44 KCAL/MOL
REMARK 927      BINDING AFFINITY PREDICTED BY RF-SCORE:    0.00 PKD
ROOT
HETATM    1  O   UNL     1     -11.547   6.349  69.635  1.00  0.00    -0.549 OA 
HETATM    2  H   UNL     1     -12.093   6.276  68.861  1.00  0.00     0.000 HD 
HETATM    3  C   UNL     1     -10.464   5.419  69.567  1.00  0.00    -0.273 C  
ENDROOT
BRANCH   3   4
HETATM    4  C   UNL     1      -9.576   5.538  70.825  1.00  0.00    -0.170 C  
HETATM    5  O   UNL     1      -8.178   5.347  70.543  1.00  0.00    -0.105 OA 
HETATM    6  C   UNL     1      -7.468   6.472  70.018  1.00  0.00    -0.094 C  
HETATM    7  H   UNL     1     -10.569   8.806  70.187  1.00  0.00     0.000 HD 
HETATM    8  C   UNL     1      -7.563   7.667  70.993  1.00  0.00    -0.083 C  
HETATM    9  O   UNL     1      -6.948   7.375  72.254  1.00  0.00    -0.062 OA 
HETATM   10  H   UNL     1     -11.388   7.898  72.254  1.00  0.00     0.000 HD 
HETATM   11  C   UNL     1      -9.036   8.022  71.218  1.00  0.00    -0.139 C  
HETATM   12  C   UNL     1      -9.835   6.796  71.679  1.00  0.00    -0.165 C  
HETATM   13  O   UNL     1      -9.656   8.586  70.047  1.00  0.00    -0.166 OA 
HETATM   14  H   UNL     1      -7.007   8.109  72.853  1.00  0.00     0.000 HD 
HETATM   15  O   UNL     1     -11.228   7.124  71.727  1.00  0.00    -0.237 OA 
BRANCH   6  16
HETATM   16  O   UNL     1      -7.936   6.756  68.701  1.00  0.00    -0.115 OA 
BRANCH  16  17
HETATM   17  C   UNL     1      -7.650   5.809  67.651  1.00  0.00    -0.089 C  
HETATM   18  O   UNL     1      -8.553   4.469  65.810  1.00  0.00    -0.114 OA 
HETATM   19  C   UNL     1      -8.853   5.522  66.737  1.00  0.00    -0.114 C  
HETATM   20  H   UNL     1      -9.297   4.292  65.246  1.00  0.00     0.000 HD 
HETATM   21  C   UNL     1      -8.016   7.297  65.173  1.00  0.00    -0.128 C  
HETATM   22  O   UNL     1      -9.762   7.781  66.842  1.00  0.00    -0.182 OA 
HETATM   23  C   UNL     1      -9.244   6.784  65.958  1.00  0.00    -0.030 C  
HETATM   24  O   UNL     1      -7.665   6.445  64.093  1.00  0.00    -0.093 OA 
HETATM   25  O   UNL     1      -6.894   7.529  66.030  1.00  0.00    -0.055 OA 
HETATM   26  H   UNL     1     -10.003   8.563  66.359  1.00  0.00     0.000 HD 
HETATM   27  H   UNL     1      -6.910   6.760  63.611  1.00  0.00     0.000 HD 
HETATM   28  C   UNL     1      -6.479   6.427  66.846  1.00  0.00    -0.046 C  
BRANCH  28  29
HETATM   29  C   UNL     1      -5.624   5.402  66.085  1.00  0.00    -0.013 C  
HETATM   30  O   UNL     1      -5.694   4.124  66.714  1.00  0.00    -0.020 OA 
HETATM   31  H   UNL     1      -5.166   3.490  66.243  1.00  0.00     0.000 HD 
ENDBRANCH  28  29
ENDBRANCH  16  17
ENDBRANCH   6  16
ENDBRANCH   3   4
TORSDOF 4
ENDMDL
MODEL      215
REMARK 921   NORMALIZED FREE ENERGY PREDICTED BY IDOCK:   -1.76 KCAL/MOL
REMARK 922        TOTAL FREE ENERGY PREDICTED BY IDOCK:   -3.48 KCAL/MOL
REMARK 923 INTER-LIGAND FREE ENERGY PREDICTED BY IDOCK:   -3.40 KCAL/MOL
REMARK 924 INTRA-LIGAND FREE ENERGY PREDICTED BY IDOCK:   -0.08 KCAL/MOL
REMARK 927      BINDING AFFINITY PREDICTED BY RF-SCORE:    0.00 PKD
ROOT
HETATM    1  O   UNL     1      -7.743   5.584  67.795  1.00  0.00    -0.090 OA 
HETATM    2  H   UNL     1      -7.329   5.678  66.946  1.00  0.00     0.000 HD 
HETATM    3  C   UNL     1      -6.846   5.983  68.832  1.00  0.00    -0.066 C  
ENDROOT
BRANCH   3   4
HETATM    4  C   UNL     1      -7.520   5.830  70.213  1.00  0.00    -0.081 C  
HETATM    5  O   UNL     1      -7.778   7.092  70.854  1.00  0.00    -0.092 OA 
HETATM    6  C   UNL     1      -8.948   7.799  70.436  1.00  0.00    -0.147 C  
HETATM    7  H   UNL     1     -10.033   5.012  67.956  1.00  0.00     0.000 HD 
HETATM    8  C   UNL     1     -10.206   6.929  70.654  1.00  0.00    -0.195 C  
HETATM    9  O   UNL     1     -10.410   6.627  72.040  1.00  0.00    -0.196 OA 
HETATM   10  H   UNL     1      -9.336   3.203  69.373  1.00  0.00     0.000 HD 
HETATM   11  C   UNL     1     -10.062   5.622  69.868  1.00  0.00    -0.222 C  
HETATM   12  C   UNL     1      -8.755   4.903  70.227  1.00  0.00    -0.098 C  
HETATM   13  O   UNL     1     -10.123   5.822  68.444  1.00  0.00    -0.146 OA 
HETATM   14  H   UNL     1     -11.183   6.092  72.174  1.00  0.00     0.000 HD 
HETATM   15  O   UNL     1      -8.577   3.774  69.364  1.00  0.00    -0.069 OA 
BRANCH   6  16
HETATM   16  O   UNL     1      -8.777   8.249  69.093  1.00  0.00    -0.140 OA 
BRANCH  16  17
HETATM   17  C   UNL     1      -9.361   9.510  68.711  1.00  0.00    -0.146 C  
HETATM   18  O   UNL     1      -9.356  11.940  69.023  1.00  0.00    -0.404 OA 
HETATM   19  C   UNL     1      -8.645  10.729  69.316  1.00  0.00    -0.033 C  
HETATM   20  H   UNL     1      -8.913  12.693  69.397  1.00  0.00     0.000 HD 
HETATM   21  C   UNL     1      -7.271  10.890  67.222  1.00  0.00    -0.098 C  
HETATM   22  O   UNL     1      -6.416   9.748  69.230  1.00  0.00    -0.046 OA 
HETATM   23  C   UNL     1      -7.217  10.836  68.765  1.00  0.00    -0.091 C  
HETATM   24  O   UNL     1      -7.809  12.111  66.738  1.00  0.00    -0.331 OA 
HETATM   25  O   UNL     1      -7.968   9.768  66.674  1.00  0.00    -0.111 OA 
HETATM   26  H   UNL     1      -5.532   9.813  68.888  1.00  0.00     0.000 HD 
HETATM   27  H   UNL     1      -7.843  12.143  65.789  1.00  0.00     0.000 HD 
HETATM   28  C   UNL     1      -9.296   9.543  67.163  1.00  0.00    -0.143 C  
BRANCH  28  29
HETATM   29  C   UNL     1     -10.343  10.454  66.504  1.00  0.00    -0.224 C  
HETATM   30  O   UNL     1     -11.008  11.247  67.486  1.00  0.00    -0.230 OA 
HETATM   31  H   UNL     1     -11.655  11.810  67.079  1.00  0.00     0.000 HD 
ENDBRANCH  28  29
ENDBRANCH  16  17
ENDBRANCH   6  16
ENDBRANCH   3   4
TORSDOF 4
ENDMDL
MODEL      216
REMARK 921   NORMALIZED FREE ENERGY PREDICTED BY IDOCK:   -1.64 KCAL/MOL
REMARK 922        TOTAL FREE ENERGY PREDICTED BY IDOCK:   -3.34 KCAL/MOL
REMARK 923 INTER-LIGAND FREE ENERGY PREDICTED BY IDOCK:   -2.85 KCAL/MOL
REMARK 924 INTRA-LIGAND FREE ENERGY PREDICTED BY IDOCK:   -0.49 KCAL/MOL
REMARK 927      BINDING AFFINITY PREDICTED BY RF-SCORE:    0.00 PKD
ROOT
HETATM    1  O   UNL     1     -10.740  10.883  63.563  1.00  0.00    -0.558 OA 
HETATM    2  H   UNL     1     -10.106  10.609  62.912  1.00  0.00     0.000 HD 
HETATM    3  C   UNL     1     -10.205  10.715  64.878  1.00  0.00    -0.324 C  
ENDROOT
BRANCH   3   4
HETATM    4  C   UNL     1     -11.237  11.160  65.937  1.00  0.00     0.055 C  
HETATM    5  O   UNL     1     -11.731  10.067  66.732  1.00  0.00     0.747 OA 
HETATM    6  C   UNL     1     -10.905   9.634  67.816  1.00  0.00    -0.217 C  
HETATM    7  H   UNL     1      -8.210  12.355  67.158  1.00  0.00     0.000 HD 
HETATM    8  C   UNL     1     -10.643  10.805  68.789  1.00  0.00    -0.200 C  
HETATM    9  O   UNL     1     -11.855  11.277  69.391  1.00  0.00    -0.298 OA 
HETATM   10  H   UNL     1      -9.792  14.062  66.566  1.00  0.00     0.000 HD 
HETATM   11  C   UNL     1      -9.972  11.955  68.033  1.00  0.00    -0.190 C  
HETATM   12  C   UNL     1     -10.795  12.360  66.802  1.00  0.00    -0.248 C  
HETATM   13  O   UNL     1      -8.627  11.642  67.628  1.00  0.00    -0.133 OA 
HETATM   14  H   UNL     1     -11.695  11.996  69.989  1.00  0.00     0.000 HD 
HETATM   15  O   UNL     1     -10.064  13.323  66.034  1.00  0.00    -0.288 OA 
BRANCH   6  16
HETATM   16  O   UNL     1      -9.720   9.031  67.298  1.00  0.00    -0.160 OA 
BRANCH  16  17
HETATM   17  C   UNL     1      -8.632   8.763  68.206  1.00  0.00    -0.134 C  
HETATM   18  O   UNL     1      -7.869   7.501  70.161  1.00  0.00    -0.095 OA 
HETATM   19  C   UNL     1      -8.921   7.620  69.193  1.00  0.00    -0.135 C  
HETATM   20  H   UNL     1      -8.048   6.794  70.771  1.00  0.00     0.000 HD 
HETATM   21  C   UNL     1      -7.799   6.038  67.602  1.00  0.00    -0.101 C  
HETATM   22  O   UNL     1     -10.248   6.301  67.631  1.00  0.00    -0.136 OA 
HETATM   23  C   UNL     1      -9.070   6.292  68.442  1.00  0.00    -0.114 C  
HETATM   24  O   UNL     1      -6.667   5.736  68.404  1.00  0.00    -0.050 OA 
HETATM   25  O   UNL     1      -7.523   7.123  66.712  1.00  0.00    -0.085 OA 
HETATM   26  H   UNL     1     -10.340   5.478  67.165  1.00  0.00     0.000 HD 
HETATM   27  H   UNL     1      -5.886   5.581  67.888  1.00  0.00     0.000 HD 
HETATM   28  C   UNL     1      -7.418   8.422  67.305  1.00  0.00    -0.093 C  
BRANCH  28  29
HETATM   29  C   UNL     1      -6.052   8.677  67.961  1.00  0.00    -0.051 C  
HETATM   30  O   UNL     1      -6.180   9.591  69.048  1.00  0.00    -0.042 OA 
HETATM   31  H   UNL     1      -5.335   9.748  69.454  1.00  0.00     0.000 HD 
ENDBRANCH  28  29
ENDBRANCH  16  17
ENDBRANCH   6  16
ENDBRANCH   3   4
TORSDOF 4
ENDMDL
MODEL      217
REMARK 921   NORMALIZED FREE ENERGY PREDICTED BY IDOCK:   -1.60 KCAL/MOL
REMARK 922        TOTAL FREE ENERGY PREDICTED BY IDOCK:   -3.28 KCAL/MOL
REMARK 923 INTER-LIGAND FREE ENERGY PREDICTED BY IDOCK:   -2.37 KCAL/MOL
REMARK 924 INTRA-LIGAND FREE ENERGY PREDICTED BY IDOCK:   -0.92 KCAL/MOL
REMARK 927      BINDING AFFINITY PREDICTED BY RF-SCORE:    0.00 PKD
ROOT
HETATM    1  O   UNL     1     -10.717   9.750  68.388  1.00  0.00    -0.221 OA 
HETATM    2  H   UNL     1     -11.590   9.911  68.726  1.00  0.00     0.000 HD 
HETATM    3  C   UNL     1      -9.913  10.925  68.510  1.00  0.00    -0.182 C  
ENDROOT
BRANCH   3   4
HETATM    4  C   UNL     1      -8.494  10.663  67.961  1.00  0.00    -0.119 C  
HETATM    5  O   UNL     1      -8.126  11.566  66.902  1.00  0.00    -0.154 OA 
HETATM    6  C   UNL     1      -7.663  12.861  67.293  1.00  0.00    -0.117 C  
HETATM    7  H   UNL     1      -7.937  12.073  71.088  1.00  0.00     0.000 HD 
HETATM    8  C   UNL     1      -6.428  12.733  68.212  1.00  0.00    -0.083 C  
HETATM    9  O   UNL     1      -5.325  12.114  67.537  1.00  0.00    -0.079 OA 
HETATM   10  H   UNL     1      -7.198   9.798  70.872  1.00  0.00     0.000 HD 
HETATM   11  C   UNL     1      -6.796  11.902  69.445  1.00  0.00    -0.048 C  
HETATM   12  C   UNL     1      -7.397  10.549  69.041  1.00  0.00    -0.103 C  
HETATM   13  O   UNL     1      -7.708  12.588  70.323  1.00  0.00     1.922 OA 
HETATM   14  H   UNL     1      -4.566  12.035  68.101  1.00  0.00     0.000 HD 
HETATM   15  O   UNL     1      -7.873   9.869  70.207  1.00  0.00    -0.177 OA 
BRANCH   6  16
HETATM   16  O   UNL     1      -8.742  13.598  67.867  1.00  0.00    -0.163 OA 
BRANCH  16  17
HETATM   17  C   UNL     1      -8.807  15.019  67.629  1.00  0.00    -0.179 C  
HETATM   18  O   UNL     1     -10.133  16.882  66.752  1.00  0.00    -0.275 OA 
HETATM   19  C   UNL     1     -10.175  15.494  67.110  1.00  0.00    -0.260 C  
HETATM   20  H   UNL     1     -10.978  17.176  66.432  1.00  0.00     0.000 HD 
HETATM   21  C   UNL     1     -10.832  16.002  69.479  1.00  0.00    -0.317 C  
HETATM   22  O   UNL     1     -11.476  13.885  68.397  1.00  0.00    -0.273 OA 
HETATM   23  C   UNL     1     -11.254  15.280  68.180  1.00  0.00    -0.324 C  
HETATM   24  O   UNL     1     -10.887  17.415  69.359  1.00  0.00    -0.336 OA 
HETATM   25  O   UNL     1      -9.544  15.575  69.932  1.00  0.00    -0.275 OA 
HETATM   26  H   UNL     1     -12.144  13.752  69.060  1.00  0.00     0.000 HD 
HETATM   27  H   UNL     1     -10.628  17.859  70.157  1.00  0.00     0.000 HD 
HETATM   28  C   UNL     1      -8.470  15.681  68.989  1.00  0.00    -0.231 C  
BRANCH  28  29
HETATM   29  C   UNL     1      -7.905  17.105  68.877  1.00  0.00    -0.217 C  
HETATM   30  O   UNL     1      -7.233  17.282  67.631  1.00  0.00    -0.157 OA 
HETATM   31  H   UNL     1      -6.883  18.162  67.562  1.00  0.00     0.000 HD 
ENDBRANCH  28  29
ENDBRANCH  16  17
ENDBRANCH   6  16
ENDBRANCH   3   4
TORSDOF 4
ENDMDL
MODEL      218
REMARK 921   NORMALIZED FREE ENERGY PREDICTED BY IDOCK:   -1.50 KCAL/MOL
REMARK 922        TOTAL FREE ENERGY PREDICTED BY IDOCK:   -3.16 KCAL/MOL
REMARK 923 INTER-LIGAND FREE ENERGY PREDICTED BY IDOCK:   -3.36 KCAL/MOL
REMARK 924 INTRA-LIGAND FREE ENERGY PREDICTED BY IDOCK:    0.20 KCAL/MOL
REMARK 927      BINDING AFFINITY PREDICTED BY RF-SCORE:    0.00 PKD
ROOT
HETATM    1  O   UNL     1      -6.412   5.756  67.339  1.00  0.00    -0.040 OA 
HETATM    2  H   UNL     1      -5.559   6.113  67.556  1.00  0.00     0.000 HD 
HETATM    3  C   UNL     1      -6.847   4.855  68.359  1.00  0.00    -0.055 C  
ENDROOT
BRANCH   3   4
HETATM    4  C   UNL     1      -8.234   4.275  68.006  1.00  0.00    -0.093 C  
HETATM    5  O   UNL     1      -9.318   5.139  68.393  1.00  0.00    -0.113 OA 
HETATM    6  C   UNL     1      -9.622   6.224  67.513  1.00  0.00    -0.116 C  
HETATM    7  H   UNL     1      -6.904   5.202  64.932  1.00  0.00     0.000 HD 
HETATM    8  C   UNL     1      -9.965   5.690  66.105  1.00  0.00    -0.058 C  
HETATM    9  O   UNL     1     -11.136   4.864  66.120  1.00  0.00    -0.587 OA 
HETATM   10  H   UNL     1      -7.257   2.841  65.197  1.00  0.00     0.000 HD 
HETATM   11  C   UNL     1      -8.782   4.881  65.566  1.00  0.00    -0.139 C  
HETATM   12  C   UNL     1      -8.373   3.778  66.551  1.00  0.00    -0.104 C  
HETATM   13  O   UNL     1      -7.639   5.703  65.266  1.00  0.00    -0.078 OA 
HETATM   14  H   UNL     1     -11.347   4.536  65.255  1.00  0.00     0.000 HD 
HETATM   15  O   UNL     1      -7.172   3.147  66.092  1.00  0.00    -0.067 OA 
BRANCH   6  16
HETATM   16  O   UNL     1      -8.552   7.167  67.534  1.00  0.00    -0.121 OA 
BRANCH  16  17
HETATM   17  C   UNL     1      -8.848   8.550  67.254  1.00  0.00    -0.130 C  
HETATM   18  O   UNL     1     -10.234  10.492  67.807  1.00  0.00    -0.175 OA 
HETATM   19  C   UNL     1      -9.870   9.169  68.223  1.00  0.00    -0.160 C  
HETATM   20  H   UNL     1     -10.865  10.874  68.406  1.00  0.00     0.000 HD 
HETATM   21  C   UNL     1      -7.957  10.006  69.615  1.00  0.00    -0.170 C  
HETATM   22  O   UNL     1      -9.125   7.910  70.172  1.00  0.00    -0.151 OA 
HETATM   23  C   UNL     1      -9.291   9.227  69.642  1.00  0.00    -0.179 C  
HETATM   24  O   UNL     1      -8.140  11.392  69.372  1.00  0.00    -0.363 OA 
HETATM   25  O   UNL     1      -7.028   9.439  68.686  1.00  0.00    -0.064 OA 
HETATM   26  H   UNL     1      -8.766   7.946  71.051  1.00  0.00     0.000 HD 
HETATM   27  H   UNL     1      -7.320  11.871  69.355  1.00  0.00     0.000 HD 
HETATM   28  C   UNL     1      -7.488   9.288  67.338  1.00  0.00    -0.087 C  
BRANCH  28  29
HETATM   29  C   UNL     1      -7.426  10.594  66.531  1.00  0.00    -0.134 C  
HETATM   30  O   UNL     1      -8.738  11.035  66.187  1.00  0.00    -0.175 OA 
HETATM   31  H   UNL     1      -8.700  11.842  65.687  1.00  0.00     0.000 HD 
ENDBRANCH  28  29
ENDBRANCH  16  17
ENDBRANCH   6  16
ENDBRANCH   3   4
TORSDOF 4
ENDMDL
MODEL      219
REMARK 921   NORMALIZED FREE ENERGY PREDICTED BY IDOCK:   -1.45 KCAL/MOL
REMARK 922        TOTAL FREE ENERGY PREDICTED BY IDOCK:   -3.10 KCAL/MOL
REMARK 923 INTER-LIGAND FREE ENERGY PREDICTED BY IDOCK:   -2.60 KCAL/MOL
REMARK 924 INTRA-LIGAND FREE ENERGY PREDICTED BY IDOCK:   -0.50 KCAL/MOL
REMARK 927      BINDING AFFINITY PREDICTED BY RF-SCORE:    0.00 PKD
ROOT
HETATM    1  O   UNL     1      -5.849   2.460  73.610  1.00  0.00     0.000 OA 
HETATM    2  H   UNL     1      -5.354   1.982  72.955  1.00  0.00     0.000 HD 
HETATM    3  C   UNL     1      -6.611   3.499  72.994  1.00  0.00    -0.033 C  
ENDROOT
BRANCH   3   4
HETATM    4  C   UNL     1      -7.416   4.277  74.058  1.00  0.00    -0.072 C  
HETATM    5  O   UNL     1      -7.572   5.670  73.735  1.00  0.00    -0.096 OA 
HETATM    6  C   UNL     1      -8.607   6.004  72.806  1.00  0.00    -0.124 C  
HETATM    7  H   UNL     1      -9.805   2.324  72.459  1.00  0.00     0.000 HD 
HETATM    8  C   UNL     1      -9.976   5.517  73.333  1.00  0.00    -0.176 C  
HETATM    9  O   UNL     1     -10.334   6.163  74.561  1.00  0.00    -0.305 OA 
HETATM   10  H   UNL     1      -9.459   1.784  74.774  1.00  0.00     0.000 HD 
HETATM   11  C   UNL     1      -9.925   4.002  73.555  1.00  0.00    -0.126 C  
HETATM   12  C   UNL     1      -8.750   3.617  74.465  1.00  0.00    -0.090 C  
HETATM   13  O   UNL     1      -9.837   3.263  72.322  1.00  0.00    -0.144 OA 
HETATM   14  H   UNL     1     -11.174   5.864  74.884  1.00  0.00     0.000 HD 
HETATM   15  O   UNL     1      -8.638   2.190  74.523  1.00  0.00    -0.057 OA 
BRANCH   6  16
HETATM   16  O   UNL     1      -8.267   5.501  71.516  1.00  0.00    -0.115 OA 
BRANCH  16  17
HETATM   17  C   UNL     1      -7.361   6.267  70.696  1.00  0.00    -0.082 C  
HETATM   18  O   UNL     1      -6.825   7.065  68.443  1.00  0.00    -0.068 OA 
HETATM   19  C   UNL     1      -7.832   6.426  69.241  1.00  0.00    -0.106 C  
HETATM   20  H   UNL     1      -7.117   7.163  67.544  1.00  0.00     0.000 HD 
HETATM   21  C   UNL     1      -8.882   8.614  69.880  1.00  0.00    -0.144 C  
HETATM   22  O   UNL     1     -10.206   6.539  69.782  1.00  0.00    -0.177 OA 
HETATM   23  C   UNL     1      -9.122   7.255  69.186  1.00  0.00    -0.137 C  
HETATM   24  O   UNL     1      -8.018   9.461  69.137  1.00  0.00    -0.086 OA 
HETATM   25  O   UNL     1      -8.413   8.451  71.222  1.00  0.00    -0.122 OA 
HETATM   26  H   UNL     1     -11.004   7.052  69.749  1.00  0.00     0.000 HD 
HETATM   27  H   UNL     1      -7.871  10.296  69.564  1.00  0.00     0.000 HD 
HETATM   28  C   UNL     1      -7.240   7.646  71.393  1.00  0.00    -0.066 C  
BRANCH  28  29
HETATM   29  C   UNL     1      -5.940   8.401  71.081  1.00  0.00    -0.035 C  
HETATM   30  O   UNL     1      -5.927   9.670  71.732  1.00  0.00    -0.238 OA 
HETATM   31  H   UNL     1      -5.123  10.138  71.539  1.00  0.00     0.000 HD 
ENDBRANCH  28  29
ENDBRANCH  16  17
ENDBRANCH   6  16
ENDBRANCH   3   4
TORSDOF 4
ENDMDL
MODEL      220
REMARK 921   NORMALIZED FREE ENERGY PREDICTED BY IDOCK:   -1.43 KCAL/MOL
REMARK 922        TOTAL FREE ENERGY PREDICTED BY IDOCK:   -3.07 KCAL/MOL
REMARK 923 INTER-LIGAND FREE ENERGY PREDICTED BY IDOCK:   -2.41 KCAL/MOL
REMARK 924 INTRA-LIGAND FREE ENERGY PREDICTED BY IDOCK:   -0.66 KCAL/MOL
REMARK 927      BINDING AFFINITY PREDICTED BY RF-SCORE:    0.00 PKD
ROOT
HETATM    1  O   UNL     1     -11.660  11.068  69.310  1.00  0.00    -0.259 OA 
HETATM    2  H   UNL     1     -12.373  10.466  69.486  1.00  0.00     0.000 HD 
HETATM    3  C   UNL     1     -10.631  10.414  68.565  1.00  0.00    -0.209 C  
ENDROOT
BRANCH   3   4
HETATM    4  C   UNL     1      -9.471  11.393  68.280  1.00  0.00    -0.187 C  
HETATM    5  O   UNL     1      -8.660  11.655  69.440  1.00  0.00     0.357 OA 
HETATM    6  C   UNL     1      -7.668  10.678  69.764  1.00  0.00    -0.004 C  
HETATM    7  H   UNL     1      -8.506   8.459  66.687  1.00  0.00     0.000 HD 
HETATM    8  C   UNL     1      -6.695  10.489  68.579  1.00  0.00    -0.056 C  
HETATM    9  O   UNL     1      -5.973  11.693  68.287  1.00  0.00    -0.046 OA 
HETATM   10  H   UNL     1      -8.909  10.311  65.212  1.00  0.00     0.000 HD 
HETATM   11  C   UNL     1      -7.482  10.058  67.338  1.00  0.00    -0.091 C  
HETATM   12  C   UNL     1      -8.623  11.041  67.039  1.00  0.00    -0.140 C  
HETATM   13  O   UNL     1      -8.017   8.727  67.456  1.00  0.00    -0.101 OA 
HETATM   14  H   UNL     1      -5.375  11.577  67.559  1.00  0.00     0.000 HD 
HETATM   15  O   UNL     1      -9.431  10.527  65.975  1.00  0.00    -0.170 OA 
BRANCH   6  16
HETATM   16  O   UNL     1      -8.306   9.475  70.190  1.00  0.00    -0.158 OA 
BRANCH  16  17
HETATM   17  C   UNL     1      -8.139   9.057  71.560  1.00  0.00     0.016 C  
HETATM   18  O   UNL     1      -9.247   8.347  73.627  1.00  0.00    -0.141 OA 
HETATM   19  C   UNL     1      -9.449   8.608  72.231  1.00  0.00    -0.265 C  
HETATM   20  H   UNL     1     -10.056   8.070  74.041  1.00  0.00     0.000 HD 
HETATM   21  C   UNL     1      -8.900   6.245  71.589  1.00  0.00    -0.138 C  
HETATM   22  O   UNL     1     -10.409   7.627  70.217  1.00  0.00    -0.207 OA 
HETATM   23  C   UNL     1      -9.987   7.342  71.553  1.00  0.00    -0.182 C  
HETATM   24  O   UNL     1      -8.677   5.742  72.897  1.00  0.00    -0.125 OA 
HETATM   25  O   UNL     1      -7.678   6.686  70.992  1.00  0.00    -0.094 OA 
HETATM   26  H   UNL     1     -10.743   6.843  69.797  1.00  0.00     0.000 HD 
HETATM   27  H   UNL     1      -8.008   5.068  72.919  1.00  0.00     0.000 HD 
HETATM   28  C   UNL     1      -7.114   7.895  71.515  1.00  0.00    -0.065 C  
BRANCH  28  29
HETATM   29  C   UNL     1      -6.341   7.682  72.825  1.00  0.00    -0.061 C  
HETATM   30  O   UNL     1      -5.606   8.854  73.172  1.00  0.00    -0.090 OA 
HETATM   31  H   UNL     1      -5.128   8.722  73.982  1.00  0.00     0.000 HD 
ENDBRANCH  28  29
ENDBRANCH  16  17
ENDBRANCH   6  16
ENDBRANCH   3   4
TORSDOF 4
ENDMDL
MODEL      221
REMARK 921   NORMALIZED FREE ENERGY PREDICTED BY IDOCK:   -1.42 KCAL/MOL
REMARK 922        TOTAL FREE ENERGY PREDICTED BY IDOCK:   -3.06 KCAL/MOL
REMARK 923 INTER-LIGAND FREE ENERGY PREDICTED BY IDOCK:   -2.19 KCAL/MOL
REMARK 924 INTRA-LIGAND FREE ENERGY PREDICTED BY IDOCK:   -0.87 KCAL/MOL
REMARK 927      BINDING AFFINITY PREDICTED BY RF-SCORE:    0.00 PKD
ROOT
HETATM    1  O   UNL     1     -10.668   9.262  66.632  1.00  0.00    -0.145 OA 
HETATM    2  H   UNL     1     -11.415   8.738  66.368  1.00  0.00     0.000 HD 
HETATM    3  C   UNL     1      -9.451   8.569  66.350  1.00  0.00    -0.232 C  
ENDROOT
BRANCH   3   4
HETATM    4  C   UNL     1      -8.237   9.421  66.781  1.00  0.00    -0.112 C  
HETATM    5  O   UNL     1      -8.136   9.572  68.208  1.00  0.00    -0.101 OA 
HETATM    6  C   UNL     1      -7.546   8.488  68.930  1.00  0.00    -0.096 C  
HETATM    7  H   UNL     1      -6.828   6.428  65.715  1.00  0.00     0.000 HD 
HETATM    8  C   UNL     1      -6.116   8.216  68.413  1.00  0.00    -0.045 C  
HETATM    9  O   UNL     1      -5.251   9.339  68.626  1.00  0.00    -0.034 OA 
HETATM   10  H   UNL     1      -6.242   8.338  64.383  1.00  0.00     0.000 HD 
HETATM   11  C   UNL     1      -6.169   7.895  66.917  1.00  0.00    -0.054 C  
HETATM   12  C   UNL     1      -6.897   9.001  66.140  1.00  0.00    -0.081 C  
HETATM   13  O   UNL     1      -6.794   6.627  66.643  1.00  0.00    -0.058 OA 
HETATM   14  H   UNL     1      -4.373   9.172  68.309  1.00  0.00     0.000 HD 
HETATM   15  O   UNL     1      -7.067   8.596  64.777  1.00  0.00    -0.076 OA 
BRANCH   6  16
HETATM   16  O   UNL     1      -8.411   7.354  68.875  1.00  0.00    -0.127 OA 
BRANCH  16  17
HETATM   17  C   UNL     1      -8.396   6.424  69.976  1.00  0.00    -0.130 C  
HETATM   18  O   UNL     1      -9.663   5.413  71.812  1.00  0.00    -0.156 OA 
HETATM   19  C   UNL     1      -9.770   6.229  70.637  1.00  0.00    -0.176 C  
HETATM   20  H   UNL     1     -10.513   5.293  72.220  1.00  0.00     0.000 HD 
HETATM   21  C   UNL     1     -10.143   4.245  69.147  1.00  0.00     0.151 C  
HETATM   22  O   UNL     1     -11.048   6.463  68.575  1.00  0.00    -0.385 OA 
HETATM   23  C   UNL     1     -10.747   5.573  69.653  1.00  0.00    -0.278 C  
HETATM   24  O   UNL     1     -10.106   3.245  70.155  1.00  0.00     0.191 OA 
HETATM   25  O   UNL     1      -8.850   4.435  68.565  1.00  0.00    -0.097 OA 
HETATM   26  H   UNL     1     -11.653   6.056  67.966  1.00  0.00     0.000 HD 
HETATM   27  H   UNL     1      -9.734   2.428  69.844  1.00  0.00     0.000 HD 
HETATM   28  C   UNL     1      -7.874   5.091  69.382  1.00  0.00    -0.075 C  
BRANCH  28  29
HETATM   29  C   UNL     1      -7.220   4.153  70.409  1.00  0.00    -0.041 C  
HETATM   30  O   UNL     1      -6.894   2.901  69.809  1.00  0.00    -0.033 OA 
HETATM   31  H   UNL     1      -6.490   2.321  70.444  1.00  0.00     0.000 HD 
ENDBRANCH  28  29
ENDBRANCH  16  17
ENDBRANCH   6  16
ENDBRANCH   3   4
TORSDOF 4
ENDMDL
MODEL      222
REMARK 921   NORMALIZED FREE ENERGY PREDICTED BY IDOCK:   -1.23 KCAL/MOL
REMARK 922        TOTAL FREE ENERGY PREDICTED BY IDOCK:   -2.83 KCAL/MOL
REMARK 923 INTER-LIGAND FREE ENERGY PREDICTED BY IDOCK:   -3.38 KCAL/MOL
REMARK 924 INTRA-LIGAND FREE ENERGY PREDICTED BY IDOCK:    0.55 KCAL/MOL
REMARK 927      BINDING AFFINITY PREDICTED BY RF-SCORE:    0.00 PKD
ROOT
HETATM    1  O   UNL     1      -7.246  14.881  67.569  1.00  0.00    -0.178 OA 
HETATM    2  H   UNL     1      -6.487  14.524  68.014  1.00  0.00     0.000 HD 
HETATM    3  C   UNL     1      -8.376  14.889  68.443  1.00  0.00    -0.153 C  
ENDROOT
BRANCH   3   4
HETATM    4  C   UNL     1      -9.611  15.469  67.719  1.00  0.00    -0.209 C  
HETATM    5  O   UNL     1      -9.719  15.028  66.353  1.00  0.00    -0.251 OA 
HETATM    6  C   UNL     1     -10.286  13.732  66.139  1.00  0.00    -0.301 C  
HETATM    7  H   UNL     1     -10.948  13.137  69.921  1.00  0.00     0.000 HD 
HETATM    8  C   UNL     1     -11.708  13.665  66.739  1.00  0.00    -0.392 C  
HETATM    9  O   UNL     1     -12.598  14.588  66.099  1.00  0.00    -0.354 OA 
HETATM   10  H   UNL     1     -11.574  15.412  70.373  1.00  0.00     0.000 HD 
HETATM   11  C   UNL     1     -11.644  13.979  68.236  1.00  0.00    -0.329 C  
HETATM   12  C   UNL     1     -10.939  15.319  68.490  1.00  0.00    -0.266 C  
HETATM   13  O   UNL     1     -10.989  12.943  68.992  1.00  0.00    -0.246 OA 
HETATM   14  H   UNL     1     -13.472  14.547  66.468  1.00  0.00     0.000 HD 
HETATM   15  O   UNL     1     -10.756  15.504  69.898  1.00  0.00    -0.266 OA 
BRANCH   6  16
HETATM   16  O   UNL     1      -9.395  12.736  66.639  1.00  0.00    -0.238 OA 
BRANCH  16  17
HETATM   17  C   UNL     1      -9.605  11.365  66.242  1.00  0.00    -0.213 C  
HETATM   18  O   UNL     1     -10.701   9.840  64.669  1.00  0.00     0.354 OA 
HETATM   19  C   UNL     1     -10.397  11.217  64.932  1.00  0.00    -0.304 C  
HETATM   20  H   UNL     1     -11.190   9.750  63.860  1.00  0.00     0.000 HD 
HETATM   21  C   UNL     1      -8.217  11.095  63.695  1.00  0.00     0.462 C  
HETATM   22  O   UNL     1      -9.467  13.209  63.880  1.00  0.00    -0.244 OA 
HETATM   23  C   UNL     1      -9.595  11.791  63.757  1.00  0.00    -0.155 C  
HETATM   24  O   UNL     1      -8.309   9.739  63.286  1.00  0.00    -0.143 OA 
HETATM   25  O   UNL     1      -7.505  11.211  64.930  1.00  0.00     0.412 OA 
HETATM   26  H   UNL     1      -8.970  13.564  63.152  1.00  0.00     0.000 HD 
HETATM   27  H   UNL     1      -7.462   9.311  63.248  1.00  0.00     0.000 HD 
HETATM   28  C   UNL     1      -8.188  10.754  66.104  1.00  0.00    -0.163 C  
BRANCH  28  29
HETATM   29  C   UNL     1      -8.137   9.228  66.274  1.00  0.00    -0.107 C  
HETATM   30  O   UNL     1      -7.610   8.883  67.554  1.00  0.00    -0.091 OA 
HETATM   31  H   UNL     1      -7.578   7.939  67.659  1.00  0.00     0.000 HD 
ENDBRANCH  28  29
ENDBRANCH  16  17
ENDBRANCH   6  16
ENDBRANCH   3   4
TORSDOF 4
ENDMDL
MODEL      223
REMARK 921   NORMALIZED FREE ENERGY PREDICTED BY IDOCK:   -0.83 KCAL/MOL
REMARK 922        TOTAL FREE ENERGY PREDICTED BY IDOCK:   -2.33 KCAL/MOL
REMARK 923 INTER-LIGAND FREE ENERGY PREDICTED BY IDOCK:   -3.25 KCAL/MOL
REMARK 924 INTRA-LIGAND FREE ENERGY PREDICTED BY IDOCK:    0.92 KCAL/MOL
REMARK 927      BINDING AFFINITY PREDICTED BY RF-SCORE:    0.00 PKD
ROOT
HETATM    1  O   UNL     1      -8.127   7.639  65.037  1.00  0.00    -0.129 OA 
HETATM    2  H   UNL     1      -7.459   7.028  64.750  1.00  0.00     0.000 HD 
HETATM    3  C   UNL     1      -8.018   7.867  66.444  1.00  0.00    -0.102 C  
ENDROOT
BRANCH   3   4
HETATM    4  C   UNL     1      -9.104   8.860  66.911  1.00  0.00    -0.133 C  
HETATM    5  O   UNL     1      -9.950   8.322  67.943  1.00  0.00    -0.166 OA 
HETATM    6  C   UNL     1      -9.438   8.357  69.278  1.00  0.00    -0.155 C  
HETATM    7  H   UNL     1      -6.159  10.156  68.225  1.00  0.00     0.000 HD 
HETATM    8  C   UNL     1      -9.113   9.810  69.688  1.00  0.00    -0.220 C  
HETATM    9  O   UNL     1     -10.286  10.634  69.701  1.00  0.00    -0.359 OA 
HETATM   10  H   UNL     1      -7.218  11.550  66.581  1.00  0.00     0.000 HD 
HETATM   11  C   UNL     1      -8.092  10.398  68.709  1.00  0.00    -0.125 C  
HETATM   12  C   UNL     1      -8.580  10.270  67.260  1.00  0.00    -0.125 C  
HETATM   13  O   UNL     1      -6.792   9.792  68.833  1.00  0.00    -0.053 OA 
HETATM   14  H   UNL     1     -10.086  11.527  69.953  1.00  0.00     0.000 HD 
HETATM   15  O   UNL     1      -7.540  10.682  66.367  1.00  0.00    -0.125 OA 
BRANCH   6  16
HETATM   16  O   UNL     1      -8.334   7.460  69.387  1.00  0.00    -0.129 OA 
BRANCH  16  17
HETATM   17  C   UNL     1      -8.309   6.293  68.540  1.00  0.00    -0.115 C  
HETATM   18  O   UNL     1      -7.123   4.240  67.927  1.00  0.00    -0.058 OA 
HETATM   19  C   UNL     1      -7.189   5.300  68.892  1.00  0.00    -0.062 C  
HETATM   20  H   UNL     1      -6.430   3.627  68.145  1.00  0.00     0.000 HD 
HETATM   21  C   UNL     1      -8.826   4.051  70.327  1.00  0.00    -0.086 C  
HETATM   22  O   UNL     1      -7.275   5.703  71.294  1.00  0.00    -0.069 OA 
HETATM   23  C   UNL     1      -7.425   4.702  70.284  1.00  0.00    -0.050 C  
HETATM   24  O   UNL     1      -8.902   2.871  69.541  1.00  0.00    -0.073 OA 
HETATM   25  O   UNL     1      -9.855   4.976  69.966  1.00  0.00    -0.186 OA 
HETATM   26  H   UNL     1      -7.422   5.333  72.156  1.00  0.00     0.000 HD 
HETATM   27  H   UNL     1      -9.763   2.471  69.567  1.00  0.00     0.000 HD 
HETATM   28  C   UNL     1      -9.703   5.636  68.703  1.00  0.00    -0.137 C  
BRANCH  28  29
HETATM   29  C   UNL     1     -10.136   4.765  67.514  1.00  0.00    -0.106 C  
HETATM   30  O   UNL     1     -10.786   5.558  66.521  1.00  0.00    -0.486 OA 
HETATM   31  H   UNL     1     -11.054   5.019  65.786  1.00  0.00     0.000 HD 
ENDBRANCH  28  29
ENDBRANCH  16  17
ENDBRANCH   6  16
ENDBRANCH   3   4
TORSDOF 4
ENDMDL
MODEL      224
REMARK 921   NORMALIZED FREE ENERGY PREDICTED BY IDOCK:   -0.80 KCAL/MOL
REMARK 922        TOTAL FREE ENERGY PREDICTED BY IDOCK:   -2.30 KCAL/MOL
REMARK 923 INTER-LIGAND FREE ENERGY PREDICTED BY IDOCK:   -2.32 KCAL/MOL
REMARK 924 INTRA-LIGAND FREE ENERGY PREDICTED BY IDOCK:    0.02 KCAL/MOL
REMARK 927      BINDING AFFINITY PREDICTED BY RF-SCORE:    0.00 PKD
ROOT
HETATM    1  O   UNL     1     -10.046   7.673  66.163  1.00  0.00    -0.456 OA 
HETATM    2  H   UNL     1     -10.950   7.844  66.399  1.00  0.00     0.000 HD 
HETATM    3  C   UNL     1      -9.359   8.899  65.909  1.00  0.00    -0.236 C  
ENDROOT
BRANCH   3   4
HETATM    4  C   UNL     1      -7.889   8.621  65.526  1.00  0.00    -0.099 C  
HETATM    5  O   UNL     1      -6.986   8.745  66.639  1.00  0.00    -0.077 OA 
HETATM    6  C   UNL     1      -6.897   7.625  67.523  1.00  0.00    -0.069 C  
HETATM    7  H   UNL     1      -9.386   5.486  65.445  1.00  0.00     0.000 HD 
HETATM    8  C   UNL     1      -6.466   6.362  66.745  1.00  0.00    -0.046 C  
HETATM    9  O   UNL     1      -5.160   6.509  66.173  1.00  0.00    -0.012 OA 
HETATM   10  H   UNL     1      -8.593   6.269  63.317  1.00  0.00     0.000 HD 
HETATM   11  C   UNL     1      -7.478   6.083  65.630  1.00  0.00    -0.082 C  
HETATM   12  C   UNL     1      -7.667   7.315  64.734  1.00  0.00    -0.115 C  
HETATM   13  O   UNL     1      -8.758   5.659  66.136  1.00  0.00    -0.126 OA 
HETATM   14  H   UNL     1      -4.896   5.733  65.694  1.00  0.00     0.000 HD 
HETATM   15  O   UNL     1      -8.729   7.073  63.805  1.00  0.00     0.413 OA 
BRANCH   6  16
HETATM   16  O   UNL     1      -8.126   7.481  68.233  1.00  0.00    -0.121 OA 
BRANCH  16  17
HETATM   17  C   UNL     1      -8.124   7.690  69.660  1.00  0.00    -0.126 C  
HETATM   18  O   UNL     1      -9.472   7.887  71.696  1.00  0.00    -0.144 OA 
HETATM   19  C   UNL     1      -9.508   7.523  70.309  1.00  0.00    -0.165 C  
HETATM   20  H   UNL     1     -10.327   7.783  72.096  1.00  0.00     0.000 HD 
HETATM   21  C   UNL     1      -8.926   5.131  70.798  1.00  0.00    -0.134 C  
HETATM   22  O   UNL     1     -10.246   5.747  68.812  1.00  0.00    -0.161 OA 
HETATM   23  C   UNL     1      -9.985   6.071  70.179  1.00  0.00    -0.178 C  
HETATM   24  O   UNL     1      -8.862   5.240  72.212  1.00  0.00    -0.128 OA 
HETATM   25  O   UNL     1      -7.637   5.320  70.209  1.00  0.00    -0.068 OA 
HETATM   26  H   UNL     1     -10.541   4.847  68.731  1.00  0.00     0.000 HD 
HETATM   27  H   UNL     1      -8.211   4.662  72.593  1.00  0.00     0.000 HD 
HETATM   28  C   UNL     1      -7.119   6.656  70.227  1.00  0.00    -0.072 C  
BRANCH  28  29
HETATM   29  C   UNL     1      -6.504   7.046  71.580  1.00  0.00    -0.041 C  
HETATM   30  O   UNL     1      -6.961   6.170  72.610  1.00  0.00    -0.073 OA 
HETATM   31  H   UNL     1      -6.582   6.412  73.446  1.00  0.00     0.000 HD 
ENDBRANCH  28  29
ENDBRANCH  16  17
ENDBRANCH   6  16
ENDBRANCH   3   4
TORSDOF 4
ENDMDL
MODEL      225
REMARK 921   NORMALIZED FREE ENERGY PREDICTED BY IDOCK:   -0.70 KCAL/MOL
REMARK 922        TOTAL FREE ENERGY PREDICTED BY IDOCK:   -2.17 KCAL/MOL
REMARK 923 INTER-LIGAND FREE ENERGY PREDICTED BY IDOCK:   -2.67 KCAL/MOL
REMARK 924 INTRA-LIGAND FREE ENERGY PREDICTED BY IDOCK:    0.50 KCAL/MOL
REMARK 927      BINDING AFFINITY PREDICTED BY RF-SCORE:    0.00 PKD
ROOT
HETATM    1  O   UNL     1     -11.315  15.701  67.000  1.00  0.00    -0.209 OA 
HETATM    2  H   UNL     1     -11.274  14.926  66.452  1.00  0.00     0.000 HD 
HETATM    3  C   UNL     1     -10.662  16.797  66.358  1.00  0.00    -0.105 C  
ENDROOT
BRANCH   3   4
HETATM    4  C   UNL     1     -10.728  18.057  67.248  1.00  0.00    -0.290 C  
HETATM    5  O   UNL     1      -9.815  18.008  68.359  1.00  0.00    -0.326 OA 
HETATM    6  C   UNL     1      -8.454  18.354  68.088  1.00  0.00    -0.285 C  
HETATM    7  H   UNL     1      -9.155  19.158  64.352  1.00  0.00     0.000 HD 
HETATM    8  C   UNL     1      -8.370  19.784  67.510  1.00  0.00    -0.314 C  
HETATM    9  O   UNL     1      -8.840  20.763  68.446  1.00  0.00     0.429 OA 
HETATM   10  H   UNL     1     -11.301  20.154  64.763  1.00  0.00     0.000 HD 
HETATM   11  C   UNL     1      -9.207  19.865  66.230  1.00  0.00    -0.373 C  
HETATM   12  C   UNL     1     -10.646  19.394  66.480  1.00  0.00    -0.458 C  
HETATM   13  O   UNL     1      -8.636  19.109  65.146  1.00  0.00     0.683 OA 
HETATM   14  H   UNL     1      -8.788  21.642  68.091  1.00  0.00     0.000 HD 
HETATM   15  O   UNL     1     -11.352  19.332  65.236  1.00  0.00    -0.050 OA 
BRANCH   6  16
HETATM   16  O   UNL     1      -7.866  17.355  67.256  1.00  0.00    -0.190 OA 
BRANCH  16  17
HETATM   17  C   UNL     1      -7.990  15.973  67.649  1.00  0.00    -0.143 C  
HETATM   18  O   UNL     1      -6.978  13.742  67.614  1.00  0.00    -0.156 OA 
HETATM   19  C   UNL     1      -6.741  15.130  67.339  1.00  0.00    -0.100 C  
HETATM   20  H   UNL     1      -6.206  13.222  67.423  1.00  0.00     0.000 HD 
HETATM   21  C   UNL     1      -5.930  15.577  69.672  1.00  0.00    -0.133 C  
HETATM   22  O   UNL     1      -5.147  16.924  67.764  1.00  0.00    -0.106 OA 
HETATM   23  C   UNL     1      -5.550  15.615  68.175  1.00  0.00    -0.120 C  
HETATM   24  O   UNL     1      -6.052  14.253  70.169  1.00  0.00    -0.136 OA 
HETATM   25  O   UNL     1      -7.111  16.337  69.941  1.00  0.00    -0.029 OA 
HETATM   26  H   UNL     1      -4.409  17.224  68.281  1.00  0.00     0.000 HD 
HETATM   27  H   UNL     1      -6.286  14.229  71.089  1.00  0.00     0.000 HD 
HETATM   28  C   UNL     1      -8.273  16.002  69.173  1.00  0.00    -0.241 C  
BRANCH  28  29
HETATM   29  C   UNL     1      -9.009  14.762  69.703  1.00  0.00     0.222 C  
HETATM   30  O   UNL     1     -10.299  14.649  69.105  1.00  0.00    -0.238 OA 
HETATM   31  H   UNL     1     -10.754  13.882  69.433  1.00  0.00     0.000 HD 
ENDBRANCH  28  29
ENDBRANCH  16  17
ENDBRANCH   6  16
ENDBRANCH   3   4
TORSDOF 4
ENDMDL
MODEL      226
REMARK 921   NORMALIZED FREE ENERGY PREDICTED BY IDOCK:   -0.53 KCAL/MOL
REMARK 922        TOTAL FREE ENERGY PREDICTED BY IDOCK:   -1.97 KCAL/MOL
REMARK 923 INTER-LIGAND FREE ENERGY PREDICTED BY IDOCK:   -1.77 KCAL/MOL
REMARK 924 INTRA-LIGAND FREE ENERGY PREDICTED BY IDOCK:   -0.20 KCAL/MOL
REMARK 927      BINDING AFFINITY PREDICTED BY RF-SCORE:    0.00 PKD
ROOT
HETATM    1  O   UNL     1     -10.281   8.229  73.765  1.00  0.00     0.327 OA 
HETATM    2  H   UNL     1     -10.966   8.762  73.379  1.00  0.00     0.000 HD 
HETATM    3  C   UNL     1      -9.655   7.423  72.765  1.00  0.00    -0.165 C  
ENDROOT
BRANCH   3   4
HETATM    4  C   UNL     1      -8.541   6.558  73.394  1.00  0.00    -0.123 C  
HETATM    5  O   UNL     1      -8.236   5.386  72.616  1.00  0.00    -0.112 OA 
HETATM    6  C   UNL     1      -7.370   5.566  71.493  1.00  0.00    -0.086 C  
HETATM    7  H   UNL     1      -6.859   9.353  72.196  1.00  0.00     0.000 HD 
HETATM    8  C   UNL     1      -6.018   6.157  71.950  1.00  0.00    -0.036 C  
HETATM    9  O   UNL     1      -5.323   5.270  72.836  1.00  0.00    -0.016 OA 
HETATM   10  H   UNL     1      -6.813   9.106  74.585  1.00  0.00     0.000 HD 
HETATM   11  C   UNL     1      -6.260   7.493  72.657  1.00  0.00    -0.054 C  
HETATM   12  C   UNL     1      -7.273   7.337  73.800  1.00  0.00    -0.090 C  
HETATM   13  O   UNL     1      -6.708   8.524  71.757  1.00  0.00    -0.069 OA 
HETATM   14  H   UNL     1      -4.492   5.633  73.117  1.00  0.00     0.000 HD 
HETATM   15  O   UNL     1      -7.594   8.627  74.334  1.00  0.00    -0.372 OA 
BRANCH   6  16
HETATM   16  O   UNL     1      -8.038   6.341  70.498  1.00  0.00    -0.109 OA 
BRANCH  16  17
HETATM   17  C   UNL     1      -8.501   5.675  69.305  1.00  0.00    -0.106 C  
HETATM   18  O   UNL     1      -9.328   5.934  67.014  1.00  0.00    -0.117 OA 
HETATM   19  C   UNL     1      -8.729   6.627  68.119  1.00  0.00    -0.117 C  
HETATM   20  H   UNL     1      -9.468   6.522  66.281  1.00  0.00     0.000 HD 
HETATM   21  C   UNL     1      -6.402   6.112  67.333  1.00  0.00    -0.037 C  
HETATM   22  O   UNL     1      -6.886   8.123  68.671  1.00  0.00    -0.063 OA 
HETATM   23  C   UNL     1      -7.399   7.243  67.667  1.00  0.00    -0.093 C  
HETATM   24  O   UNL     1      -6.754   5.406  66.153  1.00  0.00    -0.054 OA 
HETATM   25  O   UNL     1      -6.224   5.216  68.434  1.00  0.00    -0.029 OA 
HETATM   26  H   UNL     1      -6.062   8.504  68.392  1.00  0.00     0.000 HD 
HETATM   27  H   UNL     1      -6.141   4.710  65.948  1.00  0.00     0.000 HD 
HETATM   28  C   UNL     1      -7.413   4.624  68.971  1.00  0.00    -0.056 C  
BRANCH  28  29
HETATM   29  C   UNL     1      -7.918   3.431  68.144  1.00  0.00    -0.074 C  
HETATM   30  O   UNL     1      -8.982   3.832  67.282  1.00  0.00    -0.118 OA 
HETATM   31  H   UNL     1      -9.295   3.095  66.771  1.00  0.00     0.000 HD 
ENDBRANCH  28  29
ENDBRANCH  16  17
ENDBRANCH   6  16
ENDBRANCH   3   4
TORSDOF 4
ENDMDL
MODEL      227
REMARK 921   NORMALIZED FREE ENERGY PREDICTED BY IDOCK:   -0.22 KCAL/MOL
REMARK 922        TOTAL FREE ENERGY PREDICTED BY IDOCK:   -1.59 KCAL/MOL
REMARK 923 INTER-LIGAND FREE ENERGY PREDICTED BY IDOCK:   -3.96 KCAL/MOL
REMARK 924 INTRA-LIGAND FREE ENERGY PREDICTED BY IDOCK:    2.37 KCAL/MOL
REMARK 927      BINDING AFFINITY PREDICTED BY RF-SCORE:    0.00 PKD
ROOT
HETATM    1  O   UNL     1      -8.247  13.205  69.625  1.00  0.00     0.450 OA 
HETATM    2  H   UNL     1      -7.443  13.635  69.891  1.00  0.00     0.000 HD 
HETATM    3  C   UNL     1      -8.108  12.663  68.310  1.00  0.00    -0.161 C  
ENDROOT
BRANCH   3   4
HETATM    4  C   UNL     1      -9.415  11.964  67.878  1.00  0.00    -0.194 C  
HETATM    5  O   UNL     1     -10.577  12.481  68.550  1.00  0.00    -0.234 OA 
HETATM    6  C   UNL     1     -11.133  13.693  68.032  1.00  0.00    -0.262 C  
HETATM    7  H   UNL     1      -8.557  13.914  65.132  1.00  0.00     0.000 HD 
HETATM    8  C   UNL     1     -11.525  13.511  66.549  1.00  0.00    -0.339 C  
HETATM    9  O   UNL     1     -12.545  12.516  66.388  1.00  0.00    -0.277 OA 
HETATM   10  H   UNL     1      -8.507  11.547  64.731  1.00  0.00     0.000 HD 
HETATM   11  C   UNL     1     -10.289  13.103  65.742  1.00  0.00    -0.289 C  
HETATM   12  C   UNL     1      -9.616  11.865  66.351  1.00  0.00    -0.225 C  
HETATM   13  O   UNL     1      -9.324  14.166  65.632  1.00  0.00    -0.050 OA 
HETATM   14  H   UNL     1     -12.786  12.404  65.476  1.00  0.00     0.000 HD 
HETATM   15  O   UNL     1      -8.383  11.608  65.670  1.00  0.00     0.142 OA 
BRANCH   6  16
HETATM   16  O   UNL     1     -10.227  14.770  68.267  1.00  0.00    -0.220 OA 
BRANCH  16  17
HETATM   17  C   UNL     1      -9.828  15.589  67.149  1.00  0.00    -0.235 C  
HETATM   18  O   UNL     1     -10.496  17.310  65.538  1.00  0.00    -0.609 OA 
HETATM   19  C   UNL     1     -10.883  16.631  66.741  1.00  0.00    -0.037 C  
HETATM   20  H   UNL     1     -11.148  17.953  65.287  1.00  0.00     0.000 HD 
HETATM   21  C   UNL     1      -9.714  18.302  68.203  1.00  0.00    -0.327 C  
HETATM   22  O   UNL     1     -11.676  17.049  69.008  1.00  0.00     0.086 OA 
HETATM   23  C   UNL     1     -11.077  17.659  67.862  1.00  0.00     0.051 C  
HETATM   24  O   UNL     1      -9.241  19.155  67.171  1.00  0.00    -0.288 OA 
HETATM   25  O   UNL     1      -8.733  17.320  68.548  1.00  0.00    -0.260 OA 
HETATM   26  H   UNL     1     -11.795  17.686  69.702  1.00  0.00     0.000 HD 
HETATM   27  H   UNL     1      -8.403  19.550  67.380  1.00  0.00     0.000 HD 
HETATM   28  C   UNL     1      -8.512  16.277  67.590  1.00  0.00    -0.168 C  
BRANCH  28  29
HETATM   29  C   UNL     1      -7.602  16.708  66.430  1.00  0.00    -0.262 C  
HETATM   30  O   UNL     1      -6.280  16.207  66.616  1.00  0.00    -0.253 OA 
HETATM   31  H   UNL     1      -5.717  16.474  65.899  1.00  0.00     0.000 HD 
ENDBRANCH  28  29
ENDBRANCH  16  17
ENDBRANCH   6  16
ENDBRANCH   3   4
TORSDOF 4
ENDMDL
MODEL      228
REMARK 921   NORMALIZED FREE ENERGY PREDICTED BY IDOCK:    1.39 KCAL/MOL
REMARK 922        TOTAL FREE ENERGY PREDICTED BY IDOCK:    0.40 KCAL/MOL
REMARK 923 INTER-LIGAND FREE ENERGY PREDICTED BY IDOCK:   -2.47 KCAL/MOL
REMARK 924 INTRA-LIGAND FREE ENERGY PREDICTED BY IDOCK:    2.87 KCAL/MOL
REMARK 927      BINDING AFFINITY PREDICTED BY RF-SCORE:    0.00 PKD
ROOT
HETATM    1  O   UNL     1     -10.524  20.490  65.928  1.00  0.00    -0.322 OA 
HETATM    2  H   UNL     1     -11.150  20.071  65.350  1.00  0.00     0.000 HD 
HETATM    3  C   UNL     1      -9.244  19.868  65.807  1.00  0.00    -0.005 C  
ENDROOT
BRANCH   3   4
HETATM    4  C   UNL     1      -8.225  20.550  66.747  1.00  0.00    -0.148 C  
HETATM    5  O   UNL     1      -8.071  19.862  68.001  1.00  0.00    -0.300 OA 
HETATM    6  C   UNL     1      -7.211  18.719  68.007  1.00  0.00    -0.243 C  
HETATM    7  H   UNL     1      -6.255  19.125  64.263  1.00  0.00     0.000 HD 
HETATM    8  C   UNL     1      -5.791  19.117  67.545  1.00  0.00    -0.172 C  
HETATM    9  O   UNL     1      -5.187  20.062  68.436  1.00  0.00    -0.190 OA 
HETATM   10  H   UNL     1      -6.194  21.525  64.333  1.00  0.00     0.000 HD 
HETATM   11  C   UNL     1      -5.865  19.722  66.140  1.00  0.00    -0.166 C  
HETATM   12  C   UNL     1      -6.868  20.883  66.091  1.00  0.00    -0.092 C  
HETATM   13  O   UNL     1      -6.208  18.750  65.135  1.00  0.00    -0.260 OA 
HETATM   14  H   UNL     1      -4.314  20.306  68.152  1.00  0.00     0.000 HD 
HETATM   15  O   UNL     1      -7.029  21.320  64.737  1.00  0.00     0.196 OA 
BRANCH   6  16
HETATM   16  O   UNL     1      -7.803  17.675  67.237  1.00  0.00    -0.199 OA 
BRANCH  16  17
HETATM   17  C   UNL     1      -7.339  16.324  67.439  1.00  0.00    -0.163 C  
HETATM   18  O   UNL     1      -5.636  14.880  68.446  1.00  0.00    -0.094 OA 
HETATM   19  C   UNL     1      -6.144  16.221  68.402  1.00  0.00    -0.112 C  
HETATM   20  H   UNL     1      -4.898  14.817  69.042  1.00  0.00     0.000 HD 
HETATM   21  C   UNL     1      -7.763  15.795  70.272  1.00  0.00     0.940 C  
HETATM   22  O   UNL     1      -6.861  18.047  69.848  1.00  0.00     0.077 OA 
HETATM   23  C   UNL     1      -6.560  16.650  69.815  1.00  0.00    -0.066 C  
HETATM   24  O   UNL     1      -7.406  14.444  70.525  1.00  0.00    -0.168 OA 
HETATM   25  O   UNL     1      -8.854  15.874  69.351  1.00  0.00    -0.251 OA 
HETATM   26  H   UNL     1      -7.119  18.313  70.722  1.00  0.00     0.000 HD 
HETATM   27  H   UNL     1      -8.145  13.919  70.806  1.00  0.00     0.000 HD 
HETATM   28  C   UNL     1      -8.561  15.545  67.987  1.00  0.00    -0.155 C  
BRANCH  28  29
HETATM   29  C   UNL     1      -8.515  14.032  67.729  1.00  0.00    -0.184 C  
HETATM   30  O   UNL     1      -9.185  13.324  68.771  1.00  0.00    -0.386 OA 
HETATM   31  H   UNL     1      -9.156  12.388  68.612  1.00  0.00     0.000 HD 
ENDBRANCH  28  29
ENDBRANCH  16  17
ENDBRANCH   6  16
ENDBRANCH   3   4
TORSDOF 4
ENDMDL
MODEL      229
REMARK 921   NORMALIZED FREE ENERGY PREDICTED BY IDOCK:    8.66 KCAL/MOL
REMARK 922        TOTAL FREE ENERGY PREDICTED BY IDOCK:    9.37 KCAL/MOL
REMARK 923 INTER-LIGAND FREE ENERGY PREDICTED BY IDOCK:   -2.11 KCAL/MOL
REMARK 924 INTRA-LIGAND FREE ENERGY PREDICTED BY IDOCK:   11.48 KCAL/MOL
REMARK 927      BINDING AFFINITY PREDICTED BY RF-SCORE:    0.00 PKD
ROOT
HETATM    1  O   UNL     1      -6.823   9.719  69.203  1.00  0.00    -0.052 OA 
HETATM    2  H   UNL     1      -7.373   9.125  69.699  1.00  0.00     0.000 HD 
HETATM    3  C   UNL     1      -7.586  10.840  68.752  1.00  0.00    -0.113 C  
ENDROOT
BRANCH   3   4
HETATM    4  C   UNL     1      -6.693  11.807  67.945  1.00  0.00    -0.072 C  
HETATM    5  O   UNL     1      -7.418  12.526  66.931  1.00  0.00    -0.054 OA 
HETATM    6  C   UNL     1      -8.157  13.673  67.359  1.00  0.00    -0.175 C  
HETATM    7  H   UNL     1      -6.994  13.337  71.051  1.00  0.00     0.000 HD 
HETATM    8  C   UNL     1      -7.216  14.694  68.035  1.00  0.00    -0.140 C  
HETATM    9  O   UNL     1      -6.226  15.188  67.124  1.00  0.00    -0.279 OA 
HETATM   10  H   UNL     1      -4.765  12.638  70.493  1.00  0.00     0.000 HD 
HETATM   11  C   UNL     1      -6.520  14.031  69.228  1.00  0.00    -0.114 C  
HETATM   12  C   UNL     1      -5.811  12.738  68.804  1.00  0.00    -0.069 C  
HETATM   13  O   UNL     1      -7.425  13.749  70.311  1.00  0.00     0.861 OA 
HETATM   14  H   UNL     1      -5.647  15.816  67.540  1.00  0.00     0.000 HD 
HETATM   15  O   UNL     1      -5.308  12.065  69.965  1.00  0.00    -0.078 OA 
BRANCH   6  16
HETATM   16  O   UNL     1      -9.249  13.256  68.177  1.00  0.00    -0.203 OA 
BRANCH  16  17
HETATM   17  C   UNL     1     -10.392  14.127  68.294  1.00  0.00    -0.245 C  
HETATM   18  O   UNL     1     -11.296  16.193  69.250  1.00  0.00    -0.330 OA 
HETATM   19  C   UNL     1     -10.094  15.440  69.036  1.00  0.00    -0.234 C  
HETATM   20  H   UNL     1     -11.111  17.004  69.709  1.00  0.00     0.000 HD 
HETATM   21  C   UNL     1      -9.665  16.530  66.817  1.00  0.00    -0.258 C  
HETATM   22  O   UNL     1      -7.817  15.663  68.195  1.00  0.00    -0.124 OA 
HETATM   23  C   UNL     1      -9.100  16.291  68.234  1.00  0.00    -0.197 C  
HETATM   24  O   UNL     1     -10.786  17.402  66.816  1.00  0.00    -0.236 OA 
HETATM   25  O   UNL     1      -9.969  15.302  66.150  1.00  0.00    -0.264 OA 
HETATM   26  H   UNL     1      -7.202  16.189  67.698  1.00  0.00     0.000 HD 
HETATM   27  H   UNL     1     -11.133  17.548  65.945  1.00  0.00     0.000 HD 
HETATM   28  C   UNL     1     -10.849  14.405  66.839  1.00  0.00    -0.301 C  
BRANCH  28  29
HETATM   29  C   UNL     1     -12.330  14.790  66.703  1.00  0.00     0.145 C  
HETATM   30  O   UNL     1     -13.030  14.530  67.918  1.00  0.00     0.424 OA 
HETATM   31  H   UNL     1     -13.946  14.767  67.834  1.00  0.00     0.000 HD 
ENDBRANCH  28  29
ENDBRANCH  16  17
ENDBRANCH   6  16
ENDBRANCH   3   4
TORSDOF 4
ENDMDL
MODEL      230
REMARK 921   NORMALIZED FREE ENERGY PREDICTED BY IDOCK:   11.52 KCAL/MOL
REMARK 922        TOTAL FREE ENERGY PREDICTED BY IDOCK:   12.91 KCAL/MOL
REMARK 923 INTER-LIGAND FREE ENERGY PREDICTED BY IDOCK:   -0.67 KCAL/MOL
REMARK 924 INTRA-LIGAND FREE ENERGY PREDICTED BY IDOCK:   13.58 KCAL/MOL
REMARK 927      BINDING AFFINITY PREDICTED BY RF-SCORE:    0.00 PKD
ROOT
HETATM    1  O   UNL     1      -9.988   8.790  64.581  1.00  0.00     0.548 OA 
HETATM    2  H   UNL     1      -9.349   8.522  63.932  1.00  0.00     0.000 HD 
HETATM    3  C   UNL     1      -9.351   9.023  65.838  1.00  0.00    -0.242 C  
ENDROOT
BRANCH   3   4
HETATM    4  C   UNL     1     -10.390   9.459  66.894  1.00  0.00    -0.238 C  
HETATM    5  O   UNL     1     -11.469   8.519  67.041  1.00  0.00     1.030 OA 
HETATM    6  C   UNL     1     -11.218   7.373  67.859  1.00  0.00     0.301 C  
HETATM    7  H   UNL     1      -7.622   8.525  68.776  1.00  0.00     0.000 HD 
HETATM    8  C   UNL     1     -10.819   7.813  69.286  1.00  0.00    -0.080 C  
HETATM    9  O   UNL     1     -11.876   8.530  69.936  1.00  0.00    -0.314 OA 
HETATM   10  H   UNL     1      -8.192  10.853  68.925  1.00  0.00     0.000 HD 
HETATM   11  C   UNL     1      -9.574   8.702  69.214  1.00  0.00    -0.166 C  
HETATM   12  C   UNL     1      -9.790   9.879  68.253  1.00  0.00    -0.147 C  
HETATM   13  O   UNL     1      -8.395   7.974  68.822  1.00  0.00    -0.124 OA 
HETATM   14  H   UNL     1     -11.630   8.800  70.813  1.00  0.00     0.000 HD 
HETATM   15  O   UNL     1      -8.561  10.595  68.089  1.00  0.00    -0.117 OA 
BRANCH   6  16
HETATM   16  O   UNL     1     -10.259   6.533  67.219  1.00  0.00    -0.147 OA 
BRANCH  16  17
HETATM   17  C   UNL     1      -8.915   7.027  67.051  1.00  0.00    -0.125 C  
HETATM   18  O   UNL     1      -6.641   7.103  67.957  1.00  0.00    -0.046 OA 
HETATM   19  C   UNL     1      -7.920   6.466  68.080  1.00  0.00    -0.109 C  
HETATM   20  H   UNL     1      -6.026   6.756  68.593  1.00  0.00     0.000 HD 
HETATM   21  C   UNL     1      -7.316   4.672  66.433  1.00  0.00    -0.081 C  
HETATM   22  O   UNL     1      -8.959   4.266  68.223  1.00  0.00    -0.106 OA 
HETATM   23  C   UNL     1      -7.751   4.953  67.888  1.00  0.00    -0.083 C  
HETATM   24  O   UNL     1      -5.989   5.099  66.168  1.00  0.00    -0.021 OA 
HETATM   25  O   UNL     1      -8.233   5.228  65.486  1.00  0.00    -0.114 OA 
HETATM   26  H   UNL     1      -8.854   3.329  68.104  1.00  0.00     0.000 HD 
HETATM   27  H   UNL     1      -5.722   4.926  65.273  1.00  0.00     0.000 HD 
HETATM   28  C   UNL     1      -8.506   6.628  65.611  1.00  0.00    -0.144 C  
BRANCH  28  29
HETATM   29  C   UNL     1      -7.410   7.512  64.996  1.00  0.00    -0.078 C  
HETATM   30  O   UNL     1      -7.013   8.531  65.913  1.00  0.00    -0.069 OA 
HETATM   31  H   UNL     1      -6.336   9.078  65.533  1.00  0.00     0.000 HD 
ENDBRANCH  28  29
ENDBRANCH  16  17
ENDBRANCH   6  16
ENDBRANCH   3   4
TORSDOF 4
ENDMDL
MODEL      231
REMARK 921   NORMALIZED FREE ENERGY PREDICTED BY IDOCK:   12.47 KCAL/MOL
REMARK 922        TOTAL FREE ENERGY PREDICTED BY IDOCK:   14.08 KCAL/MOL
REMARK 923 INTER-LIGAND FREE ENERGY PREDICTED BY IDOCK:   11.19 KCAL/MOL
REMARK 924 INTRA-LIGAND FREE ENERGY PREDICTED BY IDOCK:    2.89 KCAL/MOL
REMARK 927      BINDING AFFINITY PREDICTED BY RF-SCORE:    0.00 PKD
ROOT
HETATM    1  O   UNL     1     -10.531  15.197  67.309  1.00  0.00    -0.262 OA 
HETATM    2  H   UNL     1     -10.962  15.965  66.954  1.00  0.00     0.000 HD 
HETATM    3  C   UNL     1     -11.331  14.033  67.090  1.00  0.00    -0.331 C  
ENDROOT
BRANCH   3   4
HETATM    4  C   UNL     1     -10.630  12.784  67.667  1.00  0.00    -0.219 C  
HETATM    5  O   UNL     1      -9.988  13.035  68.931  1.00  0.00    -0.066 OA 
HETATM    6  C   UNL     1     -10.824  13.019  70.091  1.00  0.00     1.099 C  
HETATM    7  H   UNL     1     -14.015  12.107  68.070  1.00  0.00     0.000 HD 
HETATM    8  C   UNL     1     -11.534  11.653  70.220  1.00  0.00    -0.026 C  
HETATM    9  O   UNL     1     -10.598  10.582  70.401  1.00  0.00    -0.438 OA 
HETATM   10  H   UNL     1     -12.874  10.634  66.554  1.00  0.00     0.000 HD 
HETATM   11  C   UNL     1     -12.364  11.390  68.960  1.00  0.00     0.033 C  
HETATM   12  C   UNL     1     -11.502  11.511  67.696  1.00  0.00    -0.285 C  
HETATM   13  O   UNL     1     -13.499  12.269  68.851  1.00  0.00     2.976 OA 
HETATM   14  H   UNL     1     -11.034   9.743  70.480  1.00  0.00     0.000 HD 
HETATM   15  O   UNL     1     -12.338  11.418  66.537  1.00  0.00     0.597 OA 
BRANCH   6  16
HETATM   16  O   UNL     1     -11.711  14.135  70.053  1.00  0.00    -0.276 OA 
BRANCH  16  17
HETATM   17  C   UNL     1     -12.744  14.227  71.055  1.00  0.00    -0.359 C  
HETATM   18  O   UNL     1     -13.593  13.388  73.194  1.00  0.00    -0.473 OA 
HETATM   19  C   UNL     1     -12.469  13.372  72.304  1.00  0.00     0.237 C  
HETATM   20  H   UNL     1     -13.423  12.860  73.965  1.00  0.00     0.000 HD 
HETATM   21  C   UNL     1     -11.434  15.387  73.385  1.00  0.00     0.209 C  
HETATM   22  O   UNL     1     -10.052  13.685  72.263  1.00  0.00     6.702 OA 
HETATM   23  C   UNL     1     -11.231  13.894  73.044  1.00  0.00     3.676 C  
HETATM   24  O   UNL     1     -12.418  15.588  74.388  1.00  0.00    -0.628 OA 
HETATM   25  O   UNL     1     -11.722  16.165  72.219  1.00  0.00    -0.480 OA 
HETATM   26  H   UNL     1      -9.285  14.008  72.721  1.00  0.00     0.000 HD 
HETATM   27  H   UNL     1     -12.544  16.505  74.597  1.00  0.00     0.000 HD 
HETATM   28  C   UNL     1     -12.830  15.730  71.422  1.00  0.00    -0.442 C  
BRANCH  28  29
HETATM   29  C   UNL     1     -14.189  16.167  71.990  1.00  0.00     0.714 C  
HETATM   30  O   UNL     1     -14.142  16.226  73.414  1.00  0.00    -0.764 OA 
HETATM   31  H   UNL     1     -14.983  16.495  73.766  1.00  0.00     0.000 HD 
ENDBRANCH  28  29
ENDBRANCH  16  17
ENDBRANCH   6  16
ENDBRANCH   3   4
TORSDOF 4
ENDMDL
MODEL      232
REMARK 921   NORMALIZED FREE ENERGY PREDICTED BY IDOCK:   20.69 KCAL/MOL
REMARK 922        TOTAL FREE ENERGY PREDICTED BY IDOCK:   24.22 KCAL/MOL
REMARK 923 INTER-LIGAND FREE ENERGY PREDICTED BY IDOCK:    3.61 KCAL/MOL
REMARK 924 INTRA-LIGAND FREE ENERGY PREDICTED BY IDOCK:   20.61 KCAL/MOL
REMARK 927      BINDING AFFINITY PREDICTED BY RF-SCORE:    0.00 PKD
ROOT
HETATM    1  O   UNL     1      -8.567  17.805  66.194  1.00  0.00    -0.446 OA 
HETATM    2  H   UNL     1      -8.879  17.893  65.302  1.00  0.00     0.000 HD 
HETATM    3  C   UNL     1      -9.139  18.819  67.023  1.00  0.00    -0.291 C  
ENDROOT
BRANCH   3   4
HETATM    4  C   UNL     1      -8.632  18.675  68.474  1.00  0.00    -0.340 C  
HETATM    5  O   UNL     1      -7.935  17.438  68.705  1.00  0.00    -0.263 OA 
HETATM    6  C   UNL     1      -6.567  17.383  68.292  1.00  0.00    -0.174 C  
HETATM    7  H   UNL     1      -6.538  21.077  67.086  1.00  0.00     0.000 HD 
HETATM    8  C   UNL     1      -5.750  18.488  69.000  1.00  0.00    -0.210 C  
HETATM    9  O   UNL     1      -5.734  18.309  70.422  1.00  0.00    -0.237 OA 
HETATM   10  H   UNL     1      -7.933  21.878  68.869  1.00  0.00     0.000 HD 
HETATM   11  C   UNL     1      -6.354  19.856  68.669  1.00  0.00    -0.282 C  
HETATM   12  C   UNL     1      -7.851  19.896  69.006  1.00  0.00    -0.065 C  
HETATM   13  O   UNL     1      -6.163  20.228  67.291  1.00  0.00    -0.184 OA 
HETATM   14  H   UNL     1      -5.233  18.988  70.857  1.00  0.00     0.000 HD 
HETATM   15  O   UNL     1      -8.414  21.127  68.541  1.00  0.00     1.051 OA 
BRANCH   6  16
HETATM   16  O   UNL     1      -6.498  17.430  66.868  1.00  0.00    -0.150 OA 
BRANCH  16  17
HETATM   17  C   UNL     1      -7.096  16.355  66.116  1.00  0.00     0.599 C  
HETATM   18  O   UNL     1      -7.229  13.934  65.767  1.00  0.00     3.475 OA 
HETATM   19  C   UNL     1      -6.729  14.957  66.641  1.00  0.00     1.794 C  
HETATM   20  H   UNL     1      -7.003  13.071  66.092  1.00  0.00     0.000 HD 
HETATM   21  C   UNL     1      -8.833  14.982  68.009  1.00  0.00    -0.165 C  
HETATM   22  O   UNL     1      -6.660  15.608  68.988  1.00  0.00    -0.117 OA 
HETATM   23  C   UNL     1      -7.306  14.748  68.046  1.00  0.00    -0.133 C  
HETATM   24  O   UNL     1      -9.524  13.959  67.309  1.00  0.00    -0.223 OA 
HETATM   25  O   UNL     1      -9.161  16.273  67.488  1.00  0.00    -0.192 OA 
HETATM   26  H   UNL     1      -7.018  15.478  69.859  1.00  0.00     0.000 HD 
HETATM   27  H   UNL     1     -10.462  14.104  67.286  1.00  0.00     0.000 HD 
HETATM   28  C   UNL     1      -8.625  16.595  66.199  1.00  0.00    -0.289 C  
BRANCH  28  29
HETATM   29  C   UNL     1      -9.426  15.978  65.043  1.00  0.00     1.092 C  
HETATM   30  O   UNL     1     -10.779  16.430  65.072  1.00  0.00    -0.638 OA 
HETATM   31  H   UNL     1     -11.275  16.048  64.357  1.00  0.00     0.000 HD 
ENDBRANCH  28  29
ENDBRANCH  16  17
ENDBRANCH   6  16
ENDBRANCH   3   4
TORSDOF 4
ENDMDL
