MODEL        1
REMARK 921   NORMALIZED FREE ENERGY PREDICTED BY IDOCK:   -6.15 KCAL/MOL
REMARK 922        TOTAL FREE ENERGY PREDICTED BY IDOCK:   -6.82 KCAL/MOL
REMARK 923 INTER-LIGAND FREE ENERGY PREDICTED BY IDOCK:   -6.87 KCAL/MOL
REMARK 924 INTRA-LIGAND FREE ENERGY PREDICTED BY IDOCK:    0.04 KCAL/MOL
REMARK 927      BINDING AFFINITY PREDICTED BY RF-SCORE:    0.00 PKD
ROOT
HETATM    1  N   UNL     1     -12.631  11.761  63.143  1.00  0.00    -0.905 NA 
HETATM    2  H1  UNL     1     -12.378  10.812  63.422  1.00  0.00     0.000 HD 
HETATM    3  H2  UNL     1     -13.301  11.932  62.394  1.00  0.00     0.000 HD 
HETATM    4  C   UNL     1     -12.034  12.792  63.811  1.00  0.00    -0.510 C  
HETATM    5  N   UNL     1     -12.354  13.995  63.456  1.00  0.00    -1.118 N  
HETATM    6  C   UNL     1     -11.807  15.070  64.114  1.00  0.00    -0.167 C  
HETATM    7  H   UNL     1     -13.010  14.145  62.690  1.00  0.00     0.000 HD 
HETATM    8  N   UNL     1     -10.757  14.846  65.021  1.00  0.00    -0.409 N  
HETATM    9  O   UNL     1     -12.236  16.205  63.915  1.00  0.00    -0.935 OA 
HETATM   10  C   UNL     1     -11.072  12.502  64.888  1.00  0.00    -0.336 C  
HETATM   11  C   UNL     1     -10.475  13.559  65.435  1.00  0.00    -0.315 C  
ENDROOT
BRANCH   8  12
HETATM   12  C   UNL     1     -10.223  16.016  65.738  1.00  0.00    -0.377 C  
HETATM   13  C   UNL     1      -8.726  15.983  66.094  1.00  0.00    -0.313 C  
HETATM   14  S   UNL     1      -8.670  15.147  67.679  1.00  0.00    -0.178 SA 
HETATM   15  C   UNL     1     -10.293  15.806  68.114  1.00  0.00    -0.242 C  
HETATM   16  O   UNL     1     -10.981  16.271  66.944  1.00  0.00    -0.213 OA 
BRANCH  15  17
HETATM   17  C   UNL     1     -11.118  14.746  68.854  1.00  0.00    -0.252 C  
HETATM   18  O   UNL     1     -12.402  14.547  68.261  1.00  0.00    -0.597 OA 
HETATM   19  H   UNL     1     -12.913  13.891  68.719  1.00  0.00     0.000 HD 
ENDBRANCH  15  17
ENDBRANCH   8  12
TORSDOF 2
ENDMDL
MODEL        2
REMARK 921   NORMALIZED FREE ENERGY PREDICTED BY IDOCK:   -5.88 KCAL/MOL
REMARK 922        TOTAL FREE ENERGY PREDICTED BY IDOCK:   -6.53 KCAL/MOL
REMARK 923 INTER-LIGAND FREE ENERGY PREDICTED BY IDOCK:   -6.71 KCAL/MOL
REMARK 924 INTRA-LIGAND FREE ENERGY PREDICTED BY IDOCK:    0.18 KCAL/MOL
REMARK 927      BINDING AFFINITY PREDICTED BY RF-SCORE:    0.00 PKD
ROOT
HETATM    1  N   UNL     1     -11.583  16.577  63.948  1.00  0.00    -1.578 NA 
HETATM    2  H1  UNL     1     -10.839  17.266  64.058  1.00  0.00     0.000 HD 
HETATM    3  H2  UNL     1     -12.424  16.786  63.410  1.00  0.00     0.000 HD 
HETATM    4  C   UNL     1     -11.408  15.363  64.549  1.00  0.00    -0.313 C  
HETATM    5  N   UNL     1     -12.352  14.488  64.410  1.00  0.00    -0.635 N  
HETATM    6  C   UNL     1     -12.216  13.240  64.968  1.00  0.00    -0.432 C  
HETATM    7  H   UNL     1     -13.195  14.724  63.887  1.00  0.00     0.000 HD 
HETATM    8  N   UNL     1     -11.147  13.007  65.851  1.00  0.00    -0.277 N  
HETATM    9  O   UNL     1     -13.012  12.345  64.692  1.00  0.00    -0.793 OA 
HETATM   10  C   UNL     1     -10.177  15.100  65.315  1.00  0.00    -0.400 C  
HETATM   11  C   UNL     1     -10.118  13.924  65.937  1.00  0.00    -0.317 C  
ENDROOT
BRANCH   8  12
HETATM   12  C   UNL     1     -11.009  11.646  66.399  1.00  0.00    -0.295 C  
HETATM   13  C   UNL     1      -9.799  11.391  67.316  1.00  0.00    -0.189 C  
HETATM   14  S   UNL     1      -8.483  10.933  66.188  1.00  0.00    -0.170 SA 
HETATM   15  C   UNL     1      -9.676  10.195  65.053  1.00  0.00    -0.318 C  
HETATM   16  O   UNL     1     -11.002  10.663  65.338  1.00  0.00    -0.008 OA 
BRANCH  15  17
HETATM   17  C   UNL     1      -9.287  10.496  63.600  1.00  0.00    -0.289 C  
HETATM   18  O   UNL     1     -10.357  11.089  62.864  1.00  0.00    -0.696 OA 
HETATM   19  H   UNL     1     -10.116  11.276  61.964  1.00  0.00     0.000 HD 
ENDBRANCH  15  17
ENDBRANCH   8  12
TORSDOF 2
ENDMDL
MODEL        3
REMARK 921   NORMALIZED FREE ENERGY PREDICTED BY IDOCK:   -5.85 KCAL/MOL
REMARK 922        TOTAL FREE ENERGY PREDICTED BY IDOCK:   -6.49 KCAL/MOL
REMARK 923 INTER-LIGAND FREE ENERGY PREDICTED BY IDOCK:   -6.62 KCAL/MOL
REMARK 924 INTRA-LIGAND FREE ENERGY PREDICTED BY IDOCK:    0.12 KCAL/MOL
REMARK 927      BINDING AFFINITY PREDICTED BY RF-SCORE:    0.00 PKD
ROOT
HETATM    1  N   UNL     1     -11.303  14.830  71.498  1.00  0.00    -0.527 NA 
HETATM    2  H1  UNL     1     -11.203  15.840  71.601  1.00  0.00     0.000 HD 
HETATM    3  H2  UNL     1     -11.223  14.206  72.300  1.00  0.00     0.000 HD 
HETATM    4  C   UNL     1     -11.546  14.348  70.244  1.00  0.00    -0.248 C  
HETATM    5  N   UNL     1     -11.671  13.066  70.113  1.00  0.00    -0.532 N  
HETATM    6  C   UNL     1     -11.946  12.528  68.879  1.00  0.00    -0.236 C  
HETATM    7  H   UNL     1     -11.566  12.456  70.924  1.00  0.00     0.000 HD 
HETATM    8  N   UNL     1     -11.883  13.360  67.749  1.00  0.00    -0.358 N  
HETATM    9  O   UNL     1     -12.248  11.341  68.772  1.00  0.00    -0.532 OA 
HETATM   10  C   UNL     1     -11.656  15.284  69.112  1.00  0.00    -0.349 C  
HETATM   11  C   UNL     1     -11.814  14.730  67.911  1.00  0.00    -0.297 C  
ENDROOT
BRANCH   8  12
HETATM   12  C   UNL     1     -12.223  12.760  66.447  1.00  0.00    -0.172 C  
HETATM   13  C   UNL     1     -11.131  11.911  65.772  1.00  0.00    -0.317 C  
HETATM   14  S   UNL     1     -10.174  13.098  64.829  1.00  0.00    -0.257 SA 
HETATM   15  C   UNL     1     -11.640  14.120  64.576  1.00  0.00    -0.389 C  
HETATM   16  O   UNL     1     -12.667  13.772  65.514  1.00  0.00    -0.515 OA 
BRANCH  15  17
HETATM   17  C   UNL     1     -11.278  15.607  64.680  1.00  0.00    -0.369 C  
HETATM   18  O   UNL     1     -11.786  16.366  63.582  1.00  0.00    -1.520 OA 
HETATM   19  H   UNL     1     -11.562  17.287  63.647  1.00  0.00     0.000 HD 
ENDBRANCH  15  17
ENDBRANCH   8  12
TORSDOF 2
ENDMDL
MODEL        4
REMARK 921   NORMALIZED FREE ENERGY PREDICTED BY IDOCK:   -5.85 KCAL/MOL
REMARK 922        TOTAL FREE ENERGY PREDICTED BY IDOCK:   -6.49 KCAL/MOL
REMARK 923 INTER-LIGAND FREE ENERGY PREDICTED BY IDOCK:   -6.64 KCAL/MOL
REMARK 924 INTRA-LIGAND FREE ENERGY PREDICTED BY IDOCK:    0.15 KCAL/MOL
REMARK 927      BINDING AFFINITY PREDICTED BY RF-SCORE:    0.00 PKD
ROOT
HETATM    1  N   UNL     1     -12.661  11.843  63.152  1.00  0.00    -0.903 NA 
HETATM    2  H1  UNL     1     -12.694  10.892  63.518  1.00  0.00     0.000 HD 
HETATM    3  H2  UNL     1     -12.921  12.048  62.187  1.00  0.00     0.000 HD 
HETATM    4  C   UNL     1     -12.255  12.830  64.004  1.00  0.00    -0.441 C  
HETATM    5  N   UNL     1     -12.212  14.038  63.538  1.00  0.00    -1.079 N  
HETATM    6  C   UNL     1     -11.840  15.074  64.359  1.00  0.00    -0.339 C  
HETATM    7  H   UNL     1     -12.455  14.219  62.564  1.00  0.00     0.000 HD 
HETATM    8  N   UNL     1     -11.316  14.778  65.629  1.00  0.00    -0.345 N  
HETATM    9  O   UNL     1     -11.971  16.239  63.988  1.00  0.00    -0.955 OA 
HETATM   10  C   UNL     1     -11.891  12.492  65.390  1.00  0.00    -0.479 C  
HETATM   11  C   UNL     1     -11.429  13.497  66.132  1.00  0.00    -0.325 C  
ENDROOT
BRANCH   8  12
HETATM   12  C   UNL     1     -10.965  15.914  66.498  1.00  0.00    -0.121 C  
HETATM   13  C   UNL     1      -9.816  16.820  66.019  1.00  0.00    -0.287 C  
HETATM   14  S   UNL     1      -8.340  16.035  66.666  1.00  0.00    -0.312 SA 
HETATM   15  C   UNL     1      -9.260  15.419  68.092  1.00  0.00    -0.186 C  
HETATM   16  O   UNL     1     -10.672  15.463  67.841  1.00  0.00    -0.270 OA 
BRANCH  15  17
HETATM   17  C   UNL     1      -8.807  13.996  68.444  1.00  0.00    -0.180 C  
HETATM   18  O   UNL     1      -9.844  13.236  69.065  1.00  0.00    -0.418 OA 
HETATM   19  H   UNL     1      -9.564  12.355  69.284  1.00  0.00     0.000 HD 
ENDBRANCH  15  17
ENDBRANCH   8  12
TORSDOF 2
ENDMDL
MODEL        5
REMARK 921   NORMALIZED FREE ENERGY PREDICTED BY IDOCK:   -5.83 KCAL/MOL
REMARK 922        TOTAL FREE ENERGY PREDICTED BY IDOCK:   -6.47 KCAL/MOL
REMARK 923 INTER-LIGAND FREE ENERGY PREDICTED BY IDOCK:   -6.51 KCAL/MOL
REMARK 924 INTRA-LIGAND FREE ENERGY PREDICTED BY IDOCK:    0.04 KCAL/MOL
REMARK 927      BINDING AFFINITY PREDICTED BY RF-SCORE:    0.00 PKD
ROOT
HETATM    1  N   UNL     1     -11.484  16.566  63.839  1.00  0.00    -1.599 NA 
HETATM    2  H1  UNL     1     -10.855  17.303  64.159  1.00  0.00     0.000 HD 
HETATM    3  H2  UNL     1     -12.059  16.686  63.006  1.00  0.00     0.000 HD 
HETATM    4  C   UNL     1     -11.523  15.413  64.570  1.00  0.00    -0.311 C  
HETATM    5  N   UNL     1     -12.321  14.478  64.163  1.00  0.00    -0.858 N  
HETATM    6  C   UNL     1     -12.379  13.285  64.842  1.00  0.00    -0.425 C  
HETATM    7  H   UNL     1     -12.905  14.626  63.340  1.00  0.00     0.000 HD 
HETATM    8  N   UNL     1     -11.725  13.180  66.081  1.00  0.00    -0.362 N  
HETATM    9  O   UNL     1     -12.987  12.328  64.367  1.00  0.00    -0.719 OA 
HETATM   10  C   UNL     1     -10.674  15.278  65.765  1.00  0.00    -0.357 C  
HETATM   11  C   UNL     1     -10.829  14.157  66.467  1.00  0.00    -0.298 C  
ENDROOT
BRANCH   8  12
HETATM   12  C   UNL     1     -11.774  11.874  66.763  1.00  0.00    -0.202 C  
HETATM   13  C   UNL     1     -11.628  11.889  68.295  1.00  0.00    -0.327 C  
HETATM   14  S   UNL     1      -9.857  11.821  68.567  1.00  0.00    -0.155 SA 
HETATM   15  C   UNL     1      -9.635  10.859  67.057  1.00  0.00    -0.173 C  
HETATM   16  O   UNL     1     -10.789  10.969  66.212  1.00  0.00    -0.247 OA 
BRANCH  15  17
HETATM   17  C   UNL     1      -8.367  11.309  66.320  1.00  0.00    -0.142 C  
HETATM   18  O   UNL     1      -8.605  11.560  64.935  1.00  0.00    -0.336 OA 
HETATM   19  H   UNL     1      -7.820  11.838  64.478  1.00  0.00     0.000 HD 
ENDBRANCH  15  17
ENDBRANCH   8  12
TORSDOF 2
ENDMDL
MODEL        6
REMARK 921   NORMALIZED FREE ENERGY PREDICTED BY IDOCK:   -5.77 KCAL/MOL
REMARK 922        TOTAL FREE ENERGY PREDICTED BY IDOCK:   -6.40 KCAL/MOL
REMARK 923 INTER-LIGAND FREE ENERGY PREDICTED BY IDOCK:   -6.65 KCAL/MOL
REMARK 924 INTRA-LIGAND FREE ENERGY PREDICTED BY IDOCK:    0.25 KCAL/MOL
REMARK 927      BINDING AFFINITY PREDICTED BY RF-SCORE:    0.00 PKD
ROOT
HETATM    1  N   UNL     1     -12.434  13.714  63.349  1.00  0.00    -1.016 NA 
HETATM    2  H1  UNL     1     -12.666  12.748  63.580  1.00  0.00     0.000 HD 
HETATM    3  H2  UNL     1     -12.577  14.082  62.409  1.00  0.00     0.000 HD 
HETATM    4  C   UNL     1     -11.926  14.494  64.348  1.00  0.00    -0.449 C  
HETATM    5  N   UNL     1     -11.632  15.720  64.055  1.00  0.00    -0.925 N  
HETATM    6  C   UNL     1     -11.145  16.559  65.028  1.00  0.00    -0.166 C  
HETATM    7  H   UNL     1     -11.762  16.063  63.103  1.00  0.00     0.000 HD 
HETATM    8  N   UNL     1     -10.783  16.013  66.272  1.00  0.00    -0.276 N  
HETATM    9  O   UNL     1     -11.037  17.765  64.813  1.00  0.00    -0.852 OA 
HETATM   10  C   UNL     1     -11.737  13.924  65.693  1.00  0.00    -0.362 C  
HETATM   11  C   UNL     1     -11.162  14.724  66.589  1.00  0.00    -0.346 C  
ENDROOT
BRANCH   8  12
HETATM   12  C   UNL     1     -10.303  16.947  67.305  1.00  0.00    -0.309 C  
HETATM   13  C   UNL     1      -8.905  16.673  67.888  1.00  0.00    -0.205 C  
HETATM   14  S   UNL     1      -9.209  15.535  69.239  1.00  0.00    -0.273 SA 
HETATM   15  C   UNL     1     -10.829  16.274  69.533  1.00  0.00    -0.342 C  
HETATM   16  O   UNL     1     -11.250  17.039  68.395  1.00  0.00    -0.261 OA 
BRANCH  15  17
HETATM   17  C   UNL     1     -11.856  15.187  69.877  1.00  0.00    -0.330 C  
HETATM   18  O   UNL     1     -13.187  15.700  69.939  1.00  0.00    -0.541 OA 
HETATM   19  H   UNL     1     -13.823  15.027  70.152  1.00  0.00     0.000 HD 
ENDBRANCH  15  17
ENDBRANCH   8  12
TORSDOF 2
ENDMDL
MODEL        7
REMARK 921   NORMALIZED FREE ENERGY PREDICTED BY IDOCK:   -5.72 KCAL/MOL
REMARK 922        TOTAL FREE ENERGY PREDICTED BY IDOCK:   -6.34 KCAL/MOL
REMARK 923 INTER-LIGAND FREE ENERGY PREDICTED BY IDOCK:   -6.56 KCAL/MOL
REMARK 924 INTRA-LIGAND FREE ENERGY PREDICTED BY IDOCK:    0.22 KCAL/MOL
REMARK 927      BINDING AFFINITY PREDICTED BY RF-SCORE:    0.00 PKD
ROOT
HETATM    1  N   UNL     1     -10.262  10.605  62.477  1.00  0.00    -0.752 NA 
HETATM    2  H1  UNL     1      -9.659   9.827  62.746  1.00  0.00     0.000 HD 
HETATM    3  H2  UNL     1     -10.590  10.714  61.517  1.00  0.00     0.000 HD 
HETATM    4  C   UNL     1     -10.612  11.494  63.453  1.00  0.00    -0.395 C  
HETATM    5  N   UNL     1     -11.376  12.482  63.111  1.00  0.00    -0.747 N  
HETATM    6  C   UNL     1     -11.784  13.390  64.058  1.00  0.00    -0.416 C  
HETATM    7  H   UNL     1     -11.675  12.586  62.141  1.00  0.00     0.000 HD 
HETATM    8  N   UNL     1     -11.198  13.346  65.334  1.00  0.00    -0.286 N  
HETATM    9  O   UNL     1     -12.651  14.220  63.791  1.00  0.00    -0.821 OA 
HETATM   10  C   UNL     1     -10.119  11.300  64.827  1.00  0.00    -0.338 C  
HETATM   11  C   UNL     1     -10.438  12.253  65.700  1.00  0.00    -0.261 C  
ENDROOT
BRANCH   8  12
HETATM   12  C   UNL     1     -11.688  14.308  66.336  1.00  0.00    -0.391 C  
HETATM   13  C   UNL     1     -10.637  15.235  66.975  1.00  0.00    -0.306 C  
HETATM   14  S   UNL     1     -10.014  14.296  68.369  1.00  0.00    -0.243 SA 
HETATM   15  C   UNL     1     -11.615  13.490  68.576  1.00  0.00    -0.333 C  
HETATM   16  O   UNL     1     -12.410  13.630  67.391  1.00  0.00    -0.297 OA 
BRANCH  15  17
HETATM   17  C   UNL     1     -11.425  12.011  68.940  1.00  0.00    -0.301 C  
HETATM   18  O   UNL     1     -12.378  11.167  68.294  1.00  0.00    -0.677 OA 
HETATM   19  H   UNL     1     -12.260  10.252  68.519  1.00  0.00     0.000 HD 
ENDBRANCH  15  17
ENDBRANCH   8  12
TORSDOF 2
ENDMDL
MODEL        8
REMARK 921   NORMALIZED FREE ENERGY PREDICTED BY IDOCK:   -5.49 KCAL/MOL
REMARK 922        TOTAL FREE ENERGY PREDICTED BY IDOCK:   -6.09 KCAL/MOL
REMARK 923 INTER-LIGAND FREE ENERGY PREDICTED BY IDOCK:   -6.17 KCAL/MOL
REMARK 924 INTRA-LIGAND FREE ENERGY PREDICTED BY IDOCK:    0.08 KCAL/MOL
REMARK 927      BINDING AFFINITY PREDICTED BY RF-SCORE:    0.00 PKD
ROOT
HETATM    1  N   UNL     1     -12.401  13.932  63.230  1.00  0.00    -1.148 NA 
HETATM    2  H1  UNL     1     -12.159  14.749  62.669  1.00  0.00     0.000 HD 
HETATM    3  H2  UNL     1     -12.947  13.164  62.840  1.00  0.00     0.000 HD 
HETATM    4  C   UNL     1     -11.964  13.908  64.525  1.00  0.00    -0.437 C  
HETATM    5  N   UNL     1     -12.272  12.871  65.237  1.00  0.00    -0.452 N  
HETATM    6  C   UNL     1     -11.834  12.779  66.536  1.00  0.00    -0.405 C  
HETATM    7  H   UNL     1     -12.838  12.124  64.835  1.00  0.00     0.000 HD 
HETATM    8  N   UNL     1     -11.235  13.904  67.129  1.00  0.00    -0.304 N  
HETATM    9  O   UNL     1     -11.959  11.728  67.161  1.00  0.00    -0.617 OA 
HETATM   10  C   UNL     1     -11.176  15.035  65.049  1.00  0.00    -0.413 C  
HETATM   11  C   UNL     1     -10.857  14.973  66.340  1.00  0.00    -0.326 C  
ENDROOT
BRANCH   8  12
HETATM   12  C   UNL     1     -10.741  13.758  68.509  1.00  0.00    -0.262 C  
HETATM   13  C   UNL     1     -11.805  13.674  69.618  1.00  0.00    -0.335 C  
HETATM   14  S   UNL     1     -12.124  15.385  70.049  1.00  0.00    -0.355 SA 
HETATM   15  C   UNL     1     -10.423  15.832  69.644  1.00  0.00    -0.289 C  
HETATM   16  O   UNL     1      -9.811  14.816  68.837  1.00  0.00    -0.220 OA 
BRANCH  15  17
HETATM   17  C   UNL     1     -10.383  17.194  68.940  1.00  0.00    -0.348 C  
HETATM   18  O   UNL     1      -9.106  17.470  68.365  1.00  0.00    -0.262 OA 
HETATM   19  H   UNL     1      -9.081  18.313  67.929  1.00  0.00     0.000 HD 
ENDBRANCH  15  17
ENDBRANCH   8  12
TORSDOF 2
ENDMDL
MODEL        9
REMARK 921   NORMALIZED FREE ENERGY PREDICTED BY IDOCK:   -5.41 KCAL/MOL
REMARK 922        TOTAL FREE ENERGY PREDICTED BY IDOCK:   -6.00 KCAL/MOL
REMARK 923 INTER-LIGAND FREE ENERGY PREDICTED BY IDOCK:   -6.11 KCAL/MOL
REMARK 924 INTRA-LIGAND FREE ENERGY PREDICTED BY IDOCK:    0.11 KCAL/MOL
REMARK 927      BINDING AFFINITY PREDICTED BY RF-SCORE:    0.00 PKD
ROOT
HETATM    1  N   UNL     1      -9.424  18.651  66.759  1.00  0.00    -0.304 NA 
HETATM    2  H1  UNL     1      -9.066  18.962  65.856  1.00  0.00     0.000 HD 
HETATM    3  H2  UNL     1      -9.275  19.200  67.605  1.00  0.00     0.000 HD 
HETATM    4  C   UNL     1     -10.108  17.469  66.791  1.00  0.00    -0.320 C  
HETATM    5  N   UNL     1     -10.561  17.074  67.938  1.00  0.00    -0.358 N  
HETATM    6  C   UNL     1     -11.282  15.908  68.023  1.00  0.00    -0.319 C  
HETATM    7  H   UNL     1     -10.383  17.627  68.776  1.00  0.00     0.000 HD 
HETATM    8  N   UNL     1     -11.339  15.064  66.901  1.00  0.00    -0.331 N  
HETATM    9  O   UNL     1     -11.872  15.616  69.062  1.00  0.00    -0.376 OA 
HETATM   10  C   UNL     1     -10.303  16.706  65.546  1.00  0.00    -0.268 C  
HETATM   11  C   UNL     1     -10.910  15.528  65.674  1.00  0.00    -0.346 C  
ENDROOT
BRANCH   8  12
HETATM   12  C   UNL     1     -12.155  13.842  67.016  1.00  0.00    -0.415 C  
HETATM   13  C   UNL     1     -11.437  12.578  67.521  1.00  0.00    -0.336 C  
HETATM   14  S   UNL     1     -10.762  11.834  66.036  1.00  0.00    -0.288 SA 
HETATM   15  C   UNL     1     -12.133  12.481  65.056  1.00  0.00    -0.446 C  
HETATM   16  O   UNL     1     -12.803  13.537  65.759  1.00  0.00    -0.420 OA 
BRANCH  15  17
HETATM   17  C   UNL     1     -11.630  12.961  63.688  1.00  0.00    -0.485 C  
HETATM   18  O   UNL     1     -12.534  13.878  63.070  1.00  0.00    -1.099 OA 
HETATM   19  H   UNL     1     -12.223  14.175  62.224  1.00  0.00     0.000 HD 
ENDBRANCH  15  17
ENDBRANCH   8  12
TORSDOF 2
ENDMDL
MODEL       10
REMARK 921   NORMALIZED FREE ENERGY PREDICTED BY IDOCK:   -5.30 KCAL/MOL
REMARK 922        TOTAL FREE ENERGY PREDICTED BY IDOCK:   -5.88 KCAL/MOL
REMARK 923 INTER-LIGAND FREE ENERGY PREDICTED BY IDOCK:   -6.01 KCAL/MOL
REMARK 924 INTRA-LIGAND FREE ENERGY PREDICTED BY IDOCK:    0.14 KCAL/MOL
REMARK 927      BINDING AFFINITY PREDICTED BY RF-SCORE:    0.00 PKD
ROOT
HETATM    1  N   UNL     1      -9.532   9.684  63.188  1.00  0.00    -0.523 NA 
HETATM    2  H1  UNL     1      -8.861   9.158  63.747  1.00  0.00     0.000 HD 
HETATM    3  H2  UNL     1      -9.780   9.391  62.243  1.00  0.00     0.000 HD 
HETATM    4  C   UNL     1     -10.085  10.798  63.754  1.00  0.00    -0.327 C  
HETATM    5  N   UNL     1     -10.937  11.466  63.043  1.00  0.00    -0.825 N  
HETATM    6  C   UNL     1     -11.547  12.577  63.573  1.00  0.00    -0.508 C  
HETATM    7  H   UNL     1     -11.155  11.168  62.092  1.00  0.00     0.000 HD 
HETATM    8  N   UNL     1     -11.083  13.084  64.799  1.00  0.00    -0.309 N  
HETATM    9  O   UNL     1     -12.487  13.110  62.986  1.00  0.00    -0.598 OA 
HETATM   10  C   UNL     1      -9.703  11.186  65.122  1.00  0.00    -0.296 C  
HETATM   11  C   UNL     1     -10.225  12.326  65.571  1.00  0.00    -0.269 C  
ENDROOT
BRANCH   8  12
HETATM   12  C   UNL     1     -11.787  14.251  65.357  1.00  0.00    -0.363 C  
HETATM   13  C   UNL     1     -11.309  15.636  64.885  1.00  0.00    -0.315 C  
HETATM   14  S   UNL     1      -9.984  16.053  66.019  1.00  0.00    -0.363 SA 
HETATM   15  C   UNL     1     -10.787  15.122  67.340  1.00  0.00    -0.302 C  
HETATM   16  O   UNL     1     -11.765  14.222  66.803  1.00  0.00    -0.370 OA 
BRANCH  15  17
HETATM   17  C   UNL     1      -9.741  14.368  68.172  1.00  0.00    -0.223 C  
HETATM   18  O   UNL     1     -10.072  14.340  69.561  1.00  0.00    -0.424 OA 
HETATM   19  H   UNL     1      -9.424  13.873  70.076  1.00  0.00     0.000 HD 
ENDBRANCH  15  17
ENDBRANCH   8  12
TORSDOF 2
ENDMDL
MODEL       11
REMARK 921   NORMALIZED FREE ENERGY PREDICTED BY IDOCK:   -5.26 KCAL/MOL
REMARK 922        TOTAL FREE ENERGY PREDICTED BY IDOCK:   -5.83 KCAL/MOL
REMARK 923 INTER-LIGAND FREE ENERGY PREDICTED BY IDOCK:   -6.14 KCAL/MOL
REMARK 924 INTRA-LIGAND FREE ENERGY PREDICTED BY IDOCK:    0.31 KCAL/MOL
REMARK 927      BINDING AFFINITY PREDICTED BY RF-SCORE:    0.00 PKD
ROOT
HETATM    1  N   UNL     1     -13.474  15.567  71.078  1.00  0.00    -0.711 NA 
HETATM    2  H1  UNL     1     -13.315  16.378  71.676  1.00  0.00     0.000 HD 
HETATM    3  H2  UNL     1     -14.312  14.994  71.174  1.00  0.00     0.000 HD 
HETATM    4  C   UNL     1     -12.520  15.279  70.144  1.00  0.00    -0.334 C  
HETATM    5  N   UNL     1     -12.722  14.250  69.385  1.00  0.00    -0.420 N  
HETATM    6  C   UNL     1     -11.809  13.931  68.409  1.00  0.00    -0.374 C  
HETATM    7  H   UNL     1     -13.556  13.676  69.512  1.00  0.00     0.000 HD 
HETATM    8  N   UNL     1     -10.577  14.606  68.387  1.00  0.00    -0.236 N  
HETATM    9  O   UNL     1     -12.074  13.074  67.566  1.00  0.00    -0.333 OA 
HETATM   10  C   UNL     1     -11.325  16.133  70.036  1.00  0.00    -0.332 C  
HETATM   11  C   UNL     1     -10.406  15.739  69.157  1.00  0.00    -0.240 C  
ENDROOT
BRANCH   8  12
HETATM   12  C   UNL     1      -9.640  14.267  67.302  1.00  0.00    -0.232 C  
HETATM   13  C   UNL     1      -8.317  15.054  67.262  1.00  0.00    -0.205 C  
HETATM   14  S   UNL     1      -8.705  16.515  66.298  1.00  0.00    -0.318 SA 
HETATM   15  C   UNL     1      -9.921  15.590  65.337  1.00  0.00    -0.304 C  
HETATM   16  O   UNL     1     -10.285  14.378  66.012  1.00  0.00    -0.290 OA 
BRANCH  15  17
HETATM   17  C   UNL     1     -11.155  16.459  65.061  1.00  0.00    -0.208 C  
HETATM   18  O   UNL     1     -11.598  16.358  63.708  1.00  0.00    -1.605 OA 
HETATM   19  H   UNL     1     -12.362  16.897  63.537  1.00  0.00     0.000 HD 
ENDBRANCH  15  17
ENDBRANCH   8  12
TORSDOF 2
ENDMDL
MODEL       12
REMARK 921   NORMALIZED FREE ENERGY PREDICTED BY IDOCK:   -5.21 KCAL/MOL
REMARK 922        TOTAL FREE ENERGY PREDICTED BY IDOCK:   -5.78 KCAL/MOL
REMARK 923 INTER-LIGAND FREE ENERGY PREDICTED BY IDOCK:   -5.86 KCAL/MOL
REMARK 924 INTRA-LIGAND FREE ENERGY PREDICTED BY IDOCK:    0.08 KCAL/MOL
REMARK 927      BINDING AFFINITY PREDICTED BY RF-SCORE:    0.00 PKD
ROOT
HETATM    1  N   UNL     1     -12.250  13.471  63.001  1.00  0.00    -0.956 NA 
HETATM    2  H1  UNL     1     -12.016  14.209  62.337  1.00  0.00     0.000 HD 
HETATM    3  H2  UNL     1     -12.658  12.589  62.691  1.00  0.00     0.000 HD 
HETATM    4  C   UNL     1     -11.996  13.711  64.322  1.00  0.00    -0.445 C  
HETATM    5  N   UNL     1     -12.294  12.774  65.165  1.00  0.00    -0.484 N  
HETATM    6  C   UNL     1     -12.033  12.949  66.502  1.00  0.00    -0.377 C  
HETATM    7  H   UNL     1     -12.722  11.908  64.837  1.00  0.00     0.000 HD 
HETATM    8  N   UNL     1     -11.637  14.220  66.953  1.00  0.00    -0.369 N  
HETATM    9  O   UNL     1     -12.138  12.007  67.285  1.00  0.00    -0.572 OA 
HETATM   10  C   UNL     1     -11.404  14.996  64.728  1.00  0.00    -0.409 C  
HETATM   11  C   UNL     1     -11.263  15.184  66.039  1.00  0.00    -0.275 C  
ENDROOT
BRANCH   8  12
HETATM   12  C   UNL     1     -11.326  14.361  68.386  1.00  0.00    -0.287 C  
HETATM   13  C   UNL     1     -11.715  15.695  69.049  1.00  0.00    -0.395 C  
HETATM   14  S   UNL     1     -10.297  16.755  68.768  1.00  0.00    -0.339 SA 
HETATM   15  C   UNL     1      -9.189  15.331  68.818  1.00  0.00    -0.203 C  
HETATM   16  O   UNL     1      -9.923  14.112  68.635  1.00  0.00    -0.232 OA 
BRANCH  15  17
HETATM   17  C   UNL     1      -8.087  15.474  67.761  1.00  0.00    -0.141 C  
HETATM   18  O   UNL     1      -8.038  14.357  66.874  1.00  0.00    -0.372 OA 
HETATM   19  H   UNL     1      -7.355  14.446  66.219  1.00  0.00     0.000 HD 
ENDBRANCH  15  17
ENDBRANCH   8  12
TORSDOF 2
ENDMDL
MODEL       13
REMARK 921   NORMALIZED FREE ENERGY PREDICTED BY IDOCK:   -5.20 KCAL/MOL
REMARK 922        TOTAL FREE ENERGY PREDICTED BY IDOCK:   -5.77 KCAL/MOL
REMARK 923 INTER-LIGAND FREE ENERGY PREDICTED BY IDOCK:   -6.03 KCAL/MOL
REMARK 924 INTRA-LIGAND FREE ENERGY PREDICTED BY IDOCK:    0.26 KCAL/MOL
REMARK 927      BINDING AFFINITY PREDICTED BY RF-SCORE:    0.00 PKD
ROOT
HETATM    1  N   UNL     1     -13.762  14.047  72.799  1.00  0.00    -0.691 NA 
HETATM    2  H1  UNL     1     -13.769  15.065  72.729  1.00  0.00     0.000 HD 
HETATM    3  H2  UNL     1     -14.179  13.568  73.597  1.00  0.00     0.000 HD 
HETATM    4  C   UNL     1     -13.174  13.351  71.781  1.00  0.00    -0.407 C  
HETATM    5  N   UNL     1     -13.165  12.060  71.871  1.00  0.00    -0.450 N  
HETATM    6  C   UNL     1     -12.614  11.308  70.862  1.00  0.00    -0.371 C  
HETATM    7  H   UNL     1     -13.567  11.601  72.688  1.00  0.00     0.000 HD 
HETATM    8  N   UNL     1     -11.888  11.961  69.851  1.00  0.00    -0.340 N  
HETATM    9  O   UNL     1     -12.761  10.087  70.844  1.00  0.00    -0.329 OA 
HETATM   10  C   UNL     1     -12.586  14.080  70.644  1.00  0.00    -0.414 C  
HETATM   11  C   UNL     1     -11.962  13.335  69.735  1.00  0.00    -0.324 C  
ENDROOT
BRANCH   8  12
HETATM   12  C   UNL     1     -11.345  11.128  68.764  1.00  0.00    -0.277 C  
HETATM   13  C   UNL     1      -9.838  11.262  68.479  1.00  0.00    -0.197 C  
HETATM   14  S   UNL     1      -9.730  12.623  67.317  1.00  0.00    -0.212 SA 
HETATM   15  C   UNL     1     -11.347  12.202  66.633  1.00  0.00    -0.350 C  
HETATM   16  O   UNL     1     -12.071  11.352  67.533  1.00  0.00    -0.592 OA 
BRANCH  15  17
HETATM   17  C   UNL     1     -12.141  13.477  66.320  1.00  0.00    -0.428 C  
HETATM   18  O   UNL     1     -13.104  13.275  65.285  1.00  0.00    -0.652 OA 
HETATM   19  H   UNL     1     -13.596  14.064  65.091  1.00  0.00     0.000 HD 
ENDBRANCH  15  17
ENDBRANCH   8  12
TORSDOF 2
ENDMDL
MODEL       14
REMARK 921   NORMALIZED FREE ENERGY PREDICTED BY IDOCK:   -5.10 KCAL/MOL
REMARK 922        TOTAL FREE ENERGY PREDICTED BY IDOCK:   -5.65 KCAL/MOL
REMARK 923 INTER-LIGAND FREE ENERGY PREDICTED BY IDOCK:   -5.79 KCAL/MOL
REMARK 924 INTRA-LIGAND FREE ENERGY PREDICTED BY IDOCK:    0.13 KCAL/MOL
REMARK 927      BINDING AFFINITY PREDICTED BY RF-SCORE:    0.00 PKD
ROOT
HETATM    1  N   UNL     1     -12.515  13.899  63.080  1.00  0.00    -1.079 NA 
HETATM    2  H1  UNL     1     -12.897  14.712  63.562  1.00  0.00     0.000 HD 
HETATM    3  H2  UNL     1     -12.750  13.700  62.108  1.00  0.00     0.000 HD 
HETATM    4  C   UNL     1     -11.675  13.086  63.788  1.00  0.00    -0.485 C  
HETATM    5  N   UNL     1     -11.190  12.054  63.176  1.00  0.00    -0.700 N  
HETATM    6  C   UNL     1     -10.317  11.219  63.830  1.00  0.00    -0.395 C  
HETATM    7  H   UNL     1     -11.456  11.860  62.210  1.00  0.00     0.000 HD 
HETATM    8  N   UNL     1     -10.127  11.386  65.212  1.00  0.00    -0.254 N  
HETATM    9  O   UNL     1      -9.710  10.346  63.211  1.00  0.00    -0.313 OA 
HETATM   10  C   UNL     1     -11.358  13.410  65.189  1.00  0.00    -0.316 C  
HETATM   11  C   UNL     1     -10.597  12.526  65.833  1.00  0.00    -0.265 C  
ENDROOT
BRANCH   8  12
HETATM   12  C   UNL     1      -9.154  10.500  65.873  1.00  0.00    -0.168 C  
HETATM   13  C   UNL     1      -9.414   8.987  65.765  1.00  0.00    -0.236 C  
HETATM   14  S   UNL     1     -10.491   8.627  67.153  1.00  0.00    -0.244 SA 
HETATM   15  C   UNL     1      -9.727   9.944  68.121  1.00  0.00    -0.144 C  
HETATM   16  O   UNL     1      -9.008  10.847  67.270  1.00  0.00    -0.137 OA 
BRANCH  15  17
HETATM   17  C   UNL     1     -10.790  10.688  68.941  1.00  0.00    -0.231 C  
HETATM   18  O   UNL     1     -12.068  10.681  68.305  1.00  0.00    -0.817 OA 
HETATM   19  H   UNL     1     -12.726  11.141  68.812  1.00  0.00     0.000 HD 
ENDBRANCH  15  17
ENDBRANCH   8  12
TORSDOF 2
ENDMDL
MODEL       15
REMARK 921   NORMALIZED FREE ENERGY PREDICTED BY IDOCK:   -5.09 KCAL/MOL
REMARK 922        TOTAL FREE ENERGY PREDICTED BY IDOCK:   -5.64 KCAL/MOL
REMARK 923 INTER-LIGAND FREE ENERGY PREDICTED BY IDOCK:   -5.81 KCAL/MOL
REMARK 924 INTRA-LIGAND FREE ENERGY PREDICTED BY IDOCK:    0.17 KCAL/MOL
REMARK 927      BINDING AFFINITY PREDICTED BY RF-SCORE:    0.00 PKD
ROOT
HETATM    1  N   UNL     1     -13.014  12.637  64.727  1.00  0.00    -0.867 NA 
HETATM    2  H1  UNL     1     -13.619  12.987  63.984  1.00  0.00     0.000 HD 
HETATM    3  H2  UNL     1     -13.166  11.720  65.147  1.00  0.00     0.000 HD 
HETATM    4  C   UNL     1     -11.993  13.446  65.138  1.00  0.00    -0.378 C  
HETATM    5  N   UNL     1     -11.225  13.002  66.081  1.00  0.00    -0.284 N  
HETATM    6  C   UNL     1     -10.164  13.761  66.513  1.00  0.00    -0.284 C  
HETATM    7  H   UNL     1     -11.407  12.092  66.503  1.00  0.00     0.000 HD 
HETATM    8  N   UNL     1     -10.055  15.089  66.065  1.00  0.00    -0.282 N  
HETATM    9  O   UNL     1      -9.324  13.280  67.271  1.00  0.00    -0.209 OA 
HETATM   10  C   UNL     1     -11.806  14.762  64.504  1.00  0.00    -0.428 C  
HETATM   11  C   UNL     1     -10.839  15.523  65.015  1.00  0.00    -0.450 C  
ENDROOT
BRANCH   8  12
HETATM   12  C   UNL     1      -8.884  15.860  66.516  1.00  0.00    -0.305 C  
HETATM   13  C   UNL     1      -8.773  16.127  68.028  1.00  0.00    -0.176 C  
HETATM   14  S   UNL     1      -9.703  17.640  68.274  1.00  0.00    -0.332 SA 
HETATM   15  C   UNL     1      -9.261  18.213  66.621  1.00  0.00    -0.290 C  
HETATM   16  O   UNL     1      -8.798  17.122  65.814  1.00  0.00    -0.526 OA 
BRANCH  15  17
HETATM   17  C   UNL     1     -10.454  18.918  65.964  1.00  0.00    -0.446 C  
HETATM   18  O   UNL     1     -10.152  20.262  65.591  1.00  0.00    -0.549 OA 
HETATM   19  H   UNL     1     -10.891  20.699  65.184  1.00  0.00     0.000 HD 
ENDBRANCH  15  17
ENDBRANCH   8  12
TORSDOF 2
ENDMDL
MODEL       16
REMARK 921   NORMALIZED FREE ENERGY PREDICTED BY IDOCK:   -5.08 KCAL/MOL
REMARK 922        TOTAL FREE ENERGY PREDICTED BY IDOCK:   -5.63 KCAL/MOL
REMARK 923 INTER-LIGAND FREE ENERGY PREDICTED BY IDOCK:   -5.73 KCAL/MOL
REMARK 924 INTRA-LIGAND FREE ENERGY PREDICTED BY IDOCK:    0.11 KCAL/MOL
REMARK 927      BINDING AFFINITY PREDICTED BY RF-SCORE:    0.00 PKD
ROOT
HETATM    1  N   UNL     1      -6.883  20.977  65.060  1.00  0.00    -0.523 NA 
HETATM    2  H1  UNL     1      -6.009  20.681  64.625  1.00  0.00     0.000 HD 
HETATM    3  H2  UNL     1      -7.201  21.945  65.004  1.00  0.00     0.000 HD 
HETATM    4  C   UNL     1      -7.610  20.027  65.720  1.00  0.00    -0.269 C  
HETATM    5  N   UNL     1      -8.719  20.404  66.272  1.00  0.00    -0.560 N  
HETATM    6  C   UNL     1      -9.505  19.485  66.923  1.00  0.00    -0.344 C  
HETATM    7  H   UNL     1      -9.008  21.381  66.224  1.00  0.00     0.000 HD 
HETATM    8  N   UNL     1      -8.991  18.197  67.153  1.00  0.00    -0.252 N  
HETATM    9  O   UNL     1     -10.639  19.786  67.290  1.00  0.00    -0.446 OA 
HETATM   10  C   UNL     1      -7.117  18.641  65.774  1.00  0.00    -0.261 C  
HETATM   11  C   UNL     1      -7.842  17.794  66.503  1.00  0.00    -0.266 C  
ENDROOT
BRANCH   8  12
HETATM   12  C   UNL     1      -9.877  17.225  67.818  1.00  0.00    -0.281 C  
HETATM   13  C   UNL     1      -9.205  15.976  68.415  1.00  0.00    -0.196 C  
HETATM   14  S   UNL     1      -9.160  14.810  67.054  1.00  0.00    -0.252 SA 
HETATM   15  C   UNL     1     -10.679  15.505  66.372  1.00  0.00    -0.303 C  
HETATM   16  O   UNL     1     -10.936  16.802  66.928  1.00  0.00    -0.107 OA 
BRANCH  15  17
HETATM   17  C   UNL     1     -10.596  15.568  64.841  1.00  0.00    -0.342 C  
HETATM   18  O   UNL     1     -11.222  16.737  64.312  1.00  0.00    -1.334 OA 
HETATM   19  H   UNL     1     -11.171  16.776  63.364  1.00  0.00     0.000 HD 
ENDBRANCH  15  17
ENDBRANCH   8  12
TORSDOF 2
ENDMDL
MODEL       17
REMARK 921   NORMALIZED FREE ENERGY PREDICTED BY IDOCK:   -5.06 KCAL/MOL
REMARK 922        TOTAL FREE ENERGY PREDICTED BY IDOCK:   -5.61 KCAL/MOL
REMARK 923 INTER-LIGAND FREE ENERGY PREDICTED BY IDOCK:   -5.69 KCAL/MOL
REMARK 924 INTRA-LIGAND FREE ENERGY PREDICTED BY IDOCK:    0.08 KCAL/MOL
REMARK 927      BINDING AFFINITY PREDICTED BY RF-SCORE:    0.00 PKD
ROOT
HETATM    1  N   UNL     1     -12.565  13.871  62.929  1.00  0.00    -0.788 NA 
HETATM    2  H1  UNL     1     -13.362  13.263  62.742  1.00  0.00     0.000 HD 
HETATM    3  H2  UNL     1     -12.257  14.564  62.247  1.00  0.00     0.000 HD 
HETATM    4  C   UNL     1     -11.927  13.721  64.127  1.00  0.00    -0.432 C  
HETATM    5  N   UNL     1     -10.915  14.493  64.363  1.00  0.00    -0.621 N  
HETATM    6  C   UNL     1     -10.254  14.406  65.565  1.00  0.00    -0.363 C  
HETATM    7  H   UNL     1     -10.609  15.165  63.659  1.00  0.00     0.000 HD 
HETATM    8  N   UNL     1     -10.561  13.342  66.430  1.00  0.00    -0.283 N  
HETATM    9  O   UNL     1      -9.416  15.250  65.876  1.00  0.00    -0.319 OA 
HETATM   10  C   UNL     1     -12.405  12.710  65.085  1.00  0.00    -0.547 C  
HETATM   11  C   UNL     1     -11.682  12.571  66.195  1.00  0.00    -0.409 C  
ENDROOT
BRANCH   8  12
HETATM   12  C   UNL     1      -9.862  13.303  67.726  1.00  0.00    -0.224 C  
HETATM   13  C   UNL     1      -8.419  12.769  67.717  1.00  0.00    -0.177 C  
HETATM   14  S   UNL     1      -8.607  10.996  67.910  1.00  0.00    -0.137 SA 
HETATM   15  C   UNL     1     -10.103  11.234  68.889  1.00  0.00    -0.170 C  
HETATM   16  O   UNL     1     -10.628  12.555  68.700  1.00  0.00    -0.228 OA 
BRANCH  15  17
HETATM   17  C   UNL     1     -11.149  10.170  68.532  1.00  0.00    -0.214 C  
HETATM   18  O   UNL     1     -12.469  10.556  68.917  1.00  0.00    -0.776 OA 
HETATM   19  H   UNL     1     -13.116   9.897  68.696  1.00  0.00     0.000 HD 
ENDBRANCH  15  17
ENDBRANCH   8  12
TORSDOF 2
ENDMDL
MODEL       18
REMARK 921   NORMALIZED FREE ENERGY PREDICTED BY IDOCK:   -5.06 KCAL/MOL
REMARK 922        TOTAL FREE ENERGY PREDICTED BY IDOCK:   -5.60 KCAL/MOL
REMARK 923 INTER-LIGAND FREE ENERGY PREDICTED BY IDOCK:   -5.88 KCAL/MOL
REMARK 924 INTRA-LIGAND FREE ENERGY PREDICTED BY IDOCK:    0.27 KCAL/MOL
REMARK 927      BINDING AFFINITY PREDICTED BY RF-SCORE:    0.00 PKD
ROOT
HETATM    1  N   UNL     1     -12.441  14.074  63.093  1.00  0.00    -1.070 NA 
HETATM    2  H1  UNL     1     -13.297  13.571  62.861  1.00  0.00     0.000 HD 
HETATM    3  H2  UNL     1     -12.020  14.733  62.439  1.00  0.00     0.000 HD 
HETATM    4  C   UNL     1     -11.879  13.827  64.314  1.00  0.00    -0.417 C  
HETATM    5  N   UNL     1     -10.792  14.465  64.608  1.00  0.00    -0.565 N  
HETATM    6  C   UNL     1     -10.200  14.279  65.834  1.00  0.00    -0.324 C  
HETATM    7  H   UNL     1     -10.374  15.104  63.931  1.00  0.00     0.000 HD 
HETATM    8  N   UNL     1     -10.673  13.248  66.664  1.00  0.00    -0.279 N  
HETATM    9  O   UNL     1      -9.279  15.008  66.198  1.00  0.00    -0.292 OA 
HETATM   10  C   UNL     1     -12.520  12.869  65.230  1.00  0.00    -0.552 C  
HETATM   11  C   UNL     1     -11.869  12.625  66.366  1.00  0.00    -0.402 C  
ENDROOT
BRANCH   8  12
HETATM   12  C   UNL     1     -10.043  13.103  67.988  1.00  0.00    -0.232 C  
HETATM   13  C   UNL     1     -10.551  11.950  68.872  1.00  0.00    -0.173 C  
HETATM   14  S   UNL     1     -11.943  12.654  69.754  1.00  0.00    -0.240 SA 
HETATM   15  C   UNL     1     -11.171  14.285  69.727  1.00  0.00    -0.180 C  
HETATM   16  O   UNL     1     -10.134  14.337  68.738  1.00  0.00    -0.232 OA 
BRANCH  15  17
HETATM   17  C   UNL     1     -12.226  15.370  69.478  1.00  0.00    -0.246 C  
HETATM   18  O   UNL     1     -13.204  15.424  70.517  1.00  0.00    -0.674 OA 
HETATM   19  H   UNL     1     -13.857  16.096  70.363  1.00  0.00     0.000 HD 
ENDBRANCH  15  17
ENDBRANCH   8  12
TORSDOF 2
ENDMDL
MODEL       19
REMARK 921   NORMALIZED FREE ENERGY PREDICTED BY IDOCK:   -5.04 KCAL/MOL
REMARK 922        TOTAL FREE ENERGY PREDICTED BY IDOCK:   -5.58 KCAL/MOL
REMARK 923 INTER-LIGAND FREE ENERGY PREDICTED BY IDOCK:   -5.83 KCAL/MOL
REMARK 924 INTRA-LIGAND FREE ENERGY PREDICTED BY IDOCK:    0.25 KCAL/MOL
REMARK 927      BINDING AFFINITY PREDICTED BY RF-SCORE:    0.00 PKD
ROOT
HETATM    1  N   UNL     1     -12.875  14.501  70.386  1.00  0.00    -0.501 NA 
HETATM    2  H1  UNL     1     -12.818  14.975  71.287  1.00  0.00     0.000 HD 
HETATM    3  H2  UNL     1     -13.471  13.684  70.254  1.00  0.00     0.000 HD 
HETATM    4  C   UNL     1     -12.123  15.003  69.363  1.00  0.00    -0.255 C  
HETATM    5  N   UNL     1     -12.195  14.401  68.219  1.00  0.00    -0.600 N  
HETATM    6  C   UNL     1     -11.482  14.880  67.147  1.00  0.00    -0.335 C  
HETATM    7  H   UNL     1     -12.779  13.571  68.114  1.00  0.00     0.000 HD 
HETATM    8  N   UNL     1     -10.532  15.893  67.365  1.00  0.00    -0.300 N  
HETATM    9  O   UNL     1     -11.681  14.435  66.018  1.00  0.00    -0.364 OA 
HETATM   10  C   UNL     1     -11.278  16.187  69.593  1.00  0.00    -0.331 C  
HETATM   11  C   UNL     1     -10.514  16.566  68.570  1.00  0.00    -0.302 C  
ENDROOT
BRANCH   8  12
HETATM   12  C   UNL     1      -9.815  16.411  66.187  1.00  0.00    -0.338 C  
HETATM   13  C   UNL     1      -8.282  16.497  66.293  1.00  0.00    -0.325 C  
HETATM   14  S   UNL     1      -7.983  18.106  67.025  1.00  0.00    -0.231 SA 
HETATM   15  C   UNL     1      -9.463  18.771  66.234  1.00  0.00    -0.274 C  
HETATM   16  O   UNL     1     -10.327  17.709  65.804  1.00  0.00    -0.558 OA 
BRANCH  15  17
HETATM   17  C   UNL     1     -10.194  19.725  67.187  1.00  0.00    -0.444 C  
HETATM   18  O   UNL     1      -9.695  21.060  67.105  1.00  0.00    -0.669 OA 
HETATM   19  H   UNL     1     -10.148  21.651  67.695  1.00  0.00     0.000 HD 
ENDBRANCH  15  17
ENDBRANCH   8  12
TORSDOF 2
ENDMDL
MODEL       20
REMARK 921   NORMALIZED FREE ENERGY PREDICTED BY IDOCK:   -5.00 KCAL/MOL
REMARK 922        TOTAL FREE ENERGY PREDICTED BY IDOCK:   -5.55 KCAL/MOL
REMARK 923 INTER-LIGAND FREE ENERGY PREDICTED BY IDOCK:   -5.68 KCAL/MOL
REMARK 924 INTRA-LIGAND FREE ENERGY PREDICTED BY IDOCK:    0.13 KCAL/MOL
REMARK 927      BINDING AFFINITY PREDICTED BY RF-SCORE:    0.00 PKD
ROOT
HETATM    1  N   UNL     1     -11.125   5.568  66.204  1.00  0.00    -0.778 NA 
HETATM    2  H1  UNL     1     -11.238   4.588  66.463  1.00  0.00     0.000 HD 
HETATM    3  H2  UNL     1     -11.151   5.864  65.229  1.00  0.00     0.000 HD 
HETATM    4  C   UNL     1     -10.938   6.467  67.215  1.00  0.00    -0.400 C  
HETATM    5  N   UNL     1     -10.795   7.711  66.886  1.00  0.00    -0.518 N  
HETATM    6  C   UNL     1     -10.633   8.663  67.864  1.00  0.00    -0.161 C  
HETATM    7  H   UNL     1     -10.801   7.984  65.904  1.00  0.00     0.000 HD 
HETATM    8  N   UNL     1     -10.422   8.243  69.188  1.00  0.00    -0.220 N  
HETATM    9  O   UNL     1     -10.680   9.859  67.581  1.00  0.00    -0.254 OA 
HETATM   10  C   UNL     1     -10.909   5.999  68.611  1.00  0.00    -0.379 C  
HETATM   11  C   UNL     1     -10.642   6.924  69.531  1.00  0.00    -0.236 C  
ENDROOT
BRANCH   8  12
HETATM   12  C   UNL     1     -10.293   9.290  70.216  1.00  0.00    -0.229 C  
HETATM   13  C   UNL     1      -9.497   8.922  71.481  1.00  0.00    -0.277 C  
HETATM   14  S   UNL     1     -10.718   8.185  72.568  1.00  0.00    -0.344 SA 
HETATM   15  C   UNL     1     -12.011   9.234  71.871  1.00  0.00    -0.363 C  
HETATM   16  O   UNL     1     -11.594   9.784  70.614  1.00  0.00    -0.275 OA 
BRANCH  15  17
HETATM   17  C   UNL     1     -13.316   8.442  71.720  1.00  0.00    -0.357 C  
HETATM   18  O   UNL     1     -14.277   8.787  72.719  1.00  0.00    -0.888 OA 
HETATM   19  H   UNL     1     -15.086   8.297  72.626  1.00  0.00     0.000 HD 
ENDBRANCH  15  17
ENDBRANCH   8  12
TORSDOF 2
ENDMDL
MODEL       21
REMARK 921   NORMALIZED FREE ENERGY PREDICTED BY IDOCK:   -4.98 KCAL/MOL
REMARK 922        TOTAL FREE ENERGY PREDICTED BY IDOCK:   -5.52 KCAL/MOL
REMARK 923 INTER-LIGAND FREE ENERGY PREDICTED BY IDOCK:   -5.65 KCAL/MOL
REMARK 924 INTRA-LIGAND FREE ENERGY PREDICTED BY IDOCK:    0.13 KCAL/MOL
REMARK 927      BINDING AFFINITY PREDICTED BY RF-SCORE:    0.00 PKD
ROOT
HETATM    1  N   UNL     1     -10.277  18.813  69.045  1.00  0.00    -0.493 NA 
HETATM    2  H1  UNL     1     -10.027  18.541  69.996  1.00  0.00     0.000 HD 
HETATM    3  H2  UNL     1     -10.473  19.785  68.807  1.00  0.00     0.000 HD 
HETATM    4  C   UNL     1     -10.338  17.825  68.104  1.00  0.00    -0.391 C  
HETATM    5  N   UNL     1     -10.656  18.171  66.897  1.00  0.00    -0.346 N  
HETATM    6  C   UNL     1     -10.703  17.223  65.904  1.00  0.00    -0.126 C  
HETATM    7  H   UNL     1     -10.870  19.145  66.685  1.00  0.00     0.000 HD 
HETATM    8  N   UNL     1     -10.606  15.867  66.258  1.00  0.00    -0.308 N  
HETATM    9  O   UNL     1     -10.821  17.561  64.728  1.00  0.00    -0.814 OA 
HETATM   10  C   UNL     1     -10.044  16.434  68.488  1.00  0.00    -0.248 C  
HETATM   11  C   UNL     1     -10.204  15.520  67.533  1.00  0.00    -0.254 C  
ENDROOT
BRANCH   8  12
HETATM   12  C   UNL     1     -10.620  14.880  65.164  1.00  0.00    -0.428 C  
HETATM   13  C   UNL     1     -11.968  14.653  64.457  1.00  0.00    -0.460 C  
HETATM   14  S   UNL     1     -12.771  13.386  65.439  1.00  0.00    -0.323 SA 
HETATM   15  C   UNL     1     -11.171  12.668  65.868  1.00  0.00    -0.314 C  
HETATM   16  O   UNL     1     -10.113  13.603  65.617  1.00  0.00    -0.293 OA 
BRANCH  15  17
HETATM   17  C   UNL     1     -11.168  12.212  67.333  1.00  0.00    -0.302 C  
HETATM   18  O   UNL     1     -12.019  11.086  67.552  1.00  0.00    -0.545 OA 
HETATM   19  H   UNL     1     -12.017  10.804  68.458  1.00  0.00     0.000 HD 
ENDBRANCH  15  17
ENDBRANCH   8  12
TORSDOF 2
ENDMDL
MODEL       22
REMARK 921   NORMALIZED FREE ENERGY PREDICTED BY IDOCK:   -4.95 KCAL/MOL
REMARK 922        TOTAL FREE ENERGY PREDICTED BY IDOCK:   -5.48 KCAL/MOL
REMARK 923 INTER-LIGAND FREE ENERGY PREDICTED BY IDOCK:   -5.75 KCAL/MOL
REMARK 924 INTRA-LIGAND FREE ENERGY PREDICTED BY IDOCK:    0.27 KCAL/MOL
REMARK 927      BINDING AFFINITY PREDICTED BY RF-SCORE:    0.00 PKD
ROOT
HETATM    1  N   UNL     1     -12.859  10.301  69.925  1.00  0.00    -0.533 NA 
HETATM    2  H1  UNL     1     -13.285  10.823  70.691  1.00  0.00     0.000 HD 
HETATM    3  H2  UNL     1     -13.044   9.307  69.794  1.00  0.00     0.000 HD 
HETATM    4  C   UNL     1     -12.030  10.987  69.083  1.00  0.00    -0.324 C  
HETATM    5  N   UNL     1     -11.489  10.325  68.111  1.00  0.00    -0.513 N  
HETATM    6  C   UNL     1     -10.670  10.970  67.216  1.00  0.00    -0.265 C  
HETATM    7  H   UNL     1     -11.669   9.326  68.010  1.00  0.00     0.000 HD 
HETATM    8  N   UNL     1     -10.274  12.290  67.491  1.00  0.00    -0.202 N  
HETATM    9  O   UNL     1     -10.300  10.401  66.190  1.00  0.00    -0.242 OA 
HETATM   10  C   UNL     1     -11.790  12.423  69.306  1.00  0.00    -0.361 C  
HETATM   11  C   UNL     1     -10.909  12.999  68.491  1.00  0.00    -0.258 C  
ENDROOT
BRANCH   8  12
HETATM   12  C   UNL     1      -9.430  12.964  66.490  1.00  0.00    -0.251 C  
HETATM   13  C   UNL     1      -8.964  14.392  66.829  1.00  0.00    -0.233 C  
HETATM   14  S   UNL     1     -10.290  15.439  66.229  1.00  0.00    -0.310 SA 
HETATM   15  C   UNL     1     -10.658  14.263  64.911  1.00  0.00    -0.431 C  
HETATM   16  O   UNL     1     -10.080  12.983  65.198  1.00  0.00    -0.279 OA 
BRANCH  15  17
HETATM   17  C   UNL     1     -12.174  14.150  64.706  1.00  0.00    -0.440 C  
HETATM   18  O   UNL     1     -12.525  13.974  63.333  1.00  0.00    -1.108 OA 
HETATM   19  H   UNL     1     -13.463  13.904  63.206  1.00  0.00     0.000 HD 
ENDBRANCH  15  17
ENDBRANCH   8  12
TORSDOF 2
ENDMDL
MODEL       23
REMARK 921   NORMALIZED FREE ENERGY PREDICTED BY IDOCK:   -4.95 KCAL/MOL
REMARK 922        TOTAL FREE ENERGY PREDICTED BY IDOCK:   -5.48 KCAL/MOL
REMARK 923 INTER-LIGAND FREE ENERGY PREDICTED BY IDOCK:   -5.71 KCAL/MOL
REMARK 924 INTRA-LIGAND FREE ENERGY PREDICTED BY IDOCK:    0.22 KCAL/MOL
REMARK 927      BINDING AFFINITY PREDICTED BY RF-SCORE:    0.00 PKD
ROOT
HETATM    1  N   UNL     1     -12.849   8.721  71.182  1.00  0.00    -0.493 NA 
HETATM    2  H1  UNL     1     -13.215   8.503  72.109  1.00  0.00     0.000 HD 
HETATM    3  H2  UNL     1     -12.583   7.983  70.531  1.00  0.00     0.000 HD 
HETATM    4  C   UNL     1     -12.730  10.040  70.848  1.00  0.00    -0.325 C  
HETATM    5  N   UNL     1     -12.265  10.316  69.672  1.00  0.00    -0.522 N  
HETATM    6  C   UNL     1     -12.152  11.625  69.271  1.00  0.00    -0.259 C  
HETATM    7  H   UNL     1     -11.983   9.564  69.044  1.00  0.00     0.000 HD 
HETATM    8  N   UNL     1     -12.350  12.643  70.220  1.00  0.00    -0.246 N  
HETATM    9  O   UNL     1     -11.889  11.897  68.101  1.00  0.00    -0.424 OA 
HETATM   10  C   UNL     1     -13.129  11.076  71.816  1.00  0.00    -0.554 C  
HETATM   11  C   UNL     1     -12.907  12.336  71.445  1.00  0.00    -0.271 C  
ENDROOT
BRANCH   8  12
HETATM   12  C   UNL     1     -12.261  14.035  69.746  1.00  0.00    -0.341 C  
HETATM   13  C   UNL     1     -10.947  14.781  70.040  1.00  0.00    -0.156 C  
HETATM   14  S   UNL     1     -11.198  15.487  71.669  1.00  0.00    -0.202 SA 
HETATM   15  C   UNL     1     -12.968  15.648  71.356  1.00  0.00    -0.487 C  
HETATM   16  O   UNL     1     -13.365  14.822  70.252  1.00  0.00    -0.083 OA 
BRANCH  15  17
HETATM   17  C   UNL     1     -13.767  15.302  72.619  1.00  0.00    -0.508 C  
HETATM   18  O   UNL     1     -13.309  16.020  73.764  1.00  0.00    -0.836 OA 
HETATM   19  H   UNL     1     -13.803  15.806  74.546  1.00  0.00     0.000 HD 
ENDBRANCH  15  17
ENDBRANCH   8  12
TORSDOF 2
ENDMDL
MODEL       24
REMARK 921   NORMALIZED FREE ENERGY PREDICTED BY IDOCK:   -4.95 KCAL/MOL
REMARK 922        TOTAL FREE ENERGY PREDICTED BY IDOCK:   -5.48 KCAL/MOL
REMARK 923 INTER-LIGAND FREE ENERGY PREDICTED BY IDOCK:   -5.66 KCAL/MOL
REMARK 924 INTRA-LIGAND FREE ENERGY PREDICTED BY IDOCK:    0.17 KCAL/MOL
REMARK 927      BINDING AFFINITY PREDICTED BY RF-SCORE:    0.00 PKD
ROOT
HETATM    1  N   UNL     1     -11.610   9.928  70.176  1.00  0.00    -0.359 NA 
HETATM    2  H1  UNL     1     -11.249   8.979  70.078  1.00  0.00     0.000 HD 
HETATM    3  H2  UNL     1     -12.039  10.244  71.046  1.00  0.00     0.000 HD 
HETATM    4  C   UNL     1     -11.497  10.758  69.097  1.00  0.00    -0.298 C  
HETATM    5  N   UNL     1     -11.955  11.962  69.222  1.00  0.00    -0.302 N  
HETATM    6  C   UNL     1     -11.842  12.849  68.178  1.00  0.00    -0.336 C  
HETATM    7  H   UNL     1     -12.401  12.252  70.092  1.00  0.00     0.000 HD 
HETATM    8  N   UNL     1     -11.414  12.371  66.928  1.00  0.00    -0.339 N  
HETATM    9  O   UNL     1     -12.103  14.039  68.343  1.00  0.00    -0.354 OA 
HETATM   10  C   UNL     1     -10.869  10.263  67.860  1.00  0.00    -0.337 C  
HETATM   11  C   UNL     1     -10.869  11.106  66.829  1.00  0.00    -0.268 C  
ENDROOT
BRANCH   8  12
HETATM   12  C   UNL     1     -11.264  13.356  65.843  1.00  0.00    -0.300 C  
HETATM   13  C   UNL     1     -12.480  13.557  64.920  1.00  0.00    -0.384 C  
HETATM   14  S   UNL     1     -12.273  12.313  63.646  1.00  0.00    -0.567 SA 
HETATM   15  C   UNL     1     -10.478  12.422  63.794  1.00  0.00    -0.443 C  
HETATM   16  O   UNL     1     -10.108  13.052  65.028  1.00  0.00    -0.277 OA 
BRANCH  15  17
HETATM   17  C   UNL     1      -9.848  11.028  63.676  1.00  0.00    -0.351 C  
HETATM   18  O   UNL     1     -10.131  10.410  62.420  1.00  0.00    -0.743 OA 
HETATM   19  H   UNL     1      -9.741   9.547  62.348  1.00  0.00     0.000 HD 
ENDBRANCH  15  17
ENDBRANCH   8  12
TORSDOF 2
ENDMDL
MODEL       25
REMARK 921   NORMALIZED FREE ENERGY PREDICTED BY IDOCK:   -4.92 KCAL/MOL
REMARK 922        TOTAL FREE ENERGY PREDICTED BY IDOCK:   -5.45 KCAL/MOL
REMARK 923 INTER-LIGAND FREE ENERGY PREDICTED BY IDOCK:   -5.63 KCAL/MOL
REMARK 924 INTRA-LIGAND FREE ENERGY PREDICTED BY IDOCK:    0.18 KCAL/MOL
REMARK 927      BINDING AFFINITY PREDICTED BY RF-SCORE:    0.00 PKD
ROOT
HETATM    1  N   UNL     1      -9.994  12.670  64.797  1.00  0.00    -0.491 NA 
HETATM    2  H1  UNL     1      -9.476  12.008  65.374  1.00  0.00     0.000 HD 
HETATM    3  H2  UNL     1     -10.479  12.370  63.951  1.00  0.00     0.000 HD 
HETATM    4  C   UNL     1     -10.012  13.975  65.201  1.00  0.00    -0.225 C  
HETATM    5  N   UNL     1     -10.669  14.816  64.468  1.00  0.00    -0.605 N  
HETATM    6  C   UNL     1     -10.745  16.135  64.842  1.00  0.00    -0.274 C  
HETATM    7  H   UNL     1     -11.128  14.500  63.614  1.00  0.00     0.000 HD 
HETATM    8  N   UNL     1      -9.940  16.586  65.902  1.00  0.00    -0.330 N  
HETATM    9  O   UNL     1     -11.511  16.903  64.263  1.00  0.00    -1.142 OA 
HETATM   10  C   UNL     1      -9.301  14.367  66.429  1.00  0.00    -0.284 C  
HETATM   11  C   UNL     1      -9.299  15.668  66.711  1.00  0.00    -0.246 C  
ENDROOT
BRANCH   8  12
HETATM   12  C   UNL     1     -10.077  17.996  66.304  1.00  0.00    -0.363 C  
HETATM   13  C   UNL     1      -8.772  18.777  66.543  1.00  0.00    -0.312 C  
HETATM   14  S   UNL     1      -8.381  18.459  68.263  1.00  0.00    -0.308 SA 
HETATM   15  C   UNL     1     -10.135  18.326  68.666  1.00  0.00    -0.385 C  
HETATM   16  O   UNL     1     -10.913  18.118  67.479  1.00  0.00    -0.324 OA 
BRANCH  15  17
HETATM   17  C   UNL     1     -10.365  17.198  69.681  1.00  0.00    -0.019 C  
HETATM   18  O   UNL     1     -11.376  16.284  69.255  1.00  0.00    -0.325 OA 
HETATM   19  H   UNL     1     -11.518  15.586  69.883  1.00  0.00     0.000 HD 
ENDBRANCH  15  17
ENDBRANCH   8  12
TORSDOF 2
ENDMDL
MODEL       26
REMARK 921   NORMALIZED FREE ENERGY PREDICTED BY IDOCK:   -4.90 KCAL/MOL
REMARK 922        TOTAL FREE ENERGY PREDICTED BY IDOCK:   -5.43 KCAL/MOL
REMARK 923 INTER-LIGAND FREE ENERGY PREDICTED BY IDOCK:   -5.69 KCAL/MOL
REMARK 924 INTRA-LIGAND FREE ENERGY PREDICTED BY IDOCK:    0.26 KCAL/MOL
REMARK 927      BINDING AFFINITY PREDICTED BY RF-SCORE:    0.00 PKD
ROOT
HETATM    1  N   UNL     1     -14.251   8.961  73.169  1.00  0.00    -1.200 NA 
HETATM    2  H1  UNL     1     -14.971   9.661  72.989  1.00  0.00     0.000 HD 
HETATM    3  H2  UNL     1     -14.385   8.231  73.869  1.00  0.00     0.000 HD 
HETATM    4  C   UNL     1     -13.101   9.039  72.437  1.00  0.00    -0.423 C  
HETATM    5  N   UNL     1     -12.188   8.151  72.666  1.00  0.00    -0.599 N  
HETATM    6  C   UNL     1     -11.023   8.164  71.937  1.00  0.00    -0.275 C  
HETATM    7  H   UNL     1     -12.332   7.443  73.386  1.00  0.00     0.000 HD 
HETATM    8  N   UNL     1     -10.760   9.262  71.101  1.00  0.00    -0.306 N  
HETATM    9  O   UNL     1     -10.232   7.226  72.013  1.00  0.00    -0.188 OA 
HETATM   10  C   UNL     1     -12.948  10.107  71.434  1.00  0.00    -0.528 C  
HETATM   11  C   UNL     1     -11.768  10.163  70.819  1.00  0.00    -0.357 C  
ENDROOT
BRANCH   8  12
HETATM   12  C   UNL     1      -9.522   9.224  70.304  1.00  0.00    -0.238 C  
HETATM   13  C   UNL     1      -9.370  10.298  69.212  1.00  0.00    -0.207 C  
HETATM   14  S   UNL     1     -10.165   9.577  67.775  1.00  0.00    -0.231 SA 
HETATM   15  C   UNL     1      -9.696   7.920  68.314  1.00  0.00    -0.160 C  
HETATM   16  O   UNL     1      -9.338   7.921  69.703  1.00  0.00    -0.153 OA 
BRANCH  15  17
HETATM   17  C   UNL     1     -10.834   6.928  68.039  1.00  0.00    -0.200 C  
HETATM   18  O   UNL     1     -11.548   6.580  69.225  1.00  0.00    -0.628 OA 
HETATM   19  H   UNL     1     -12.253   5.966  69.055  1.00  0.00     0.000 HD 
ENDBRANCH  15  17
ENDBRANCH   8  12
TORSDOF 2
ENDMDL
MODEL       27
REMARK 921   NORMALIZED FREE ENERGY PREDICTED BY IDOCK:   -4.90 KCAL/MOL
REMARK 922        TOTAL FREE ENERGY PREDICTED BY IDOCK:   -5.43 KCAL/MOL
REMARK 923 INTER-LIGAND FREE ENERGY PREDICTED BY IDOCK:   -5.57 KCAL/MOL
REMARK 924 INTRA-LIGAND FREE ENERGY PREDICTED BY IDOCK:    0.13 KCAL/MOL
REMARK 927      BINDING AFFINITY PREDICTED BY RF-SCORE:    0.00 PKD
ROOT
HETATM    1  N   UNL     1     -12.011  16.107  71.351  1.00  0.00    -0.609 NA 
HETATM    2  H1  UNL     1     -12.532  15.348  71.790  1.00  0.00     0.000 HD 
HETATM    3  H2  UNL     1     -11.838  16.984  71.841  1.00  0.00     0.000 HD 
HETATM    4  C   UNL     1     -11.556  15.901  70.079  1.00  0.00    -0.344 C  
HETATM    5  N   UNL     1     -10.895  16.865  69.521  1.00  0.00    -0.370 N  
HETATM    6  C   UNL     1     -10.388  16.702  68.255  1.00  0.00    -0.304 C  
HETATM    7  H   UNL     1     -10.751  17.743  70.020  1.00  0.00     0.000 HD 
HETATM    8  N   UNL     1     -10.770  15.572  67.513  1.00  0.00    -0.295 N  
HETATM    9  O   UNL     1      -9.607  17.529  67.787  1.00  0.00    -0.260 OA 
HETATM   10  C   UNL     1     -11.825  14.619  69.407  1.00  0.00    -0.368 C  
HETATM   11  C   UNL     1     -11.418  14.528  68.142  1.00  0.00    -0.312 C  
ENDROOT
BRANCH   8  12
HETATM   12  C   UNL     1     -10.176  15.409  66.175  1.00  0.00    -0.308 C  
HETATM   13  C   UNL     1     -10.891  16.117  65.010  1.00  0.00    -0.363 C  
HETATM   14  S   UNL     1     -12.122  14.932  64.467  1.00  0.00    -0.321 SA 
HETATM   15  C   UNL     1     -11.053  13.560  64.948  1.00  0.00    -0.346 C  
HETATM   16  O   UNL     1     -10.027  14.008  65.845  1.00  0.00    -0.300 OA 
BRANCH  15  17
HETATM   17  C   UNL     1     -11.882  12.434  65.578  1.00  0.00    -0.412 C  
HETATM   18  O   UNL     1     -13.121  12.227  64.897  1.00  0.00    -0.654 OA 
HETATM   19  H   UNL     1     -13.634  11.529  65.287  1.00  0.00     0.000 HD 
ENDBRANCH  15  17
ENDBRANCH   8  12
TORSDOF 2
ENDMDL
MODEL       28
REMARK 921   NORMALIZED FREE ENERGY PREDICTED BY IDOCK:   -4.88 KCAL/MOL
REMARK 922        TOTAL FREE ENERGY PREDICTED BY IDOCK:   -5.41 KCAL/MOL
REMARK 923 INTER-LIGAND FREE ENERGY PREDICTED BY IDOCK:   -5.60 KCAL/MOL
REMARK 924 INTRA-LIGAND FREE ENERGY PREDICTED BY IDOCK:    0.19 KCAL/MOL
REMARK 927      BINDING AFFINITY PREDICTED BY RF-SCORE:    0.00 PKD
ROOT
HETATM    1  N   UNL     1     -14.165   8.960  73.253  1.00  0.00    -1.237 NA 
HETATM    2  H1  UNL     1     -14.521   9.893  73.462  1.00  0.00     0.000 HD 
HETATM    3  H2  UNL     1     -14.480   8.143  73.776  1.00  0.00     0.000 HD 
HETATM    4  C   UNL     1     -13.249   8.849  72.245  1.00  0.00    -0.447 C  
HETATM    5  N   UNL     1     -12.797   7.665  71.980  1.00  0.00    -0.466 N  
HETATM    6  C   UNL     1     -11.896   7.491  70.958  1.00  0.00    -0.293 C  
HETATM    7  H   UNL     1     -13.107   6.864  72.530  1.00  0.00     0.000 HD 
HETATM    8  N   UNL     1     -11.330   8.626  70.354  1.00  0.00    -0.231 N  
HETATM    9  O   UNL     1     -11.600   6.360  70.576  1.00  0.00    -0.369 OA 
HETATM   10  C   UNL     1     -12.823  10.053  71.513  1.00  0.00    -0.537 C  
HETATM   11  C   UNL     1     -11.869   9.873  70.601  1.00  0.00    -0.303 C  
ENDROOT
BRANCH   8  12
HETATM   12  C   UNL     1     -10.399   8.402  69.234  1.00  0.00    -0.214 C  
HETATM   13  C   UNL     1      -8.900   8.580  69.535  1.00  0.00    -0.141 C  
HETATM   14  S   UNL     1      -8.604  10.328  69.264  1.00  0.00    -0.155 SA 
HETATM   15  C   UNL     1      -9.887  10.377  67.996  1.00  0.00    -0.150 C  
HETATM   16  O   UNL     1     -10.747   9.234  68.102  1.00  0.00    -0.213 OA 
BRANCH  15  17
HETATM   17  C   UNL     1     -10.688  11.681  68.099  1.00  0.00    -0.213 C  
HETATM   18  O   UNL     1     -11.959  11.588  67.455  1.00  0.00    -0.629 OA 
HETATM   19  H   UNL     1     -12.455  12.396  67.518  1.00  0.00     0.000 HD 
ENDBRANCH  15  17
ENDBRANCH   8  12
TORSDOF 2
ENDMDL
MODEL       29
REMARK 921   NORMALIZED FREE ENERGY PREDICTED BY IDOCK:   -4.86 KCAL/MOL
REMARK 922        TOTAL FREE ENERGY PREDICTED BY IDOCK:   -5.39 KCAL/MOL
REMARK 923 INTER-LIGAND FREE ENERGY PREDICTED BY IDOCK:   -5.58 KCAL/MOL
REMARK 924 INTRA-LIGAND FREE ENERGY PREDICTED BY IDOCK:    0.20 KCAL/MOL
REMARK 927      BINDING AFFINITY PREDICTED BY RF-SCORE:    0.00 PKD
ROOT
HETATM    1  N   UNL     1     -13.789  15.290  73.012  1.00  0.00    -0.544 NA 
HETATM    2  H1  UNL     1     -14.260  14.486  73.428  1.00  0.00     0.000 HD 
HETATM    3  H2  UNL     1     -13.889  16.225  73.406  1.00  0.00     0.000 HD 
HETATM    4  C   UNL     1     -13.020  15.064  71.905  1.00  0.00    -0.345 C  
HETATM    5  N   UNL     1     -12.423  16.084  71.377  1.00  0.00    -0.570 N  
HETATM    6  C   UNL     1     -11.614  15.911  70.281  1.00  0.00    -0.354 C  
HETATM    7  H   UNL     1     -12.554  17.015  71.774  1.00  0.00     0.000 HD 
HETATM    8  N   UNL     1     -11.611  14.664  69.632  1.00  0.00    -0.290 N  
HETATM    9  O   UNL     1     -10.900  16.830  69.884  1.00  0.00    -0.309 OA 
HETATM   10  C   UNL     1     -12.900  13.698  71.368  1.00  0.00    -0.442 C  
HETATM   11  C   UNL     1     -12.199  13.575  70.243  1.00  0.00    -0.347 C  
ENDROOT
BRANCH   8  12
HETATM   12  C   UNL     1     -10.701  14.502  68.485  1.00  0.00    -0.250 C  
HETATM   13  C   UNL     1     -11.339  14.549  67.085  1.00  0.00    -0.350 C  
HETATM   14  S   UNL     1     -11.832  12.854  66.771  1.00  0.00    -0.351 SA 
HETATM   15  C   UNL     1     -10.455  12.241  67.763  1.00  0.00    -0.209 C  
HETATM   16  O   UNL     1      -9.936  13.279  68.606  1.00  0.00    -0.210 OA 
BRANCH  15  17
HETATM   17  C   UNL     1     -10.894  11.027  68.592  1.00  0.00    -0.215 C  
HETATM   18  O   UNL     1     -12.239  10.638  68.312  1.00  0.00    -0.799 OA 
HETATM   19  H   UNL     1     -12.511   9.886  68.825  1.00  0.00     0.000 HD 
ENDBRANCH  15  17
ENDBRANCH   8  12
TORSDOF 2
ENDMDL
MODEL       30
REMARK 921   NORMALIZED FREE ENERGY PREDICTED BY IDOCK:   -4.85 KCAL/MOL
REMARK 922        TOTAL FREE ENERGY PREDICTED BY IDOCK:   -5.37 KCAL/MOL
REMARK 923 INTER-LIGAND FREE ENERGY PREDICTED BY IDOCK:   -5.59 KCAL/MOL
REMARK 924 INTRA-LIGAND FREE ENERGY PREDICTED BY IDOCK:    0.21 KCAL/MOL
REMARK 927      BINDING AFFINITY PREDICTED BY RF-SCORE:    0.00 PKD
ROOT
HETATM    1  N   UNL     1     -12.541  14.120  63.361  1.00  0.00    -1.023 NA 
HETATM    2  H1  UNL     1     -12.250  14.651  62.541  1.00  0.00     0.000 HD 
HETATM    3  H2  UNL     1     -13.242  13.382  63.293  1.00  0.00     0.000 HD 
HETATM    4  C   UNL     1     -11.955  14.435  64.554  1.00  0.00    -0.472 C  
HETATM    5  N   UNL     1     -12.325  13.760  65.595  1.00  0.00    -0.452 N  
HETATM    6  C   UNL     1     -11.747  14.014  66.815  1.00  0.00    -0.407 C  
HETATM    7  H   UNL     1     -13.044  13.042  65.510  1.00  0.00     0.000 HD 
HETATM    8  N   UNL     1     -10.914  15.138  66.949  1.00  0.00    -0.322 N  
HETATM    9  O   UNL     1     -11.951  13.264  67.768  1.00  0.00    -0.349 OA 
HETATM   10  C   UNL     1     -10.944  15.504  64.609  1.00  0.00    -0.341 C  
HETATM   11  C   UNL     1     -10.480  15.805  65.820  1.00  0.00    -0.367 C  
ENDROOT
BRANCH   8  12
HETATM   12  C   UNL     1     -10.279  15.357  68.260  1.00  0.00    -0.229 C  
HETATM   13  C   UNL     1     -10.882  16.465  69.143  1.00  0.00    -0.329 C  
HETATM   14  S   UNL     1     -10.027  17.953  68.624  1.00  0.00    -0.388 SA 
HETATM   15  C   UNL     1      -8.547  16.998  68.231  1.00  0.00    -0.234 C  
HETATM   16  O   UNL     1      -8.861  15.604  68.110  1.00  0.00    -0.171 OA 
BRANCH  15  17
HETATM   17  C   UNL     1      -7.895  17.530  66.948  1.00  0.00    -0.228 C  
HETATM   18  O   UNL     1      -8.319  18.857  66.634  1.00  0.00    -0.275 OA 
HETATM   19  H   UNL     1      -7.916  19.186  65.839  1.00  0.00     0.000 HD 
ENDBRANCH  15  17
ENDBRANCH   8  12
TORSDOF 2
ENDMDL
MODEL       31
REMARK 921   NORMALIZED FREE ENERGY PREDICTED BY IDOCK:   -4.85 KCAL/MOL
REMARK 922        TOTAL FREE ENERGY PREDICTED BY IDOCK:   -5.37 KCAL/MOL
REMARK 923 INTER-LIGAND FREE ENERGY PREDICTED BY IDOCK:   -5.42 KCAL/MOL
REMARK 924 INTRA-LIGAND FREE ENERGY PREDICTED BY IDOCK:    0.05 KCAL/MOL
REMARK 927      BINDING AFFINITY PREDICTED BY RF-SCORE:    0.00 PKD
ROOT
HETATM    1  N   UNL     1     -12.510  14.226  63.380  1.00  0.00    -1.101 NA 
HETATM    2  H1  UNL     1     -12.967  14.864  64.033  1.00  0.00     0.000 HD 
HETATM    3  H2  UNL     1     -12.556  14.377  62.373  1.00  0.00     0.000 HD 
HETATM    4  C   UNL     1     -11.835  13.163  63.909  1.00  0.00    -0.472 C  
HETATM    5  N   UNL     1     -11.255  12.355  63.080  1.00  0.00    -0.709 N  
HETATM    6  C   UNL     1     -10.537  11.286  63.558  1.00  0.00    -0.369 C  
HETATM    7  H   UNL     1     -11.332  12.511  62.075  1.00  0.00     0.000 HD 
HETATM    8  N   UNL     1     -10.615  10.974  64.926  1.00  0.00    -0.288 N  
HETATM    9  O   UNL     1      -9.834  10.620  62.799  1.00  0.00    -0.303 OA 
HETATM   10  C   UNL     1     -11.789  12.983  65.370  1.00  0.00    -0.428 C  
HETATM   11  C   UNL     1     -11.180  11.880  65.802  1.00  0.00    -0.312 C  
ENDROOT
BRANCH   8  12
HETATM   12  C   UNL     1      -9.800   9.847  65.410  1.00  0.00    -0.313 C  
HETATM   13  C   UNL     1     -10.392   9.010  66.558  1.00  0.00    -0.193 C  
HETATM   14  S   UNL     1      -9.862   9.864  68.043  1.00  0.00    -0.151 SA 
HETATM   15  C   UNL     1      -8.352  10.411  67.220  1.00  0.00    -0.122 C  
HETATM   16  O   UNL     1      -8.480  10.295  65.796  1.00  0.00    -0.144 OA 
BRANCH  15  17
HETATM   17  C   UNL     1      -8.015  11.851  67.628  1.00  0.00    -0.146 C  
HETATM   18  O   UNL     1      -7.812  12.701  66.498  1.00  0.00    -0.371 OA 
HETATM   19  H   UNL     1      -7.603  13.592  66.751  1.00  0.00     0.000 HD 
ENDBRANCH  15  17
ENDBRANCH   8  12
TORSDOF 2
ENDMDL
MODEL       32
REMARK 921   NORMALIZED FREE ENERGY PREDICTED BY IDOCK:   -4.84 KCAL/MOL
REMARK 922        TOTAL FREE ENERGY PREDICTED BY IDOCK:   -5.36 KCAL/MOL
REMARK 923 INTER-LIGAND FREE ENERGY PREDICTED BY IDOCK:   -5.43 KCAL/MOL
REMARK 924 INTRA-LIGAND FREE ENERGY PREDICTED BY IDOCK:    0.07 KCAL/MOL
REMARK 927      BINDING AFFINITY PREDICTED BY RF-SCORE:    0.00 PKD
ROOT
HETATM    1  N   UNL     1     -12.779  15.729  74.553  1.00  0.00    -0.895 NA 
HETATM    2  H1  UNL     1     -12.556  16.699  74.779  1.00  0.00     0.000 HD 
HETATM    3  H2  UNL     1     -13.102  15.080  75.270  1.00  0.00     0.000 HD 
HETATM    4  C   UNL     1     -12.627  15.336  73.254  1.00  0.00    -0.499 C  
HETATM    5  N   UNL     1     -12.910  14.105  72.968  1.00  0.00    -0.379 N  
HETATM    6  C   UNL     1     -12.804  13.663  71.672  1.00  0.00    -0.338 C  
HETATM    7  H   UNL     1     -13.210  13.465  73.703  1.00  0.00     0.000 HD 
HETATM    8  N   UNL     1     -12.196  14.498  70.719  1.00  0.00    -0.309 N  
HETATM    9  O   UNL     1     -13.242  12.559  71.354  1.00  0.00    -0.282 OA 
HETATM   10  C   UNL     1     -12.161  16.306  72.249  1.00  0.00    -0.567 C  
HETATM   11  C   UNL     1     -11.962  15.825  71.023  1.00  0.00    -0.419 C  
ENDROOT
BRANCH   8  12
HETATM   12  C   UNL     1     -12.137  14.009  69.331  1.00  0.00    -0.340 C  
HETATM   13  C   UNL     1     -11.030  12.990  69.005  1.00  0.00    -0.196 C  
HETATM   14  S   UNL     1      -9.615  14.002  68.574  1.00  0.00    -0.167 SA 
HETATM   15  C   UNL     1     -10.700  15.287  67.919  1.00  0.00    -0.275 C  
HETATM   16  O   UNL     1     -12.040  15.112  68.400  1.00  0.00    -0.241 OA 
BRANCH  15  17
HETATM   17  C   UNL     1     -10.161  16.676  68.281  1.00  0.00    -0.268 C  
HETATM   18  O   UNL     1      -8.926  16.609  68.996  1.00  0.00    -0.256 OA 
HETATM   19  H   UNL     1      -8.592  17.469  69.221  1.00  0.00     0.000 HD 
ENDBRANCH  15  17
ENDBRANCH   8  12
TORSDOF 2
ENDMDL
MODEL       33
REMARK 921   NORMALIZED FREE ENERGY PREDICTED BY IDOCK:   -4.78 KCAL/MOL
REMARK 922        TOTAL FREE ENERGY PREDICTED BY IDOCK:   -5.30 KCAL/MOL
REMARK 923 INTER-LIGAND FREE ENERGY PREDICTED BY IDOCK:   -5.35 KCAL/MOL
REMARK 924 INTRA-LIGAND FREE ENERGY PREDICTED BY IDOCK:    0.05 KCAL/MOL
REMARK 927      BINDING AFFINITY PREDICTED BY RF-SCORE:    0.00 PKD
ROOT
HETATM    1  N   UNL     1     -12.881  12.203  63.140  1.00  0.00    -0.796 NA 
HETATM    2  H1  UNL     1     -13.745  12.676  62.876  1.00  0.00     0.000 HD 
HETATM    3  H2  UNL     1     -12.486  11.461  62.563  1.00  0.00     0.000 HD 
HETATM    4  C   UNL     1     -12.274  12.604  64.296  1.00  0.00    -0.445 C  
HETATM    5  N   UNL     1     -11.177  12.003  64.632  1.00  0.00    -0.319 N  
HETATM    6  C   UNL     1     -10.509  12.386  65.769  1.00  0.00    -0.259 C  
HETATM    7  H   UNL     1     -10.810  11.248  64.053  1.00  0.00     0.000 HD 
HETATM    8  N   UNL     1     -11.135  13.280  66.654  1.00  0.00    -0.287 N  
HETATM    9  O   UNL     1      -9.380  11.956  66.001  1.00  0.00    -0.229 OA 
HETATM   10  C   UNL     1     -12.876  13.681  65.099  1.00  0.00    -0.382 C  
HETATM   11  C   UNL     1     -12.268  13.958  66.252  1.00  0.00    -0.461 C  
ENDROOT
BRANCH   8  12
HETATM   12  C   UNL     1     -10.372  13.700  67.842  1.00  0.00    -0.249 C  
HETATM   13  C   UNL     1     -11.186  13.998  69.114  1.00  0.00    -0.269 C  
HETATM   14  S   UNL     1     -11.637  15.726  68.952  1.00  0.00    -0.382 SA 
HETATM   15  C   UNL     1     -10.117  16.064  68.039  1.00  0.00    -0.240 C  
HETATM   16  O   UNL     1      -9.543  14.847  67.543  1.00  0.00    -0.202 OA 
BRANCH  15  17
HETATM   17  C   UNL     1     -10.390  17.051  66.897  1.00  0.00    -0.303 C  
HETATM   18  O   UNL     1      -9.826  16.617  65.659  1.00  0.00    -0.528 OA 
HETATM   19  H   UNL     1      -9.994  17.227  64.951  1.00  0.00     0.000 HD 
ENDBRANCH  15  17
ENDBRANCH   8  12
TORSDOF 2
ENDMDL
MODEL       34
REMARK 921   NORMALIZED FREE ENERGY PREDICTED BY IDOCK:   -4.78 KCAL/MOL
REMARK 922        TOTAL FREE ENERGY PREDICTED BY IDOCK:   -5.30 KCAL/MOL
REMARK 923 INTER-LIGAND FREE ENERGY PREDICTED BY IDOCK:   -5.45 KCAL/MOL
REMARK 924 INTRA-LIGAND FREE ENERGY PREDICTED BY IDOCK:    0.15 KCAL/MOL
REMARK 927      BINDING AFFINITY PREDICTED BY RF-SCORE:    0.00 PKD
ROOT
HETATM    1  N   UNL     1     -13.013  13.679  71.266  1.00  0.00    -0.339 NA 
HETATM    2  H1  UNL     1     -13.516  14.533  71.506  1.00  0.00     0.000 HD 
HETATM    3  H2  UNL     1     -13.145  12.819  71.799  1.00  0.00     0.000 HD 
HETATM    4  C   UNL     1     -12.157  13.732  70.203  1.00  0.00    -0.359 C  
HETATM    5  N   UNL     1     -11.519  12.648  69.898  1.00  0.00    -0.518 N  
HETATM    6  C   UNL     1     -10.667  12.636  68.820  1.00  0.00    -0.207 C  
HETATM    7  H   UNL     1     -11.647  11.804  70.457  1.00  0.00     0.000 HD 
HETATM    8  N   UNL     1     -10.350  13.853  68.194  1.00  0.00    -0.241 N  
HETATM    9  O   UNL     1     -10.199  11.575  68.409  1.00  0.00    -0.191 OA 
HETATM   10  C   UNL     1     -11.998  14.992  69.458  1.00  0.00    -0.346 C  
HETATM   11  C   UNL     1     -11.086  14.984  68.488  1.00  0.00    -0.272 C  
ENDROOT
BRANCH   8  12
HETATM   12  C   UNL     1      -9.467  13.798  67.017  1.00  0.00    -0.255 C  
HETATM   13  C   UNL     1      -8.792  15.117  66.597  1.00  0.00    -0.286 C  
HETATM   14  S   UNL     1      -9.986  15.891  65.506  1.00  0.00    -0.205 SA 
HETATM   15  C   UNL     1     -10.573  14.275  64.958  1.00  0.00    -0.425 C  
HETATM   16  O   UNL     1     -10.165  13.250  65.875  1.00  0.00    -0.283 OA 
BRANCH  15  17
HETATM   17  C   UNL     1     -12.098  14.291  64.791  1.00  0.00    -0.446 C  
HETATM   18  O   UNL     1     -12.493  14.566  63.447  1.00  0.00    -1.080 OA 
HETATM   19  H   UNL     1     -13.437  14.576  63.343  1.00  0.00     0.000 HD 
ENDBRANCH  15  17
ENDBRANCH   8  12
TORSDOF 2
ENDMDL
MODEL       35
REMARK 921   NORMALIZED FREE ENERGY PREDICTED BY IDOCK:   -4.77 KCAL/MOL
REMARK 922        TOTAL FREE ENERGY PREDICTED BY IDOCK:   -5.28 KCAL/MOL
REMARK 923 INTER-LIGAND FREE ENERGY PREDICTED BY IDOCK:   -5.39 KCAL/MOL
REMARK 924 INTRA-LIGAND FREE ENERGY PREDICTED BY IDOCK:    0.11 KCAL/MOL
REMARK 927      BINDING AFFINITY PREDICTED BY RF-SCORE:    0.00 PKD
ROOT
HETATM    1  N   UNL     1     -12.609   9.400  71.801  1.00  0.00    -0.359 NA 
HETATM    2  H1  UNL     1     -12.936   9.629  72.740  1.00  0.00     0.000 HD 
HETATM    3  H2  UNL     1     -12.432   8.436  71.522  1.00  0.00     0.000 HD 
HETATM    4  C   UNL     1     -12.417  10.438  70.934  1.00  0.00    -0.381 C  
HETATM    5  N   UNL     1     -12.002  10.148  69.742  1.00  0.00    -0.478 N  
HETATM    6  C   UNL     1     -11.821  11.148  68.819  1.00  0.00    -0.320 C  
HETATM    7  H   UNL     1     -11.809   9.178  69.490  1.00  0.00     0.000 HD 
HETATM    8  N   UNL     1     -11.893  12.485  69.246  1.00  0.00    -0.313 N  
HETATM    9  O   UNL     1     -11.606  10.875  67.639  1.00  0.00    -0.531 OA 
HETATM   10  C   UNL     1     -12.687  11.816  71.375  1.00  0.00    -0.413 C  
HETATM   11  C   UNL     1     -12.400  12.776  70.497  1.00  0.00    -0.275 C  
ENDROOT
BRANCH   8  12
HETATM   12  C   UNL     1     -11.734  13.532  68.222  1.00  0.00    -0.359 C  
HETATM   13  C   UNL     1     -10.306  13.778  67.703  1.00  0.00    -0.239 C  
HETATM   14  S   UNL     1      -9.624  14.976  68.849  1.00  0.00    -0.222 SA 
HETATM   15  C   UNL     1     -11.259  15.692  69.117  1.00  0.00    -0.315 C  
HETATM   16  O   UNL     1     -12.284  14.788  68.681  1.00  0.00    -0.206 OA 
BRANCH  15  17
HETATM   17  C   UNL     1     -11.443  16.064  70.593  1.00  0.00    -0.402 C  
HETATM   18  O   UNL     1     -12.817  16.087  70.980  1.00  0.00    -0.574 OA 
HETATM   19  H   UNL     1     -12.931  16.317  71.894  1.00  0.00     0.000 HD 
ENDBRANCH  15  17
ENDBRANCH   8  12
TORSDOF 2
ENDMDL
MODEL       36
REMARK 921   NORMALIZED FREE ENERGY PREDICTED BY IDOCK:   -4.74 KCAL/MOL
REMARK 922        TOTAL FREE ENERGY PREDICTED BY IDOCK:   -5.25 KCAL/MOL
REMARK 923 INTER-LIGAND FREE ENERGY PREDICTED BY IDOCK:   -5.35 KCAL/MOL
REMARK 924 INTRA-LIGAND FREE ENERGY PREDICTED BY IDOCK:    0.10 KCAL/MOL
REMARK 927      BINDING AFFINITY PREDICTED BY RF-SCORE:    0.00 PKD
ROOT
HETATM    1  N   UNL     1     -10.882   7.580  68.620  1.00  0.00    -0.416 NA 
HETATM    2  H1  UNL     1     -10.474   6.860  68.023  1.00  0.00     0.000 HD 
HETATM    3  H2  UNL     1     -11.327   7.343  69.507  1.00  0.00     0.000 HD 
HETATM    4  C   UNL     1     -10.810   8.872  68.185  1.00  0.00    -0.002 C  
HETATM    5  N   UNL     1     -11.329   9.785  68.943  1.00  0.00    -0.471 N  
HETATM    6  C   UNL     1     -11.259  11.105  68.569  1.00  0.00    -0.258 C  
HETATM    7  H   UNL     1     -11.789   9.525  69.815  1.00  0.00     0.000 HD 
HETATM    8  N   UNL     1     -10.807  11.419  67.276  1.00  0.00    -0.247 N  
HETATM    9  O   UNL     1     -11.579  11.993  69.358  1.00  0.00    -0.288 OA 
HETATM   10  C   UNL     1     -10.157   9.173  66.900  1.00  0.00    -0.328 C  
HETATM   11  C   UNL     1     -10.199  10.445  66.509  1.00  0.00    -0.229 C  
ENDROOT
BRANCH   8  12
HETATM   12  C   UNL     1     -10.706  12.846  66.923  1.00  0.00    -0.257 C  
HETATM   13  C   UNL     1     -12.031  13.615  66.773  1.00  0.00    -0.414 C  
HETATM   14  S   UNL     1     -12.496  13.357  65.060  1.00  0.00    -0.411 SA 
HETATM   15  C   UNL     1     -10.760  13.265  64.575  1.00  0.00    -0.411 C  
HETATM   16  O   UNL     1      -9.927  13.024  65.717  1.00  0.00    -0.279 OA 
BRANCH  15  17
HETATM   17  C   UNL     1     -10.562  12.180  63.509  1.00  0.00    -0.458 C  
HETATM   18  O   UNL     1     -11.792  11.567  63.124  1.00  0.00    -0.881 OA 
HETATM   19  H   UNL     1     -11.669  10.895  62.464  1.00  0.00     0.000 HD 
ENDBRANCH  15  17
ENDBRANCH   8  12
TORSDOF 2
ENDMDL
MODEL       37
REMARK 921   NORMALIZED FREE ENERGY PREDICTED BY IDOCK:   -4.73 KCAL/MOL
REMARK 922        TOTAL FREE ENERGY PREDICTED BY IDOCK:   -5.24 KCAL/MOL
REMARK 923 INTER-LIGAND FREE ENERGY PREDICTED BY IDOCK:   -5.39 KCAL/MOL
REMARK 924 INTRA-LIGAND FREE ENERGY PREDICTED BY IDOCK:    0.15 KCAL/MOL
REMARK 927      BINDING AFFINITY PREDICTED BY RF-SCORE:    0.00 PKD
ROOT
HETATM    1  N   UNL     1     -10.787  10.338  70.492  1.00  0.00    -0.408 NA 
HETATM    2  H1  UNL     1     -10.416   9.451  70.152  1.00  0.00     0.000 HD 
HETATM    3  H2  UNL     1     -10.912  10.513  71.489  1.00  0.00     0.000 HD 
HETATM    4  C   UNL     1     -11.110  11.282  69.560  1.00  0.00    -0.238 C  
HETATM    5  N   UNL     1     -11.581  12.409  69.991  1.00  0.00    -0.525 N  
HETATM    6  C   UNL     1     -11.894  13.405  69.100  1.00  0.00    -0.336 C  
HETATM    7  H   UNL     1     -11.719  12.555  70.991  1.00  0.00     0.000 HD 
HETATM    8  N   UNL     1     -11.891  13.110  67.726  1.00  0.00    -0.355 N  
HETATM    9  O   UNL     1     -12.166  14.536  69.501  1.00  0.00    -0.308 OA 
HETATM   10  C   UNL     1     -10.912  10.992  68.130  1.00  0.00    -0.301 C  
HETATM   11  C   UNL     1     -11.325  11.931  67.281  1.00  0.00    -0.329 C  
ENDROOT
BRANCH   8  12
HETATM   12  C   UNL     1     -12.192  14.213  66.797  1.00  0.00    -0.394 C  
HETATM   13  C   UNL     1     -12.276  13.853  65.302  1.00  0.00    -0.433 C  
HETATM   14  S   UNL     1     -10.586  13.997  64.722  1.00  0.00    -0.390 SA 
HETATM   15  C   UNL     1     -10.253  15.298  65.927  1.00  0.00    -0.332 C  
HETATM   16  O   UNL     1     -11.247  15.296  66.961  1.00  0.00    -0.330 OA 
BRANCH  15  17
HETATM   17  C   UNL     1      -8.846  15.133  66.515  1.00  0.00    -0.277 C  
HETATM   18  O   UNL     1      -8.465  13.762  66.632  1.00  0.00    -0.435 OA 
HETATM   19  H   UNL     1      -7.593  13.660  66.996  1.00  0.00     0.000 HD 
ENDBRANCH  15  17
ENDBRANCH   8  12
TORSDOF 2
ENDMDL
MODEL       38
REMARK 921   NORMALIZED FREE ENERGY PREDICTED BY IDOCK:   -4.73 KCAL/MOL
REMARK 922        TOTAL FREE ENERGY PREDICTED BY IDOCK:   -5.24 KCAL/MOL
REMARK 923 INTER-LIGAND FREE ENERGY PREDICTED BY IDOCK:   -5.28 KCAL/MOL
REMARK 924 INTRA-LIGAND FREE ENERGY PREDICTED BY IDOCK:    0.04 KCAL/MOL
REMARK 927      BINDING AFFINITY PREDICTED BY RF-SCORE:    0.00 PKD
ROOT
HETATM    1  N   UNL     1     -12.088  16.148  71.946  1.00  0.00    -0.576 NA 
HETATM    2  H1  UNL     1     -12.490  15.473  72.597  1.00  0.00     0.000 HD 
HETATM    3  H2  UNL     1     -11.849  17.094  72.244  1.00  0.00     0.000 HD 
HETATM    4  C   UNL     1     -11.882  15.735  70.661  1.00  0.00    -0.385 C  
HETATM    5  N   UNL     1     -11.372  16.591  69.835  1.00  0.00    -0.375 N  
HETATM    6  C   UNL     1     -11.116  16.221  68.537  1.00  0.00    -0.368 C  
HETATM    7  H   UNL     1     -11.160  17.539  70.147  1.00  0.00     0.000 HD 
HETATM    8  N   UNL     1     -11.601  14.985  68.078  1.00  0.00    -0.337 N  
HETATM    9  O   UNL     1     -10.466  16.958  67.797  1.00  0.00    -0.317 OA 
HETATM   10  C   UNL     1     -12.238  14.360  70.271  1.00  0.00    -0.397 C  
HETATM   11  C   UNL     1     -12.082  14.060  68.983  1.00  0.00    -0.323 C  
ENDROOT
BRANCH   8  12
HETATM   12  C   UNL     1     -11.273  14.602  66.693  1.00  0.00    -0.349 C  
HETATM   13  C   UNL     1     -12.166  13.531  66.043  1.00  0.00    -0.445 C  
HETATM   14  S   UNL     1     -11.404  11.979  66.517  1.00  0.00    -0.344 SA 
HETATM   15  C   UNL     1      -9.774  12.753  66.533  1.00  0.00    -0.255 C  
HETATM   16  O   UNL     1      -9.893  14.181  66.590  1.00  0.00    -0.264 OA 
BRANCH  15  17
HETATM   17  C   UNL     1      -8.944  12.222  67.709  1.00  0.00    -0.177 C  
HETATM   18  O   UNL     1      -8.764  13.202  68.732  1.00  0.00    -0.369 OA 
HETATM   19  H   UNL     1      -8.250  12.873  69.460  1.00  0.00     0.000 HD 
ENDBRANCH  15  17
ENDBRANCH   8  12
TORSDOF 2
ENDMDL
MODEL       39
REMARK 921   NORMALIZED FREE ENERGY PREDICTED BY IDOCK:   -4.72 KCAL/MOL
REMARK 922        TOTAL FREE ENERGY PREDICTED BY IDOCK:   -5.23 KCAL/MOL
REMARK 923 INTER-LIGAND FREE ENERGY PREDICTED BY IDOCK:   -5.28 KCAL/MOL
REMARK 924 INTRA-LIGAND FREE ENERGY PREDICTED BY IDOCK:    0.05 KCAL/MOL
REMARK 927      BINDING AFFINITY PREDICTED BY RF-SCORE:    0.00 PKD
ROOT
HETATM    1  N   UNL     1     -12.396  14.646  68.919  1.00  0.00    -0.585 NA 
HETATM    2  H1  UNL     1     -12.490  14.693  69.933  1.00  0.00     0.000 HD 
HETATM    3  H2  UNL     1     -13.040  14.093  68.352  1.00  0.00     0.000 HD 
HETATM    4  C   UNL     1     -11.375  15.352  68.349  1.00  0.00    -0.339 C  
HETATM    5  N   UNL     1     -11.256  15.291  67.061  1.00  0.00    -0.312 N  
HETATM    6  C   UNL     1     -10.265  16.005  66.432  1.00  0.00    -0.305 C  
HETATM    7  H   UNL     1     -11.896  14.715  66.515  1.00  0.00     0.000 HD 
HETATM    8  N   UNL     1      -9.276  16.624  67.215  1.00  0.00    -0.219 N  
HETATM    9  O   UNL     1     -10.253  16.105  65.206  1.00  0.00    -0.520 OA 
HETATM   10  C   UNL     1     -10.470  16.140  69.202  1.00  0.00    -0.265 C  
HETATM   11  C   UNL     1      -9.453  16.734  68.579  1.00  0.00    -0.245 C  
ENDROOT
BRANCH   8  12
HETATM   12  C   UNL     1      -8.252  17.414  66.509  1.00  0.00    -0.276 C  
HETATM   13  C   UNL     1      -7.031  17.856  67.335  1.00  0.00    -0.186 C  
HETATM   14  S   UNL     1      -7.539  19.409  68.072  1.00  0.00    -0.298 SA 
HETATM   15  C   UNL     1      -8.589  19.772  66.650  1.00  0.00    -0.335 C  
HETATM   16  O   UNL     1      -8.841  18.582  65.890  1.00  0.00    -0.482 OA 
BRANCH  15  17
HETATM   17  C   UNL     1      -9.901  20.422  67.108  1.00  0.00    -0.461 C  
HETATM   18  O   UNL     1     -11.035  19.594  66.850  1.00  0.00    -0.452 OA 
HETATM   19  H   UNL     1     -11.847  19.997  67.133  1.00  0.00     0.000 HD 
ENDBRANCH  15  17
ENDBRANCH   8  12
TORSDOF 2
ENDMDL
MODEL       40
REMARK 921   NORMALIZED FREE ENERGY PREDICTED BY IDOCK:   -4.71 KCAL/MOL
REMARK 922        TOTAL FREE ENERGY PREDICTED BY IDOCK:   -5.22 KCAL/MOL
REMARK 923 INTER-LIGAND FREE ENERGY PREDICTED BY IDOCK:   -5.39 KCAL/MOL
REMARK 924 INTRA-LIGAND FREE ENERGY PREDICTED BY IDOCK:    0.17 KCAL/MOL
REMARK 927      BINDING AFFINITY PREDICTED BY RF-SCORE:    0.00 PKD
ROOT
HETATM    1  N   UNL     1     -14.349   8.870  73.018  1.00  0.00    -1.154 NA 
HETATM    2  H1  UNL     1     -14.448   7.945  73.437  1.00  0.00     0.000 HD 
HETATM    3  H2  UNL     1     -15.029   9.608  73.199  1.00  0.00     0.000 HD 
HETATM    4  C   UNL     1     -13.271   9.081  72.207  1.00  0.00    -0.460 C  
HETATM    5  N   UNL     1     -13.146  10.255  71.676  1.00  0.00    -0.428 N  
HETATM    6  C   UNL     1     -12.064  10.532  70.876  1.00  0.00    -0.383 C  
HETATM    7  H   UNL     1     -13.849  10.973  71.851  1.00  0.00     0.000 HD 
HETATM    8  N   UNL     1     -11.224   9.476  70.484  1.00  0.00    -0.268 N  
HETATM    9  O   UNL     1     -11.835  11.686  70.517  1.00  0.00    -0.342 OA 
HETATM   10  C   UNL     1     -12.310   7.989  71.974  1.00  0.00    -0.366 C  
HETATM   11  C   UNL     1     -11.332   8.249  71.109  1.00  0.00    -0.263 C  
ENDROOT
BRANCH   8  12
HETATM   12  C   UNL     1     -10.051   9.815  69.660  1.00  0.00    -0.229 C  
HETATM   13  C   UNL     1     -10.325  10.573  68.349  1.00  0.00    -0.176 C  
HETATM   14  S   UNL     1     -10.633   9.277  67.149  1.00  0.00    -0.154 SA 
HETATM   15  C   UNL     1      -9.513   8.165  68.023  1.00  0.00    -0.143 C  
HETATM   16  O   UNL     1      -9.275   8.632  69.358  1.00  0.00    -0.148 OA 
BRANCH  15  17
HETATM   17  C   UNL     1     -10.077   6.738  68.031  1.00  0.00    -0.159 C  
HETATM   18  O   UNL     1     -11.419   6.683  67.547  1.00  0.00    -0.721 OA 
HETATM   19  H   UNL     1     -11.768   5.799  67.552  1.00  0.00     0.000 HD 
ENDBRANCH  15  17
ENDBRANCH   8  12
TORSDOF 2
ENDMDL
MODEL       41
REMARK 921   NORMALIZED FREE ENERGY PREDICTED BY IDOCK:   -4.67 KCAL/MOL
REMARK 922        TOTAL FREE ENERGY PREDICTED BY IDOCK:   -5.17 KCAL/MOL
REMARK 923 INTER-LIGAND FREE ENERGY PREDICTED BY IDOCK:   -5.19 KCAL/MOL
REMARK 924 INTRA-LIGAND FREE ENERGY PREDICTED BY IDOCK:    0.03 KCAL/MOL
REMARK 927      BINDING AFFINITY PREDICTED BY RF-SCORE:    0.00 PKD
ROOT
HETATM    1  N   UNL     1     -12.269  11.868  68.814  1.00  0.00    -0.289 NA 
HETATM    2  H1  UNL     1     -11.455  12.192  68.292  1.00  0.00     0.000 HD 
HETATM    3  H2  UNL     1     -13.191  12.277  68.666  1.00  0.00     0.000 HD 
HETATM    4  C   UNL     1     -12.075  10.864  69.721  1.00  0.00    -0.338 C  
HETATM    5  N   UNL     1     -13.108  10.453  70.384  1.00  0.00    -0.500 N  
HETATM    6  C   UNL     1     -12.977   9.426  71.286  1.00  0.00    -0.301 C  
HETATM    7  H   UNL     1     -14.017  10.891  70.236  1.00  0.00     0.000 HD 
HETATM    8  N   UNL     1     -11.687   8.980  71.621  1.00  0.00    -0.335 N  
HETATM    9  O   UNL     1     -13.973   8.905  71.784  1.00  0.00    -0.397 OA 
HETATM   10  C   UNL     1     -10.728  10.299  69.903  1.00  0.00    -0.344 C  
HETATM   11  C   UNL     1     -10.606   9.381  70.861  1.00  0.00    -0.320 C  
ENDROOT
BRANCH   8  12
HETATM   12  C   UNL     1     -11.585   7.851  72.561  1.00  0.00    -0.386 C  
HETATM   13  C   UNL     1     -10.233   7.663  73.271  1.00  0.00    -0.339 C  
HETATM   14  S   UNL     1      -9.283   6.643  72.143  1.00  0.00    -0.136 SA 
HETATM   15  C   UNL     1     -10.789   5.835  71.564  1.00  0.00    -0.253 C  
HETATM   16  O   UNL     1     -11.946   6.608  71.913  1.00  0.00    -0.316 OA 
BRANCH  15  17
HETATM   17  C   UNL     1     -10.720   5.600  70.049  1.00  0.00    -0.320 C  
HETATM   18  O   UNL     1     -11.673   6.387  69.335  1.00  0.00    -0.619 OA 
HETATM   19  H   UNL     1     -11.630   6.242  68.397  1.00  0.00     0.000 HD 
ENDBRANCH  15  17
ENDBRANCH   8  12
TORSDOF 2
ENDMDL
MODEL       42
REMARK 921   NORMALIZED FREE ENERGY PREDICTED BY IDOCK:   -4.62 KCAL/MOL
REMARK 922        TOTAL FREE ENERGY PREDICTED BY IDOCK:   -5.12 KCAL/MOL
REMARK 923 INTER-LIGAND FREE ENERGY PREDICTED BY IDOCK:   -5.58 KCAL/MOL
REMARK 924 INTRA-LIGAND FREE ENERGY PREDICTED BY IDOCK:    0.46 KCAL/MOL
REMARK 927      BINDING AFFINITY PREDICTED BY RF-SCORE:    0.00 PKD
ROOT
HETATM    1  N   UNL     1     -12.678  13.345  70.972  1.00  0.00    -0.333 NA 
HETATM    2  H1  UNL     1     -13.371  13.816  71.553  1.00  0.00     0.000 HD 
HETATM    3  H2  UNL     1     -12.632  12.327  70.923  1.00  0.00     0.000 HD 
HETATM    4  C   UNL     1     -11.815  14.130  70.262  1.00  0.00    -0.303 C  
HETATM    5  N   UNL     1     -10.936  13.531  69.524  1.00  0.00    -0.452 N  
HETATM    6  C   UNL     1     -10.062  14.271  68.766  1.00  0.00    -0.217 C  
HETATM    7  H   UNL     1     -10.891  12.512  69.507  1.00  0.00     0.000 HD 
HETATM    8  N   UNL     1     -10.005  15.662  68.962  1.00  0.00    -0.219 N  
HETATM    9  O   UNL     1      -9.349  13.724  67.926  1.00  0.00    -0.195 OA 
HETATM   10  C   UNL     1     -11.917  15.596  70.358  1.00  0.00    -0.405 C  
HETATM   11  C   UNL     1     -10.990  16.289  69.699  1.00  0.00    -0.346 C  
ENDROOT
BRANCH   8  12
HETATM   12  C   UNL     1      -9.086  16.429  68.103  1.00  0.00    -0.201 C  
HETATM   13  C   UNL     1      -9.313  17.949  68.033  1.00  0.00    -0.274 C  
HETATM   14  S   UNL     1     -10.511  18.153  66.714  1.00  0.00    -0.312 SA 
HETATM   15  C   UNL     1      -9.861  16.701  65.863  1.00  0.00    -0.273 C  
HETATM   16  O   UNL     1      -9.077  15.898  66.757  1.00  0.00    -0.214 OA 
BRANCH  15  17
HETATM   17  C   UNL     1     -11.006  15.885  65.250  1.00  0.00    -0.324 C  
HETATM   18  O   UNL     1     -11.371  16.354  63.951  1.00  0.00    -1.510 OA 
HETATM   19  H   UNL     1     -12.081  15.849  63.572  1.00  0.00     0.000 HD 
ENDBRANCH  15  17
ENDBRANCH   8  12
TORSDOF 2
ENDMDL
MODEL       43
REMARK 921   NORMALIZED FREE ENERGY PREDICTED BY IDOCK:   -4.61 KCAL/MOL
REMARK 922        TOTAL FREE ENERGY PREDICTED BY IDOCK:   -5.10 KCAL/MOL
REMARK 923 INTER-LIGAND FREE ENERGY PREDICTED BY IDOCK:   -5.29 KCAL/MOL
REMARK 924 INTRA-LIGAND FREE ENERGY PREDICTED BY IDOCK:    0.19 KCAL/MOL
REMARK 927      BINDING AFFINITY PREDICTED BY RF-SCORE:    0.00 PKD
ROOT
HETATM    1  N   UNL     1      -6.479  16.569  66.760  1.00  0.00    -0.265 NA 
HETATM    2  H1  UNL     1      -5.783  16.042  67.287  1.00  0.00     0.000 HD 
HETATM    3  H2  UNL     1      -6.248  17.459  66.319  1.00  0.00     0.000 HD 
HETATM    4  C   UNL     1      -7.734  16.036  66.669  1.00  0.00    -0.204 C  
HETATM    5  N   UNL     1      -8.618  16.706  66.001  1.00  0.00    -0.271 N  
HETATM    6  C   UNL     1      -9.888  16.203  65.852  1.00  0.00    -0.353 C  
HETATM    7  H   UNL     1      -8.372  17.605  65.587  1.00  0.00     0.000 HD 
HETATM    8  N   UNL     1     -10.260  15.073  66.599  1.00  0.00    -0.262 N  
HETATM    9  O   UNL     1     -10.678  16.732  65.073  1.00  0.00    -0.692 OA 
HETATM   10  C   UNL     1      -8.027  14.747  67.318  1.00  0.00    -0.232 C  
HETATM   11  C   UNL     1      -9.292  14.336  67.252  1.00  0.00    -0.213 C  
ENDROOT
BRANCH   8  12
HETATM   12  C   UNL     1     -11.615  14.537  66.384  1.00  0.00    -0.364 C  
HETATM   13  C   UNL     1     -12.109  13.483  67.391  1.00  0.00    -0.318 C  
HETATM   14  S   UNL     1     -11.526  11.927  66.719  1.00  0.00    -0.264 SA 
HETATM   15  C   UNL     1     -11.671  12.567  65.038  1.00  0.00    -0.362 C  
HETATM   16  O   UNL     1     -11.749  13.999  65.047  1.00  0.00    -0.334 OA 
BRANCH  15  17
HETATM   17  C   UNL     1     -10.494  12.084  64.181  1.00  0.00    -0.353 C  
HETATM   18  O   UNL     1     -10.923  11.338  63.042  1.00  0.00    -0.804 OA 
HETATM   19  H   UNL     1     -10.195  11.039  62.511  1.00  0.00     0.000 HD 
ENDBRANCH  15  17
ENDBRANCH   8  12
TORSDOF 2
ENDMDL
MODEL       44
REMARK 921   NORMALIZED FREE ENERGY PREDICTED BY IDOCK:   -4.60 KCAL/MOL
REMARK 922        TOTAL FREE ENERGY PREDICTED BY IDOCK:   -5.10 KCAL/MOL
REMARK 923 INTER-LIGAND FREE ENERGY PREDICTED BY IDOCK:   -5.38 KCAL/MOL
REMARK 924 INTRA-LIGAND FREE ENERGY PREDICTED BY IDOCK:    0.28 KCAL/MOL
REMARK 927      BINDING AFFINITY PREDICTED BY RF-SCORE:    0.00 PKD
ROOT
HETATM    1  N   UNL     1      -8.984   9.032  64.498  1.00  0.00    -0.418 NA 
HETATM    2  H1  UNL     1      -8.533   8.983  63.584  1.00  0.00     0.000 HD 
HETATM    3  H2  UNL     1      -8.842   8.304  65.198  1.00  0.00     0.000 HD 
HETATM    4  C   UNL     1      -9.783  10.111  64.747  1.00  0.00    -0.322 C  
HETATM    5  N   UNL     1     -10.355  10.173  65.907  1.00  0.00    -0.198 N  
HETATM    6  C   UNL     1     -11.146  11.250  66.223  1.00  0.00    -0.166 C  
HETATM    7  H   UNL     1     -10.219   9.423  66.585  1.00  0.00     0.000 HD 
HETATM    8  N   UNL     1     -11.484  12.162  65.209  1.00  0.00    -0.344 N  
HETATM    9  O   UNL     1     -11.544  11.414  67.375  1.00  0.00    -0.509 OA 
HETATM   10  C   UNL     1      -9.959  11.142  63.711  1.00  0.00    -0.401 C  
HETATM   11  C   UNL     1     -10.817  12.119  64.001  1.00  0.00    -0.383 C  
ENDROOT
BRANCH   8  12
HETATM   12  C   UNL     1     -12.300  13.327  65.592  1.00  0.00    -0.465 C  
HETATM   13  C   UNL     1     -12.233  14.553  64.663  1.00  0.00    -0.460 C  
HETATM   14  S   UNL     1     -10.835  15.492  65.276  1.00  0.00    -0.413 SA 
HETATM   15  C   UNL     1     -11.145  14.908  66.955  1.00  0.00    -0.338 C  
HETATM   16  O   UNL     1     -11.992  13.750  66.940  1.00  0.00    -0.388 OA 
BRANCH  15  17
HETATM   17  C   UNL     1      -9.820  14.612  67.670  1.00  0.00    -0.218 C  
HETATM   18  O   UNL     1      -9.981  13.694  68.752  1.00  0.00    -0.353 OA 
HETATM   19  H   UNL     1      -9.161  13.511  69.194  1.00  0.00     0.000 HD 
ENDBRANCH  15  17
ENDBRANCH   8  12
TORSDOF 2
ENDMDL
MODEL       45
REMARK 921   NORMALIZED FREE ENERGY PREDICTED BY IDOCK:   -4.59 KCAL/MOL
REMARK 922        TOTAL FREE ENERGY PREDICTED BY IDOCK:   -5.08 KCAL/MOL
REMARK 923 INTER-LIGAND FREE ENERGY PREDICTED BY IDOCK:   -5.28 KCAL/MOL
REMARK 924 INTRA-LIGAND FREE ENERGY PREDICTED BY IDOCK:    0.20 KCAL/MOL
REMARK 927      BINDING AFFINITY PREDICTED BY RF-SCORE:    0.00 PKD
ROOT
HETATM    1  N   UNL     1     -12.454  13.636  65.105  1.00  0.00    -0.516 NA 
HETATM    2  H1  UNL     1     -12.095  13.490  64.161  1.00  0.00     0.000 HD 
HETATM    3  H2  UNL     1     -13.311  13.184  65.421  1.00  0.00     0.000 HD 
HETATM    4  C   UNL     1     -11.741  14.461  65.927  1.00  0.00    -0.369 C  
HETATM    5  N   UNL     1     -12.196  14.647  67.125  1.00  0.00    -0.506 N  
HETATM    6  C   UNL     1     -11.504  15.443  68.004  1.00  0.00    -0.326 C  
HETATM    7  H   UNL     1     -13.068  14.203  67.414  1.00  0.00     0.000 HD 
HETATM    8  N   UNL     1     -10.424  16.203  67.523  1.00  0.00    -0.297 N  
HETATM    9  O   UNL     1     -11.822  15.481  69.192  1.00  0.00    -0.347 OA 
HETATM   10  C   UNL     1     -10.506  15.093  65.433  1.00  0.00    -0.416 C  
HETATM   11  C   UNL     1      -9.913  15.945  66.267  1.00  0.00    -0.298 C  
ENDROOT
BRANCH   8  12
HETATM   12  C   UNL     1      -9.680  17.014  68.502  1.00  0.00    -0.282 C  
HETATM   13  C   UNL     1     -10.003  18.518  68.541  1.00  0.00    -0.384 C  
HETATM   14  S   UNL     1      -8.912  19.233  67.311  1.00  0.00    -0.302 SA 
HETATM   15  C   UNL     1      -7.670  17.965  67.636  1.00  0.00    -0.213 C  
HETATM   16  O   UNL     1      -8.253  16.850  68.325  1.00  0.00    -0.205 OA 
BRANCH  15  17
HETATM   17  C   UNL     1      -7.009  17.518  66.326  1.00  0.00    -0.297 C  
HETATM   18  O   UNL     1      -7.136  18.496  65.293  1.00  0.00    -0.521 OA 
HETATM   19  H   UNL     1      -6.727  18.220  64.482  1.00  0.00     0.000 HD 
ENDBRANCH  15  17
ENDBRANCH   8  12
TORSDOF 2
ENDMDL
MODEL       46
REMARK 921   NORMALIZED FREE ENERGY PREDICTED BY IDOCK:   -4.58 KCAL/MOL
REMARK 922        TOTAL FREE ENERGY PREDICTED BY IDOCK:   -5.07 KCAL/MOL
REMARK 923 INTER-LIGAND FREE ENERGY PREDICTED BY IDOCK:   -5.15 KCAL/MOL
REMARK 924 INTRA-LIGAND FREE ENERGY PREDICTED BY IDOCK:    0.08 KCAL/MOL
REMARK 927      BINDING AFFINITY PREDICTED BY RF-SCORE:    0.00 PKD
ROOT
HETATM    1  N   UNL     1      -9.484   8.223  66.042  1.00  0.00    -0.399 NA 
HETATM    2  H1  UNL     1      -9.469   7.855  66.993  1.00  0.00     0.000 HD 
HETATM    3  H2  UNL     1      -9.140   7.672  65.255  1.00  0.00     0.000 HD 
HETATM    4  C   UNL     1      -9.985   9.481  65.862  1.00  0.00    -0.272 C  
HETATM    5  N   UNL     1     -10.004   9.947  64.655  1.00  0.00    -0.389 N  
HETATM    6  C   UNL     1     -10.524  11.195  64.412  1.00  0.00    -0.353 C  
HETATM    7  H   UNL     1      -9.634   9.390  63.885  1.00  0.00     0.000 HD 
HETATM    8  N   UNL     1     -10.837  12.023  65.504  1.00  0.00    -0.283 N  
HETATM    9  O   UNL     1     -10.718  11.575  63.258  1.00  0.00    -0.362 OA 
HETATM   10  C   UNL     1     -10.475  10.242  67.024  1.00  0.00    -0.304 C  
HETATM   11  C   UNL     1     -10.873  11.489  66.777  1.00  0.00    -0.282 C  
ENDROOT
BRANCH   8  12
HETATM   12  C   UNL     1     -11.430  13.338  65.208  1.00  0.00    -0.295 C  
HETATM   13  C   UNL     1     -10.464  14.442  64.743  1.00  0.00    -0.367 C  
HETATM   14  S   UNL     1      -9.886  15.189  66.268  1.00  0.00    -0.316 SA 
HETATM   15  C   UNL     1     -11.459  14.825  67.074  1.00  0.00    -0.353 C  
HETATM   16  O   UNL     1     -12.185  13.828  66.340  1.00  0.00    -0.429 OA 
BRANCH  15  17
HETATM   17  C   UNL     1     -11.226  14.381  68.523  1.00  0.00    -0.265 C  
HETATM   18  O   UNL     1     -12.436  13.995  69.174  1.00  0.00    -0.483 OA 
HETATM   19  H   UNL     1     -12.292  13.720  70.072  1.00  0.00     0.000 HD 
ENDBRANCH  15  17
ENDBRANCH   8  12
TORSDOF 2
ENDMDL
MODEL       47
REMARK 921   NORMALIZED FREE ENERGY PREDICTED BY IDOCK:   -4.57 KCAL/MOL
REMARK 922        TOTAL FREE ENERGY PREDICTED BY IDOCK:   -5.07 KCAL/MOL
REMARK 923 INTER-LIGAND FREE ENERGY PREDICTED BY IDOCK:   -5.20 KCAL/MOL
REMARK 924 INTRA-LIGAND FREE ENERGY PREDICTED BY IDOCK:    0.14 KCAL/MOL
REMARK 927      BINDING AFFINITY PREDICTED BY RF-SCORE:    0.00 PKD
ROOT
HETATM    1  N   UNL     1     -14.284   8.942  73.230  1.00  0.00    -1.237 NA 
HETATM    2  H1  UNL     1     -14.379   7.993  73.591  1.00  0.00     0.000 HD 
HETATM    3  H2  UNL     1     -14.889   9.696  73.555  1.00  0.00     0.000 HD 
HETATM    4  C   UNL     1     -13.314   9.164  72.293  1.00  0.00    -0.477 C  
HETATM    5  N   UNL     1     -13.194  10.368  71.835  1.00  0.00    -0.451 N  
HETATM    6  C   UNL     1     -12.216  10.655  70.913  1.00  0.00    -0.395 C  
HETATM    7  H   UNL     1     -13.824  11.103  72.156  1.00  0.00     0.000 HD 
HETATM    8  N   UNL     1     -11.499   9.593  70.335  1.00  0.00    -0.265 N  
HETATM    9  O   UNL     1     -11.971  11.820  70.609  1.00  0.00    -0.350 OA 
HETATM   10  C   UNL     1     -12.459   8.049  71.853  1.00  0.00    -0.364 C  
HETATM   11  C   UNL     1     -11.593   8.328  70.880  1.00  0.00    -0.262 C  
ENDROOT
BRANCH   8  12
HETATM   12  C   UNL     1     -10.431   9.939  69.382  1.00  0.00    -0.231 C  
HETATM   13  C   UNL     1     -10.327   9.070  68.116  1.00  0.00    -0.214 C  
HETATM   14  S   UNL     1      -9.273   7.705  68.605  1.00  0.00    -0.140 SA 
HETATM   15  C   UNL     1      -8.385   8.771  69.760  1.00  0.00    -0.127 C  
HETATM   16  O   UNL     1      -9.142   9.957  70.038  1.00  0.00    -0.225 OA 
BRANCH  15  17
HETATM   17  C   UNL     1      -8.064   8.007  71.051  1.00  0.00    -0.097 C  
HETATM   18  O   UNL     1      -8.070   8.856  72.199  1.00  0.00    -0.369 OA 
HETATM   19  H   UNL     1      -7.871   8.383  72.999  1.00  0.00     0.000 HD 
ENDBRANCH  15  17
ENDBRANCH   8  12
TORSDOF 2
ENDMDL
MODEL       48
REMARK 921   NORMALIZED FREE ENERGY PREDICTED BY IDOCK:   -4.57 KCAL/MOL
REMARK 922        TOTAL FREE ENERGY PREDICTED BY IDOCK:   -5.06 KCAL/MOL
REMARK 923 INTER-LIGAND FREE ENERGY PREDICTED BY IDOCK:   -5.20 KCAL/MOL
REMARK 924 INTRA-LIGAND FREE ENERGY PREDICTED BY IDOCK:    0.13 KCAL/MOL
REMARK 927      BINDING AFFINITY PREDICTED BY RF-SCORE:    0.00 PKD
ROOT
HETATM    1  N   UNL     1      -9.558  17.979  65.911  1.00  0.00    -0.516 NA 
HETATM    2  H1  UNL     1      -9.166  17.976  64.969  1.00  0.00     0.000 HD 
HETATM    3  H2  UNL     1      -9.504  18.806  66.504  1.00  0.00     0.000 HD 
HETATM    4  C   UNL     1     -10.155  16.830  66.347  1.00  0.00    -0.317 C  
HETATM    5  N   UNL     1     -10.652  16.834  67.542  1.00  0.00    -0.324 N  
HETATM    6  C   UNL     1     -11.290  15.716  68.021  1.00  0.00    -0.324 C  
HETATM    7  H   UNL     1     -10.568  17.665  68.128  1.00  0.00     0.000 HD 
HETATM    8  N   UNL     1     -11.213  14.524  67.282  1.00  0.00    -0.319 N  
HETATM    9  O   UNL     1     -11.923  15.764  69.075  1.00  0.00    -0.385 OA 
HETATM   10  C   UNL     1     -10.213  15.657  65.458  1.00  0.00    -0.414 C  
HETATM   11  C   UNL     1     -10.740  14.553  65.985  1.00  0.00    -0.305 C  
ENDROOT
BRANCH   8  12
HETATM   12  C   UNL     1     -11.944  13.356  67.804  1.00  0.00    -0.324 C  
HETATM   13  C   UNL     1     -11.380  12.703  69.079  1.00  0.00    -0.292 C  
HETATM   14  S   UNL     1     -10.179  11.518  68.470  1.00  0.00    -0.213 SA 
HETATM   15  C   UNL     1     -11.148  11.268  66.968  1.00  0.00    -0.293 C  
HETATM   16  O   UNL     1     -12.084  12.339  66.785  1.00  0.00    -0.593 OA 
BRANCH  15  17
HETATM   17  C   UNL     1     -10.221  11.131  65.753  1.00  0.00    -0.257 C  
HETATM   18  O   UNL     1     -10.019   9.768  65.377  1.00  0.00    -0.320 OA 
HETATM   19  H   UNL     1      -9.445   9.684  64.625  1.00  0.00     0.000 HD 
ENDBRANCH  15  17
ENDBRANCH   8  12
TORSDOF 2
ENDMDL
MODEL       49
REMARK 921   NORMALIZED FREE ENERGY PREDICTED BY IDOCK:   -4.57 KCAL/MOL
REMARK 922        TOTAL FREE ENERGY PREDICTED BY IDOCK:   -5.06 KCAL/MOL
REMARK 923 INTER-LIGAND FREE ENERGY PREDICTED BY IDOCK:   -5.16 KCAL/MOL
REMARK 924 INTRA-LIGAND FREE ENERGY PREDICTED BY IDOCK:    0.10 KCAL/MOL
REMARK 927      BINDING AFFINITY PREDICTED BY RF-SCORE:    0.00 PKD
ROOT
HETATM    1  N   UNL     1     -12.187  13.958  63.805  1.00  0.00    -0.864 NA 
HETATM    2  H1  UNL     1     -11.874  14.409  62.945  1.00  0.00     0.000 HD 
HETATM    3  H2  UNL     1     -12.777  13.126  63.782  1.00  0.00     0.000 HD 
HETATM    4  C   UNL     1     -11.784  14.511  64.987  1.00  0.00    -0.392 C  
HETATM    5  N   UNL     1     -12.181  13.939  66.078  1.00  0.00    -0.439 N  
HETATM    6  C   UNL     1     -11.782  14.435  67.295  1.00  0.00    -0.404 C  
HETATM    7  H   UNL     1     -12.790  13.121  66.034  1.00  0.00     0.000 HD 
HETATM    8  N   UNL     1     -11.119  15.673  67.337  1.00  0.00    -0.297 N  
HETATM    9  O   UNL     1     -11.997  13.800  68.326  1.00  0.00    -0.357 OA 
HETATM   10  C   UNL     1     -10.930  15.711  64.976  1.00  0.00    -0.445 C  
HETATM   11  C   UNL     1     -10.648  16.236  66.167  1.00  0.00    -0.267 C  
ENDROOT
BRANCH   8  12
HETATM   12  C   UNL     1     -10.670  16.155  68.654  1.00  0.00    -0.295 C  
HETATM   13  C   UNL     1     -10.103  17.585  68.710  1.00  0.00    -0.363 C  
HETATM   14  S   UNL     1      -8.362  17.381  68.333  1.00  0.00    -0.268 SA 
HETATM   15  C   UNL     1      -8.362  15.746  69.095  1.00  0.00    -0.249 C  
HETATM   16  O   UNL     1      -9.700  15.249  69.230  1.00  0.00    -0.230 OA 
BRANCH  15  17
HETATM   17  C   UNL     1      -7.495  14.778  68.279  1.00  0.00    -0.115 C  
HETATM   18  O   UNL     1      -8.274  13.942  67.423  1.00  0.00    -0.171 OA 
HETATM   19  H   UNL     1      -7.737  13.343  66.918  1.00  0.00     0.000 HD 
ENDBRANCH  15  17
ENDBRANCH   8  12
TORSDOF 2
ENDMDL
MODEL       50
REMARK 921   NORMALIZED FREE ENERGY PREDICTED BY IDOCK:   -4.53 KCAL/MOL
REMARK 922        TOTAL FREE ENERGY PREDICTED BY IDOCK:   -5.01 KCAL/MOL
REMARK 923 INTER-LIGAND FREE ENERGY PREDICTED BY IDOCK:   -5.26 KCAL/MOL
REMARK 924 INTRA-LIGAND FREE ENERGY PREDICTED BY IDOCK:    0.25 KCAL/MOL
REMARK 927      BINDING AFFINITY PREDICTED BY RF-SCORE:    0.00 PKD
ROOT
HETATM    1  N   UNL     1     -11.470   9.525  71.460  1.00  0.00    -0.391 NA 
HETATM    2  H1  UNL     1     -11.766   9.945  72.341  1.00  0.00     0.000 HD 
HETATM    3  H2  UNL     1     -11.133   8.563  71.420  1.00  0.00     0.000 HD 
HETATM    4  C   UNL     1     -11.544  10.300  70.338  1.00  0.00    -0.328 C  
HETATM    5  N   UNL     1     -11.168   9.765  69.220  1.00  0.00    -0.416 N  
HETATM    6  C   UNL     1     -11.249  10.489  68.055  1.00  0.00    -0.294 C  
HETATM    7  H   UNL     1     -10.812   8.810  69.205  1.00  0.00     0.000 HD 
HETATM    8  N   UNL     1     -11.545  11.861  68.130  1.00  0.00    -0.320 N  
HETATM    9  O   UNL     1     -11.072   9.940  66.969  1.00  0.00    -0.122 OA 
HETATM   10  C   UNL     1     -12.040  11.682  70.439  1.00  0.00    -0.462 C  
HETATM   11  C   UNL     1     -12.006  12.397  69.316  1.00  0.00    -0.253 C  
ENDROOT
BRANCH   8  12
HETATM   12  C   UNL     1     -11.663  12.596  66.859  1.00  0.00    -0.383 C  
HETATM   13  C   UNL     1     -10.377  12.750  66.028  1.00  0.00    -0.276 C  
HETATM   14  S   UNL     1      -9.615  14.240  66.671  1.00  0.00    -0.298 SA 
HETATM   15  C   UNL     1     -11.236  14.935  67.055  1.00  0.00    -0.344 C  
HETATM   16  O   UNL     1     -12.236  13.907  67.075  1.00  0.00    -0.421 OA 
BRANCH  15  17
HETATM   17  C   UNL     1     -11.191  15.686  68.392  1.00  0.00    -0.352 C  
HETATM   18  O   UNL     1     -12.389  15.517  69.150  1.00  0.00    -0.599 OA 
HETATM   19  H   UNL     1     -12.362  15.982  69.977  1.00  0.00     0.000 HD 
ENDBRANCH  15  17
ENDBRANCH   8  12
TORSDOF 2
ENDMDL
MODEL       51
REMARK 921   NORMALIZED FREE ENERGY PREDICTED BY IDOCK:   -4.53 KCAL/MOL
REMARK 922        TOTAL FREE ENERGY PREDICTED BY IDOCK:   -5.01 KCAL/MOL
REMARK 923 INTER-LIGAND FREE ENERGY PREDICTED BY IDOCK:   -5.14 KCAL/MOL
REMARK 924 INTRA-LIGAND FREE ENERGY PREDICTED BY IDOCK:    0.13 KCAL/MOL
REMARK 927      BINDING AFFINITY PREDICTED BY RF-SCORE:    0.00 PKD
ROOT
HETATM    1  N   UNL     1      -6.125  14.004  67.657  1.00  0.00    -0.316 NA 
HETATM    2  H1  UNL     1      -6.191  14.953  68.023  1.00  0.00     0.000 HD 
HETATM    3  H2  UNL     1      -5.232  13.514  67.612  1.00  0.00     0.000 HD 
HETATM    4  C   UNL     1      -7.281  13.414  67.230  1.00  0.00    -0.006 C  
HETATM    5  N   UNL     1      -7.197  12.208  66.765  1.00  0.00    -0.378 N  
HETATM    6  C   UNL     1      -8.331  11.555  66.349  1.00  0.00    -0.118 C  
HETATM    7  H   UNL     1      -6.290  11.744  66.708  1.00  0.00     0.000 HD 
HETATM    8  N   UNL     1      -9.530  12.281  66.244  1.00  0.00    -0.237 N  
HETATM    9  O   UNL     1      -8.296  10.355  66.081  1.00  0.00    -0.138 OA 
HETATM   10  C   UNL     1      -8.551  14.154  67.313  1.00  0.00    -0.231 C  
HETATM   11  C   UNL     1      -9.617  13.541  66.803  1.00  0.00    -0.267 C  
ENDROOT
BRANCH   8  12
HETATM   12  C   UNL     1     -10.735  11.540  65.834  1.00  0.00    -0.272 C  
HETATM   13  C   UNL     1     -10.784  11.055  64.374  1.00  0.00    -0.269 C  
HETATM   14  S   UNL     1     -11.484  12.439  63.475  1.00  0.00    -0.476 SA 
HETATM   15  C   UNL     1     -12.452  12.922  64.919  1.00  0.00    -0.478 C  
HETATM   16  O   UNL     1     -11.930  12.310  66.107  1.00  0.00    -0.579 OA 
BRANCH  15  17
HETATM   17  C   UNL     1     -12.481  14.450  65.054  1.00  0.00    -0.359 C  
HETATM   18  O   UNL     1     -12.535  15.105  63.787  1.00  0.00    -1.020 OA 
HETATM   19  H   UNL     1     -12.554  16.051  63.870  1.00  0.00     0.000 HD 
ENDBRANCH  15  17
ENDBRANCH   8  12
TORSDOF 2
ENDMDL
MODEL       52
REMARK 921   NORMALIZED FREE ENERGY PREDICTED BY IDOCK:   -4.52 KCAL/MOL
REMARK 922        TOTAL FREE ENERGY PREDICTED BY IDOCK:   -5.00 KCAL/MOL
REMARK 923 INTER-LIGAND FREE ENERGY PREDICTED BY IDOCK:   -5.12 KCAL/MOL
REMARK 924 INTRA-LIGAND FREE ENERGY PREDICTED BY IDOCK:    0.12 KCAL/MOL
REMARK 927      BINDING AFFINITY PREDICTED BY RF-SCORE:    0.00 PKD
ROOT
HETATM    1  N   UNL     1     -11.414   9.329  69.821  1.00  0.00    -0.437 NA 
HETATM    2  H1  UNL     1     -11.435   9.279  70.839  1.00  0.00     0.000 HD 
HETATM    3  H2  UNL     1     -11.272   8.495  69.252  1.00  0.00     0.000 HD 
HETATM    4  C   UNL     1     -11.584  10.558  69.249  1.00  0.00    -0.236 C  
HETATM    5  N   UNL     1     -11.557  10.622  67.956  1.00  0.00    -0.421 N  
HETATM    6  C   UNL     1     -11.751  11.827  67.327  1.00  0.00    -0.217 C  
HETATM    7  H   UNL     1     -11.391   9.779  67.406  1.00  0.00     0.000 HD 
HETATM    8  N   UNL     1     -11.772  13.000  68.101  1.00  0.00    -0.334 N  
HETATM    9  O   UNL     1     -11.911  11.874  66.108  1.00  0.00    -0.537 OA 
HETATM   10  C   UNL     1     -11.789  11.738  70.106  1.00  0.00    -0.408 C  
HETATM   11  C   UNL     1     -11.866  12.909  69.476  1.00  0.00    -0.320 C  
ENDROOT
BRANCH   8  12
HETATM   12  C   UNL     1     -12.023  14.270  67.398  1.00  0.00    -0.391 C  
HETATM   13  C   UNL     1     -11.029  14.653  66.288  1.00  0.00    -0.327 C  
HETATM   14  S   UNL     1      -9.728  15.535  67.150  1.00  0.00    -0.225 SA 
HETATM   15  C   UNL     1     -10.912  16.145  68.368  1.00  0.00    -0.341 C  
HETATM   16  O   UNL     1     -12.116  15.367  68.337  1.00  0.00    -0.223 OA 
BRANCH  15  17
HETATM   17  C   UNL     1     -10.287  16.137  69.769  1.00  0.00    -0.244 C  
HETATM   18  O   UNL     1      -9.292  15.123  69.913  1.00  0.00    -0.463 OA 
HETATM   19  H   UNL     1      -8.905  15.118  70.780  1.00  0.00     0.000 HD 
ENDBRANCH  15  17
ENDBRANCH   8  12
TORSDOF 2
ENDMDL
MODEL       53
REMARK 921   NORMALIZED FREE ENERGY PREDICTED BY IDOCK:   -4.50 KCAL/MOL
REMARK 922        TOTAL FREE ENERGY PREDICTED BY IDOCK:   -4.99 KCAL/MOL
REMARK 923 INTER-LIGAND FREE ENERGY PREDICTED BY IDOCK:   -5.16 KCAL/MOL
REMARK 924 INTRA-LIGAND FREE ENERGY PREDICTED BY IDOCK:    0.17 KCAL/MOL
REMARK 927      BINDING AFFINITY PREDICTED BY RF-SCORE:    0.00 PKD
ROOT
HETATM    1  N   UNL     1      -6.073  16.023  67.009  1.00  0.00    -0.324 NA 
HETATM    2  H1  UNL     1      -6.039  16.934  66.552  1.00  0.00     0.000 HD 
HETATM    3  H2  UNL     1      -5.232  15.587  67.385  1.00  0.00     0.000 HD 
HETATM    4  C   UNL     1      -7.291  15.411  67.096  1.00  0.00    -0.168 C  
HETATM    5  N   UNL     1      -7.335  14.254  67.676  1.00  0.00    -0.165 N  
HETATM    6  C   UNL     1      -8.537  13.605  67.819  1.00  0.00    -0.182 C  
HETATM    7  H   UNL     1      -6.478  13.824  68.026  1.00  0.00     0.000 HD 
HETATM    8  N   UNL     1      -9.665  14.116  67.152  1.00  0.00    -0.241 N  
HETATM    9  O   UNL     1      -8.623  12.602  68.524  1.00  0.00    -0.146 OA 
HETATM   10  C   UNL     1      -8.483  16.075  66.543  1.00  0.00    -0.348 C  
HETATM   11  C   UNL     1      -9.616  15.378  66.596  1.00  0.00    -0.256 C  
ENDROOT
BRANCH   8  12
HETATM   12  C   UNL     1     -10.946  13.419  67.361  1.00  0.00    -0.272 C  
HETATM   13  C   UNL     1     -11.025  11.960  66.875  1.00  0.00    -0.289 C  
HETATM   14  S   UNL     1     -11.524  12.096  65.159  1.00  0.00    -0.299 SA 
HETATM   15  C   UNL     1     -12.452  13.601  65.520  1.00  0.00    -0.503 C  
HETATM   16  O   UNL     1     -12.038  14.163  66.772  1.00  0.00    -0.429 OA 
BRANCH  15  17
HETATM   17  C   UNL     1     -12.289  14.614  64.379  1.00  0.00    -0.398 C  
HETATM   18  O   UNL     1     -12.526  14.030  63.098  1.00  0.00    -1.137 OA 
HETATM   19  H   UNL     1     -12.425  14.657  62.391  1.00  0.00     0.000 HD 
ENDBRANCH  15  17
ENDBRANCH   8  12
TORSDOF 2
ENDMDL
MODEL       54
REMARK 921   NORMALIZED FREE ENERGY PREDICTED BY IDOCK:   -4.50 KCAL/MOL
REMARK 922        TOTAL FREE ENERGY PREDICTED BY IDOCK:   -4.99 KCAL/MOL
REMARK 923 INTER-LIGAND FREE ENERGY PREDICTED BY IDOCK:   -5.11 KCAL/MOL
REMARK 924 INTRA-LIGAND FREE ENERGY PREDICTED BY IDOCK:    0.12 KCAL/MOL
REMARK 927      BINDING AFFINITY PREDICTED BY RF-SCORE:    0.00 PKD
ROOT
HETATM    1  N   UNL     1      -8.599  18.784  67.079  1.00  0.00    -0.275 NA 
HETATM    2  H1  UNL     1      -7.810  18.686  67.718  1.00  0.00     0.000 HD 
HETATM    3  H2  UNL     1      -8.993  19.699  66.861  1.00  0.00     0.000 HD 
HETATM    4  C   UNL     1      -9.105  17.642  66.526  1.00  0.00    -0.265 C  
HETATM    5  N   UNL     1     -10.107  17.767  65.715  1.00  0.00    -0.148 N  
HETATM    6  C   UNL     1     -10.637  16.656  65.107  1.00  0.00    -0.161 C  
HETATM    7  H   UNL     1     -10.501  18.689  65.528  1.00  0.00     0.000 HD 
HETATM    8  N   UNL     1     -10.216  15.385  65.534  1.00  0.00    -0.361 N  
HETATM    9  O   UNL     1     -11.460  16.776  64.201  1.00  0.00    -1.171 OA 
HETATM   10  C   UNL     1      -8.505  16.341  66.864  1.00  0.00    -0.257 C  
HETATM   11  C   UNL     1      -9.106  15.270  66.348  1.00  0.00    -0.312 C  
ENDROOT
BRANCH   8  12
HETATM   12  C   UNL     1     -10.775  14.217  64.832  1.00  0.00    -0.428 C  
HETATM   13  C   UNL     1     -12.088  13.639  65.391  1.00  0.00    -0.403 C  
HETATM   14  S   UNL     1     -11.556  12.472  66.643  1.00  0.00    -0.379 SA 
HETATM   15  C   UNL     1     -10.048  12.123  65.715  1.00  0.00    -0.247 C  
HETATM   16  O   UNL     1      -9.799  13.152  64.748  1.00  0.00    -0.154 OA 
BRANCH  15  17
HETATM   17  C   UNL     1      -8.859  11.965  66.671  1.00  0.00    -0.191 C  
HETATM   18  O   UNL     1      -7.643  11.677  65.980  1.00  0.00    -0.358 OA 
HETATM   19  H   UNL     1      -6.906  11.580  66.571  1.00  0.00     0.000 HD 
ENDBRANCH  15  17
ENDBRANCH   8  12
TORSDOF 2
ENDMDL
MODEL       55
REMARK 921   NORMALIZED FREE ENERGY PREDICTED BY IDOCK:   -4.47 KCAL/MOL
REMARK 922        TOTAL FREE ENERGY PREDICTED BY IDOCK:   -4.95 KCAL/MOL
REMARK 923 INTER-LIGAND FREE ENERGY PREDICTED BY IDOCK:   -5.01 KCAL/MOL
REMARK 924 INTRA-LIGAND FREE ENERGY PREDICTED BY IDOCK:    0.06 KCAL/MOL
REMARK 927      BINDING AFFINITY PREDICTED BY RF-SCORE:    0.00 PKD
ROOT
HETATM    1  N   UNL     1     -12.058   8.285  72.872  1.00  0.00    -0.582 NA 
HETATM    2  H1  UNL     1     -12.683   8.751  73.530  1.00  0.00     0.000 HD 
HETATM    3  H2  UNL     1     -11.599   7.406  73.109  1.00  0.00     0.000 HD 
HETATM    4  C   UNL     1     -11.858   8.887  71.662  1.00  0.00    -0.345 C  
HETATM    5  N   UNL     1     -11.064   8.297  70.828  1.00  0.00    -0.255 N  
HETATM    6  C   UNL     1     -10.850   8.842  69.585  1.00  0.00    -0.169 C  
HETATM    7  H   UNL     1     -10.597   7.429  71.092  1.00  0.00     0.000 HD 
HETATM    8  N   UNL     1     -11.336  10.133  69.319  1.00  0.00    -0.193 N  
HETATM    9  O   UNL     1     -10.250   8.204  68.721  1.00  0.00    -0.199 OA 
HETATM   10  C   UNL     1     -12.541  10.156  71.358  1.00  0.00    -0.526 C  
HETATM   11  C   UNL     1     -12.232  10.719  70.191  1.00  0.00    -0.346 C  
ENDROOT
BRANCH   8  12
HETATM   12  C   UNL     1     -11.124  10.670  67.964  1.00  0.00    -0.301 C  
HETATM   13  C   UNL     1      -9.692  11.113  67.613  1.00  0.00    -0.170 C  
HETATM   14  S   UNL     1      -9.613  12.818  68.162  1.00  0.00    -0.216 SA 
HETATM   15  C   UNL     1     -11.370  13.038  67.815  1.00  0.00    -0.292 C  
HETATM   16  O   UNL     1     -12.027  11.768  67.699  1.00  0.00    -0.599 OA 
BRANCH  15  17
HETATM   17  C   UNL     1     -12.025  13.899  68.903  1.00  0.00    -0.358 C  
HETATM   18  O   UNL     1     -11.181  14.065  70.043  1.00  0.00    -0.456 OA 
HETATM   19  H   UNL     1     -11.586  14.598  70.717  1.00  0.00     0.000 HD 
ENDBRANCH  15  17
ENDBRANCH   8  12
TORSDOF 2
ENDMDL
MODEL       56
REMARK 921   NORMALIZED FREE ENERGY PREDICTED BY IDOCK:   -4.45 KCAL/MOL
REMARK 922        TOTAL FREE ENERGY PREDICTED BY IDOCK:   -4.93 KCAL/MOL
REMARK 923 INTER-LIGAND FREE ENERGY PREDICTED BY IDOCK:   -5.12 KCAL/MOL
REMARK 924 INTRA-LIGAND FREE ENERGY PREDICTED BY IDOCK:    0.19 KCAL/MOL
REMARK 927      BINDING AFFINITY PREDICTED BY RF-SCORE:    0.00 PKD
ROOT
HETATM    1  N   UNL     1     -11.330  12.262  66.754  1.00  0.00    -0.318 NA 
HETATM    2  H1  UNL     1     -12.000  13.023  66.862  1.00  0.00     0.000 HD 
HETATM    3  H2  UNL     1     -10.833  12.115  65.876  1.00  0.00     0.000 HD 
HETATM    4  C   UNL     1     -11.124  11.449  67.832  1.00  0.00    -0.261 C  
HETATM    5  N   UNL     1     -10.272  10.483  67.695  1.00  0.00    -0.188 N  
HETATM    6  C   UNL     1     -10.004   9.652  68.755  1.00  0.00    -0.173 C  
HETATM    7  H   UNL     1      -9.802  10.339  66.801  1.00  0.00     0.000 HD 
HETATM    8  N   UNL     1     -10.808   9.740  69.904  1.00  0.00    -0.255 N  
HETATM    9  O   UNL     1      -9.071   8.853  68.698  1.00  0.00    -0.137 OA 
HETATM   10  C   UNL     1     -11.859  11.697  69.083  1.00  0.00    -0.390 C  
HETATM   11  C   UNL     1     -11.663  10.813  70.060  1.00  0.00    -0.336 C  
ENDROOT
BRANCH   8  12
HETATM   12  C   UNL     1     -10.466   8.863  71.037  1.00  0.00    -0.248 C  
HETATM   13  C   UNL     1     -10.503   7.347  70.772  1.00  0.00    -0.212 C  
HETATM   14  S   UNL     1     -12.206   6.887  71.096  1.00  0.00    -0.357 SA 
HETATM   15  C   UNL     1     -12.349   8.189  72.338  1.00  0.00    -0.294 C  
HETATM   16  O   UNL     1     -11.300   9.154  72.183  1.00  0.00    -0.330 OA 
BRANCH  15  17
HETATM   17  C   UNL     1     -13.728   8.856  72.253  1.00  0.00    -0.471 C  
HETATM   18  O   UNL     1     -14.362   8.953  73.529  1.00  0.00    -1.151 OA 
HETATM   19  H   UNL     1     -15.216   9.366  73.477  1.00  0.00     0.000 HD 
ENDBRANCH  15  17
ENDBRANCH   8  12
TORSDOF 2
ENDMDL
MODEL       57
REMARK 921   NORMALIZED FREE ENERGY PREDICTED BY IDOCK:   -4.44 KCAL/MOL
REMARK 922        TOTAL FREE ENERGY PREDICTED BY IDOCK:   -4.91 KCAL/MOL
REMARK 923 INTER-LIGAND FREE ENERGY PREDICTED BY IDOCK:   -4.98 KCAL/MOL
REMARK 924 INTRA-LIGAND FREE ENERGY PREDICTED BY IDOCK:    0.07 KCAL/MOL
REMARK 927      BINDING AFFINITY PREDICTED BY RF-SCORE:    0.00 PKD
ROOT
HETATM    1  N   UNL     1     -13.630  10.057  72.451  1.00  0.00    -0.599 NA 
HETATM    2  H1  UNL     1     -13.500   9.051  72.348  1.00  0.00     0.000 HD 
HETATM    3  H2  UNL     1     -14.233  10.441  73.178  1.00  0.00     0.000 HD 
HETATM    4  C   UNL     1     -12.966  10.869  71.576  1.00  0.00    -0.451 C  
HETATM    5  N   UNL     1     -13.132  12.146  71.706  1.00  0.00    -0.420 N  
HETATM    6  C   UNL     1     -12.465  13.011  70.873  1.00  0.00    -0.310 C  
HETATM    7  H   UNL     1     -13.757  12.510  72.426  1.00  0.00     0.000 HD 
HETATM    8  N   UNL     1     -11.776  12.488  69.766  1.00  0.00    -0.305 N  
HETATM    9  O   UNL     1     -12.468  14.220  71.100  1.00  0.00    -0.319 OA 
HETATM   10  C   UNL     1     -12.103  10.274  70.542  1.00  0.00    -0.401 C  
HETATM   11  C   UNL     1     -11.555  11.128  69.679  1.00  0.00    -0.326 C  
ENDROOT
BRANCH   8  12
HETATM   12  C   UNL     1     -11.039  13.440  68.917  1.00  0.00    -0.266 C  
HETATM   13  C   UNL     1     -11.877  14.294  67.949  1.00  0.00    -0.358 C  
HETATM   14  S   UNL     1     -12.012  13.282  66.475  1.00  0.00    -0.375 SA 
HETATM   15  C   UNL     1     -10.396  12.546  66.800  1.00  0.00    -0.226 C  
HETATM   16  O   UNL     1     -10.006  12.763  68.163  1.00  0.00    -0.218 OA 
BRANCH  15  17
HETATM   17  C   UNL     1     -10.415  11.050  66.463  1.00  0.00    -0.257 C  
HETATM   18  O   UNL     1      -9.301  10.354  67.024  1.00  0.00    -0.152 OA 
HETATM   19  H   UNL     1      -9.312   9.428  66.816  1.00  0.00     0.000 HD 
ENDBRANCH  15  17
ENDBRANCH   8  12
TORSDOF 2
ENDMDL
MODEL       58
REMARK 921   NORMALIZED FREE ENERGY PREDICTED BY IDOCK:   -4.42 KCAL/MOL
REMARK 922        TOTAL FREE ENERGY PREDICTED BY IDOCK:   -4.89 KCAL/MOL
REMARK 923 INTER-LIGAND FREE ENERGY PREDICTED BY IDOCK:   -5.07 KCAL/MOL
REMARK 924 INTRA-LIGAND FREE ENERGY PREDICTED BY IDOCK:    0.18 KCAL/MOL
REMARK 927      BINDING AFFINITY PREDICTED BY RF-SCORE:    0.00 PKD
ROOT
HETATM    1  N   UNL     1     -12.533  13.887  63.068  1.00  0.00    -1.009 NA 
HETATM    2  H1  UNL     1     -12.336  14.658  62.429  1.00  0.00     0.000 HD 
HETATM    3  H2  UNL     1     -13.118  13.101  62.785  1.00  0.00     0.000 HD 
HETATM    4  C   UNL     1     -11.984  13.950  64.317  1.00  0.00    -0.444 C  
HETATM    5  N   UNL     1     -12.235  12.972  65.127  1.00  0.00    -0.432 N  
HETATM    6  C   UNL     1     -11.684  12.968  66.386  1.00  0.00    -0.390 C  
HETATM    7  H   UNL     1     -12.840  12.206  64.832  1.00  0.00     0.000 HD 
HETATM    8  N   UNL     1     -11.026  14.124  66.840  1.00  0.00    -0.296 N  
HETATM    9  O   UNL     1     -11.761  11.967  67.095  1.00  0.00    -0.528 OA 
HETATM   10  C   UNL     1     -11.143  15.101  64.686  1.00  0.00    -0.338 C  
HETATM   11  C   UNL     1     -10.711  15.127  65.945  1.00  0.00    -0.334 C  
ENDROOT
BRANCH   8  12
HETATM   12  C   UNL     1     -10.412  14.070  68.178  1.00  0.00    -0.243 C  
HETATM   13  C   UNL     1      -9.421  15.194  68.529  1.00  0.00    -0.203 C  
HETATM   14  S   UNL     1      -7.845  14.594  67.922  1.00  0.00    -0.153 SA 
HETATM   15  C   UNL     1      -8.340  12.889  68.242  1.00  0.00    -0.157 C  
HETATM   16  O   UNL     1      -9.764  12.795  68.395  1.00  0.00    -0.223 OA 
BRANCH  15  17
HETATM   17  C   UNL     1      -7.846  11.970  67.117  1.00  0.00    -0.168 C  
HETATM   18  O   UNL     1      -8.891  11.158  66.582  1.00  0.00    -0.156 OA 
HETATM   19  H   UNL     1      -8.585  10.589  65.886  1.00  0.00     0.000 HD 
ENDBRANCH  15  17
ENDBRANCH   8  12
TORSDOF 2
ENDMDL
MODEL       59
REMARK 921   NORMALIZED FREE ENERGY PREDICTED BY IDOCK:   -4.36 KCAL/MOL
REMARK 922        TOTAL FREE ENERGY PREDICTED BY IDOCK:   -4.83 KCAL/MOL
REMARK 923 INTER-LIGAND FREE ENERGY PREDICTED BY IDOCK:   -5.07 KCAL/MOL
REMARK 924 INTRA-LIGAND FREE ENERGY PREDICTED BY IDOCK:    0.25 KCAL/MOL
REMARK 927      BINDING AFFINITY PREDICTED BY RF-SCORE:    0.00 PKD
ROOT
HETATM    1  N   UNL     1     -11.418  16.148  64.000  1.00  0.00    -1.425 NA 
HETATM    2  H1  UNL     1     -11.342  15.150  63.804  1.00  0.00     0.000 HD 
HETATM    3  H2  UNL     1     -11.942  16.771  63.385  1.00  0.00     0.000 HD 
HETATM    4  C   UNL     1     -10.790  16.618  65.119  1.00  0.00    -0.186 C  
HETATM    5  N   UNL     1     -10.886  17.885  65.367  1.00  0.00    -0.068 N  
HETATM    6  C   UNL     1     -10.299  18.407  66.494  1.00  0.00    -0.400 C  
HETATM    7  H   UNL     1     -11.395  18.495  64.727  1.00  0.00     0.000 HD 
HETATM    8  N   UNL     1      -9.434  17.594  67.246  1.00  0.00    -0.253 N  
HETATM    9  O   UNL     1     -10.534  19.564  66.839  1.00  0.00    -0.415 OA 
HETATM   10  C   UNL     1     -10.045  15.686  65.982  1.00  0.00    -0.355 C  
HETATM   11  C   UNL     1      -9.395  16.234  67.007  1.00  0.00    -0.221 C  
ENDROOT
BRANCH   8  12
HETATM   12  C   UNL     1      -8.855  18.173  68.470  1.00  0.00    -0.299 C  
HETATM   13  C   UNL     1      -8.198  19.558  68.334  1.00  0.00    -0.344 C  
HETATM   14  S   UNL     1      -6.508  19.197  67.858  1.00  0.00    -0.228 SA 
HETATM   15  C   UNL     1      -6.549  17.650  68.786  1.00  0.00    -0.218 C  
HETATM   16  O   UNL     1      -7.901  17.264  69.067  1.00  0.00    -0.236 OA 
BRANCH  15  17
HETATM   17  C   UNL     1      -5.809  16.548  68.017  1.00  0.00    -0.117 C  
HETATM   18  O   UNL     1      -6.084  16.586  66.616  1.00  0.00    -0.307 OA 
HETATM   19  H   UNL     1      -5.626  15.904  66.140  1.00  0.00     0.000 HD 
ENDBRANCH  15  17
ENDBRANCH   8  12
TORSDOF 2
ENDMDL
MODEL       60
REMARK 921   NORMALIZED FREE ENERGY PREDICTED BY IDOCK:   -4.34 KCAL/MOL
REMARK 922        TOTAL FREE ENERGY PREDICTED BY IDOCK:   -4.80 KCAL/MOL
REMARK 923 INTER-LIGAND FREE ENERGY PREDICTED BY IDOCK:   -5.04 KCAL/MOL
REMARK 924 INTRA-LIGAND FREE ENERGY PREDICTED BY IDOCK:    0.24 KCAL/MOL
REMARK 927      BINDING AFFINITY PREDICTED BY RF-SCORE:    0.00 PKD
ROOT
HETATM    1  N   UNL     1      -9.369  19.240  66.175  1.00  0.00    -0.425 NA 
HETATM    2  H1  UNL     1      -9.144  19.312  65.182  1.00  0.00     0.000 HD 
HETATM    3  H2  UNL     1      -9.341  20.057  66.784  1.00  0.00     0.000 HD 
HETATM    4  C   UNL     1      -9.708  18.007  66.654  1.00  0.00    -0.332 C  
HETATM    5  N   UNL     1      -9.994  17.916  67.914  1.00  0.00    -0.313 N  
HETATM    6  C   UNL     1     -10.371  16.707  68.444  1.00  0.00    -0.299 C  
HETATM    7  H   UNL     1      -9.938  18.741  68.511  1.00  0.00     0.000 HD 
HETATM    8  N   UNL     1     -10.241  15.552  67.654  1.00  0.00    -0.252 N  
HETATM    9  O   UNL     1     -10.819  16.641  69.587  1.00  0.00    -0.341 OA 
HETATM   10  C   UNL     1      -9.739  16.853  65.740  1.00  0.00    -0.123 C  
HETATM   11  C   UNL     1     -10.000  15.673  66.300  1.00  0.00    -0.295 C  
ENDROOT
BRANCH   8  12
HETATM   12  C   UNL     1     -10.693  14.278  68.240  1.00  0.00    -0.247 C  
HETATM   13  C   UNL     1      -9.740  13.077  68.101  1.00  0.00    -0.228 C  
HETATM   14  S   UNL     1     -10.173  12.355  66.518  1.00  0.00    -0.231 SA 
HETATM   15  C   UNL     1     -11.887  12.884  66.715  1.00  0.00    -0.385 C  
HETATM   16  O   UNL     1     -11.990  13.904  67.720  1.00  0.00    -0.358 OA 
BRANCH  15  17
HETATM   17  C   UNL     1     -12.452  13.372  65.375  1.00  0.00    -0.494 C  
HETATM   18  O   UNL     1     -13.393  12.455  64.818  1.00  0.00    -0.718 OA 
HETATM   19  H   UNL     1     -13.743  12.756  63.988  1.00  0.00     0.000 HD 
ENDBRANCH  15  17
ENDBRANCH   8  12
TORSDOF 2
ENDMDL
MODEL       61
REMARK 921   NORMALIZED FREE ENERGY PREDICTED BY IDOCK:   -4.34 KCAL/MOL
REMARK 922        TOTAL FREE ENERGY PREDICTED BY IDOCK:   -4.80 KCAL/MOL
REMARK 923 INTER-LIGAND FREE ENERGY PREDICTED BY IDOCK:   -5.31 KCAL/MOL
REMARK 924 INTRA-LIGAND FREE ENERGY PREDICTED BY IDOCK:    0.52 KCAL/MOL
REMARK 927      BINDING AFFINITY PREDICTED BY RF-SCORE:    0.00 PKD
ROOT
HETATM    1  N   UNL     1     -11.489  16.899  64.116  1.00  0.00    -1.232 NA 
HETATM    2  H1  UNL     1     -11.407  17.799  64.589  1.00  0.00     0.000 HD 
HETATM    3  H2  UNL     1     -11.938  16.819  63.204  1.00  0.00     0.000 HD 
HETATM    4  C   UNL     1     -10.974  15.805  64.753  1.00  0.00    -0.393 C  
HETATM    5  N   UNL     1     -11.079  14.663  64.153  1.00  0.00    -0.515 N  
HETATM    6  C   UNL     1     -10.553  13.535  64.733  1.00  0.00    -0.417 C  
HETATM    7  H   UNL     1     -11.551  14.601  63.251  1.00  0.00     0.000 HD 
HETATM    8  N   UNL     1     -10.092  13.608  66.059  1.00  0.00    -0.305 N  
HETATM    9  O   UNL     1     -10.481  12.484  64.098  1.00  0.00    -0.351 OA 
HETATM   10  C   UNL     1     -10.331  15.964  66.068  1.00  0.00    -0.363 C  
HETATM   11  C   UNL     1      -9.927  14.841  66.658  1.00  0.00    -0.264 C  
ENDROOT
BRANCH   8  12
HETATM   12  C   UNL     1      -9.498  12.390  66.636  1.00  0.00    -0.232 C  
HETATM   13  C   UNL     1     -10.160  11.053  66.260  1.00  0.00    -0.235 C  
HETATM   14  S   UNL     1     -11.455  10.846  67.483  1.00  0.00    -0.010 SA 
HETATM   15  C   UNL     1     -10.472  11.731  68.711  1.00  0.00    -0.198 C  
HETATM   16  O   UNL     1      -9.429  12.485  68.078  1.00  0.00    -0.196 OA 
BRANCH  15  17
HETATM   17  C   UNL     1     -11.372  12.639  69.560  1.00  0.00    -0.158 C  
HETATM   18  O   UNL     1     -11.802  12.004  70.764  1.00  0.00    -0.447 OA 
HETATM   19  H   UNL     1     -12.359  12.566  71.289  1.00  0.00     0.000 HD 
ENDBRANCH  15  17
ENDBRANCH   8  12
TORSDOF 2
ENDMDL
MODEL       62
REMARK 921   NORMALIZED FREE ENERGY PREDICTED BY IDOCK:   -4.33 KCAL/MOL
REMARK 922        TOTAL FREE ENERGY PREDICTED BY IDOCK:   -4.80 KCAL/MOL
REMARK 923 INTER-LIGAND FREE ENERGY PREDICTED BY IDOCK:   -5.03 KCAL/MOL
REMARK 924 INTRA-LIGAND FREE ENERGY PREDICTED BY IDOCK:    0.23 KCAL/MOL
REMARK 927      BINDING AFFINITY PREDICTED BY RF-SCORE:    0.00 PKD
ROOT
HETATM    1  N   UNL     1      -8.017  20.943  66.884  1.00  0.00    -0.572 NA 
HETATM    2  H1  UNL     1      -8.550  21.597  66.311  1.00  0.00     0.000 HD 
HETATM    3  H2  UNL     1      -7.075  21.164  67.204  1.00  0.00     0.000 HD 
HETATM    4  C   UNL     1      -8.617  19.759  67.208  1.00  0.00    -0.321 C  
HETATM    5  N   UNL     1      -7.941  18.929  67.936  1.00  0.00    -0.265 N  
HETATM    6  C   UNL     1      -8.506  17.736  68.317  1.00  0.00    -0.277 C  
HETATM    7  H   UNL     1      -6.991  19.160  68.226  1.00  0.00     0.000 HD 
HETATM    8  N   UNL     1      -9.728  17.351  67.739  1.00  0.00    -0.262 N  
HETATM    9  O   UNL     1      -7.953  17.025  69.153  1.00  0.00    -0.192 OA 
HETATM   10  C   UNL     1      -9.981  19.479  66.729  1.00  0.00    -0.501 C  
HETATM   11  C   UNL     1     -10.464  18.272  67.020  1.00  0.00    -0.385 C  
ENDROOT
BRANCH   8  12
HETATM   12  C   UNL     1     -10.325  16.086  68.200  1.00  0.00    -0.260 C  
HETATM   13  C   UNL     1      -9.415  14.845  68.177  1.00  0.00    -0.202 C  
HETATM   14  S   UNL     1      -9.614  14.187  66.521  1.00  0.00    -0.292 SA 
HETATM   15  C   UNL     1     -11.313  14.793  66.455  1.00  0.00    -0.344 C  
HETATM   16  O   UNL     1     -11.534  15.789  67.463  1.00  0.00    -0.216 OA 
BRANCH  15  17
HETATM   17  C   UNL     1     -11.629  15.344  65.058  1.00  0.00    -0.189 C  
HETATM   18  O   UNL     1     -10.538  16.083  64.508  1.00  0.00    -0.754 OA 
HETATM   19  H   UNL     1     -10.734  16.424  63.643  1.00  0.00     0.000 HD 
ENDBRANCH  15  17
ENDBRANCH   8  12
TORSDOF 2
ENDMDL
MODEL       63
REMARK 921   NORMALIZED FREE ENERGY PREDICTED BY IDOCK:   -4.30 KCAL/MOL
REMARK 922        TOTAL FREE ENERGY PREDICTED BY IDOCK:   -4.76 KCAL/MOL
REMARK 923 INTER-LIGAND FREE ENERGY PREDICTED BY IDOCK:   -5.09 KCAL/MOL
REMARK 924 INTRA-LIGAND FREE ENERGY PREDICTED BY IDOCK:    0.33 KCAL/MOL
REMARK 927      BINDING AFFINITY PREDICTED BY RF-SCORE:    0.00 PKD
ROOT
HETATM    1  N   UNL     1     -10.837   9.346  70.677  1.00  0.00    -0.258 NA 
HETATM    2  H1  UNL     1     -11.764   9.100  71.022  1.00  0.00     0.000 HD 
HETATM    3  H2  UNL     1     -10.010   8.821  70.959  1.00  0.00     0.000 HD 
HETATM    4  C   UNL     1     -10.747  10.408  69.822  1.00  0.00    -0.278 C  
HETATM    5  N   UNL     1      -9.569  10.722  69.385  1.00  0.00    -0.410 N  
HETATM    6  C   UNL     1      -9.423  11.762  68.500  1.00  0.00    -0.163 C  
HETATM    7  H   UNL     1      -8.752  10.198  69.697  1.00  0.00     0.000 HD 
HETATM    8  N   UNL     1     -10.526  12.594  68.246  1.00  0.00    -0.233 N  
HETATM    9  O   UNL     1      -8.347  11.953  67.937  1.00  0.00    -0.136 OA 
HETATM   10  C   UNL     1     -11.966  11.139  69.437  1.00  0.00    -0.420 C  
HETATM   11  C   UNL     1     -11.784  12.209  68.666  1.00  0.00    -0.330 C  
ENDROOT
BRANCH   8  12
HETATM   12  C   UNL     1     -10.345  13.675  67.261  1.00  0.00    -0.249 C  
HETATM   13  C   UNL     1     -11.592  14.508  66.913  1.00  0.00    -0.385 C  
HETATM   14  S   UNL     1     -12.370  13.597  65.579  1.00  0.00    -0.503 SA 
HETATM   15  C   UNL     1     -10.763  13.007  65.009  1.00  0.00    -0.315 C  
HETATM   16  O   UNL     1      -9.773  13.162  66.035  1.00  0.00    -0.279 OA 
BRANCH  15  17
HETATM   17  C   UNL     1     -10.862  11.545  64.556  1.00  0.00    -0.327 C  
HETATM   18  O   UNL     1     -11.175  11.427  63.168  1.00  0.00    -0.808 OA 
HETATM   19  H   UNL     1     -11.237  10.522  62.887  1.00  0.00     0.000 HD 
ENDBRANCH  15  17
ENDBRANCH   8  12
TORSDOF 2
ENDMDL
MODEL       64
REMARK 921   NORMALIZED FREE ENERGY PREDICTED BY IDOCK:   -4.30 KCAL/MOL
REMARK 922        TOTAL FREE ENERGY PREDICTED BY IDOCK:   -4.76 KCAL/MOL
REMARK 923 INTER-LIGAND FREE ENERGY PREDICTED BY IDOCK:   -4.94 KCAL/MOL
REMARK 924 INTRA-LIGAND FREE ENERGY PREDICTED BY IDOCK:    0.19 KCAL/MOL
REMARK 927      BINDING AFFINITY PREDICTED BY RF-SCORE:    0.00 PKD
ROOT
HETATM    1  N   UNL     1      -9.451   8.610  66.616  1.00  0.00    -0.189 NA 
HETATM    2  H1  UNL     1      -8.834   8.304  65.864  1.00  0.00     0.000 HD 
HETATM    3  H2  UNL     1      -9.549   8.068  67.474  1.00  0.00     0.000 HD 
HETATM    4  C   UNL     1     -10.139   9.775  66.429  1.00  0.00    -0.243 C  
HETATM    5  N   UNL     1     -10.922  10.164  67.384  1.00  0.00    -0.276 N  
HETATM    6  C   UNL     1     -11.616  11.343  67.262  1.00  0.00    -0.149 C  
HETATM    7  H   UNL     1     -11.024   9.596  68.225  1.00  0.00     0.000 HD 
HETATM    8  N   UNL     1     -11.620  12.001  66.020  1.00  0.00    -0.355 N  
HETATM    9  O   UNL     1     -12.215  11.815  68.227  1.00  0.00    -0.486 OA 
HETATM   10  C   UNL     1      -9.967  10.530  65.176  1.00  0.00    -0.375 C  
HETATM   11  C   UNL     1     -10.732  11.611  65.037  1.00  0.00    -0.296 C  
ENDROOT
BRANCH   8  12
HETATM   12  C   UNL     1     -12.341  13.283  65.937  1.00  0.00    -0.418 C  
HETATM   13  C   UNL     1     -12.010  14.184  64.733  1.00  0.00    -0.431 C  
HETATM   14  S   UNL     1     -10.607  15.154  65.285  1.00  0.00    -0.432 SA 
HETATM   15  C   UNL     1     -11.203  15.098  66.987  1.00  0.00    -0.308 C  
HETATM   16  O   UNL     1     -12.168  14.050  67.152  1.00  0.00    -0.419 OA 
BRANCH  15  17
HETATM   17  C   UNL     1     -10.028  14.923  67.958  1.00  0.00    -0.220 C  
HETATM   18  O   UNL     1     -10.345  14.047  69.041  1.00  0.00    -0.346 OA 
HETATM   19  H   UNL     1      -9.618  13.939  69.642  1.00  0.00     0.000 HD 
ENDBRANCH  15  17
ENDBRANCH   8  12
TORSDOF 2
ENDMDL
MODEL       65
REMARK 921   NORMALIZED FREE ENERGY PREDICTED BY IDOCK:   -4.29 KCAL/MOL
REMARK 922        TOTAL FREE ENERGY PREDICTED BY IDOCK:   -4.75 KCAL/MOL
REMARK 923 INTER-LIGAND FREE ENERGY PREDICTED BY IDOCK:   -4.86 KCAL/MOL
REMARK 924 INTRA-LIGAND FREE ENERGY PREDICTED BY IDOCK:    0.11 KCAL/MOL
REMARK 927      BINDING AFFINITY PREDICTED BY RF-SCORE:    0.00 PKD
ROOT
HETATM    1  N   UNL     1     -10.256   7.201  66.645  1.00  0.00    -0.434 NA 
HETATM    2  H1  UNL     1     -10.896   6.944  67.397  1.00  0.00     0.000 HD 
HETATM    3  H2  UNL     1      -9.739   6.493  66.124  1.00  0.00     0.000 HD 
HETATM    4  C   UNL     1     -10.120   8.530  66.364  1.00  0.00    -0.201 C  
HETATM    5  N   UNL     1      -9.308   8.856  65.409  1.00  0.00    -0.433 N  
HETATM    6  C   UNL     1      -9.154  10.177  65.064  1.00  0.00    -0.205 C  
HETATM    7  H   UNL     1      -8.783   8.134  64.916  1.00  0.00     0.000 HD 
HETATM    8  N   UNL     1      -9.725  11.163  65.886  1.00  0.00    -0.219 N  
HETATM    9  O   UNL     1      -8.534  10.486  64.048  1.00  0.00    -0.168 OA 
HETATM   10  C   UNL     1     -10.887   9.521  67.137  1.00  0.00    -0.156 C  
HETATM   11  C   UNL     1     -10.638  10.799  66.856  1.00  0.00    -0.258 C  
ENDROOT
BRANCH   8  12
HETATM   12  C   UNL     1      -9.575  12.566  65.463  1.00  0.00    -0.043 C  
HETATM   13  C   UNL     1     -10.132  13.638  66.417  1.00  0.00    -0.295 C  
HETATM   14  S   UNL     1     -11.849  13.809  65.929  1.00  0.00    -0.406 SA 
HETATM   15  C   UNL     1     -11.432  13.403  64.221  1.00  0.00    -0.393 C  
HETATM   16  O   UNL     1     -10.146  12.771  64.150  1.00  0.00    -0.350 OA 
BRANCH  15  17
HETATM   17  C   UNL     1     -12.518  12.512  63.605  1.00  0.00    -0.470 C  
HETATM   18  O   UNL     1     -12.009  11.244  63.190  1.00  0.00    -0.830 OA 
HETATM   19  H   UNL     1     -12.681  10.693  62.808  1.00  0.00     0.000 HD 
ENDBRANCH  15  17
ENDBRANCH   8  12
TORSDOF 2
ENDMDL
MODEL       66
REMARK 921   NORMALIZED FREE ENERGY PREDICTED BY IDOCK:   -4.28 KCAL/MOL
REMARK 922        TOTAL FREE ENERGY PREDICTED BY IDOCK:   -4.74 KCAL/MOL
REMARK 923 INTER-LIGAND FREE ENERGY PREDICTED BY IDOCK:   -4.89 KCAL/MOL
REMARK 924 INTRA-LIGAND FREE ENERGY PREDICTED BY IDOCK:    0.15 KCAL/MOL
REMARK 927      BINDING AFFINITY PREDICTED BY RF-SCORE:    0.00 PKD
ROOT
HETATM    1  N   UNL     1     -12.790  15.452  70.543  1.00  0.00    -0.601 NA 
HETATM    2  H1  UNL     1     -12.818  15.254  71.543  1.00  0.00     0.000 HD 
HETATM    3  H2  UNL     1     -13.062  16.363  70.175  1.00  0.00     0.000 HD 
HETATM    4  C   UNL     1     -12.373  14.447  69.716  1.00  0.00    -0.285 C  
HETATM    5  N   UNL     1     -12.338  14.699  68.446  1.00  0.00    -0.606 N  
HETATM    6  C   UNL     1     -11.899  13.735  67.570  1.00  0.00    -0.387 C  
HETATM    7  H   UNL     1     -12.635  15.609  68.096  1.00  0.00     0.000 HD 
HETATM    8  N   UNL     1     -11.691  12.430  68.049  1.00  0.00    -0.348 N  
HETATM    9  O   UNL     1     -11.685  14.016  66.392  1.00  0.00    -0.355 OA 
HETATM   10  C   UNL     1     -11.987  13.146  70.287  1.00  0.00    -0.366 C  
HETATM   11  C   UNL     1     -11.670  12.196  69.409  1.00  0.00    -0.329 C  
ENDROOT
BRANCH   8  12
HETATM   12  C   UNL     1     -11.182  11.433  67.092  1.00  0.00    -0.296 C  
HETATM   13  C   UNL     1     -10.690  10.099  67.681  1.00  0.00    -0.285 C  
HETATM   14  S   UNL     1      -8.969  10.404  68.082  1.00  0.00    -0.135 SA 
HETATM   15  C   UNL     1      -8.830  11.573  66.714  1.00  0.00    -0.183 C  
HETATM   16  O   UNL     1     -10.129  11.996  66.275  1.00  0.00    -0.213 OA 
BRANCH  15  17
HETATM   17  C   UNL     1      -7.969  12.774  67.124  1.00  0.00    -0.108 C  
HETATM   18  O   UNL     1      -8.563  14.019  66.755  1.00  0.00    -0.396 OA 
HETATM   19  H   UNL     1      -8.030  14.763  67.008  1.00  0.00     0.000 HD 
ENDBRANCH  15  17
ENDBRANCH   8  12
TORSDOF 2
ENDMDL
MODEL       67
REMARK 921   NORMALIZED FREE ENERGY PREDICTED BY IDOCK:   -4.26 KCAL/MOL
REMARK 922        TOTAL FREE ENERGY PREDICTED BY IDOCK:   -4.72 KCAL/MOL
REMARK 923 INTER-LIGAND FREE ENERGY PREDICTED BY IDOCK:   -4.84 KCAL/MOL
REMARK 924 INTRA-LIGAND FREE ENERGY PREDICTED BY IDOCK:    0.12 KCAL/MOL
REMARK 927      BINDING AFFINITY PREDICTED BY RF-SCORE:    0.00 PKD
ROOT
HETATM    1  N   UNL     1      -6.415  10.014  65.845  1.00  0.00    -0.089 NA 
HETATM    2  H1  UNL     1      -6.027  10.094  66.785  1.00  0.00     0.000 HD 
HETATM    3  H2  UNL     1      -5.893   9.565  65.093  1.00  0.00     0.000 HD 
HETATM    4  C   UNL     1      -7.662  10.531  65.635  1.00  0.00    -0.139 C  
HETATM    5  N   UNL     1      -8.155  10.428  64.442  1.00  0.00    -0.271 N  
HETATM    6  C   UNL     1      -9.417  10.904  64.180  1.00  0.00    -0.257 C  
HETATM    7  H   UNL     1      -7.607   9.996  63.698  1.00  0.00     0.000 HD 
HETATM    8  N   UNL     1     -10.066  11.674  65.160  1.00  0.00    -0.252 N  
HETATM    9  O   UNL     1      -9.967  10.652  63.110  1.00  0.00    -0.320 OA 
HETATM   10  C   UNL     1      -8.384  11.168  66.748  1.00  0.00    -0.152 C  
HETATM   11  C   UNL     1      -9.558  11.718  66.443  1.00  0.00    -0.218 C  
ENDROOT
BRANCH   8  12
HETATM   12  C   UNL     1     -11.434  12.134  64.862  1.00  0.00    -0.325 C  
HETATM   13  C   UNL     1     -11.566  13.331  63.904  1.00  0.00    -0.400 C  
HETATM   14  S   UNL     1     -11.456  14.764  64.976  1.00  0.00    -0.394 SA 
HETATM   15  C   UNL     1     -12.218  13.844  66.329  1.00  0.00    -0.461 C  
HETATM   16  O   UNL     1     -12.153  12.433  66.081  1.00  0.00    -0.611 OA 
BRANCH  15  17
HETATM   17  C   UNL     1     -11.546  14.202  67.661  1.00  0.00    -0.365 C  
HETATM   18  O   UNL     1     -12.399  14.971  68.509  1.00  0.00    -0.586 OA 
HETATM   19  H   UNL     1     -11.983  15.192  69.334  1.00  0.00     0.000 HD 
ENDBRANCH  15  17
ENDBRANCH   8  12
TORSDOF 2
ENDMDL
MODEL       68
REMARK 921   NORMALIZED FREE ENERGY PREDICTED BY IDOCK:   -4.23 KCAL/MOL
REMARK 922        TOTAL FREE ENERGY PREDICTED BY IDOCK:   -4.68 KCAL/MOL
REMARK 923 INTER-LIGAND FREE ENERGY PREDICTED BY IDOCK:   -4.96 KCAL/MOL
REMARK 924 INTRA-LIGAND FREE ENERGY PREDICTED BY IDOCK:    0.28 KCAL/MOL
REMARK 927      BINDING AFFINITY PREDICTED BY RF-SCORE:    0.00 PKD
ROOT
HETATM    1  N   UNL     1     -12.496  13.811  62.664  1.00  0.00    -0.594 NA 
HETATM    2  H1  UNL     1     -13.242  14.489  62.814  1.00  0.00     0.000 HD 
HETATM    3  H2  UNL     1     -12.163  13.587  61.727  1.00  0.00     0.000 HD 
HETATM    4  C   UNL     1     -11.959  13.214  63.770  1.00  0.00    -0.508 C  
HETATM    5  N   UNL     1     -11.011  12.353  63.580  1.00  0.00    -0.498 N  
HETATM    6  C   UNL     1     -10.414  11.744  64.657  1.00  0.00    -0.299 C  
HETATM    7  H   UNL     1     -10.708  12.126  62.632  1.00  0.00     0.000 HD 
HETATM    8  N   UNL     1     -10.981  11.915  65.931  1.00  0.00    -0.298 N  
HETATM    9  O   UNL     1      -9.398  11.069  64.505  1.00  0.00    -0.209 OA 
HETATM   10  C   UNL     1     -12.465  13.567  65.107  1.00  0.00    -0.495 C  
HETATM   11  C   UNL     1     -11.946  12.884  66.125  1.00  0.00    -0.429 C  
ENDROOT
BRANCH   8  12
HETATM   12  C   UNL     1     -10.292  11.282  67.068  1.00  0.00    -0.227 C  
HETATM   13  C   UNL     1     -11.061  10.176  67.813  1.00  0.00    -0.227 C  
HETATM   14  S   UNL     1     -12.014  11.060  69.048  1.00  0.00    -0.203 SA 
HETATM   15  C   UNL     1     -10.734  12.326  69.167  1.00  0.00    -0.043 C  
HETATM   16  O   UNL     1      -9.864  12.276  68.028  1.00  0.00    -0.192 OA 
BRANCH  15  17
HETATM   17  C   UNL     1     -11.370  13.715  69.313  1.00  0.00    -0.269 C  
HETATM   18  O   UNL     1     -10.795  14.464  70.384  1.00  0.00    -0.470 OA 
HETATM   19  H   UNL     1     -11.189  15.324  70.474  1.00  0.00     0.000 HD 
ENDBRANCH  15  17
ENDBRANCH   8  12
TORSDOF 2
ENDMDL
MODEL       69
REMARK 921   NORMALIZED FREE ENERGY PREDICTED BY IDOCK:   -4.22 KCAL/MOL
REMARK 922        TOTAL FREE ENERGY PREDICTED BY IDOCK:   -4.67 KCAL/MOL
REMARK 923 INTER-LIGAND FREE ENERGY PREDICTED BY IDOCK:   -4.74 KCAL/MOL
REMARK 924 INTRA-LIGAND FREE ENERGY PREDICTED BY IDOCK:    0.07 KCAL/MOL
REMARK 927      BINDING AFFINITY PREDICTED BY RF-SCORE:    0.00 PKD
ROOT
HETATM    1  N   UNL     1      -6.762  21.353  66.382  1.00  0.00    -0.708 NA 
HETATM    2  H1  UNL     1      -5.751  21.275  66.272  1.00  0.00     0.000 HD 
HETATM    3  H2  UNL     1      -7.211  22.257  66.524  1.00  0.00     0.000 HD 
HETATM    4  C   UNL     1      -7.490  20.198  66.333  1.00  0.00    -0.279 C  
HETATM    5  N   UNL     1      -8.773  20.297  66.474  1.00  0.00    -0.527 N  
HETATM    6  C   UNL     1      -9.557  19.172  66.404  1.00  0.00    -0.361 C  
HETATM    7  H   UNL     1      -9.200  21.209  66.638  1.00  0.00     0.000 HD 
HETATM    8  N   UNL     1      -8.934  17.912  66.385  1.00  0.00    -0.254 N  
HETATM    9  O   UNL     1     -10.782  19.270  66.351  1.00  0.00    -0.422 OA 
HETATM   10  C   UNL     1      -6.803  18.912  66.124  1.00  0.00    -0.267 C  
HETATM   11  C   UNL     1      -7.573  17.827  66.169  1.00  0.00    -0.267 C  
ENDROOT
BRANCH   8  12
HETATM   12  C   UNL     1      -9.804  16.729  66.268  1.00  0.00    -0.309 C  
HETATM   13  C   UNL     1     -10.725  16.429  67.464  1.00  0.00    -0.298 C  
HETATM   14  S   UNL     1      -9.717  15.421  68.551  1.00  0.00    -0.211 SA 
HETATM   15  C   UNL     1      -8.835  14.730  67.137  1.00  0.00    -0.216 C  
HETATM   16  O   UNL     1      -9.026  15.546  65.973  1.00  0.00    -0.324 OA 
BRANCH  15  17
HETATM   17  C   UNL     1      -7.343  14.575  67.462  1.00  0.00    -0.189 C  
HETATM   18  O   UNL     1      -6.955  15.343  68.601  1.00  0.00    -0.106 OA 
HETATM   19  H   UNL     1      -6.031  15.248  68.803  1.00  0.00     0.000 HD 
ENDBRANCH  15  17
ENDBRANCH   8  12
TORSDOF 2
ENDMDL
MODEL       70
REMARK 921   NORMALIZED FREE ENERGY PREDICTED BY IDOCK:   -4.14 KCAL/MOL
REMARK 922        TOTAL FREE ENERGY PREDICTED BY IDOCK:   -4.58 KCAL/MOL
REMARK 923 INTER-LIGAND FREE ENERGY PREDICTED BY IDOCK:   -4.83 KCAL/MOL
REMARK 924 INTRA-LIGAND FREE ENERGY PREDICTED BY IDOCK:    0.25 KCAL/MOL
REMARK 927      BINDING AFFINITY PREDICTED BY RF-SCORE:    0.00 PKD
ROOT
HETATM    1  N   UNL     1      -7.852  10.321  70.169  1.00  0.00    -0.390 NA 
HETATM    2  H1  UNL     1      -6.857  10.512  70.049  1.00  0.00     0.000 HD 
HETATM    3  H2  UNL     1      -8.206   9.870  71.013  1.00  0.00     0.000 HD 
HETATM    4  C   UNL     1      -8.689  10.692  69.156  1.00  0.00    -0.126 C  
HETATM    5  N   UNL     1      -9.952  10.449  69.309  1.00  0.00    -0.221 N  
HETATM    6  C   UNL     1     -10.844  10.827  68.335  1.00  0.00    -0.232 C  
HETATM    7  H   UNL     1     -10.284   9.977  70.150  1.00  0.00     0.000 HD 
HETATM    8  N   UNL     1     -10.346  11.286  67.104  1.00  0.00    -0.201 N  
HETATM    9  O   UNL     1     -12.054  10.771  68.545  1.00  0.00    -0.493 OA 
HETATM   10  C   UNL     1      -8.138  11.343  67.956  1.00  0.00    -0.134 C  
HETATM   11  C   UNL     1      -9.008  11.601  66.981  1.00  0.00    -0.182 C  
ENDROOT
BRANCH   8  12
HETATM   12  C   UNL     1     -11.330  11.722  66.098  1.00  0.00    -0.280 C  
HETATM   13  C   UNL     1     -10.768  12.294  64.784  1.00  0.00    -0.300 C  
HETATM   14  S   UNL     1     -10.539  14.038  65.128  1.00  0.00    -0.408 SA 
HETATM   15  C   UNL     1     -11.934  14.024  66.272  1.00  0.00    -0.432 C  
HETATM   16  O   UNL     1     -12.254  12.681  66.663  1.00  0.00    -0.517 OA 
BRANCH  15  17
HETATM   17  C   UNL     1     -11.628  14.896  67.497  1.00  0.00    -0.339 C  
HETATM   18  O   UNL     1     -12.345  14.473  68.657  1.00  0.00    -0.578 OA 
HETATM   19  H   UNL     1     -12.157  15.014  69.414  1.00  0.00     0.000 HD 
ENDBRANCH  15  17
ENDBRANCH   8  12
TORSDOF 2
ENDMDL
MODEL       71
REMARK 921   NORMALIZED FREE ENERGY PREDICTED BY IDOCK:   -4.13 KCAL/MOL
REMARK 922        TOTAL FREE ENERGY PREDICTED BY IDOCK:   -4.57 KCAL/MOL
REMARK 923 INTER-LIGAND FREE ENERGY PREDICTED BY IDOCK:   -4.68 KCAL/MOL
REMARK 924 INTRA-LIGAND FREE ENERGY PREDICTED BY IDOCK:    0.11 KCAL/MOL
REMARK 927      BINDING AFFINITY PREDICTED BY RF-SCORE:    0.00 PKD
ROOT
HETATM    1  N   UNL     1     -10.256   7.369  66.478  1.00  0.00    -0.478 NA 
HETATM    2  H1  UNL     1      -9.933   7.183  65.528  1.00  0.00     0.000 HD 
HETATM    3  H2  UNL     1     -10.519   6.610  67.106  1.00  0.00     0.000 HD 
HETATM    4  C   UNL     1     -10.323   8.675  66.874  1.00  0.00    -0.285 C  
HETATM    5  N   UNL     1     -10.734   8.911  68.079  1.00  0.00    -0.445 N  
HETATM    6  C   UNL     1     -10.793  10.203  68.540  1.00  0.00    -0.237 C  
HETATM    7  H   UNL     1     -11.013   8.139  68.684  1.00  0.00     0.000 HD 
HETATM    8  N   UNL     1     -10.602  11.256  67.629  1.00  0.00    -0.202 N  
HETATM    9  O   UNL     1     -11.002  10.429  69.731  1.00  0.00    -0.253 OA 
HETATM   10  C   UNL     1      -9.933   9.741  65.937  1.00  0.00    -0.345 C  
HETATM   11  C   UNL     1     -10.103  10.989  66.370  1.00  0.00    -0.229 C  
ENDROOT
BRANCH   8  12
HETATM   12  C   UNL     1     -10.632  12.628  68.166  1.00  0.00    -0.228 C  
HETATM   13  C   UNL     1     -12.020  13.268  68.347  1.00  0.00    -0.301 C  
HETATM   14  S   UNL     1     -12.366  14.020  66.757  1.00  0.00    -0.206 SA 
HETATM   15  C   UNL     1     -10.607  14.322  66.486  1.00  0.00    -0.286 C  
HETATM   16  O   UNL     1      -9.814  13.512  67.365  1.00  0.00    -0.221 OA 
BRANCH  15  17
HETATM   17  C   UNL     1     -10.242  14.064  65.019  1.00  0.00    -0.368 C  
HETATM   18  O   UNL     1     -11.383  14.101  64.162  1.00  0.00    -0.593 OA 
HETATM   19  H   UNL     1     -11.157  13.942  63.253  1.00  0.00     0.000 HD 
ENDBRANCH  15  17
ENDBRANCH   8  12
TORSDOF 2
ENDMDL
MODEL       72
REMARK 921   NORMALIZED FREE ENERGY PREDICTED BY IDOCK:   -4.13 KCAL/MOL
REMARK 922        TOTAL FREE ENERGY PREDICTED BY IDOCK:   -4.57 KCAL/MOL
REMARK 923 INTER-LIGAND FREE ENERGY PREDICTED BY IDOCK:   -4.85 KCAL/MOL
REMARK 924 INTRA-LIGAND FREE ENERGY PREDICTED BY IDOCK:    0.28 KCAL/MOL
REMARK 927      BINDING AFFINITY PREDICTED BY RF-SCORE:    0.00 PKD
ROOT
HETATM    1  N   UNL     1      -9.930   8.675  65.993  1.00  0.00    -0.460 NA 
HETATM    2  H1  UNL     1      -9.509   9.561  65.714  1.00  0.00     0.000 HD 
HETATM    3  H2  UNL     1     -10.072   7.921  65.322  1.00  0.00     0.000 HD 
HETATM    4  C   UNL     1     -10.296   8.539  67.302  1.00  0.00    -0.302 C  
HETATM    5  N   UNL     1     -10.830   7.414  67.657  1.00  0.00    -0.484 N  
HETATM    6  C   UNL     1     -11.190   7.210  68.967  1.00  0.00     0.070 C  
HETATM    7  H   UNL     1     -10.984   6.680  66.965  1.00  0.00     0.000 HD 
HETATM    8  N   UNL     1     -11.160   8.300  69.854  1.00  0.00    -0.163 N  
HETATM    9  O   UNL     1     -11.525   6.092  69.353  1.00  0.00    -0.423 OA 
HETATM   10  C   UNL     1     -10.071   9.651  68.241  1.00  0.00    -0.203 C  
HETATM   11  C   UNL     1     -10.528   9.469  69.479  1.00  0.00    -0.220 C  
ENDROOT
BRANCH   8  12
HETATM   12  C   UNL     1     -11.513   8.037  71.259  1.00  0.00    -0.269 C  
HETATM   13  C   UNL     1     -12.842   7.302  71.511  1.00  0.00    -0.388 C  
HETATM   14  S   UNL     1     -14.062   8.614  71.584  1.00  0.00    -0.353 SA 
HETATM   15  C   UNL     1     -12.835   9.753  72.259  1.00  0.00    -0.295 C  
HETATM   16  O   UNL     1     -11.507   9.262  72.029  1.00  0.00    -0.355 OA 
BRANCH  15  17
HETATM   17  C   UNL     1     -13.018  11.152  71.655  1.00  0.00    -0.443 C  
HETATM   18  O   UNL     1     -13.626  12.062  72.571  1.00  0.00    -0.564 OA 
HETATM   19  H   UNL     1     -13.739  12.928  72.198  1.00  0.00     0.000 HD 
ENDBRANCH  15  17
ENDBRANCH   8  12
TORSDOF 2
ENDMDL
MODEL       73
REMARK 921   NORMALIZED FREE ENERGY PREDICTED BY IDOCK:   -4.12 KCAL/MOL
REMARK 922        TOTAL FREE ENERGY PREDICTED BY IDOCK:   -4.56 KCAL/MOL
REMARK 923 INTER-LIGAND FREE ENERGY PREDICTED BY IDOCK:   -4.64 KCAL/MOL
REMARK 924 INTRA-LIGAND FREE ENERGY PREDICTED BY IDOCK:    0.08 KCAL/MOL
REMARK 927      BINDING AFFINITY PREDICTED BY RF-SCORE:    0.00 PKD
ROOT
HETATM    1  N   UNL     1     -13.048  11.482  71.585  1.00  0.00    -0.439 NA 
HETATM    2  H1  UNL     1     -12.751  10.553  71.287  1.00  0.00     0.000 HD 
HETATM    3  H2  UNL     1     -13.666  11.610  72.386  1.00  0.00     0.000 HD 
HETATM    4  C   UNL     1     -12.586  12.549  70.868  1.00  0.00    -0.241 C  
HETATM    5  N   UNL     1     -12.963  13.729  71.245  1.00  0.00    -0.343 N  
HETATM    6  C   UNL     1     -12.505  14.839  70.579  1.00  0.00    -0.352 C  
HETATM    7  H   UNL     1     -13.599  13.833  72.036  1.00  0.00     0.000 HD 
HETATM    8  N   UNL     1     -11.800  14.664  69.376  1.00  0.00    -0.312 N  
HETATM    9  O   UNL     1     -12.704  15.964  71.035  1.00  0.00    -0.446 OA 
HETATM   10  C   UNL     1     -11.693  12.323  69.719  1.00  0.00    -0.368 C  
HETATM   11  C   UNL     1     -11.351  13.406  69.024  1.00  0.00    -0.287 C  
ENDROOT
BRANCH   8  12
HETATM   12  C   UNL     1     -11.289  15.874  68.710  1.00  0.00    -0.378 C  
HETATM   13  C   UNL     1     -11.035  15.774  67.195  1.00  0.00    -0.244 C  
HETATM   14  S   UNL     1      -9.358  15.152  67.072  1.00  0.00    -0.243 SA 
HETATM   15  C   UNL     1      -8.907  15.985  68.608  1.00  0.00    -0.210 C  
HETATM   16  O   UNL     1     -10.080  16.343  69.353  1.00  0.00    -0.258 OA 
BRANCH  15  17
HETATM   17  C   UNL     1      -7.974  15.098  69.441  1.00  0.00    -0.205 C  
HETATM   18  O   UNL     1      -7.948  13.749  68.974  1.00  0.00    -0.319 OA 
HETATM   19  H   UNL     1      -7.371  13.199  69.490  1.00  0.00     0.000 HD 
ENDBRANCH  15  17
ENDBRANCH   8  12
TORSDOF 2
ENDMDL
MODEL       74
REMARK 921   NORMALIZED FREE ENERGY PREDICTED BY IDOCK:   -4.08 KCAL/MOL
REMARK 922        TOTAL FREE ENERGY PREDICTED BY IDOCK:   -4.51 KCAL/MOL
REMARK 923 INTER-LIGAND FREE ENERGY PREDICTED BY IDOCK:   -4.58 KCAL/MOL
REMARK 924 INTRA-LIGAND FREE ENERGY PREDICTED BY IDOCK:    0.07 KCAL/MOL
REMARK 927      BINDING AFFINITY PREDICTED BY RF-SCORE:    0.00 PKD
ROOT
HETATM    1  N   UNL     1     -12.861  14.367  70.519  1.00  0.00    -0.419 NA 
HETATM    2  H1  UNL     1     -12.419  14.899  69.770  1.00  0.00     0.000 HD 
HETATM    3  H2  UNL     1     -13.486  14.814  71.189  1.00  0.00     0.000 HD 
HETATM    4  C   UNL     1     -12.582  13.031  70.589  1.00  0.00    -0.193 C  
HETATM    5  N   UNL     1     -13.143  12.355  71.541  1.00  0.00    -0.342 N  
HETATM    6  C   UNL     1     -12.921  11.004  71.641  1.00  0.00    -0.456 C  
HETATM    7  H   UNL     1     -13.747  12.826  72.214  1.00  0.00     0.000 HD 
HETATM    8  N   UNL     1     -11.931  10.418  70.834  1.00  0.00    -0.348 N  
HETATM    9  O   UNL     1     -13.586  10.321  72.419  1.00  0.00    -0.275 OA 
HETATM   10  C   UNL     1     -11.676  12.423  69.601  1.00  0.00    -0.377 C  
HETATM   11  C   UNL     1     -11.392  11.136  69.785  1.00  0.00    -0.278 C  
ENDROOT
BRANCH   8  12
HETATM   12  C   UNL     1     -11.748   8.960  70.939  1.00  0.00    -0.267 C  
HETATM   13  C   UNL     1     -11.213   8.426  72.280  1.00  0.00    -0.376 C  
HETATM   14  S   UNL     1      -9.430   8.507  72.103  1.00  0.00    -0.304 SA 
HETATM   15  C   UNL     1      -9.566   8.215  70.327  1.00  0.00    -0.171 C  
HETATM   16  O   UNL     1     -10.902   8.470  69.873  1.00  0.00    -0.237 OA 
BRANCH  15  17
HETATM   17  C   UNL     1      -8.551   9.077  69.566  1.00  0.00    -0.138 C  
HETATM   18  O   UNL     1      -8.040  10.145  70.365  1.00  0.00    -0.403 OA 
HETATM   19  H   UNL     1      -7.411  10.679  69.893  1.00  0.00     0.000 HD 
ENDBRANCH  15  17
ENDBRANCH   8  12
TORSDOF 2
ENDMDL
MODEL       75
REMARK 921   NORMALIZED FREE ENERGY PREDICTED BY IDOCK:   -4.08 KCAL/MOL
REMARK 922        TOTAL FREE ENERGY PREDICTED BY IDOCK:   -4.51 KCAL/MOL
REMARK 923 INTER-LIGAND FREE ENERGY PREDICTED BY IDOCK:   -4.69 KCAL/MOL
REMARK 924 INTRA-LIGAND FREE ENERGY PREDICTED BY IDOCK:    0.18 KCAL/MOL
REMARK 927      BINDING AFFINITY PREDICTED BY RF-SCORE:    0.00 PKD
ROOT
HETATM    1  N   UNL     1     -11.747  16.138  63.885  1.00  0.00    -1.452 NA 
HETATM    2  H1  UNL     1     -12.399  16.825  63.507  1.00  0.00     0.000 HD 
HETATM    3  H2  UNL     1     -11.749  15.171  63.561  1.00  0.00     0.000 HD 
HETATM    4  C   UNL     1     -10.872  16.564  64.844  1.00  0.00    -0.204 C  
HETATM    5  N   UNL     1     -10.044  15.691  65.324  1.00  0.00    -0.322 N  
HETATM    6  C   UNL     1      -9.122  16.071  66.268  1.00  0.00    -0.344 C  
HETATM    7  H   UNL     1     -10.077  14.724  65.002  1.00  0.00     0.000 HD 
HETATM    8  N   UNL     1      -9.229  17.349  66.843  1.00  0.00    -0.248 N  
HETATM    9  O   UNL     1      -8.216  15.307  66.596  1.00  0.00    -0.226 OA 
HETATM   10  C   UNL     1     -10.900  17.969  65.283  1.00  0.00     0.396 C  
HETATM   11  C   UNL     1     -10.071  18.285  66.276  1.00  0.00    -0.380 C  
ENDROOT
BRANCH   8  12
HETATM   12  C   UNL     1      -8.199  17.738  67.822  1.00  0.00    -0.227 C  
HETATM   13  C   UNL     1      -8.492  18.988  68.672  1.00  0.00    -0.359 C  
HETATM   14  S   UNL     1      -7.877  20.347  67.678  1.00  0.00    -0.220 SA 
HETATM   15  C   UNL     1      -6.597  19.289  66.973  1.00  0.00    -0.191 C  
HETATM   16  O   UNL     1      -6.914  17.905  67.178  1.00  0.00    -0.173 OA 
BRANCH  15  17
HETATM   17  C   UNL     1      -6.414  19.596  65.481  1.00  0.00    -0.257 C  
HETATM   18  O   UNL     1      -6.587  20.983  65.188  1.00  0.00    -0.479 OA 
HETATM   19  H   UNL     1      -6.473  21.174  64.265  1.00  0.00     0.000 HD 
ENDBRANCH  15  17
ENDBRANCH   8  12
TORSDOF 2
ENDMDL
MODEL       76
REMARK 921   NORMALIZED FREE ENERGY PREDICTED BY IDOCK:   -4.07 KCAL/MOL
REMARK 922        TOTAL FREE ENERGY PREDICTED BY IDOCK:   -4.51 KCAL/MOL
REMARK 923 INTER-LIGAND FREE ENERGY PREDICTED BY IDOCK:   -4.53 KCAL/MOL
REMARK 924 INTRA-LIGAND FREE ENERGY PREDICTED BY IDOCK:    0.02 KCAL/MOL
REMARK 927      BINDING AFFINITY PREDICTED BY RF-SCORE:    0.00 PKD
ROOT
HETATM    1  N   UNL     1     -11.348   7.608  73.196  1.00  0.00    -0.596 NA 
HETATM    2  H1  UNL     1     -11.084   8.310  73.888  1.00  0.00     0.000 HD 
HETATM    3  H2  UNL     1     -11.915   6.800  73.451  1.00  0.00     0.000 HD 
HETATM    4  C   UNL     1     -10.913   7.795  71.915  1.00  0.00    -0.249 C  
HETATM    5  N   UNL     1     -11.248   6.904  71.037  1.00  0.00    -0.267 N  
HETATM    6  C   UNL     1     -10.864   7.056  69.727  1.00  0.00    -0.248 C  
HETATM    7  H   UNL     1     -11.796   6.091  71.317  1.00  0.00     0.000 HD 
HETATM    8  N   UNL     1      -9.943   8.068  69.405  1.00  0.00    -0.186 N  
HETATM    9  O   UNL     1     -11.325   6.323  68.854  1.00  0.00    -0.373 OA 
HETATM   10  C   UNL     1     -10.099   8.977  71.586  1.00  0.00    -0.405 C  
HETATM   11  C   UNL     1      -9.648   9.045  70.335  1.00  0.00    -0.208 C  
ENDROOT
BRANCH   8  12
HETATM   12  C   UNL     1      -9.584   8.228  67.986  1.00  0.00    -0.153 C  
HETATM   13  C   UNL     1      -8.237   8.911  67.687  1.00  0.00    -0.110 C  
HETATM   14  S   UNL     1      -8.630  10.660  67.653  1.00  0.00    -0.118 SA 
HETATM   15  C   UNL     1     -10.290  10.302  67.041  1.00  0.00    -0.243 C  
HETATM   16  O   UNL     1     -10.627   8.927  67.267  1.00  0.00    -0.283 OA 
BRANCH  15  17
HETATM   17  C   UNL     1     -11.314  11.236  67.699  1.00  0.00    -0.282 C  
HETATM   18  O   UNL     1     -12.281  10.523  68.470  1.00  0.00    -0.806 OA 
HETATM   19  H   UNL     1     -12.915  11.101  68.877  1.00  0.00     0.000 HD 
ENDBRANCH  15  17
ENDBRANCH   8  12
TORSDOF 2
ENDMDL
MODEL       77
REMARK 921   NORMALIZED FREE ENERGY PREDICTED BY IDOCK:   -4.07 KCAL/MOL
REMARK 922        TOTAL FREE ENERGY PREDICTED BY IDOCK:   -4.50 KCAL/MOL
REMARK 923 INTER-LIGAND FREE ENERGY PREDICTED BY IDOCK:   -4.54 KCAL/MOL
REMARK 924 INTRA-LIGAND FREE ENERGY PREDICTED BY IDOCK:    0.03 KCAL/MOL
REMARK 927      BINDING AFFINITY PREDICTED BY RF-SCORE:    0.00 PKD
ROOT
HETATM    1  N   UNL     1     -13.162  11.346  72.149  1.00  0.00    -0.556 NA 
HETATM    2  H1  UNL     1     -13.323  10.343  72.241  1.00  0.00     0.000 HD 
HETATM    3  H2  UNL     1     -13.422  11.995  72.891  1.00  0.00     0.000 HD 
HETATM    4  C   UNL     1     -12.583  11.786  70.992  1.00  0.00    -0.310 C  
HETATM    5  N   UNL     1     -12.379  13.059  70.875  1.00  0.00    -0.400 N  
HETATM    6  C   UNL     1     -11.774  13.554  69.746  1.00  0.00    -0.295 C  
HETATM    7  H   UNL     1     -12.668  13.693  71.620  1.00  0.00     0.000 HD 
HETATM    8  N   UNL     1     -11.574  12.693  68.653  1.00  0.00    -0.294 N  
HETATM    9  O   UNL     1     -11.409  14.727  69.699  1.00  0.00    -0.259 OA 
HETATM   10  C   UNL     1     -12.219  10.816  69.945  1.00  0.00    -0.384 C  
HETATM   11  C   UNL     1     -11.735  11.331  68.817  1.00  0.00    -0.338 C  
ENDROOT
BRANCH   8  12
HETATM   12  C   UNL     1     -10.885  13.246  67.474  1.00  0.00    -0.263 C  
HETATM   13  C   UNL     1     -11.262  12.645  66.109  1.00  0.00    -0.309 C  
HETATM   14  S   UNL     1     -10.164  11.239  65.931  1.00  0.00    -0.257 SA 
HETATM   15  C   UNL     1      -8.887  12.081  66.889  1.00  0.00    -0.197 C  
HETATM   16  O   UNL     1      -9.449  13.170  67.634  1.00  0.00    -0.194 OA 
BRANCH  15  17
HETATM   17  C   UNL     1      -8.175  11.088  67.816  1.00  0.00    -0.117 C  
HETATM   18  O   UNL     1      -8.174  11.521  69.176  1.00  0.00    -0.366 OA 
HETATM   19  H   UNL     1      -7.733  10.906  69.751  1.00  0.00     0.000 HD 
ENDBRANCH  15  17
ENDBRANCH   8  12
TORSDOF 2
ENDMDL
MODEL       78
REMARK 921   NORMALIZED FREE ENERGY PREDICTED BY IDOCK:   -4.07 KCAL/MOL
REMARK 922        TOTAL FREE ENERGY PREDICTED BY IDOCK:   -4.50 KCAL/MOL
REMARK 923 INTER-LIGAND FREE ENERGY PREDICTED BY IDOCK:   -4.95 KCAL/MOL
REMARK 924 INTRA-LIGAND FREE ENERGY PREDICTED BY IDOCK:    0.46 KCAL/MOL
REMARK 927      BINDING AFFINITY PREDICTED BY RF-SCORE:    0.00 PKD
ROOT
HETATM    1  N   UNL     1     -13.212  12.298  64.176  1.00  0.00    -0.738 NA 
HETATM    2  H1  UNL     1     -13.927  12.834  63.686  1.00  0.00     0.000 HD 
HETATM    3  H2  UNL     1     -13.279  11.284  64.266  1.00  0.00     0.000 HD 
HETATM    4  C   UNL     1     -12.160  12.990  64.705  1.00  0.00    -0.415 C  
HETATM    5  N   UNL     1     -11.252  12.309  65.327  1.00  0.00    -0.318 N  
HETATM    6  C   UNL     1     -10.157  12.950  65.854  1.00  0.00    -0.289 C  
HETATM    7  H   UNL     1     -11.349  11.299  65.427  1.00  0.00     0.000 HD 
HETATM    8  N   UNL     1     -10.146  14.355  65.886  1.00  0.00    -0.310 N  
HETATM    9  O   UNL     1      -9.203  12.303  66.282  1.00  0.00    -0.225 OA 
HETATM   10  C   UNL     1     -12.099  14.453  64.550  1.00  0.00    -0.498 C  
HETATM   11  C   UNL     1     -11.086  15.063  65.163  1.00  0.00    -0.401 C  
ENDROOT
BRANCH   8  12
HETATM   12  C   UNL     1      -8.939  15.010  66.420  1.00  0.00    -0.251 C  
HETATM   13  C   UNL     1      -8.256  14.326  67.618  1.00  0.00    -0.185 C  
HETATM   14  S   UNL     1      -9.100  15.002  69.048  1.00  0.00    -0.185 SA 
HETATM   15  C   UNL     1      -9.381  16.559  68.180  1.00  0.00    -0.218 C  
HETATM   16  O   UNL     1      -9.212  16.388  66.766  1.00  0.00    -0.214 OA 
BRANCH  15  17
HETATM   17  C   UNL     1     -10.777  17.106  68.505  1.00  0.00    -0.326 C  
HETATM   18  O   UNL     1     -11.672  16.083  68.941  1.00  0.00    -0.381 OA 
HETATM   19  H   UNL     1     -12.537  16.422  69.143  1.00  0.00     0.000 HD 
ENDBRANCH  15  17
ENDBRANCH   8  12
TORSDOF 2
ENDMDL
MODEL       79
REMARK 921   NORMALIZED FREE ENERGY PREDICTED BY IDOCK:   -4.04 KCAL/MOL
REMARK 922        TOTAL FREE ENERGY PREDICTED BY IDOCK:   -4.47 KCAL/MOL
REMARK 923 INTER-LIGAND FREE ENERGY PREDICTED BY IDOCK:   -4.49 KCAL/MOL
REMARK 924 INTRA-LIGAND FREE ENERGY PREDICTED BY IDOCK:    0.02 KCAL/MOL
REMARK 927      BINDING AFFINITY PREDICTED BY RF-SCORE:    0.00 PKD
ROOT
HETATM    1  N   UNL     1     -10.921   7.930  69.387  1.00  0.00    -0.428 NA 
HETATM    2  H1  UNL     1     -10.523   7.307  68.684  1.00  0.00     0.000 HD 
HETATM    3  H2  UNL     1     -11.152   7.595  70.322  1.00  0.00     0.000 HD 
HETATM    4  C   UNL     1     -11.134   9.230  69.025  1.00  0.00     0.052 C  
HETATM    5  N   UNL     1     -11.640  10.020  69.917  1.00  0.00    -0.389 N  
HETATM    6  C   UNL     1     -11.847  11.345  69.618  1.00  0.00    -0.362 C  
HETATM    7  H   UNL     1     -11.885   9.660  70.839  1.00  0.00     0.000 HD 
HETATM    8  N   UNL     1     -11.696  11.770  68.287  1.00  0.00    -0.316 N  
HETATM    9  O   UNL     1     -12.152  12.142  70.503  1.00  0.00    -0.364 OA 
HETATM   10  C   UNL     1     -10.784   9.674  67.666  1.00  0.00    -0.324 C  
HETATM   11  C   UNL     1     -11.095  10.934  67.367  1.00  0.00    -0.307 C  
ENDROOT
BRANCH   8  12
HETATM   12  C   UNL     1     -11.887  13.204  68.010  1.00  0.00    -0.358 C  
HETATM   13  C   UNL     1     -12.196  13.590  66.552  1.00  0.00    -0.380 C  
HETATM   14  S   UNL     1     -10.581  13.790  65.800  1.00  0.00    -0.301 SA 
HETATM   15  C   UNL     1      -9.886  14.337  67.373  1.00  0.00    -0.235 C  
HETATM   16  O   UNL     1     -10.746  13.971  68.461  1.00  0.00    -0.242 OA 
BRANCH  15  17
HETATM   17  C   UNL     1      -8.478  13.757  67.564  1.00  0.00    -0.196 C  
HETATM   18  O   UNL     1      -8.390  12.915  68.714  1.00  0.00    -0.345 OA 
HETATM   19  H   UNL     1      -7.519  12.556  68.832  1.00  0.00     0.000 HD 
ENDBRANCH  15  17
ENDBRANCH   8  12
TORSDOF 2
ENDMDL
MODEL       80
REMARK 921   NORMALIZED FREE ENERGY PREDICTED BY IDOCK:   -4.04 KCAL/MOL
REMARK 922        TOTAL FREE ENERGY PREDICTED BY IDOCK:   -4.47 KCAL/MOL
REMARK 923 INTER-LIGAND FREE ENERGY PREDICTED BY IDOCK:   -4.64 KCAL/MOL
REMARK 924 INTRA-LIGAND FREE ENERGY PREDICTED BY IDOCK:    0.17 KCAL/MOL
REMARK 927      BINDING AFFINITY PREDICTED BY RF-SCORE:    0.00 PKD
ROOT
HETATM    1  N   UNL     1     -13.934   8.887  73.118  1.00  0.00    -1.215 NA 
HETATM    2  H1  UNL     1     -14.585   8.174  73.449  1.00  0.00     0.000 HD 
HETATM    3  H2  UNL     1     -13.970   9.842  73.473  1.00  0.00     0.000 HD 
HETATM    4  C   UNL     1     -13.014   8.511  72.182  1.00  0.00    -0.363 C  
HETATM    5  N   UNL     1     -12.188   9.416  71.762  1.00  0.00    -0.376 N  
HETATM    6  C   UNL     1     -11.222   9.087  70.842  1.00  0.00    -0.287 C  
HETATM    7  H   UNL     1     -12.255  10.371  72.113  1.00  0.00     0.000 HD 
HETATM    8  N   UNL     1     -11.278   7.826  70.224  1.00  0.00    -0.243 N  
HETATM    9  O   UNL     1     -10.322   9.881  70.574  1.00  0.00    -0.286 OA 
HETATM   10  C   UNL     1     -12.993   7.121  71.697  1.00  0.00    -0.415 C  
HETATM   11  C   UNL     1     -12.120   6.854  70.727  1.00  0.00    -0.349 C  
ENDROOT
BRANCH   8  12
HETATM   12  C   UNL     1     -10.204   7.492  69.273  1.00  0.00    -0.201 C  
HETATM   13  C   UNL     1     -10.446   6.280  68.355  1.00  0.00    -0.227 C  
HETATM   14  S   UNL     1      -9.861   4.881  69.312  1.00  0.00    -0.196 SA 
HETATM   15  C   UNL     1      -8.624   5.917  70.120  1.00  0.00    -0.134 C  
HETATM   16  O   UNL     1      -8.946   7.306  69.964  1.00  0.00    -0.141 OA 
BRANCH  15  17
HETATM   17  C   UNL     1      -8.501   5.543  71.603  1.00  0.00    -0.131 C  
HETATM   18  O   UNL     1      -7.907   4.258  71.790  1.00  0.00    -0.076 OA 
HETATM   19  H   UNL     1      -7.832   4.026  72.708  1.00  0.00     0.000 HD 
ENDBRANCH  15  17
ENDBRANCH   8  12
TORSDOF 2
ENDMDL
MODEL       81
REMARK 921   NORMALIZED FREE ENERGY PREDICTED BY IDOCK:   -3.98 KCAL/MOL
REMARK 922        TOTAL FREE ENERGY PREDICTED BY IDOCK:   -4.40 KCAL/MOL
REMARK 923 INTER-LIGAND FREE ENERGY PREDICTED BY IDOCK:   -4.49 KCAL/MOL
REMARK 924 INTRA-LIGAND FREE ENERGY PREDICTED BY IDOCK:    0.09 KCAL/MOL
REMARK 927      BINDING AFFINITY PREDICTED BY RF-SCORE:    0.00 PKD
ROOT
HETATM    1  N   UNL     1     -12.408  14.630  69.275  1.00  0.00    -0.560 NA 
HETATM    2  H1  UNL     1     -12.614  15.291  68.527  1.00  0.00     0.000 HD 
HETATM    3  H2  UNL     1     -12.526  14.886  70.255  1.00  0.00     0.000 HD 
HETATM    4  C   UNL     1     -11.966  13.389  68.914  1.00  0.00    -0.324 C  
HETATM    5  N   UNL     1     -11.704  12.550  69.864  1.00  0.00    -0.477 N  
HETATM    6  C   UNL     1     -11.285  11.278  69.558  1.00  0.00    -0.272 C  
HETATM    7  H   UNL     1     -11.808  12.833  70.839  1.00  0.00     0.000 HD 
HETATM    8  N   UNL     1     -10.953  10.978  68.226  1.00  0.00    -0.214 N  
HETATM    9  O   UNL     1     -11.210  10.420  70.435  1.00  0.00    -0.297 OA 
HETATM   10  C   UNL     1     -11.810  13.058  67.487  1.00  0.00    -0.408 C  
HETATM   11  C   UNL     1     -11.299  11.858  67.220  1.00  0.00    -0.329 C  
ENDROOT
BRANCH   8  12
HETATM   12  C   UNL     1     -10.547   9.594  67.926  1.00  0.00    -0.255 C  
HETATM   13  C   UNL     1      -9.150   9.164  68.411  1.00  0.00    -0.132 C  
HETATM   14  S   UNL     1      -8.056   9.639  67.072  1.00  0.00    -0.113 SA 
HETATM   15  C   UNL     1      -9.369   9.359  65.865  1.00  0.00    -0.230 C  
HETATM   16  O   UNL     1     -10.650   9.323  66.509  1.00  0.00    -0.178 OA 
BRANCH  15  17
HETATM   17  C   UNL     1      -9.330  10.439  64.775  1.00  0.00    -0.251 C  
HETATM   18  O   UNL     1     -10.402  10.305  63.842  1.00  0.00    -0.451 OA 
HETATM   19  H   UNL     1     -10.379  10.973  63.168  1.00  0.00     0.000 HD 
ENDBRANCH  15  17
ENDBRANCH   8  12
TORSDOF 2
ENDMDL
MODEL       82
REMARK 921   NORMALIZED FREE ENERGY PREDICTED BY IDOCK:   -3.97 KCAL/MOL
REMARK 922        TOTAL FREE ENERGY PREDICTED BY IDOCK:   -4.39 KCAL/MOL
REMARK 923 INTER-LIGAND FREE ENERGY PREDICTED BY IDOCK:   -4.51 KCAL/MOL
REMARK 924 INTRA-LIGAND FREE ENERGY PREDICTED BY IDOCK:    0.12 KCAL/MOL
REMARK 927      BINDING AFFINITY PREDICTED BY RF-SCORE:    0.00 PKD
ROOT
HETATM    1  N   UNL     1     -11.091   5.314  65.751  1.00  0.00    -0.779 NA 
HETATM    2  H1  UNL     1     -11.231   5.946  64.962  1.00  0.00     0.000 HD 
HETATM    3  H2  UNL     1     -11.164   4.303  65.639  1.00  0.00     0.000 HD 
HETATM    4  C   UNL     1     -10.801   5.876  66.962  1.00  0.00    -0.295 C  
HETATM    5  N   UNL     1     -10.623   5.075  67.963  1.00  0.00     0.043 N  
HETATM    6  C   UNL     1     -10.300   5.583  69.197  1.00  0.00    -0.248 C  
HETATM    7  H   UNL     1     -10.722   4.067  67.835  1.00  0.00     0.000 HD 
HETATM    8  N   UNL     1     -10.370   6.972  69.396  1.00  0.00    -0.200 N  
HETATM    9  O   UNL     1      -9.949   4.833  70.106  1.00  0.00    -0.222 OA 
HETATM   10  C   UNL     1     -10.702   7.341  67.080  1.00  0.00    -0.413 C  
HETATM   11  C   UNL     1     -10.496   7.813  68.308  1.00  0.00    -0.168 C  
ENDROOT
BRANCH   8  12
HETATM   12  C   UNL     1      -9.977   7.486  70.720  1.00  0.00    -0.182 C  
HETATM   13  C   UNL     1     -10.850   7.057  71.913  1.00  0.00    -0.224 C  
HETATM   14  S   UNL     1     -12.155   8.286  71.965  1.00  0.00    -0.372 SA 
HETATM   15  C   UNL     1     -11.037   9.541  71.310  1.00  0.00    -0.379 C  
HETATM   16  O   UNL     1      -9.888   8.930  70.705  1.00  0.00    -0.189 OA 
BRANCH  15  17
HETATM   17  C   UNL     1     -11.773  10.441  70.309  1.00  0.00    -0.321 C  
HETATM   18  O   UNL     1     -13.147  10.081  70.165  1.00  0.00    -0.566 OA 
HETATM   19  H   UNL     1     -13.603  10.637  69.546  1.00  0.00     0.000 HD 
ENDBRANCH  15  17
ENDBRANCH   8  12
TORSDOF 2
ENDMDL
MODEL       83
REMARK 921   NORMALIZED FREE ENERGY PREDICTED BY IDOCK:   -3.96 KCAL/MOL
REMARK 922        TOTAL FREE ENERGY PREDICTED BY IDOCK:   -4.38 KCAL/MOL
REMARK 923 INTER-LIGAND FREE ENERGY PREDICTED BY IDOCK:   -5.03 KCAL/MOL
REMARK 924 INTRA-LIGAND FREE ENERGY PREDICTED BY IDOCK:    0.65 KCAL/MOL
REMARK 927      BINDING AFFINITY PREDICTED BY RF-SCORE:    0.00 PKD
ROOT
HETATM    1  N   UNL     1     -11.925  13.545  63.650  1.00  0.00    -0.719 NA 
HETATM    2  H1  UNL     1     -12.644  12.833  63.781  1.00  0.00     0.000 HD 
HETATM    3  H2  UNL     1     -11.702  13.908  62.724  1.00  0.00     0.000 HD 
HETATM    4  C   UNL     1     -11.273  13.992  64.764  1.00  0.00    -0.375 C  
HETATM    5  N   UNL     1     -10.361  14.895  64.598  1.00  0.00    -0.483 N  
HETATM    6  C   UNL     1      -9.694  15.402  65.686  1.00  0.00    -0.331 C  
HETATM    7  H   UNL     1     -10.137  15.229  63.660  1.00  0.00     0.000 HD 
HETATM    8  N   UNL     1      -9.871  14.785  66.936  1.00  0.00    -0.238 N  
HETATM    9  O   UNL     1      -8.962  16.383  65.566  1.00  0.00    -0.352 OA 
HETATM   10  C   UNL     1     -11.627  13.443  66.084  1.00  0.00    -0.378 C  
HETATM   11  C   UNL     1     -10.892  13.871  67.109  1.00  0.00    -0.284 C  
ENDROOT
BRANCH   8  12
HETATM   12  C   UNL     1      -9.173  15.379  68.089  1.00  0.00    -0.186 C  
HETATM   13  C   UNL     1      -9.813  15.163  69.471  1.00  0.00    -0.184 C  
HETATM   14  S   UNL     1     -10.971  16.522  69.635  1.00  0.00    -0.208 SA 
HETATM   15  C   UNL     1      -9.911  17.582  68.632  1.00  0.00    -0.338 C  
HETATM   16  O   UNL     1      -8.967  16.798  67.889  1.00  0.00    -0.213 OA 
BRANCH  15  17
HETATM   17  C   UNL     1     -10.759  18.454  67.697  1.00  0.00    -0.357 C  
HETATM   18  O   UNL     1     -10.274  19.795  67.617  1.00  0.00    -0.385 OA 
HETATM   19  H   UNL     1     -10.799  20.334  67.038  1.00  0.00     0.000 HD 
ENDBRANCH  15  17
ENDBRANCH   8  12
TORSDOF 2
ENDMDL
MODEL       84
REMARK 921   NORMALIZED FREE ENERGY PREDICTED BY IDOCK:   -3.94 KCAL/MOL
REMARK 922        TOTAL FREE ENERGY PREDICTED BY IDOCK:   -4.35 KCAL/MOL
REMARK 923 INTER-LIGAND FREE ENERGY PREDICTED BY IDOCK:   -4.57 KCAL/MOL
REMARK 924 INTRA-LIGAND FREE ENERGY PREDICTED BY IDOCK:    0.21 KCAL/MOL
REMARK 927      BINDING AFFINITY PREDICTED BY RF-SCORE:    0.00 PKD
ROOT
HETATM    1  N   UNL     1      -7.477   9.868  63.207  1.00  0.00    -0.127 NA 
HETATM    2  H1  UNL     1      -6.891   9.200  63.706  1.00  0.00     0.000 HD 
HETATM    3  H2  UNL     1      -7.342  10.052  62.213  1.00  0.00     0.000 HD 
HETATM    4  C   UNL     1      -8.450  10.508  63.921  1.00  0.00    -0.120 C  
HETATM    5  N   UNL     1      -9.194  11.356  63.287  1.00  0.00    -0.493 N  
HETATM    6  C   UNL     1     -10.208  12.006  63.948  1.00  0.00    -0.398 C  
HETATM    7  H   UNL     1      -9.028  11.543  62.297  1.00  0.00     0.000 HD 
HETATM    8  N   UNL     1     -10.286  11.890  65.347  1.00  0.00    -0.256 N  
HETATM    9  O   UNL     1     -11.033  12.670  63.323  1.00  0.00    -0.386 OA 
HETATM   10  C   UNL     1      -8.615  10.212  65.354  1.00  0.00    -0.165 C  
HETATM   11  C   UNL     1      -9.531  10.934  65.997  1.00  0.00    -0.203 C  
ENDROOT
BRANCH   8  12
HETATM   12  C   UNL     1     -11.409  12.567  66.019  1.00  0.00    -0.344 C  
HETATM   13  C   UNL     1     -11.073  13.849  66.802  1.00  0.00    -0.303 C  
HETATM   14  S   UNL     1     -10.619  13.260  68.433  1.00  0.00    -0.254 SA 
HETATM   15  C   UNL     1     -11.749  11.862  68.273  1.00  0.00    -0.321 C  
HETATM   16  O   UNL     1     -12.106  11.655  66.899  1.00  0.00    -0.512 OA 
BRANCH  15  17
HETATM   17  C   UNL     1     -11.123  10.599  68.877  1.00  0.00    -0.261 C  
HETATM   18  O   UNL     1      -9.849  10.854  69.469  1.00  0.00    -0.425 OA 
HETATM   19  H   UNL     1      -9.462  10.072  69.842  1.00  0.00     0.000 HD 
ENDBRANCH  15  17
ENDBRANCH   8  12
TORSDOF 2
ENDMDL
MODEL       85
REMARK 921   NORMALIZED FREE ENERGY PREDICTED BY IDOCK:   -3.91 KCAL/MOL
REMARK 922        TOTAL FREE ENERGY PREDICTED BY IDOCK:   -4.32 KCAL/MOL
REMARK 923 INTER-LIGAND FREE ENERGY PREDICTED BY IDOCK:   -4.52 KCAL/MOL
REMARK 924 INTRA-LIGAND FREE ENERGY PREDICTED BY IDOCK:    0.20 KCAL/MOL
REMARK 927      BINDING AFFINITY PREDICTED BY RF-SCORE:    0.00 PKD
ROOT
HETATM    1  N   UNL     1      -5.631  20.161  63.340  1.00  0.00    -0.241 NA 
HETATM    2  H1  UNL     1      -5.305  19.427  62.712  1.00  0.00     0.000 HD 
HETATM    3  H2  UNL     1      -5.659  21.137  63.045  1.00  0.00     0.000 HD 
HETATM    4  C   UNL     1      -6.027  19.786  64.593  1.00  0.00    -0.261 C  
HETATM    5  N   UNL     1      -6.441  20.718  65.390  1.00  0.00    -0.402 N  
HETATM    6  C   UNL     1      -6.880  20.394  66.651  1.00  0.00    -0.247 C  
HETATM    7  H   UNL     1      -6.440  21.691  65.084  1.00  0.00     0.000 HD 
HETATM    8  N   UNL     1      -6.679  19.085  67.122  1.00  0.00    -0.198 N  
HETATM    9  O   UNL     1      -7.443  21.236  67.349  1.00  0.00    -0.450 OA 
HETATM   10  C   UNL     1      -5.973  18.366  64.979  1.00  0.00    -0.184 C  
HETATM   11  C   UNL     1      -6.300  18.093  66.241  1.00  0.00    -0.214 C  
ENDROOT
BRANCH   8  12
HETATM   12  C   UNL     1      -7.199  18.763  68.462  1.00  0.00    -0.292 C  
HETATM   13  C   UNL     1      -7.115  17.289  68.898  1.00  0.00    -0.242 C  
HETATM   14  S   UNL     1      -8.630  16.561  68.276  1.00  0.00    -0.208 SA 
HETATM   15  C   UNL     1      -9.499  18.130  68.478  1.00  0.00    -0.329 C  
HETATM   16  O   UNL     1      -8.566  19.212  68.606  1.00  0.00    -0.350 OA 
BRANCH  15  17
HETATM   17  C   UNL     1     -10.458  18.363  67.304  1.00  0.00    -0.405 C  
HETATM   18  O   UNL     1      -9.803  18.256  66.040  1.00  0.00    -0.496 OA 
HETATM   19  H   UNL     1     -10.396  18.400  65.312  1.00  0.00     0.000 HD 
ENDBRANCH  15  17
ENDBRANCH   8  12
TORSDOF 2
ENDMDL
MODEL       86
REMARK 921   NORMALIZED FREE ENERGY PREDICTED BY IDOCK:   -3.82 KCAL/MOL
REMARK 922        TOTAL FREE ENERGY PREDICTED BY IDOCK:   -4.23 KCAL/MOL
REMARK 923 INTER-LIGAND FREE ENERGY PREDICTED BY IDOCK:   -4.39 KCAL/MOL
REMARK 924 INTRA-LIGAND FREE ENERGY PREDICTED BY IDOCK:    0.16 KCAL/MOL
REMARK 927      BINDING AFFINITY PREDICTED BY RF-SCORE:    0.00 PKD
ROOT
HETATM    1  N   UNL     1      -7.625  12.868  68.366  1.00  0.00    -0.128 NA 
HETATM    2  H1  UNL     1      -6.865  12.693  67.709  1.00  0.00     0.000 HD 
HETATM    3  H2  UNL     1      -7.876  12.185  69.081  1.00  0.00     0.000 HD 
HETATM    4  C   UNL     1      -8.294  14.053  68.250  1.00  0.00    -0.162 C  
HETATM    5  N   UNL     1      -9.260  14.276  69.084  1.00  0.00    -0.401 N  
HETATM    6  C   UNL     1      -9.948  15.464  69.032  1.00  0.00    -0.229 C  
HETATM    7  H   UNL     1      -9.510  13.570  69.777  1.00  0.00     0.000 HD 
HETATM    8  N   UNL     1      -9.725  16.328  67.947  1.00  0.00    -0.232 N  
HETATM    9  O   UNL     1     -10.737  15.765  69.926  1.00  0.00    -0.276 OA 
HETATM   10  C   UNL     1      -7.899  15.014  67.206  1.00  0.00    -0.241 C  
HETATM   11  C   UNL     1      -8.651  16.108  67.107  1.00  0.00    -0.187 C  
ENDROOT
BRANCH   8  12
HETATM   12  C   UNL     1     -10.449  17.611  67.945  1.00  0.00    -0.392 C  
HETATM   13  C   UNL     1     -10.534  18.354  66.600  1.00  0.00    -0.385 C  
HETATM   14  S   UNL     1      -9.040  19.344  66.551  1.00  0.00    -0.367 SA 
HETATM   15  C   UNL     1      -9.056  19.505  68.348  1.00  0.00    -0.356 C  
HETATM   16  O   UNL     1      -9.904  18.510  68.938  1.00  0.00    -0.377 OA 
BRANCH  15  17
HETATM   17  C   UNL     1      -7.629  19.413  68.904  1.00  0.00    -0.363 C  
HETATM   18  O   UNL     1      -6.762  20.395  68.336  1.00  0.00    -0.291 OA 
HETATM   19  H   UNL     1      -5.878  20.338  68.680  1.00  0.00     0.000 HD 
ENDBRANCH  15  17
ENDBRANCH   8  12
TORSDOF 2
ENDMDL
MODEL       87
REMARK 921   NORMALIZED FREE ENERGY PREDICTED BY IDOCK:   -3.77 KCAL/MOL
REMARK 922        TOTAL FREE ENERGY PREDICTED BY IDOCK:   -4.17 KCAL/MOL
REMARK 923 INTER-LIGAND FREE ENERGY PREDICTED BY IDOCK:   -4.37 KCAL/MOL
REMARK 924 INTRA-LIGAND FREE ENERGY PREDICTED BY IDOCK:    0.20 KCAL/MOL
REMARK 927      BINDING AFFINITY PREDICTED BY RF-SCORE:    0.00 PKD
ROOT
HETATM    1  N   UNL     1      -6.731  10.143  65.695  1.00  0.00    -0.109 NA 
HETATM    2  H1  UNL     1      -7.180   9.349  65.237  1.00  0.00     0.000 HD 
HETATM    3  H2  UNL     1      -5.716  10.220  65.745  1.00  0.00     0.000 HD 
HETATM    4  C   UNL     1      -7.544  11.097  66.237  1.00  0.00    -0.075 C  
HETATM    5  N   UNL     1      -6.975  12.104  66.818  1.00  0.00    -0.376 N  
HETATM    6  C   UNL     1      -7.743  13.109  67.354  1.00  0.00    -0.145 C  
HETATM    7  H   UNL     1      -5.957  12.152  66.877  1.00  0.00     0.000 HD 
HETATM    8  N   UNL     1      -9.133  12.924  67.442  1.00  0.00    -0.188 N  
HETATM    9  O   UNL     1      -7.220  14.152  67.742  1.00  0.00    -0.141 OA 
HETATM   10  C   UNL     1      -9.006  10.950  66.140  1.00  0.00    -0.196 C  
HETATM   11  C   UNL     1      -9.728  11.880  66.762  1.00  0.00    -0.204 C  
ENDROOT
BRANCH   8  12
HETATM   12  C   UNL     1      -9.930  14.037  67.985  1.00  0.00    -0.235 C  
HETATM   13  C   UNL     1     -11.409  13.743  68.291  1.00  0.00    -0.285 C  
HETATM   14  S   UNL     1     -12.250  14.067  66.740  1.00  0.00    -0.325 SA 
HETATM   15  C   UNL     1     -11.037  15.335  66.317  1.00  0.00    -0.273 C  
HETATM   16  O   UNL     1      -9.856  15.193  67.118  1.00  0.00    -0.225 OA 
BRANCH  15  17
HETATM   17  C   UNL     1     -10.699  15.271  64.822  1.00  0.00    -0.317 C  
HETATM   18  O   UNL     1     -11.223  16.386  64.100  1.00  0.00    -1.273 OA 
HETATM   19  H   UNL     1     -11.014  16.347  63.174  1.00  0.00     0.000 HD 
ENDBRANCH  15  17
ENDBRANCH   8  12
TORSDOF 2
ENDMDL
MODEL       88
REMARK 921   NORMALIZED FREE ENERGY PREDICTED BY IDOCK:   -3.76 KCAL/MOL
REMARK 922        TOTAL FREE ENERGY PREDICTED BY IDOCK:   -4.16 KCAL/MOL
REMARK 923 INTER-LIGAND FREE ENERGY PREDICTED BY IDOCK:   -4.42 KCAL/MOL
REMARK 924 INTRA-LIGAND FREE ENERGY PREDICTED BY IDOCK:    0.27 KCAL/MOL
REMARK 927      BINDING AFFINITY PREDICTED BY RF-SCORE:    0.00 PKD
ROOT
HETATM    1  N   UNL     1     -11.711  12.796  68.877  1.00  0.00    -0.310 NA 
HETATM    2  H1  UNL     1     -11.324  13.129  67.994  1.00  0.00     0.000 HD 
HETATM    3  H2  UNL     1     -12.228  13.420  69.497  1.00  0.00     0.000 HD 
HETATM    4  C   UNL     1     -11.509  11.484  69.197  1.00  0.00    -0.297 C  
HETATM    5  N   UNL     1     -12.000  11.062  70.318  1.00  0.00    -0.334 N  
HETATM    6  C   UNL     1     -11.853   9.744  70.677  1.00  0.00    -0.281 C  
HETATM    7  H   UNL     1     -12.494  11.707  70.935  1.00  0.00     0.000 HD 
HETATM    8  N   UNL     1     -10.998   8.927  69.917  1.00  0.00    -0.217 N  
HETATM    9  O   UNL     1     -12.466   9.289  71.641  1.00  0.00    -0.324 OA 
HETATM   10  C   UNL     1     -10.760  10.616  68.273  1.00  0.00    -0.260 C  
HETATM   11  C   UNL     1     -10.537   9.372  68.693  1.00  0.00    -0.200 C  
ENDROOT
BRANCH   8  12
HETATM   12  C   UNL     1     -10.896   7.510  70.305  1.00  0.00    -0.246 C  
HETATM   13  C   UNL     1      -9.479   6.964  70.558  1.00  0.00    -0.169 C  
HETATM   14  S   UNL     1      -8.920   6.429  68.941  1.00  0.00    -0.122 SA 
HETATM   15  C   UNL     1     -10.612   6.023  68.461  1.00  0.00    -0.265 C  
HETATM   16  O   UNL     1     -11.553   6.662  69.334  1.00  0.00    -0.274 OA 
BRANCH  15  17
HETATM   17  C   UNL     1     -10.860   6.418  66.999  1.00  0.00    -0.392 C  
HETATM   18  O   UNL     1     -11.181   5.292  66.181  1.00  0.00    -0.731 OA 
HETATM   19  H   UNL     1     -11.335   5.537  65.276  1.00  0.00     0.000 HD 
ENDBRANCH  15  17
ENDBRANCH   8  12
TORSDOF 2
ENDMDL
MODEL       89
REMARK 921   NORMALIZED FREE ENERGY PREDICTED BY IDOCK:   -3.75 KCAL/MOL
REMARK 922        TOTAL FREE ENERGY PREDICTED BY IDOCK:   -4.15 KCAL/MOL
REMARK 923 INTER-LIGAND FREE ENERGY PREDICTED BY IDOCK:   -4.32 KCAL/MOL
REMARK 924 INTRA-LIGAND FREE ENERGY PREDICTED BY IDOCK:    0.17 KCAL/MOL
REMARK 927      BINDING AFFINITY PREDICTED BY RF-SCORE:    0.00 PKD
ROOT
HETATM    1  N   UNL     1     -14.290   8.461  71.325  1.00  0.00    -0.644 NA 
HETATM    2  H1  UNL     1     -14.544   9.169  72.013  1.00  0.00     0.000 HD 
HETATM    3  H2  UNL     1     -14.949   8.158  70.608  1.00  0.00     0.000 HD 
HETATM    4  C   UNL     1     -13.032   7.934  71.402  1.00  0.00    -0.271 C  
HETATM    5  N   UNL     1     -12.709   7.034  70.528  1.00  0.00    -0.559 N  
HETATM    6  C   UNL     1     -11.447   6.492  70.540  1.00  0.00    -0.387 C  
HETATM    7  H   UNL     1     -13.390   6.729  69.834  1.00  0.00     0.000 HD 
HETATM    8  N   UNL     1     -10.599   6.774  71.624  1.00  0.00    -0.213 N  
HETATM    9  O   UNL     1     -11.068   5.778  69.613  1.00  0.00    -0.372 OA 
HETATM   10  C   UNL     1     -12.109   8.401  72.450  1.00  0.00    -0.443 C  
HETATM   11  C   UNL     1     -10.932   7.782  72.508  1.00  0.00    -0.338 C  
ENDROOT
BRANCH   8  12
HETATM   12  C   UNL     1      -9.239   6.208  71.584  1.00  0.00    -0.145 C  
HETATM   13  C   UNL     1      -8.452   6.209  72.906  1.00  0.00    -0.119 C  
HETATM   14  S   UNL     1      -7.646   7.811  72.936  1.00  0.00    -0.114 SA 
HETATM   15  C   UNL     1      -7.538   7.820  71.134  1.00  0.00    -0.079 C  
HETATM   16  O   UNL     1      -8.441   6.860  70.568  1.00  0.00    -0.134 OA 
BRANCH  15  17
HETATM   17  C   UNL     1      -7.816   9.227  70.590  1.00  0.00    -0.158 C  
HETATM   18  O   UNL     1      -6.788  10.155  70.937  1.00  0.00    -0.338 OA 
HETATM   19  H   UNL     1      -6.960  11.026  70.600  1.00  0.00     0.000 HD 
ENDBRANCH  15  17
ENDBRANCH   8  12
TORSDOF 2
ENDMDL
MODEL       90
REMARK 921   NORMALIZED FREE ENERGY PREDICTED BY IDOCK:   -3.75 KCAL/MOL
REMARK 922        TOTAL FREE ENERGY PREDICTED BY IDOCK:   -4.14 KCAL/MOL
REMARK 923 INTER-LIGAND FREE ENERGY PREDICTED BY IDOCK:   -4.22 KCAL/MOL
REMARK 924 INTRA-LIGAND FREE ENERGY PREDICTED BY IDOCK:    0.08 KCAL/MOL
REMARK 927      BINDING AFFINITY PREDICTED BY RF-SCORE:    0.00 PKD
ROOT
HETATM    1  N   UNL     1      -9.008  19.321  67.268  1.00  0.00    -0.290 NA 
HETATM    2  H1  UNL     1      -9.864  19.873  67.228  1.00  0.00     0.000 HD 
HETATM    3  H2  UNL     1      -8.100  19.762  67.414  1.00  0.00     0.000 HD 
HETATM    4  C   UNL     1      -9.125  17.968  67.117  1.00  0.00    -0.256 C  
HETATM    5  N   UNL     1      -8.038  17.268  67.168  1.00  0.00    -0.196 N  
HETATM    6  C   UNL     1      -8.100  15.900  67.052  1.00  0.00    -0.230 C  
HETATM    7  H   UNL     1      -7.137  17.730  67.292  1.00  0.00     0.000 HD 
HETATM    8  N   UNL     1      -9.317  15.307  66.678  1.00  0.00    -0.241 N  
HETATM    9  O   UNL     1      -7.107  15.211  67.281  1.00  0.00    -0.195 OA 
HETATM   10  C   UNL     1     -10.455  17.371  66.911  1.00  0.00    -0.279 C  
HETATM   11  C   UNL     1     -10.476  16.058  66.693  1.00  0.00    -0.304 C  
ENDROOT
BRANCH   8  12
HETATM   12  C   UNL     1      -9.358  13.837  66.603  1.00  0.00    -0.264 C  
HETATM   13  C   UNL     1     -10.388  13.222  65.638  1.00  0.00    -0.287 C  
HETATM   14  S   UNL     1     -11.882  13.086  66.620  1.00  0.00    -0.379 SA 
HETATM   15  C   UNL     1     -10.906  12.837  68.118  1.00  0.00    -0.228 C  
HETATM   16  O   UNL     1      -9.551  13.260  67.916  1.00  0.00    -0.203 OA 
BRANCH  15  17
HETATM   17  C   UNL     1     -11.545  13.577  69.300  1.00  0.00    -0.316 C  
HETATM   18  O   UNL     1     -12.603  14.444  68.888  1.00  0.00    -0.555 OA 
HETATM   19  H   UNL     1     -12.999  14.903  69.620  1.00  0.00     0.000 HD 
ENDBRANCH  15  17
ENDBRANCH   8  12
TORSDOF 2
ENDMDL
MODEL       91
REMARK 921   NORMALIZED FREE ENERGY PREDICTED BY IDOCK:   -3.73 KCAL/MOL
REMARK 922        TOTAL FREE ENERGY PREDICTED BY IDOCK:   -4.12 KCAL/MOL
REMARK 923 INTER-LIGAND FREE ENERGY PREDICTED BY IDOCK:   -4.19 KCAL/MOL
REMARK 924 INTRA-LIGAND FREE ENERGY PREDICTED BY IDOCK:    0.06 KCAL/MOL
REMARK 927      BINDING AFFINITY PREDICTED BY RF-SCORE:    0.00 PKD
ROOT
HETATM    1  N   UNL     1     -10.162   9.533  65.687  1.00  0.00    -0.276 NA 
HETATM    2  H1  UNL     1     -10.652  10.389  65.425  1.00  0.00     0.000 HD 
HETATM    3  H2  UNL     1      -9.684   8.963  64.990  1.00  0.00     0.000 HD 
HETATM    4  C   UNL     1     -10.174   9.181  67.007  1.00  0.00    -0.263 C  
HETATM    5  N   UNL     1      -9.554   8.095  67.338  1.00  0.00    -0.153 N  
HETATM    6  C   UNL     1      -9.508   7.708  68.656  1.00  0.00    -0.151 C  
HETATM    7  H   UNL     1      -9.100   7.526  66.623  1.00  0.00     0.000 HD 
HETATM    8  N   UNL     1     -10.308   8.390  69.589  1.00  0.00    -0.214 N  
HETATM    9  O   UNL     1      -8.774   6.787  69.009  1.00  0.00    -0.130 OA 
HETATM   10  C   UNL     1     -10.875  10.034  67.982  1.00  0.00    -0.311 C  
HETATM   11  C   UNL     1     -10.909   9.581  69.233  1.00  0.00    -0.191 C  
ENDROOT
BRANCH   8  12
HETATM   12  C   UNL     1     -10.203   7.975  70.999  1.00  0.00    -0.190 C  
HETATM   13  C   UNL     1     -10.782   6.595  71.358  1.00  0.00    -0.229 C  
HETATM   14  S   UNL     1     -12.508   6.923  71.715  1.00  0.00    -0.325 SA 
HETATM   15  C   UNL     1     -12.096   8.572  72.322  1.00  0.00    -0.387 C  
HETATM   16  O   UNL     1     -10.793   8.967  71.871  1.00  0.00    -0.350 OA 
BRANCH  15  17
HETATM   17  C   UNL     1     -13.163   9.583  71.882  1.00  0.00    -0.439 C  
HETATM   18  O   UNL     1     -14.054   9.041  70.906  1.00  0.00    -0.576 OA 
HETATM   19  H   UNL     1     -14.714   9.667  70.633  1.00  0.00     0.000 HD 
ENDBRANCH  15  17
ENDBRANCH   8  12
TORSDOF 2
ENDMDL
MODEL       92
REMARK 921   NORMALIZED FREE ENERGY PREDICTED BY IDOCK:   -3.71 KCAL/MOL
REMARK 922        TOTAL FREE ENERGY PREDICTED BY IDOCK:   -4.10 KCAL/MOL
REMARK 923 INTER-LIGAND FREE ENERGY PREDICTED BY IDOCK:   -4.26 KCAL/MOL
REMARK 924 INTRA-LIGAND FREE ENERGY PREDICTED BY IDOCK:    0.16 KCAL/MOL
REMARK 927      BINDING AFFINITY PREDICTED BY RF-SCORE:    0.00 PKD
ROOT
HETATM    1  N   UNL     1      -5.164  21.141  70.225  1.00  0.00    -0.569 NA 
HETATM    2  H1  UNL     1      -4.895  20.736  71.122  1.00  0.00     0.000 HD 
HETATM    3  H2  UNL     1      -4.918  22.101  69.983  1.00  0.00     0.000 HD 
HETATM    4  C   UNL     1      -5.868  20.348  69.364  1.00  0.00    -0.350 C  
HETATM    5  N   UNL     1      -6.210  20.863  68.226  1.00  0.00    -0.334 N  
HETATM    6  C   UNL     1      -6.892  20.102  67.309  1.00  0.00    -0.235 C  
HETATM    7  H   UNL     1      -5.973  21.832  68.011  1.00  0.00     0.000 HD 
HETATM    8  N   UNL     1      -7.384  18.846  67.703  1.00  0.00    -0.220 N  
HETATM    9  O   UNL     1      -7.061  20.513  66.162  1.00  0.00    -0.246 OA 
HETATM   10  C   UNL     1      -6.201  18.967  69.751  1.00  0.00    -0.266 C  
HETATM   11  C   UNL     1      -6.956  18.287  68.891  1.00  0.00    -0.278 C  
ENDROOT
BRANCH   8  12
HETATM   12  C   UNL     1      -8.075  18.040  66.683  1.00  0.00    -0.260 C  
HETATM   13  C   UNL     1      -9.363  18.637  66.087  1.00  0.00    -0.156 C  
HETATM   14  S   UNL     1     -10.655  18.096  67.205  1.00  0.00    -0.322 SA 
HETATM   15  C   UNL     1      -9.742  16.582  67.571  1.00  0.00    -0.242 C  
HETATM   16  O   UNL     1      -8.367  16.715  67.185  1.00  0.00    -0.164 OA 
BRANCH  15  17
HETATM   17  C   UNL     1      -9.865  16.232  69.060  1.00  0.00    -0.257 C  
HETATM   18  O   UNL     1      -9.429  14.902  69.342  1.00  0.00    -0.362 OA 
HETATM   19  H   UNL     1      -9.505  14.685  70.263  1.00  0.00     0.000 HD 
ENDBRANCH  15  17
ENDBRANCH   8  12
TORSDOF 2
ENDMDL
MODEL       93
REMARK 921   NORMALIZED FREE ENERGY PREDICTED BY IDOCK:   -3.70 KCAL/MOL
REMARK 922        TOTAL FREE ENERGY PREDICTED BY IDOCK:   -4.09 KCAL/MOL
REMARK 923 INTER-LIGAND FREE ENERGY PREDICTED BY IDOCK:   -4.21 KCAL/MOL
REMARK 924 INTRA-LIGAND FREE ENERGY PREDICTED BY IDOCK:    0.12 KCAL/MOL
REMARK 927      BINDING AFFINITY PREDICTED BY RF-SCORE:    0.00 PKD
ROOT
HETATM    1  N   UNL     1     -10.231   7.381  71.839  1.00  0.00    -0.186 NA 
HETATM    2  H1  UNL     1     -10.497   7.667  72.781  1.00  0.00     0.000 HD 
HETATM    3  H2  UNL     1      -9.791   6.478  71.664  1.00  0.00     0.000 HD 
HETATM    4  C   UNL     1     -10.487   8.255  70.821  1.00  0.00    -0.196 C  
HETATM    5  N   UNL     1     -10.148   7.892  69.626  1.00  0.00    -0.193 N  
HETATM    6  C   UNL     1     -10.409   8.719  68.560  1.00  0.00    -0.199 C  
HETATM    7  H   UNL     1      -9.688   6.994  69.475  1.00  0.00     0.000 HD 
HETATM    8  N   UNL     1     -10.851  10.029  68.813  1.00  0.00    -0.221 N  
HETATM    9  O   UNL     1     -10.263   8.314  67.408  1.00  0.00    -0.212 OA 
HETATM   10  C   UNL     1     -11.126   9.549  71.115  1.00  0.00    -0.450 C  
HETATM   11  C   UNL     1     -11.268  10.376  70.082  1.00  0.00    -0.321 C  
ENDROOT
BRANCH   8  12
HETATM   12  C   UNL     1     -11.160  10.874  67.646  1.00  0.00    -0.313 C  
HETATM   13  C   UNL     1      -9.968  11.566  66.961  1.00  0.00    -0.200 C  
HETATM   14  S   UNL     1      -9.775  13.103  67.863  1.00  0.00    -0.227 SA 
HETATM   15  C   UNL     1     -11.549  13.164  68.192  1.00  0.00    -0.339 C  
HETATM   16  O   UNL     1     -12.147  11.877  67.985  1.00  0.00    -0.541 OA 
BRANCH  15  17
HETATM   17  C   UNL     1     -11.810  13.671  69.616  1.00  0.00    -0.335 C  
HETATM   18  O   UNL     1     -13.147  14.143  69.786  1.00  0.00    -0.275 OA 
HETATM   19  H   UNL     1     -13.309  14.457  70.668  1.00  0.00     0.000 HD 
ENDBRANCH  15  17
ENDBRANCH   8  12
TORSDOF 2
ENDMDL
MODEL       94
REMARK 921   NORMALIZED FREE ENERGY PREDICTED BY IDOCK:   -3.70 KCAL/MOL
REMARK 922        TOTAL FREE ENERGY PREDICTED BY IDOCK:   -4.09 KCAL/MOL
REMARK 923 INTER-LIGAND FREE ENERGY PREDICTED BY IDOCK:   -4.16 KCAL/MOL
REMARK 924 INTRA-LIGAND FREE ENERGY PREDICTED BY IDOCK:    0.08 KCAL/MOL
REMARK 927      BINDING AFFINITY PREDICTED BY RF-SCORE:    0.00 PKD
ROOT
HETATM    1  N   UNL     1     -11.652  14.323  63.851  1.00  0.00    -0.603 NA 
HETATM    2  H1  UNL     1     -12.463  13.899  63.400  1.00  0.00     0.000 HD 
HETATM    3  H2  UNL     1     -11.276  15.216  63.534  1.00  0.00     0.000 HD 
HETATM    4  C   UNL     1     -11.090  13.646  64.897  1.00  0.00    -0.351 C  
HETATM    5  N   UNL     1     -10.061  14.184  65.469  1.00  0.00    -0.403 N  
HETATM    6  C   UNL     1      -9.473  13.562  66.544  1.00  0.00    -0.256 C  
HETATM    7  H   UNL     1      -9.686  15.067  65.121  1.00  0.00     0.000 HD 
HETATM    8  N   UNL     1      -9.875  12.256  66.873  1.00  0.00    -0.206 N  
HETATM    9  O   UNL     1      -8.618  14.145  67.208  1.00  0.00    -0.196 OA 
HETATM   10  C   UNL     1     -11.665  12.361  65.326  1.00  0.00    -0.437 C  
HETATM   11  C   UNL     1     -11.013  11.726  66.298  1.00  0.00    -0.300 C  
ENDROOT
BRANCH   8  12
HETATM   12  C   UNL     1      -9.254  11.636  68.056  1.00  0.00    -0.178 C  
HETATM   13  C   UNL     1      -7.820  11.104  67.883  1.00  0.00    -0.111 C  
HETATM   14  S   UNL     1      -8.043   9.430  67.282  1.00  0.00    -0.110 SA 
HETATM   15  C   UNL     1      -9.590   9.278  68.197  1.00  0.00    -0.143 C  
HETATM   16  O   UNL     1     -10.084  10.571  68.574  1.00  0.00    -0.160 OA 
BRANCH  15  17
HETATM   17  C   UNL     1     -10.628   8.512  67.366  1.00  0.00    -0.234 C  
HETATM   18  O   UNL     1     -10.084   8.016  66.143  1.00  0.00    -0.475 OA 
HETATM   19  H   UNL     1     -10.726   7.542  65.629  1.00  0.00     0.000 HD 
ENDBRANCH  15  17
ENDBRANCH   8  12
TORSDOF 2
ENDMDL
MODEL       95
REMARK 921   NORMALIZED FREE ENERGY PREDICTED BY IDOCK:   -3.69 KCAL/MOL
REMARK 922        TOTAL FREE ENERGY PREDICTED BY IDOCK:   -4.08 KCAL/MOL
REMARK 923 INTER-LIGAND FREE ENERGY PREDICTED BY IDOCK:   -4.30 KCAL/MOL
REMARK 924 INTRA-LIGAND FREE ENERGY PREDICTED BY IDOCK:    0.21 KCAL/MOL
REMARK 927      BINDING AFFINITY PREDICTED BY RF-SCORE:    0.00 PKD
ROOT
HETATM    1  N   UNL     1      -6.008  12.258  66.749  1.00  0.00    -0.496 NA 
HETATM    2  H1  UNL     1      -5.520  11.366  66.829  1.00  0.00     0.000 HD 
HETATM    3  H2  UNL     1      -5.507  13.117  66.524  1.00  0.00     0.000 HD 
HETATM    4  C   UNL     1      -7.358  12.256  66.956  1.00  0.00    -0.050 C  
HETATM    5  N   UNL     1      -7.977  13.389  66.855  1.00  0.00    -0.393 N  
HETATM    6  C   UNL     1      -9.339  13.441  67.024  1.00  0.00    -0.243 C  
HETATM    7  H   UNL     1      -7.454  14.241  66.652  1.00  0.00     0.000 HD 
HETATM    8  N   UNL     1     -10.006  12.301  67.503  1.00  0.00    -0.197 N  
HETATM    9  O   UNL     1      -9.960  14.467  66.751  1.00  0.00    -0.252 OA 
HETATM   10  C   UNL     1      -8.044  10.994  67.276  1.00  0.00    -0.126 C  
HETATM   11  C   UNL     1      -9.346  11.089  67.542  1.00  0.00    -0.159 C  
ENDROOT
BRANCH   8  12
HETATM   12  C   UNL     1     -11.471  12.380  67.633  1.00  0.00    -0.337 C  
HETATM   13  C   UNL     1     -12.025  13.497  68.536  1.00  0.00    -0.344 C  
HETATM   14  S   UNL     1     -12.047  12.767  70.173  1.00  0.00    -0.222 SA 
HETATM   15  C   UNL     1     -12.345  11.132  69.470  1.00  0.00    -0.194 C  
HETATM   16  O   UNL     1     -12.017  11.114  68.074  1.00  0.00    -0.625 OA 
BRANCH  15  17
HETATM   17  C   UNL     1     -11.548  10.069  70.237  1.00  0.00    -0.280 C  
HETATM   18  O   UNL     1     -11.949   9.972  71.603  1.00  0.00    -0.376 OA 
HETATM   19  H   UNL     1     -11.456   9.314  72.078  1.00  0.00     0.000 HD 
ENDBRANCH  15  17
ENDBRANCH   8  12
TORSDOF 2
ENDMDL
MODEL       96
REMARK 921   NORMALIZED FREE ENERGY PREDICTED BY IDOCK:   -3.69 KCAL/MOL
REMARK 922        TOTAL FREE ENERGY PREDICTED BY IDOCK:   -4.08 KCAL/MOL
REMARK 923 INTER-LIGAND FREE ENERGY PREDICTED BY IDOCK:   -4.18 KCAL/MOL
REMARK 924 INTRA-LIGAND FREE ENERGY PREDICTED BY IDOCK:    0.10 KCAL/MOL
REMARK 927      BINDING AFFINITY PREDICTED BY RF-SCORE:    0.00 PKD
ROOT
HETATM    1  N   UNL     1     -14.345   8.164  71.349  1.00  0.00    -0.621 NA 
HETATM    2  H1  UNL     1     -14.610   8.893  72.012  1.00  0.00     0.000 HD 
HETATM    3  H2  UNL     1     -15.034   7.728  70.737  1.00  0.00     0.000 HD 
HETATM    4  C   UNL     1     -13.030   7.794  71.315  1.00  0.00    -0.221 C  
HETATM    5  N   UNL     1     -12.694   6.868  70.475  1.00  0.00    -0.508 N  
HETATM    6  C   UNL     1     -11.381   6.478  70.376  1.00  0.00    -0.383 C  
HETATM    7  H   UNL     1     -13.403   6.429  69.887  1.00  0.00     0.000 HD 
HETATM    8  N   UNL     1     -10.462   6.945  71.332  1.00  0.00    -0.209 N  
HETATM    9  O   UNL     1     -11.018   5.739  69.463  1.00  0.00    -0.353 OA 
HETATM   10  C   UNL     1     -12.065   8.450  72.214  1.00  0.00    -0.456 C  
HETATM   11  C   UNL     1     -10.821   7.978  72.176  1.00  0.00    -0.279 C  
ENDROOT
BRANCH   8  12
HETATM   12  C   UNL     1      -9.056   6.540  71.172  1.00  0.00    -0.152 C  
HETATM   13  C   UNL     1      -8.741   5.046  71.371  1.00  0.00    -0.131 C  
HETATM   14  S   UNL     1      -8.452   4.890  73.134  1.00  0.00    -0.103 SA 
HETATM   15  C   UNL     1      -7.805   6.574  73.204  1.00  0.00    -0.100 C  
HETATM   16  O   UNL     1      -8.195   7.315  72.039  1.00  0.00    -0.101 OA 
BRANCH  15  17
HETATM   17  C   UNL     1      -8.277   7.273  74.485  1.00  0.00    -0.183 C  
HETATM   18  O   UNL     1      -7.958   8.665  74.492  1.00  0.00    -0.384 OA 
HETATM   19  H   UNL     1      -8.250   9.098  75.285  1.00  0.00     0.000 HD 
ENDBRANCH  15  17
ENDBRANCH   8  12
TORSDOF 2
ENDMDL
MODEL       97
REMARK 921   NORMALIZED FREE ENERGY PREDICTED BY IDOCK:   -3.69 KCAL/MOL
REMARK 922        TOTAL FREE ENERGY PREDICTED BY IDOCK:   -4.08 KCAL/MOL
REMARK 923 INTER-LIGAND FREE ENERGY PREDICTED BY IDOCK:   -4.13 KCAL/MOL
REMARK 924 INTRA-LIGAND FREE ENERGY PREDICTED BY IDOCK:    0.05 KCAL/MOL
REMARK 927      BINDING AFFINITY PREDICTED BY RF-SCORE:    0.00 PKD
ROOT
HETATM    1  N   UNL     1     -11.995   5.502  72.968  1.00  0.00    -0.530 NA 
HETATM    2  H1  UNL     1     -11.669   4.565  72.727  1.00  0.00     0.000 HD 
HETATM    3  H2  UNL     1     -12.521   5.675  73.824  1.00  0.00     0.000 HD 
HETATM    4  C   UNL     1     -11.698   6.513  72.099  1.00  0.00    -0.311 C  
HETATM    5  N   UNL     1     -12.111   7.701  72.405  1.00  0.00    -0.498 N  
HETATM    6  C   UNL     1     -11.816   8.761  71.583  1.00  0.00    -0.330 C  
HETATM    7  H   UNL     1     -12.656   7.850  73.255  1.00  0.00     0.000 HD 
HETATM    8  N   UNL     1     -11.247   8.503  70.324  1.00  0.00    -0.223 N  
HETATM    9  O   UNL     1     -12.040   9.913  71.949  1.00  0.00    -0.357 OA 
HETATM   10  C   UNL     1     -10.933   6.221  70.875  1.00  0.00    -0.344 C  
HETATM   11  C   UNL     1     -10.754   7.244  70.042  1.00  0.00    -0.245 C  
ENDROOT
BRANCH   8  12
HETATM   12  C   UNL     1     -10.906   9.665  69.485  1.00  0.00    -0.231 C  
HETATM   13  C   UNL     1     -10.575   9.378  68.010  1.00  0.00    -0.226 C  
HETATM   14  S   UNL     1      -8.816   9.028  68.015  1.00  0.00    -0.129 SA 
HETATM   15  C   UNL     1      -8.571  10.147  69.410  1.00  0.00    -0.174 C  
HETATM   16  O   UNL     1      -9.816  10.417  70.068  1.00  0.00    -0.121 OA 
BRANCH  15  17
HETATM   17  C   UNL     1      -7.545   9.561  70.389  1.00  0.00    -0.159 C  
HETATM   18  O   UNL     1      -8.097   9.349  71.689  1.00  0.00    -0.251 OA 
HETATM   19  H   UNL     1      -7.462   8.986  72.295  1.00  0.00     0.000 HD 
ENDBRANCH  15  17
ENDBRANCH   8  12
TORSDOF 2
ENDMDL
MODEL       98
REMARK 921   NORMALIZED FREE ENERGY PREDICTED BY IDOCK:   -3.68 KCAL/MOL
REMARK 922        TOTAL FREE ENERGY PREDICTED BY IDOCK:   -4.07 KCAL/MOL
REMARK 923 INTER-LIGAND FREE ENERGY PREDICTED BY IDOCK:   -4.20 KCAL/MOL
REMARK 924 INTRA-LIGAND FREE ENERGY PREDICTED BY IDOCK:    0.13 KCAL/MOL
REMARK 927      BINDING AFFINITY PREDICTED BY RF-SCORE:    0.00 PKD
ROOT
HETATM    1  N   UNL     1      -8.476  21.204  67.285  1.00  0.00    -0.487 NA 
HETATM    2  H1  UNL     1      -9.242  21.682  66.811  1.00  0.00     0.000 HD 
HETATM    3  H2  UNL     1      -7.707  21.723  67.707  1.00  0.00     0.000 HD 
HETATM    4  C   UNL     1      -8.522  19.839  67.332  1.00  0.00    -0.314 C  
HETATM    5  N   UNL     1      -7.549  19.232  67.934  1.00  0.00    -0.269 N  
HETATM    6  C   UNL     1      -7.559  17.862  68.038  1.00  0.00    -0.238 C  
HETATM    7  H   UNL     1      -6.778  19.769  68.330  1.00  0.00     0.000 HD 
HETATM    8  N   UNL     1      -8.518  17.135  67.312  1.00  0.00    -0.193 N  
HETATM    9  O   UNL     1      -6.745  17.287  68.759  1.00  0.00    -0.182 OA 
HETATM   10  C   UNL     1      -9.652  19.126  66.713  1.00  0.00    -0.383 C  
HETATM   11  C   UNL     1      -9.582  17.796  66.732  1.00  0.00    -0.300 C  
ENDROOT
BRANCH   8  12
HETATM   12  C   UNL     1      -8.524  15.671  67.479  1.00  0.00    -0.167 C  
HETATM   13  C   UNL     1      -9.060  14.844  66.296  1.00  0.00    -0.227 C  
HETATM   14  S   UNL     1     -10.827  14.757  66.588  1.00  0.00    -0.325 SA 
HETATM   15  C   UNL     1     -10.563  14.812  68.372  1.00  0.00    -0.242 C  
HETATM   16  O   UNL     1      -9.246  15.293  68.674  1.00  0.00    -0.184 OA 
BRANCH  15  17
HETATM   17  C   UNL     1     -11.635  15.680  69.043  1.00  0.00    -0.386 C  
HETATM   18  O   UNL     1     -11.433  15.797  70.452  1.00  0.00    -0.304 OA 
HETATM   19  H   UNL     1     -12.097  16.335  70.868  1.00  0.00     0.000 HD 
ENDBRANCH  15  17
ENDBRANCH   8  12
TORSDOF 2
ENDMDL
MODEL       99
REMARK 921   NORMALIZED FREE ENERGY PREDICTED BY IDOCK:   -3.67 KCAL/MOL
REMARK 922        TOTAL FREE ENERGY PREDICTED BY IDOCK:   -4.06 KCAL/MOL
REMARK 923 INTER-LIGAND FREE ENERGY PREDICTED BY IDOCK:   -4.22 KCAL/MOL
REMARK 924 INTRA-LIGAND FREE ENERGY PREDICTED BY IDOCK:    0.16 KCAL/MOL
REMARK 927      BINDING AFFINITY PREDICTED BY RF-SCORE:    0.00 PKD
ROOT
HETATM    1  N   UNL     1     -13.360  12.834  72.020  1.00  0.00    -0.501 NA 
HETATM    2  H1  UNL     1     -13.947  13.574  72.404  1.00  0.00     0.000 HD 
HETATM    3  H2  UNL     1     -13.331  11.906  72.443  1.00  0.00     0.000 HD 
HETATM    4  C   UNL     1     -12.613  13.134  70.916  1.00  0.00    -0.295 C  
HETATM    5  N   UNL     1     -11.867  12.194  70.429  1.00  0.00    -0.525 N  
HETATM    6  C   UNL     1     -11.118  12.431  69.302  1.00  0.00    -0.147 C  
HETATM    7  H   UNL     1     -11.836  11.280  70.881  1.00  0.00     0.000 HD 
HETATM    8  N   UNL     1     -11.018  13.748  68.821  1.00  0.00    -0.257 N  
HETATM    9  O   UNL     1     -10.553  11.504  68.725  1.00  0.00    -0.200 OA 
HETATM   10  C   UNL     1     -12.684  14.484  70.334  1.00  0.00    -0.378 C  
HETATM   11  C   UNL     1     -11.867  14.721  69.309  1.00  0.00    -0.318 C  
ENDROOT
BRANCH   8  12
HETATM   12  C   UNL     1     -10.240  13.959  67.588  1.00  0.00    -0.242 C  
HETATM   13  C   UNL     1      -8.736  13.637  67.657  1.00  0.00    -0.182 C  
HETATM   14  S   UNL     1      -7.988  15.160  68.237  1.00  0.00    -0.136 SA 
HETATM   15  C   UNL     1      -9.270  16.132  67.420  1.00  0.00    -0.208 C  
HETATM   16  O   UNL     1     -10.403  15.312  67.102  1.00  0.00    -0.256 OA 
BRANCH  15  17
HETATM   17  C   UNL     1      -9.679  17.321  68.299  1.00  0.00    -0.294 C  
HETATM   18  O   UNL     1      -8.906  18.489  68.026  1.00  0.00    -0.284 OA 
HETATM   19  H   UNL     1      -9.159  19.225  68.570  1.00  0.00     0.000 HD 
ENDBRANCH  15  17
ENDBRANCH   8  12
TORSDOF 2
ENDMDL
MODEL      100
REMARK 921   NORMALIZED FREE ENERGY PREDICTED BY IDOCK:   -3.66 KCAL/MOL
REMARK 922        TOTAL FREE ENERGY PREDICTED BY IDOCK:   -4.05 KCAL/MOL
REMARK 923 INTER-LIGAND FREE ENERGY PREDICTED BY IDOCK:   -4.09 KCAL/MOL
REMARK 924 INTRA-LIGAND FREE ENERGY PREDICTED BY IDOCK:    0.04 KCAL/MOL
REMARK 927      BINDING AFFINITY PREDICTED BY RF-SCORE:    0.00 PKD
ROOT
HETATM    1  N   UNL     1     -12.210  11.581  69.856  1.00  0.00    -0.279 NA 
HETATM    2  H1  UNL     1     -12.628  12.201  70.550  1.00  0.00     0.000 HD 
HETATM    3  H2  UNL     1     -12.092  11.874  68.887  1.00  0.00     0.000 HD 
HETATM    4  C   UNL     1     -11.816  10.342  70.277  1.00  0.00    -0.312 C  
HETATM    5  N   UNL     1     -11.287   9.555  69.396  1.00  0.00    -0.443 N  
HETATM    6  C   UNL     1     -10.845   8.309  69.769  1.00  0.00    -0.185 C  
HETATM    7  H   UNL     1     -11.197   9.860  68.426  1.00  0.00     0.000 HD 
HETATM    8  N   UNL     1     -11.163   7.836  71.054  1.00  0.00    -0.262 N  
HETATM    9  O   UNL     1     -10.178   7.627  68.993  1.00  0.00    -0.196 OA 
HETATM   10  C   UNL     1     -12.003   9.958  71.686  1.00  0.00    -0.427 C  
HETATM   11  C   UNL     1     -11.668   8.707  71.998  1.00  0.00    -0.369 C  
ENDROOT
BRANCH   8  12
HETATM   12  C   UNL     1     -10.639   6.513  71.435  1.00  0.00    -0.228 C  
HETATM   13  C   UNL     1     -11.302   5.830  72.645  1.00  0.00    -0.300 C  
HETATM   14  S   UNL     1     -10.389   6.456  74.055  1.00  0.00    -0.287 SA 
HETATM   15  C   UNL     1      -8.892   6.598  73.057  1.00  0.00    -0.127 C  
HETATM   16  O   UNL     1      -9.211   6.570  71.659  1.00  0.00    -0.144 OA 
BRANCH  15  17
HETATM   17  C   UNL     1      -8.127   7.877  73.423  1.00  0.00    -0.177 C  
HETATM   18  O   UNL     1      -7.929   8.731  72.296  1.00  0.00    -0.350 OA 
HETATM   19  H   UNL     1      -7.456   9.523  72.522  1.00  0.00     0.000 HD 
ENDBRANCH  15  17
ENDBRANCH   8  12
TORSDOF 2
ENDMDL
MODEL      101
REMARK 921   NORMALIZED FREE ENERGY PREDICTED BY IDOCK:   -3.65 KCAL/MOL
REMARK 922        TOTAL FREE ENERGY PREDICTED BY IDOCK:   -4.03 KCAL/MOL
REMARK 923 INTER-LIGAND FREE ENERGY PREDICTED BY IDOCK:   -4.27 KCAL/MOL
REMARK 924 INTRA-LIGAND FREE ENERGY PREDICTED BY IDOCK:    0.24 KCAL/MOL
REMARK 927      BINDING AFFINITY PREDICTED BY RF-SCORE:    0.00 PKD
ROOT
HETATM    1  N   UNL     1     -10.686  11.033  62.609  1.00  0.00    -0.569 NA 
HETATM    2  H1  UNL     1     -10.735  10.045  62.359  1.00  0.00     0.000 HD 
HETATM    3  H2  UNL     1     -10.938  11.762  61.942  1.00  0.00     0.000 HD 
HETATM    4  C   UNL     1     -10.270  11.340  63.874  1.00  0.00    -0.365 C  
HETATM    5  N   UNL     1     -10.208  12.594  64.191  1.00  0.00    -0.529 N  
HETATM    6  C   UNL     1      -9.825  12.960  65.459  1.00  0.00    -0.146 C  
HETATM    7  H   UNL     1     -10.444  13.308  63.502  1.00  0.00     0.000 HD 
HETATM    8  N   UNL     1      -9.312  11.976  66.321  1.00  0.00    -0.227 N  
HETATM    9  O   UNL     1      -9.938  14.127  65.830  1.00  0.00    -0.309 OA 
HETATM   10  C   UNL     1      -9.918  10.258  64.808  1.00  0.00    -0.392 C  
HETATM   11  C   UNL     1      -9.445  10.642  65.992  1.00  0.00    -0.193 C  
ENDROOT
BRANCH   8  12
HETATM   12  C   UNL     1      -8.949  12.397  67.685  1.00  0.00    -0.183 C  
HETATM   13  C   UNL     1      -8.315  11.326  68.592  1.00  0.00    -0.146 C  
HETATM   14  S   UNL     1      -9.718  10.511  69.354  1.00  0.00    -0.111 SA 
HETATM   15  C   UNL     1     -10.673  12.040  69.295  1.00  0.00    -0.013 C  
HETATM   16  O   UNL     1     -10.090  12.967  68.369  1.00  0.00    -0.233 OA 
BRANCH  15  17
HETATM   17  C   UNL     1     -12.134  11.743  68.931  1.00  0.00    -0.178 C  
HETATM   18  O   UNL     1     -12.432  10.347  68.984  1.00  0.00    -0.680 OA 
HETATM   19  H   UNL     1     -13.336  10.163  68.759  1.00  0.00     0.000 HD 
ENDBRANCH  15  17
ENDBRANCH   8  12
TORSDOF 2
ENDMDL
MODEL      102
REMARK 921   NORMALIZED FREE ENERGY PREDICTED BY IDOCK:   -3.63 KCAL/MOL
REMARK 922        TOTAL FREE ENERGY PREDICTED BY IDOCK:   -4.02 KCAL/MOL
REMARK 923 INTER-LIGAND FREE ENERGY PREDICTED BY IDOCK:   -4.16 KCAL/MOL
REMARK 924 INTRA-LIGAND FREE ENERGY PREDICTED BY IDOCK:    0.14 KCAL/MOL
REMARK 927      BINDING AFFINITY PREDICTED BY RF-SCORE:    0.00 PKD
ROOT
HETATM    1  N   UNL     1      -6.756  10.867  69.035  1.00  0.00    -0.063 NA 
HETATM    2  H1  UNL     1      -7.185   9.963  69.235  1.00  0.00     0.000 HD 
HETATM    3  H2  UNL     1      -5.768  11.038  69.221  1.00  0.00     0.000 HD 
HETATM    4  C   UNL     1      -7.558  11.839  68.507  1.00  0.00    -0.131 C  
HETATM    5  N   UNL     1      -7.015  12.986  68.253  1.00  0.00    -0.089 N  
HETATM    6  C   UNL     1      -7.767  13.991  67.695  1.00  0.00    -0.177 C  
HETATM    7  H   UNL     1      -6.030  13.144  68.468  1.00  0.00     0.000 HD 
HETATM    8  N   UNL     1      -9.159  13.821  67.599  1.00  0.00    -0.186 N  
HETATM    9  O   UNL     1      -7.227  15.015  67.281  1.00  0.00    -0.202 OA 
HETATM   10  C   UNL     1      -8.979  11.551  68.250  1.00  0.00    -0.177 C  
HETATM   11  C   UNL     1      -9.711  12.574  67.812  1.00  0.00    -0.202 C  
ENDROOT
BRANCH   8  12
HETATM   12  C   UNL     1      -9.929  14.901  66.958  1.00  0.00    -0.240 C  
HETATM   13  C   UNL     1     -11.425  14.984  67.309  1.00  0.00    -0.304 C  
HETATM   14  S   UNL     1     -12.215  13.893  66.126  1.00  0.00    -0.460 SA 
HETATM   15  C   UNL     1     -10.948  14.266  64.896  1.00  0.00    -0.404 C  
HETATM   16  O   UNL     1      -9.793  14.845  65.519  1.00  0.00    -0.343 OA 
BRANCH  15  17
HETATM   17  C   UNL     1     -10.575  13.000  64.114  1.00  0.00    -0.397 C  
HETATM   18  O   UNL     1     -11.428  12.788  62.988  1.00  0.00    -0.780 OA 
HETATM   19  H   UNL     1     -11.197  12.005  62.503  1.00  0.00     0.000 HD 
ENDBRANCH  15  17
ENDBRANCH   8  12
TORSDOF 2
ENDMDL
MODEL      103
REMARK 921   NORMALIZED FREE ENERGY PREDICTED BY IDOCK:   -3.63 KCAL/MOL
REMARK 922        TOTAL FREE ENERGY PREDICTED BY IDOCK:   -4.01 KCAL/MOL
REMARK 923 INTER-LIGAND FREE ENERGY PREDICTED BY IDOCK:   -4.11 KCAL/MOL
REMARK 924 INTRA-LIGAND FREE ENERGY PREDICTED BY IDOCK:    0.10 KCAL/MOL
REMARK 927      BINDING AFFINITY PREDICTED BY RF-SCORE:    0.00 PKD
ROOT
HETATM    1  N   UNL     1      -5.341  14.282  67.598  1.00  0.00    -0.333 NA 
HETATM    2  H1  UNL     1      -4.977  13.330  67.611  1.00  0.00     0.000 HD 
HETATM    3  H2  UNL     1      -4.717  15.088  67.575  1.00  0.00     0.000 HD 
HETATM    4  C   UNL     1      -6.699  14.435  67.614  1.00  0.00    -0.169 C  
HETATM    5  N   UNL     1      -7.161  15.644  67.598  1.00  0.00    -0.155 N  
HETATM    6  C   UNL     1      -8.518  15.857  67.583  1.00  0.00    -0.159 C  
HETATM    7  H   UNL     1      -6.520  16.437  67.597  1.00  0.00     0.000 HD 
HETATM    8  N   UNL     1      -9.377  14.764  67.792  1.00  0.00    -0.196 N  
HETATM    9  O   UNL     1      -8.969  16.983  67.383  1.00  0.00    -0.208 OA 
HETATM   10  C   UNL     1      -7.566  13.245  67.646  1.00  0.00    -0.171 C  
HETATM   11  C   UNL     1      -8.873  13.480  67.741  1.00  0.00    -0.198 C  
ENDROOT
BRANCH   8  12
HETATM   12  C   UNL     1     -10.826  15.021  67.729  1.00  0.00    -0.284 C  
HETATM   13  C   UNL     1     -11.466  15.675  68.967  1.00  0.00    -0.363 C  
HETATM   14  S   UNL     1     -11.887  14.291  70.025  1.00  0.00    -0.327 SA 
HETATM   15  C   UNL     1     -12.160  13.238  68.585  1.00  0.00    -0.222 C  
HETATM   16  O   UNL     1     -11.551  13.808  67.418  1.00  0.00    -0.322 OA 
BRANCH  15  17
HETATM   17  C   UNL     1     -11.628  11.824  68.850  1.00  0.00    -0.309 C  
HETATM   18  O   UNL     1     -11.922  10.925  67.780  1.00  0.00    -0.691 OA 
HETATM   19  H   UNL     1     -11.593  10.049  67.944  1.00  0.00     0.000 HD 
ENDBRANCH  15  17
ENDBRANCH   8  12
TORSDOF 2
ENDMDL
MODEL      104
REMARK 921   NORMALIZED FREE ENERGY PREDICTED BY IDOCK:   -3.62 KCAL/MOL
REMARK 922        TOTAL FREE ENERGY PREDICTED BY IDOCK:   -4.00 KCAL/MOL
REMARK 923 INTER-LIGAND FREE ENERGY PREDICTED BY IDOCK:   -4.28 KCAL/MOL
REMARK 924 INTRA-LIGAND FREE ENERGY PREDICTED BY IDOCK:    0.28 KCAL/MOL
REMARK 927      BINDING AFFINITY PREDICTED BY RF-SCORE:    0.00 PKD
ROOT
HETATM    1  N   UNL     1      -9.822   9.342  65.677  1.00  0.00    -0.441 NA 
HETATM    2  H1  UNL     1      -9.569  10.328  65.744  1.00  0.00     0.000 HD 
HETATM    3  H2  UNL     1      -9.850   8.863  64.777  1.00  0.00     0.000 HD 
HETATM    4  C   UNL     1     -10.122   8.689  66.839  1.00  0.00    -0.285 C  
HETATM    5  N   UNL     1     -10.443   7.438  66.753  1.00  0.00    -0.477 N  
HETATM    6  C   UNL     1     -10.725   6.725  67.892  1.00  0.00    -0.256 C  
HETATM    7  H   UNL     1     -10.487   6.983  65.841  1.00  0.00     0.000 HD 
HETATM    8  N   UNL     1     -10.859   7.417  69.108  1.00  0.00    -0.162 N  
HETATM    9  O   UNL     1     -10.851   5.502  67.846  1.00  0.00    -0.162 OA 
HETATM   10  C   UNL     1     -10.066   9.417  68.118  1.00  0.00    -0.215 C  
HETATM   11  C   UNL     1     -10.450   8.733  69.194  1.00  0.00    -0.217 C  
ENDROOT
BRANCH   8  12
HETATM   12  C   UNL     1     -11.121   6.616  70.316  1.00  0.00    -0.326 C  
HETATM   13  C   UNL     1     -12.385   6.971  71.119  1.00  0.00    -0.378 C  
HETATM   14  S   UNL     1     -11.842   8.256  72.245  1.00  0.00    -0.396 SA 
HETATM   15  C   UNL     1     -10.187   7.540  72.308  1.00  0.00    -0.206 C  
HETATM   16  O   UNL     1      -9.982   6.642  71.208  1.00  0.00    -0.181 OA 
BRANCH  15  17
HETATM   17  C   UNL     1      -9.127   8.648  72.320  1.00  0.00    -0.197 C  
HETATM   18  O   UNL     1      -8.246   8.544  73.439  1.00  0.00    -0.379 OA 
HETATM   19  H   UNL     1      -7.590   9.230  73.447  1.00  0.00     0.000 HD 
ENDBRANCH  15  17
ENDBRANCH   8  12
TORSDOF 2
ENDMDL
MODEL      105
REMARK 921   NORMALIZED FREE ENERGY PREDICTED BY IDOCK:   -3.61 KCAL/MOL
REMARK 922        TOTAL FREE ENERGY PREDICTED BY IDOCK:   -3.99 KCAL/MOL
REMARK 923 INTER-LIGAND FREE ENERGY PREDICTED BY IDOCK:   -4.17 KCAL/MOL
REMARK 924 INTRA-LIGAND FREE ENERGY PREDICTED BY IDOCK:    0.17 KCAL/MOL
REMARK 927      BINDING AFFINITY PREDICTED BY RF-SCORE:    0.00 PKD
ROOT
HETATM    1  N   UNL     1     -11.649   7.628  73.264  1.00  0.00    -0.629 NA 
HETATM    2  H1  UNL     1     -12.668   7.634  73.294  1.00  0.00     0.000 HD 
HETATM    3  H2  UNL     1     -11.101   7.134  73.969  1.00  0.00     0.000 HD 
HETATM    4  C   UNL     1     -11.047   8.306  72.243  1.00  0.00    -0.359 C  
HETATM    5  N   UNL     1      -9.752   8.299  72.205  1.00  0.00    -0.261 N  
HETATM    6  C   UNL     1      -9.094   8.940  71.184  1.00  0.00    -0.249 C  
HETATM    7  H   UNL     1      -9.222   7.818  72.932  1.00  0.00     0.000 HD 
HETATM    8  N   UNL     1      -9.831   9.763  70.316  1.00  0.00    -0.260 N  
HETATM    9  O   UNL     1      -7.884   8.788  71.032  1.00  0.00    -0.098 OA 
HETATM   10  C   UNL     1     -11.874   9.004  71.245  1.00  0.00    -0.379 C  
HETATM   11  C   UNL     1     -11.211   9.708  70.329  1.00  0.00    -0.271 C  
ENDROOT
BRANCH   8  12
HETATM   12  C   UNL     1      -9.100  10.403  69.208  1.00  0.00    -0.175 C  
HETATM   13  C   UNL     1      -9.841  11.514  68.443  1.00  0.00    -0.204 C  
HETATM   14  S   UNL     1     -10.748  10.638  67.168  1.00  0.00    -0.259 SA 
HETATM   15  C   UNL     1      -9.466   9.371  67.089  1.00  0.00    -0.145 C  
HETATM   16  O   UNL     1      -8.638   9.414  68.259  1.00  0.00    -0.120 OA 
BRANCH  15  17
HETATM   17  C   UNL     1     -10.097   7.984  66.911  1.00  0.00    -0.292 C  
HETATM   18  O   UNL     1     -11.274   7.818  67.703  1.00  0.00    -0.467 OA 
HETATM   19  H   UNL     1     -11.665   6.960  67.593  1.00  0.00     0.000 HD 
ENDBRANCH  15  17
ENDBRANCH   8  12
TORSDOF 2
ENDMDL
MODEL      106
REMARK 921   NORMALIZED FREE ENERGY PREDICTED BY IDOCK:   -3.61 KCAL/MOL
REMARK 922        TOTAL FREE ENERGY PREDICTED BY IDOCK:   -3.99 KCAL/MOL
REMARK 923 INTER-LIGAND FREE ENERGY PREDICTED BY IDOCK:   -4.05 KCAL/MOL
REMARK 924 INTRA-LIGAND FREE ENERGY PREDICTED BY IDOCK:    0.06 KCAL/MOL
REMARK 927      BINDING AFFINITY PREDICTED BY RF-SCORE:    0.00 PKD
ROOT
HETATM    1  N   UNL     1     -11.562   7.070  70.706  1.00  0.00    -0.321 NA 
HETATM    2  H1  UNL     1     -10.938   6.336  70.370  1.00  0.00     0.000 HD 
HETATM    3  H2  UNL     1     -12.310   6.867  71.370  1.00  0.00     0.000 HD 
HETATM    4  C   UNL     1     -11.356   8.335  70.234  1.00  0.00    -0.129 C  
HETATM    5  N   UNL     1     -12.147   9.266  70.661  1.00  0.00    -0.469 N  
HETATM    6  C   UNL     1     -11.967  10.562  70.242  1.00  0.00    -0.325 C  
HETATM    7  H   UNL     1     -12.903   9.038  71.307  1.00  0.00     0.000 HD 
HETATM    8  N   UNL     1     -11.058  10.816  69.201  1.00  0.00    -0.229 N  
HETATM    9  O   UNL     1     -12.588  11.480  70.775  1.00  0.00    -0.338 OA 
HETATM   10  C   UNL     1     -10.263   8.587  69.279  1.00  0.00    -0.211 C  
HETATM   11  C   UNL     1     -10.179   9.828  68.805  1.00  0.00    -0.194 C  
ENDROOT
BRANCH   8  12
HETATM   12  C   UNL     1     -10.860  12.221  68.805  1.00  0.00    -0.229 C  
HETATM   13  C   UNL     1     -12.003  12.883  68.015  1.00  0.00    -0.275 C  
HETATM   14  S   UNL     1     -11.641  12.484  66.305  1.00  0.00    -0.400 SA 
HETATM   15  C   UNL     1      -9.870  12.486  66.651  1.00  0.00    -0.241 C  
HETATM   16  O   UNL     1      -9.630  12.377  68.060  1.00  0.00    -0.198 OA 
BRANCH  15  17
HETATM   17  C   UNL     1      -9.176  11.352  65.884  1.00  0.00    -0.216 C  
HETATM   18  O   UNL     1     -10.103  10.384  65.392  1.00  0.00    -0.277 OA 
HETATM   19  H   UNL     1      -9.674   9.682  64.918  1.00  0.00     0.000 HD 
ENDBRANCH  15  17
ENDBRANCH   8  12
TORSDOF 2
ENDMDL
MODEL      107
REMARK 921   NORMALIZED FREE ENERGY PREDICTED BY IDOCK:   -3.61 KCAL/MOL
REMARK 922        TOTAL FREE ENERGY PREDICTED BY IDOCK:   -3.98 KCAL/MOL
REMARK 923 INTER-LIGAND FREE ENERGY PREDICTED BY IDOCK:   -4.15 KCAL/MOL
REMARK 924 INTRA-LIGAND FREE ENERGY PREDICTED BY IDOCK:    0.17 KCAL/MOL
REMARK 927      BINDING AFFINITY PREDICTED BY RF-SCORE:    0.00 PKD
ROOT
HETATM    1  N   UNL     1      -6.063  20.443  70.379  1.00  0.00    -0.486 NA 
HETATM    2  H1  UNL     1      -6.578  21.296  70.164  1.00  0.00     0.000 HD 
HETATM    3  H2  UNL     1      -5.256  20.455  71.003  1.00  0.00     0.000 HD 
HETATM    4  C   UNL     1      -6.495  19.284  69.800  1.00  0.00    -0.224 C  
HETATM    5  N   UNL     1      -5.840  18.202  70.073  1.00  0.00    -0.236 N  
HETATM    6  C   UNL     1      -6.248  17.003  69.542  1.00  0.00    -0.237 C  
HETATM    7  H   UNL     1      -5.022  18.239  70.681  1.00  0.00     0.000 HD 
HETATM    8  N   UNL     1      -7.244  17.006  68.550  1.00  0.00    -0.199 N  
HETATM    9  O   UNL     1      -5.754  15.947  69.935  1.00  0.00    -0.138 OA 
HETATM   10  C   UNL     1      -7.666  19.309  68.907  1.00  0.00    -0.376 C  
HETATM   11  C   UNL     1      -7.975  18.155  68.319  1.00  0.00    -0.295 C  
ENDROOT
BRANCH   8  12
HETATM   12  C   UNL     1      -7.686  15.700  68.032  1.00  0.00    -0.126 C  
HETATM   13  C   UNL     1      -8.499  15.715  66.725  1.00  0.00    -0.272 C  
HETATM   14  S   UNL     1     -10.195  15.931  67.265  1.00  0.00    -0.283 SA 
HETATM   15  C   UNL     1      -9.849  15.041  68.796  1.00  0.00    -0.233 C  
HETATM   16  O   UNL     1      -8.436  14.976  69.036  1.00  0.00    -0.183 OA 
BRANCH  15  17
HETATM   17  C   UNL     1     -10.577  15.703  69.973  1.00  0.00    -0.332 C  
HETATM   18  O   UNL     1     -10.918  14.766  70.995  1.00  0.00    -0.533 OA 
HETATM   19  H   UNL     1     -11.369  15.175  71.724  1.00  0.00     0.000 HD 
ENDBRANCH  15  17
ENDBRANCH   8  12
TORSDOF 2
ENDMDL
MODEL      108
REMARK 921   NORMALIZED FREE ENERGY PREDICTED BY IDOCK:   -3.60 KCAL/MOL
REMARK 922        TOTAL FREE ENERGY PREDICTED BY IDOCK:   -3.98 KCAL/MOL
REMARK 923 INTER-LIGAND FREE ENERGY PREDICTED BY IDOCK:   -4.41 KCAL/MOL
REMARK 924 INTRA-LIGAND FREE ENERGY PREDICTED BY IDOCK:    0.43 KCAL/MOL
REMARK 927      BINDING AFFINITY PREDICTED BY RF-SCORE:    0.00 PKD
ROOT
HETATM    1  N   UNL     1      -9.141  20.964  66.934  1.00  0.00    -0.614 NA 
HETATM    2  H1  UNL     1      -9.222  21.598  67.729  1.00  0.00     0.000 HD 
HETATM    3  H2  UNL     1      -8.739  21.272  66.050  1.00  0.00     0.000 HD 
HETATM    4  C   UNL     1      -9.593  19.686  67.102  1.00  0.00    -0.348 C  
HETATM    5  N   UNL     1      -9.490  18.881  66.093  1.00  0.00    -0.286 N  
HETATM    6  C   UNL     1      -9.901  17.576  66.214  1.00  0.00    -0.285 C  
HETATM    7  H   UNL     1      -9.105  19.216  65.210  1.00  0.00     0.000 HD 
HETATM    8  N   UNL     1     -10.612  17.195  67.365  1.00  0.00    -0.326 N  
HETATM    9  O   UNL     1      -9.642  16.758  65.333  1.00  0.00    -0.461 OA 
HETATM   10  C   UNL     1     -10.165  19.279  68.397  1.00  0.00    -0.503 C  
HETATM   11  C   UNL     1     -10.655  18.042  68.454  1.00  0.00    -0.236 C  
ENDROOT
BRANCH   8  12
HETATM   12  C   UNL     1     -11.001  15.779  67.480  1.00  0.00    -0.293 C  
HETATM   13  C   UNL     1     -11.442  15.295  68.874  1.00  0.00    -0.332 C  
HETATM   14  S   UNL     1      -9.912  14.807  69.672  1.00  0.00     0.150 SA 
HETATM   15  C   UNL     1      -9.203  14.330  68.082  1.00  0.00    -0.202 C  
HETATM   16  O   UNL     1      -9.944  14.914  67.002  1.00  0.00    -0.235 OA 
BRANCH  15  17
HETATM   17  C   UNL     1      -7.724  14.732  68.017  1.00  0.00    -0.125 C  
HETATM   18  O   UNL     1      -7.057  14.161  66.890  1.00  0.00    -0.319 OA 
HETATM   19  H   UNL     1      -6.141  14.409  66.850  1.00  0.00     0.000 HD 
ENDBRANCH  15  17
ENDBRANCH   8  12
TORSDOF 2
ENDMDL
MODEL      109
REMARK 921   NORMALIZED FREE ENERGY PREDICTED BY IDOCK:   -3.57 KCAL/MOL
REMARK 922        TOTAL FREE ENERGY PREDICTED BY IDOCK:   -3.95 KCAL/MOL
REMARK 923 INTER-LIGAND FREE ENERGY PREDICTED BY IDOCK:   -4.10 KCAL/MOL
REMARK 924 INTRA-LIGAND FREE ENERGY PREDICTED BY IDOCK:    0.15 KCAL/MOL
REMARK 927      BINDING AFFINITY PREDICTED BY RF-SCORE:    0.00 PKD
ROOT
HETATM    1  N   UNL     1      -5.742  15.661  67.524  1.00  0.00    -0.294 NA 
HETATM    2  H1  UNL     1      -5.095  15.025  67.991  1.00  0.00     0.000 HD 
HETATM    3  H2  UNL     1      -5.475  16.620  67.303  1.00  0.00     0.000 HD 
HETATM    4  C   UNL     1      -6.979  15.177  67.206  1.00  0.00    -0.088 C  
HETATM    5  N   UNL     1      -7.800  15.984  66.614  1.00  0.00    -0.249 N  
HETATM    6  C   UNL     1      -9.047  15.541  66.245  1.00  0.00    -0.334 C  
HETATM    7  H   UNL     1      -7.522  16.946  66.422  1.00  0.00     0.000 HD 
HETATM    8  N   UNL     1      -9.481  14.284  66.699  1.00  0.00    -0.276 N  
HETATM    9  O   UNL     1      -9.764  16.233  65.523  1.00  0.00    -0.485 OA 
HETATM   10  C   UNL     1      -7.324  13.785  67.540  1.00  0.00    -0.176 C  
HETATM   11  C   UNL     1      -8.574  13.414  67.270  1.00  0.00    -0.213 C  
ENDROOT
BRANCH   8  12
HETATM   12  C   UNL     1     -10.806  13.825  66.250  1.00  0.00    -0.283 C  
HETATM   13  C   UNL     1     -12.011  14.248  67.109  1.00  0.00    -0.417 C  
HETATM   14  S   UNL     1     -12.131  12.967  68.358  1.00  0.00    -0.027 SA 
HETATM   15  C   UNL     1     -11.479  11.743  67.204  1.00  0.00    -0.295 C  
HETATM   16  O   UNL     1     -10.828  12.386  66.099  1.00  0.00    -0.259 OA 
BRANCH  15  17
HETATM   17  C   UNL     1     -10.522  10.786  67.926  1.00  0.00    -0.199 C  
HETATM   18  O   UNL     1     -11.051   9.463  68.025  1.00  0.00    -0.502 OA 
HETATM   19  H   UNL     1     -10.459   8.871  68.472  1.00  0.00     0.000 HD 
ENDBRANCH  15  17
ENDBRANCH   8  12
TORSDOF 2
ENDMDL
MODEL      110
REMARK 921   NORMALIZED FREE ENERGY PREDICTED BY IDOCK:   -3.55 KCAL/MOL
REMARK 922        TOTAL FREE ENERGY PREDICTED BY IDOCK:   -3.92 KCAL/MOL
REMARK 923 INTER-LIGAND FREE ENERGY PREDICTED BY IDOCK:   -3.99 KCAL/MOL
REMARK 924 INTRA-LIGAND FREE ENERGY PREDICTED BY IDOCK:    0.07 KCAL/MOL
REMARK 927      BINDING AFFINITY PREDICTED BY RF-SCORE:    0.00 PKD
ROOT
HETATM    1  N   UNL     1     -12.735   8.271  72.845  1.00  0.00    -0.664 NA 
HETATM    2  H1  UNL     1     -12.897   9.153  73.332  1.00  0.00     0.000 HD 
HETATM    3  H2  UNL     1     -13.070   7.386  73.226  1.00  0.00     0.000 HD 
HETATM    4  C   UNL     1     -12.051   8.323  71.664  1.00  0.00    -0.306 C  
HETATM    5  N   UNL     1     -11.846   7.204  71.046  1.00  0.00    -0.319 N  
HETATM    6  C   UNL     1     -11.190   7.199  69.839  1.00  0.00    -0.208 C  
HETATM    7  H   UNL     1     -12.170   6.327  71.454  1.00  0.00     0.000 HD 
HETATM    8  N   UNL     1     -10.576   8.384  69.398  1.00  0.00    -0.219 N  
HETATM    9  O   UNL     1     -11.149   6.177  69.156  1.00  0.00    -0.350 OA 
HETATM   10  C   UNL     1     -11.586   9.621  71.147  1.00  0.00    -0.456 C  
HETATM   11  C   UNL     1     -10.859   9.578  70.032  1.00  0.00    -0.252 C  
ENDROOT
BRANCH   8  12
HETATM   12  C   UNL     1      -9.917   8.354  68.081  1.00  0.00    -0.191 C  
HETATM   13  C   UNL     1      -8.673   7.457  67.952  1.00  0.00    -0.123 C  
HETATM   14  S   UNL     1      -7.316   8.511  68.464  1.00  0.00    -0.094 SA 
HETATM   15  C   UNL     1      -8.176   9.968  67.837  1.00  0.00    -0.113 C  
HETATM   16  O   UNL     1      -9.571   9.691  67.648  1.00  0.00    -0.139 OA 
BRANCH  15  17
HETATM   17  C   UNL     1      -7.974  11.156  68.786  1.00  0.00    -0.144 C  
HETATM   18  O   UNL     1      -7.578  10.744  70.094  1.00  0.00    -0.414 OA 
HETATM   19  H   UNL     1      -7.453  11.479  70.682  1.00  0.00     0.000 HD 
ENDBRANCH  15  17
ENDBRANCH   8  12
TORSDOF 2
ENDMDL
MODEL      111
REMARK 921   NORMALIZED FREE ENERGY PREDICTED BY IDOCK:   -3.52 KCAL/MOL
REMARK 922        TOTAL FREE ENERGY PREDICTED BY IDOCK:   -3.89 KCAL/MOL
REMARK 923 INTER-LIGAND FREE ENERGY PREDICTED BY IDOCK:   -4.03 KCAL/MOL
REMARK 924 INTRA-LIGAND FREE ENERGY PREDICTED BY IDOCK:    0.14 KCAL/MOL
REMARK 927      BINDING AFFINITY PREDICTED BY RF-SCORE:    0.00 PKD
ROOT
HETATM    1  N   UNL     1      -5.183  21.145  71.286  1.00  0.00    -0.541 NA 
HETATM    2  H1  UNL     1      -5.467  22.067  70.954  1.00  0.00     0.000 HD 
HETATM    3  H2  UNL     1      -4.625  21.036  72.133  1.00  0.00     0.000 HD 
HETATM    4  C   UNL     1      -5.578  20.064  70.551  1.00  0.00    -0.282 C  
HETATM    5  N   UNL     1      -5.216  18.894  70.973  1.00  0.00    -0.266 N  
HETATM    6  C   UNL     1      -5.610  17.769  70.290  1.00  0.00    -0.239 C  
HETATM    7  H   UNL     1      -4.640  18.808  71.810  1.00  0.00     0.000 HD 
HETATM    8  N   UNL     1      -6.225  17.920  69.035  1.00  0.00    -0.213 N  
HETATM    9  O   UNL     1      -5.433  16.653  70.775  1.00  0.00    -0.172 OA 
HETATM   10  C   UNL     1      -6.384  20.264  69.336  1.00  0.00    -0.324 C  
HETATM   11  C   UNL     1      -6.660  19.167  68.633  1.00  0.00    -0.266 C  
ENDROOT
BRANCH   8  12
HETATM   12  C   UNL     1      -6.671  16.695  68.349  1.00  0.00    -0.142 C  
HETATM   13  C   UNL     1      -6.663  16.723  66.811  1.00  0.00    -0.221 C  
HETATM   14  S   UNL     1      -8.267  17.396  66.376  1.00  0.00    -0.260 SA 
HETATM   15  C   UNL     1      -9.004  16.664  67.851  1.00  0.00    -0.217 C  
HETATM   16  O   UNL     1      -7.990  16.305  68.799  1.00  0.00    -0.195 OA 
BRANCH  15  17
HETATM   17  C   UNL     1     -10.023  17.627  68.472  1.00  0.00    -0.368 C  
HETATM   18  O   UNL     1     -10.962  18.116  67.513  1.00  0.00    -0.324 OA 
HETATM   19  H   UNL     1     -11.593  18.713  67.898  1.00  0.00     0.000 HD 
ENDBRANCH  15  17
ENDBRANCH   8  12
TORSDOF 2
ENDMDL
MODEL      112
REMARK 921   NORMALIZED FREE ENERGY PREDICTED BY IDOCK:   -3.52 KCAL/MOL
REMARK 922        TOTAL FREE ENERGY PREDICTED BY IDOCK:   -3.88 KCAL/MOL
REMARK 923 INTER-LIGAND FREE ENERGY PREDICTED BY IDOCK:   -4.03 KCAL/MOL
REMARK 924 INTRA-LIGAND FREE ENERGY PREDICTED BY IDOCK:    0.14 KCAL/MOL
REMARK 927      BINDING AFFINITY PREDICTED BY RF-SCORE:    0.00 PKD
ROOT
HETATM    1  N   UNL     1     -10.786  20.690  69.532  1.00  0.00    -0.105 NA 
HETATM    2  H1  UNL     1     -10.872  21.676  69.288  1.00  0.00     0.000 HD 
HETATM    3  H2  UNL     1     -11.241  20.307  70.361  1.00  0.00     0.000 HD 
HETATM    4  C   UNL     1     -10.035  19.902  68.707  1.00  0.00    -0.358 C  
HETATM    5  N   UNL     1      -9.925  18.650  69.018  1.00  0.00    -0.393 N  
HETATM    6  C   UNL     1      -9.206  17.805  68.207  1.00  0.00    -0.280 C  
HETATM    7  H   UNL     1     -10.369  18.291  69.863  1.00  0.00     0.000 HD 
HETATM    8  N   UNL     1      -8.437  18.355  67.168  1.00  0.00    -0.250 N  
HETATM    9  O   UNL     1      -9.245  16.589  68.386  1.00  0.00    -0.208 OA 
HETATM   10  C   UNL     1      -9.396  20.492  67.519  1.00  0.00    -0.482 C  
HETATM   11  C   UNL     1      -8.617  19.677  66.811  1.00  0.00    -0.320 C  
ENDROOT
BRANCH   8  12
HETATM   12  C   UNL     1      -7.712  17.417  66.294  1.00  0.00    -0.305 C  
HETATM   13  C   UNL     1      -6.758  16.426  66.984  1.00  0.00    -0.204 C  
HETATM   14  S   UNL     1      -5.207  17.318  67.099  1.00  0.00    -0.156 SA 
HETATM   15  C   UNL     1      -5.581  18.216  65.579  1.00  0.00    -0.176 C  
HETATM   16  O   UNL     1      -6.979  18.130  65.270  1.00  0.00    -0.484 OA 
BRANCH  15  17
HETATM   17  C   UNL     1      -5.132  19.678  65.699  1.00  0.00    -0.150 C  
HETATM   18  O   UNL     1      -5.137  20.137  67.052  1.00  0.00    -0.155 OA 
HETATM   19  H   UNL     1      -4.859  21.042  67.127  1.00  0.00     0.000 HD 
ENDBRANCH  15  17
ENDBRANCH   8  12
TORSDOF 2
ENDMDL
MODEL      113
REMARK 921   NORMALIZED FREE ENERGY PREDICTED BY IDOCK:   -3.50 KCAL/MOL
REMARK 922        TOTAL FREE ENERGY PREDICTED BY IDOCK:   -3.87 KCAL/MOL
REMARK 923 INTER-LIGAND FREE ENERGY PREDICTED BY IDOCK:   -3.91 KCAL/MOL
REMARK 924 INTRA-LIGAND FREE ENERGY PREDICTED BY IDOCK:    0.04 KCAL/MOL
REMARK 927      BINDING AFFINITY PREDICTED BY RF-SCORE:    0.00 PKD
ROOT
HETATM    1  N   UNL     1      -9.764  10.442  63.849  1.00  0.00    -0.312 NA 
HETATM    2  H1  UNL     1      -9.098   9.861  63.339  1.00  0.00     0.000 HD 
HETATM    3  H2  UNL     1     -10.313  11.158  63.376  1.00  0.00     0.000 HD 
HETATM    4  C   UNL     1      -9.889  10.221  65.191  1.00  0.00    -0.321 C  
HETATM    5  N   UNL     1     -10.734  10.959  65.839  1.00  0.00    -0.175 N  
HETATM    6  C   UNL     1     -10.923  10.761  67.185  1.00  0.00    -0.260 C  
HETATM    7  H   UNL     1     -11.257  11.686  65.351  1.00  0.00     0.000 HD 
HETATM    8  N   UNL     1     -10.049   9.901  67.872  1.00  0.00    -0.165 N  
HETATM    9  O   UNL     1     -11.846  11.323  67.773  1.00  0.00    -0.610 OA 
HETATM   10  C   UNL     1      -9.080   9.174  65.837  1.00  0.00    -0.256 C  
HETATM   11  C   UNL     1      -9.201   9.077  67.159  1.00  0.00    -0.134 C  
ENDROOT
BRANCH   8  12
HETATM   12  C   UNL     1     -10.306   9.681  69.306  1.00  0.00    -0.209 C  
HETATM   13  C   UNL     1      -9.080   9.391  70.190  1.00  0.00    -0.231 C  
HETATM   14  S   UNL     1      -8.874   7.613  70.085  1.00  0.00    -0.146 SA 
HETATM   15  C   UNL     1     -10.654   7.392  69.882  1.00  0.00    -0.236 C  
HETATM   16  O   UNL     1     -11.277   8.626  69.498  1.00  0.00    -0.048 OA 
BRANCH  15  17
HETATM   17  C   UNL     1     -10.941   6.287  68.858  1.00  0.00    -0.368 C  
HETATM   18  O   UNL     1     -11.707   6.760  67.750  1.00  0.00    -0.441 OA 
HETATM   19  H   UNL     1     -11.885   6.076  67.116  1.00  0.00     0.000 HD 
ENDBRANCH  15  17
ENDBRANCH   8  12
TORSDOF 2
ENDMDL
MODEL      114
REMARK 921   NORMALIZED FREE ENERGY PREDICTED BY IDOCK:   -3.50 KCAL/MOL
REMARK 922        TOTAL FREE ENERGY PREDICTED BY IDOCK:   -3.87 KCAL/MOL
REMARK 923 INTER-LIGAND FREE ENERGY PREDICTED BY IDOCK:   -4.01 KCAL/MOL
REMARK 924 INTRA-LIGAND FREE ENERGY PREDICTED BY IDOCK:    0.14 KCAL/MOL
REMARK 927      BINDING AFFINITY PREDICTED BY RF-SCORE:    0.00 PKD
ROOT
HETATM    1  N   UNL     1      -6.981  18.361  67.577  1.00  0.00    -0.203 NA 
HETATM    2  H1  UNL     1      -6.227  18.242  66.900  1.00  0.00     0.000 HD 
HETATM    3  H2  UNL     1      -6.930  19.071  68.307  1.00  0.00     0.000 HD 
HETATM    4  C   UNL     1      -8.061  17.532  67.467  1.00  0.00    -0.205 C  
HETATM    5  N   UNL     1      -9.017  17.683  68.327  1.00  0.00    -0.269 N  
HETATM    6  C   UNL     1     -10.141  16.897  68.245  1.00  0.00    -0.302 C  
HETATM    7  H   UNL     1      -8.936  18.385  69.063  1.00  0.00     0.000 HD 
HETATM    8  N   UNL     1     -10.141  15.808  67.358  1.00  0.00    -0.242 N  
HETATM    9  O   UNL     1     -11.128  17.150  68.933  1.00  0.00    -0.164 OA 
HETATM   10  C   UNL     1      -8.098  16.521  66.397  1.00  0.00    -0.362 C  
HETATM   11  C   UNL     1      -9.146  15.700  66.407  1.00  0.00    -0.320 C  
ENDROOT
BRANCH   8  12
HETATM   12  C   UNL     1     -11.377  15.011  67.267  1.00  0.00    -0.332 C  
HETATM   13  C   UNL     1     -11.796  14.241  68.533  1.00  0.00    -0.347 C  
HETATM   14  S   UNL     1     -10.930  12.677  68.401  1.00  0.00    -0.271 SA 
HETATM   15  C   UNL     1     -11.018  12.748  66.600  1.00  0.00    -0.270 C  
HETATM   16  O   UNL     1     -11.309  14.082  66.160  1.00  0.00    -0.310 OA 
BRANCH  15  17
HETATM   17  C   UNL     1      -9.711  12.237  65.982  1.00  0.00    -0.242 C  
HETATM   18  O   UNL     1      -8.899  11.541  66.929  1.00  0.00    -0.169 OA 
HETATM   19  H   UNL     1      -8.089  11.225  66.546  1.00  0.00     0.000 HD 
ENDBRANCH  15  17
ENDBRANCH   8  12
TORSDOF 2
ENDMDL
MODEL      115
REMARK 921   NORMALIZED FREE ENERGY PREDICTED BY IDOCK:   -3.49 KCAL/MOL
REMARK 922        TOTAL FREE ENERGY PREDICTED BY IDOCK:   -3.86 KCAL/MOL
REMARK 923 INTER-LIGAND FREE ENERGY PREDICTED BY IDOCK:   -4.03 KCAL/MOL
REMARK 924 INTRA-LIGAND FREE ENERGY PREDICTED BY IDOCK:    0.18 KCAL/MOL
REMARK 927      BINDING AFFINITY PREDICTED BY RF-SCORE:    0.00 PKD
ROOT
HETATM    1  N   UNL     1     -10.429   7.248  66.623  1.00  0.00    -0.506 NA 
HETATM    2  H1  UNL     1     -10.256   6.372  66.130  1.00  0.00     0.000 HD 
HETATM    3  H2  UNL     1     -10.382   8.145  66.140  1.00  0.00     0.000 HD 
HETATM    4  C   UNL     1     -10.723   7.173  67.954  1.00  0.00    -0.192 C  
HETATM    5  N   UNL     1     -10.942   8.285  68.579  1.00  0.00    -0.426 N  
HETATM    6  C   UNL     1     -11.271   8.267  69.913  1.00  0.00    -0.028 C  
HETATM    7  H   UNL     1     -10.868   9.174  68.083  1.00  0.00     0.000 HD 
HETATM    8  N   UNL     1     -11.165   7.057  70.620  1.00  0.00    -0.274 N  
HETATM    9  O   UNL     1     -11.659   9.292  70.472  1.00  0.00    -0.267 OA 
HETATM   10  C   UNL     1     -10.783   5.858  68.614  1.00  0.00    -0.339 C  
HETATM   11  C   UNL     1     -10.996   5.874  69.928  1.00  0.00    -0.374 C  
ENDROOT
BRANCH   8  12
HETATM   12  C   UNL     1     -11.566   7.065  72.037  1.00  0.00    -0.285 C  
HETATM   13  C   UNL     1     -10.860   8.085  72.948  1.00  0.00    -0.330 C  
HETATM   14  S   UNL     1      -9.385   7.231  73.503  1.00  0.00    -0.232 SA 
HETATM   15  C   UNL     1     -10.241   5.644  73.422  1.00  0.00    -0.206 C  
HETATM   16  O   UNL     1     -11.425   5.748  72.619  1.00  0.00    -0.296 OA 
BRANCH  15  17
HETATM   17  C   UNL     1      -9.301   4.559  72.881  1.00  0.00    -0.126 C  
HETATM   18  O   UNL     1     -10.013   3.469  72.295  1.00  0.00    -0.154 OA 
HETATM   19  H   UNL     1      -9.432   2.796  71.960  1.00  0.00     0.000 HD 
ENDBRANCH  15  17
ENDBRANCH   8  12
TORSDOF 2
ENDMDL
MODEL      116
REMARK 921   NORMALIZED FREE ENERGY PREDICTED BY IDOCK:   -3.49 KCAL/MOL
REMARK 922        TOTAL FREE ENERGY PREDICTED BY IDOCK:   -3.86 KCAL/MOL
REMARK 923 INTER-LIGAND FREE ENERGY PREDICTED BY IDOCK:   -3.99 KCAL/MOL
REMARK 924 INTRA-LIGAND FREE ENERGY PREDICTED BY IDOCK:    0.13 KCAL/MOL
REMARK 927      BINDING AFFINITY PREDICTED BY RF-SCORE:    0.00 PKD
ROOT
HETATM    1  N   UNL     1     -11.708  13.253  64.035  1.00  0.00    -0.432 NA 
HETATM    2  H1  UNL     1     -12.585  13.706  64.291  1.00  0.00     0.000 HD 
HETATM    3  H2  UNL     1     -11.336  13.315  63.087  1.00  0.00     0.000 HD 
HETATM    4  C   UNL     1     -11.052  12.559  65.012  1.00  0.00    -0.299 C  
HETATM    5  N   UNL     1      -9.938  11.983  64.687  1.00  0.00    -0.364 N  
HETATM    6  C   UNL     1      -9.221  11.297  65.636  1.00  0.00    -0.213 C  
HETATM    7  H   UNL     1      -9.595  12.038  63.728  1.00  0.00     0.000 HD 
HETATM    8  N   UNL     1      -9.810  11.061  66.890  1.00  0.00    -0.188 N  
HETATM    9  O   UNL     1      -8.081  10.905  65.391  1.00  0.00    -0.106 OA 
HETATM   10  C   UNL     1     -11.621  12.495  66.368  1.00  0.00    -0.449 C  
HETATM   11  C   UNL     1     -10.963  11.734  67.241  1.00  0.00    -0.267 C  
ENDROOT
BRANCH   8  12
HETATM   12  C   UNL     1      -8.997  10.358  67.897  1.00  0.00    -0.128 C  
HETATM   13  C   UNL     1      -9.030   8.819  67.859  1.00  0.00    -0.140 C  
HETATM   14  S   UNL     1     -10.438   8.385  68.880  1.00  0.00    -0.148 SA 
HETATM   15  C   UNL     1     -10.179   9.847  69.906  1.00  0.00    -0.257 C  
HETATM   16  O   UNL     1      -9.341  10.796  69.232  1.00  0.00    -0.167 OA 
BRANCH  15  17
HETATM   17  C   UNL     1     -11.526  10.475  70.288  1.00  0.00    -0.333 C  
HETATM   18  O   UNL     1     -12.537   9.493  70.515  1.00  0.00    -0.500 OA 
HETATM   19  H   UNL     1     -13.371   9.882  70.752  1.00  0.00     0.000 HD 
ENDBRANCH  15  17
ENDBRANCH   8  12
TORSDOF 2
ENDMDL
MODEL      117
REMARK 921   NORMALIZED FREE ENERGY PREDICTED BY IDOCK:   -3.47 KCAL/MOL
REMARK 922        TOTAL FREE ENERGY PREDICTED BY IDOCK:   -3.83 KCAL/MOL
REMARK 923 INTER-LIGAND FREE ENERGY PREDICTED BY IDOCK:   -3.98 KCAL/MOL
REMARK 924 INTRA-LIGAND FREE ENERGY PREDICTED BY IDOCK:    0.15 KCAL/MOL
REMARK 927      BINDING AFFINITY PREDICTED BY RF-SCORE:    0.00 PKD
ROOT
HETATM    1  N   UNL     1      -7.052  11.915  66.699  1.00  0.00    -0.376 NA 
HETATM    2  H1  UNL     1      -6.973  10.947  67.011  1.00  0.00     0.000 HD 
HETATM    3  H2  UNL     1      -6.316  12.355  66.147  1.00  0.00     0.000 HD 
HETATM    4  C   UNL     1      -8.181  12.598  67.051  1.00  0.00    -0.108 C  
HETATM    5  N   UNL     1      -8.281  13.827  66.655  1.00  0.00    -0.349 N  
HETATM    6  C   UNL     1      -9.408  14.553  66.954  1.00  0.00    -0.245 C  
HETATM    7  H   UNL     1      -7.524  14.256  66.123  1.00  0.00     0.000 HD 
HETATM    8  N   UNL     1     -10.340  14.013  67.857  1.00  0.00    -0.236 N  
HETATM    9  O   UNL     1      -9.597  15.651  66.434  1.00  0.00    -0.248 OA 
HETATM   10  C   UNL     1      -9.222  11.926  67.846  1.00  0.00    -0.187 C  
HETATM   11  C   UNL     1     -10.253  12.683  68.216  1.00  0.00    -0.239 C  
ENDROOT
BRANCH   8  12
HETATM   12  C   UNL     1     -11.556  14.800  68.124  1.00  0.00    -0.332 C  
HETATM   13  C   UNL     1     -11.364  16.142  68.853  1.00  0.00    -0.350 C  
HETATM   14  S   UNL     1     -11.419  15.708  70.591  1.00  0.00    -0.410 SA 
HETATM   15  C   UNL     1     -12.553  14.348  70.244  1.00  0.00    -0.323 C  
HETATM   16  O   UNL     1     -12.530  14.013  68.849  1.00  0.00    -0.197 OA 
BRANCH  15  17
HETATM   17  C   UNL     1     -12.205  13.129  71.109  1.00  0.00    -0.076 C  
HETATM   18  O   UNL     1     -12.934  13.110  72.336  1.00  0.00    -0.309 OA 
HETATM   19  H   UNL     1     -12.719  12.355  72.871  1.00  0.00     0.000 HD 
ENDBRANCH  15  17
ENDBRANCH   8  12
TORSDOF 2
ENDMDL
MODEL      118
REMARK 921   NORMALIZED FREE ENERGY PREDICTED BY IDOCK:   -3.46 KCAL/MOL
REMARK 922        TOTAL FREE ENERGY PREDICTED BY IDOCK:   -3.82 KCAL/MOL
REMARK 923 INTER-LIGAND FREE ENERGY PREDICTED BY IDOCK:   -3.95 KCAL/MOL
REMARK 924 INTRA-LIGAND FREE ENERGY PREDICTED BY IDOCK:    0.13 KCAL/MOL
REMARK 927      BINDING AFFINITY PREDICTED BY RF-SCORE:    0.00 PKD
ROOT
HETATM    1  N   UNL     1     -10.478  19.960  69.291  1.00  0.00    -0.544 NA 
HETATM    2  H1  UNL     1      -9.911  20.666  69.762  1.00  0.00     0.000 HD 
HETATM    3  H2  UNL     1     -11.495  20.026  69.270  1.00  0.00     0.000 HD 
HETATM    4  C   UNL     1      -9.820  18.924  68.691  1.00  0.00    -0.407 C  
HETATM    5  N   UNL     1     -10.540  18.028  68.095  1.00  0.00    -0.359 N  
HETATM    6  C   UNL     1      -9.930  16.980  67.449  1.00  0.00    -0.278 C  
HETATM    7  H   UNL     1     -11.557  18.100  68.104  1.00  0.00     0.000 HD 
HETATM    8  N   UNL     1      -8.549  16.790  67.623  1.00  0.00    -0.204 N  
HETATM    9  O   UNL     1     -10.584  16.229  66.728  1.00  0.00    -0.305 OA 
HETATM   10  C   UNL     1      -8.349  18.867  68.742  1.00  0.00    -0.345 C  
HETATM   11  C   UNL     1      -7.789  17.785  68.204  1.00  0.00    -0.264 C  
ENDROOT
BRANCH   8  12
HETATM   12  C   UNL     1      -7.922  15.680  66.884  1.00  0.00    -0.243 C  
HETATM   13  C   UNL     1      -8.457  14.267  67.174  1.00  0.00    -0.200 C  
HETATM   14  S   UNL     1      -7.489  13.711  68.577  1.00  0.00    -0.119 SA 
HETATM   15  C   UNL     1      -6.076  14.686  68.022  1.00  0.00    -0.156 C  
HETATM   16  O   UNL     1      -6.487  15.681  67.075  1.00  0.00    -0.295 OA 
BRANCH  15  17
HETATM   17  C   UNL     1      -5.366  15.326  69.222  1.00  0.00    -0.095 C  
HETATM   18  O   UNL     1      -6.132  15.224  70.422  1.00  0.00    -0.138 OA 
HETATM   19  H   UNL     1      -5.693  15.620  71.165  1.00  0.00     0.000 HD 
ENDBRANCH  15  17
ENDBRANCH   8  12
TORSDOF 2
ENDMDL
MODEL      119
REMARK 921   NORMALIZED FREE ENERGY PREDICTED BY IDOCK:   -3.46 KCAL/MOL
REMARK 922        TOTAL FREE ENERGY PREDICTED BY IDOCK:   -3.82 KCAL/MOL
REMARK 923 INTER-LIGAND FREE ENERGY PREDICTED BY IDOCK:   -4.46 KCAL/MOL
REMARK 924 INTRA-LIGAND FREE ENERGY PREDICTED BY IDOCK:    0.64 KCAL/MOL
REMARK 927      BINDING AFFINITY PREDICTED BY RF-SCORE:    0.00 PKD
ROOT
HETATM    1  N   UNL     1      -9.490  18.241  67.508  1.00  0.00    -0.264 NA 
HETATM    2  H1  UNL     1     -10.034  19.074  67.282  1.00  0.00     0.000 HD 
HETATM    3  H2  UNL     1      -8.786  18.253  68.246  1.00  0.00     0.000 HD 
HETATM    4  C   UNL     1      -9.741  17.111  66.785  1.00  0.00    -0.271 C  
HETATM    5  N   UNL     1      -9.050  16.054  67.072  1.00  0.00    -0.206 N  
HETATM    6  C   UNL     1      -9.282  14.881  66.396  1.00  0.00    -0.284 C  
HETATM    7  H   UNL     1      -8.335  16.093  67.798  1.00  0.00     0.000 HD 
HETATM    8  N   UNL     1     -10.120  14.903  65.269  1.00  0.00    -0.360 N  
HETATM    9  O   UNL     1      -8.768  13.831  66.779  1.00  0.00    -0.190 OA 
HETATM   10  C   UNL     1     -10.768  17.134  65.729  1.00  0.00    -0.140 C  
HETATM   11  C   UNL     1     -10.897  16.017  65.017  1.00  0.00    -0.404 C  
ENDROOT
BRANCH   8  12
HETATM   12  C   UNL     1     -10.378  13.620  64.593  1.00  0.00    -0.384 C  
HETATM   13  C   UNL     1     -11.704  13.501  63.820  1.00  0.00    -0.321 C  
HETATM   14  S   UNL     1     -12.881  12.943  65.051  1.00  0.00    -0.061 SA 
HETATM   15  C   UNL     1     -11.581  12.052  65.929  1.00  0.00    -0.300 C  
HETATM   16  O   UNL     1     -10.286  12.519  65.527  1.00  0.00    -0.270 OA 
BRANCH  15  17
HETATM   17  C   UNL     1     -11.771  12.189  67.445  1.00  0.00    -0.304 C  
HETATM   18  O   UNL     1     -12.218  10.974  68.048  1.00  0.00    -0.703 OA 
HETATM   19  H   UNL     1     -12.335  11.059  68.986  1.00  0.00     0.000 HD 
ENDBRANCH  15  17
ENDBRANCH   8  12
TORSDOF 2
ENDMDL
MODEL      120
REMARK 921   NORMALIZED FREE ENERGY PREDICTED BY IDOCK:   -3.45 KCAL/MOL
REMARK 922        TOTAL FREE ENERGY PREDICTED BY IDOCK:   -3.82 KCAL/MOL
REMARK 923 INTER-LIGAND FREE ENERGY PREDICTED BY IDOCK:   -4.07 KCAL/MOL
REMARK 924 INTRA-LIGAND FREE ENERGY PREDICTED BY IDOCK:    0.26 KCAL/MOL
REMARK 927      BINDING AFFINITY PREDICTED BY RF-SCORE:    0.00 PKD
ROOT
HETATM    1  N   UNL     1     -12.959  15.891  70.782  1.00  0.00    -0.634 NA 
HETATM    2  H1  UNL     1     -13.383  15.176  71.372  1.00  0.00     0.000 HD 
HETATM    3  H2  UNL     1     -13.199  16.876  70.888  1.00  0.00     0.000 HD 
HETATM    4  C   UNL     1     -12.057  15.477  69.843  1.00  0.00    -0.355 C  
HETATM    5  N   UNL     1     -11.519  16.385  69.094  1.00  0.00    -0.249 N  
HETATM    6  C   UNL     1     -10.583  16.030  68.153  1.00  0.00    -0.286 C  
HETATM    7  H   UNL     1     -11.789  17.363  69.201  1.00  0.00     0.000 HD 
HETATM    8  N   UNL     1     -10.379  14.665  67.884  1.00  0.00    -0.236 N  
HETATM    9  O   UNL     1      -9.933  16.892  67.565  1.00  0.00    -0.256 OA 
HETATM   10  C   UNL     1     -11.735  14.045  69.723  1.00  0.00    -0.375 C  
HETATM   11  C   UNL     1     -10.909  13.714  68.733  1.00  0.00    -0.255 C  
ENDROOT
BRANCH   8  12
HETATM   12  C   UNL     1      -9.340  14.319  66.899  1.00  0.00    -0.257 C  
HETATM   13  C   UNL     1      -8.940  12.836  66.810  1.00  0.00    -0.188 C  
HETATM   14  S   UNL     1      -7.651  12.654  68.043  1.00  0.00    -0.147 SA 
HETATM   15  C   UNL     1      -7.124  14.360  67.781  1.00  0.00    -0.176 C  
HETATM   16  O   UNL     1      -8.147  15.109  67.111  1.00  0.00    -0.186 OA 
BRANCH  15  17
HETATM   17  C   UNL     1      -6.748  15.013  69.118  1.00  0.00    -0.126 C  
HETATM   18  O   UNL     1      -7.849  15.061  70.026  1.00  0.00    -0.346 OA 
HETATM   19  H   UNL     1      -7.617  15.466  70.853  1.00  0.00     0.000 HD 
ENDBRANCH  15  17
ENDBRANCH   8  12
TORSDOF 2
ENDMDL
MODEL      121
REMARK 921   NORMALIZED FREE ENERGY PREDICTED BY IDOCK:   -3.43 KCAL/MOL
REMARK 922        TOTAL FREE ENERGY PREDICTED BY IDOCK:   -3.79 KCAL/MOL
REMARK 923 INTER-LIGAND FREE ENERGY PREDICTED BY IDOCK:   -3.97 KCAL/MOL
REMARK 924 INTRA-LIGAND FREE ENERGY PREDICTED BY IDOCK:    0.18 KCAL/MOL
REMARK 927      BINDING AFFINITY PREDICTED BY RF-SCORE:    0.00 PKD
ROOT
HETATM    1  N   UNL     1      -7.790  10.679  67.409  1.00  0.00    -0.109 NA 
HETATM    2  H1  UNL     1      -6.876  10.628  67.860  1.00  0.00     0.000 HD 
HETATM    3  H2  UNL     1      -8.302   9.835  67.153  1.00  0.00     0.000 HD 
HETATM    4  C   UNL     1      -8.299  11.922  67.163  1.00  0.00    -0.174 C  
HETATM    5  N   UNL     1      -9.459  11.987  66.590  1.00  0.00    -0.211 N  
HETATM    6  C   UNL     1     -10.033  13.211  66.345  1.00  0.00    -0.282 C  
HETATM    7  H   UNL     1      -9.945  11.132  66.321  1.00  0.00     0.000 HD 
HETATM    8  N   UNL     1      -9.262  14.370  66.535  1.00  0.00    -0.265 N  
HETATM    9  O   UNL     1     -11.203  13.286  65.974  1.00  0.00    -0.292 OA 
HETATM   10  C   UNL     1      -7.529  13.116  67.552  1.00  0.00    -0.164 C  
HETATM   11  C   UNL     1      -8.057  14.288  67.205  1.00  0.00    -0.178 C  
ENDROOT
BRANCH   8  12
HETATM   12  C   UNL     1      -9.922  15.666  66.302  1.00  0.00    -0.295 C  
HETATM   13  C   UNL     1      -9.166  16.921  66.774  1.00  0.00    -0.247 C  
HETATM   14  S   UNL     1      -9.667  17.118  68.484  1.00  0.00    -0.304 SA 
HETATM   15  C   UNL     1     -11.281  16.397  68.122  1.00  0.00    -0.273 C  
HETATM   16  O   UNL     1     -11.248  15.679  66.880  1.00  0.00    -0.245 OA 
BRANCH  15  17
HETATM   17  C   UNL     1     -11.729  15.487  69.273  1.00  0.00    -0.365 C  
HETATM   18  O   UNL     1     -12.371  14.300  68.807  1.00  0.00    -0.562 OA 
HETATM   19  H   UNL     1     -12.649  13.736  69.519  1.00  0.00     0.000 HD 
ENDBRANCH  15  17
ENDBRANCH   8  12
TORSDOF 2
ENDMDL
MODEL      122
REMARK 921   NORMALIZED FREE ENERGY PREDICTED BY IDOCK:   -3.43 KCAL/MOL
REMARK 922        TOTAL FREE ENERGY PREDICTED BY IDOCK:   -3.79 KCAL/MOL
REMARK 923 INTER-LIGAND FREE ENERGY PREDICTED BY IDOCK:   -4.20 KCAL/MOL
REMARK 924 INTRA-LIGAND FREE ENERGY PREDICTED BY IDOCK:    0.41 KCAL/MOL
REMARK 927      BINDING AFFINITY PREDICTED BY RF-SCORE:    0.00 PKD
ROOT
HETATM    1  N   UNL     1     -12.034  12.255  67.891  1.00  0.00    -0.480 NA 
HETATM    2  H1  UNL     1     -12.991  12.528  68.111  1.00  0.00     0.000 HD 
HETATM    3  H2  UNL     1     -11.576  12.570  67.036  1.00  0.00     0.000 HD 
HETATM    4  C   UNL     1     -11.389  11.450  68.786  1.00  0.00    -0.271 C  
HETATM    5  N   UNL     1     -10.173  11.103  68.507  1.00  0.00    -0.191 N  
HETATM    6  C   UNL     1      -9.467  10.318  69.386  1.00  0.00    -0.206 C  
HETATM    7  H   UNL     1      -9.741  11.410  67.635  1.00  0.00     0.000 HD 
HETATM    8  N   UNL     1     -10.145   9.740  70.472  1.00  0.00    -0.265 N  
HETATM    9  O   UNL     1      -8.262  10.134  69.225  1.00  0.00    -0.130 OA 
HETATM   10  C   UNL     1     -12.085  11.018  70.010  1.00  0.00    -0.441 C  
HETATM   11  C   UNL     1     -11.417  10.171  70.792  1.00  0.00    -0.357 C  
ENDROOT
BRANCH   8  12
HETATM   12  C   UNL     1      -9.348   8.939  71.417  1.00  0.00    -0.268 C  
HETATM   13  C   UNL     1      -8.246   8.051  70.811  1.00  0.00    -0.113 C  
HETATM   14  S   UNL     1      -9.087   6.517  70.417  1.00  0.00    -0.156 SA 
HETATM   15  C   UNL     1     -10.221   6.751  71.801  1.00  0.00    -0.190 C  
HETATM   16  O   UNL     1     -10.205   8.116  72.243  1.00  0.00    -0.229 OA 
BRANCH  15  17
HETATM   17  C   UNL     1     -11.639   6.316  71.408  1.00  0.00    -0.278 C  
HETATM   18  O   UNL     1     -12.039   6.849  70.146  1.00  0.00    -0.627 OA 
HETATM   19  H   UNL     1     -12.917   6.580  69.903  1.00  0.00     0.000 HD 
ENDBRANCH  15  17
ENDBRANCH   8  12
TORSDOF 2
ENDMDL
MODEL      123
REMARK 921   NORMALIZED FREE ENERGY PREDICTED BY IDOCK:   -3.40 KCAL/MOL
REMARK 922        TOTAL FREE ENERGY PREDICTED BY IDOCK:   -3.76 KCAL/MOL
REMARK 923 INTER-LIGAND FREE ENERGY PREDICTED BY IDOCK:   -3.89 KCAL/MOL
REMARK 924 INTRA-LIGAND FREE ENERGY PREDICTED BY IDOCK:    0.13 KCAL/MOL
REMARK 927      BINDING AFFINITY PREDICTED BY RF-SCORE:    0.00 PKD
ROOT
HETATM    1  N   UNL     1     -12.304  14.217  68.995  1.00  0.00    -0.562 NA 
HETATM    2  H1  UNL     1     -12.279  14.670  68.081  1.00  0.00     0.000 HD 
HETATM    3  H2  UNL     1     -12.592  14.726  69.830  1.00  0.00     0.000 HD 
HETATM    4  C   UNL     1     -11.937  12.903  69.055  1.00  0.00    -0.251 C  
HETATM    5  N   UNL     1     -11.969  12.329  70.215  1.00  0.00    -0.472 N  
HETATM    6  C   UNL     1     -11.638  11.000  70.329  1.00  0.00    -0.322 C  
HETATM    7  H   UNL     1     -12.238  12.862  71.042  1.00  0.00     0.000 HD 
HETATM    8  N   UNL     1     -11.077  10.344  69.221  1.00  0.00    -0.238 N  
HETATM    9  O   UNL     1     -11.839  10.398  71.383  1.00  0.00    -0.332 OA 
HETATM   10  C   UNL     1     -11.531  12.203  67.825  1.00  0.00    -0.398 C  
HETATM   11  C   UNL     1     -11.111  10.949  67.980  1.00  0.00    -0.293 C  
ENDROOT
BRANCH   8  12
HETATM   12  C   UNL     1     -10.773   8.911  69.367  1.00  0.00    -0.181 C  
HETATM   13  C   UNL     1      -9.748   8.529  70.450  1.00  0.00    -0.175 C  
HETATM   14  S   UNL     1      -8.164   8.649  69.617  1.00  0.00    -0.117 SA 
HETATM   15  C   UNL     1      -8.923   8.178  68.049  1.00  0.00    -0.134 C  
HETATM   16  O   UNL     1     -10.347   8.344  68.105  1.00  0.00    -0.205 OA 
BRANCH  15  17
HETATM   17  C   UNL     1      -8.318   8.993  66.898  1.00  0.00    -0.119 C  
HETATM   18  O   UNL     1      -7.365   9.952  67.356  1.00  0.00    -0.089 OA 
HETATM   19  H   UNL     1      -6.990  10.456  66.644  1.00  0.00     0.000 HD 
ENDBRANCH  15  17
ENDBRANCH   8  12
TORSDOF 2
ENDMDL
MODEL      124
REMARK 921   NORMALIZED FREE ENERGY PREDICTED BY IDOCK:   -3.39 KCAL/MOL
REMARK 922        TOTAL FREE ENERGY PREDICTED BY IDOCK:   -3.74 KCAL/MOL
REMARK 923 INTER-LIGAND FREE ENERGY PREDICTED BY IDOCK:   -3.99 KCAL/MOL
REMARK 924 INTRA-LIGAND FREE ENERGY PREDICTED BY IDOCK:    0.24 KCAL/MOL
REMARK 927      BINDING AFFINITY PREDICTED BY RF-SCORE:    0.00 PKD
ROOT
HETATM    1  N   UNL     1      -7.960  10.110  68.375  1.00  0.00    -0.100 NA 
HETATM    2  H1  UNL     1      -6.980  10.343  68.531  1.00  0.00     0.000 HD 
HETATM    3  H2  UNL     1      -8.298   9.152  68.465  1.00  0.00     0.000 HD 
HETATM    4  C   UNL     1      -8.803  11.132  68.042  1.00  0.00    -0.142 C  
HETATM    5  N   UNL     1     -10.048  10.837  67.845  1.00  0.00    -0.169 N  
HETATM    6  C   UNL     1     -10.946  11.829  67.537  1.00  0.00    -0.256 C  
HETATM    7  H   UNL     1     -10.362   9.869  67.918  1.00  0.00     0.000 HD 
HETATM    8  N   UNL     1     -10.460  13.114  67.241  1.00  0.00    -0.242 N  
HETATM    9  O   UNL     1     -12.154  11.595  67.528  1.00  0.00    -0.611 OA 
HETATM   10  C   UNL     1      -8.276  12.502  67.925  1.00  0.00    -0.165 C  
HETATM   11  C   UNL     1      -9.144  13.428  67.519  1.00  0.00    -0.215 C  
ENDROOT
BRANCH   8  12
HETATM   12  C   UNL     1     -11.453  14.164  66.955  1.00  0.00    -0.357 C  
HETATM   13  C   UNL     1     -11.504  14.691  65.510  1.00  0.00    -0.341 C  
HETATM   14  S   UNL     1     -10.291  16.010  65.481  1.00  0.00    -0.360 SA 
HETATM   15  C   UNL     1     -10.615  16.382  67.217  1.00  0.00    -0.293 C  
HETATM   16  O   UNL     1     -11.288  15.287  67.852  1.00  0.00    -0.321 OA 
BRANCH  15  17
HETATM   17  C   UNL     1      -9.306  16.721  67.943  1.00  0.00    -0.229 C  
HETATM   18  O   UNL     1      -8.265  17.092  67.039  1.00  0.00    -0.185 OA 
HETATM   19  H   UNL     1      -7.455  17.302  67.488  1.00  0.00     0.000 HD 
ENDBRANCH  15  17
ENDBRANCH   8  12
TORSDOF 2
ENDMDL
MODEL      125
REMARK 921   NORMALIZED FREE ENERGY PREDICTED BY IDOCK:   -3.35 KCAL/MOL
REMARK 922        TOTAL FREE ENERGY PREDICTED BY IDOCK:   -3.70 KCAL/MOL
REMARK 923 INTER-LIGAND FREE ENERGY PREDICTED BY IDOCK:   -4.03 KCAL/MOL
REMARK 924 INTRA-LIGAND FREE ENERGY PREDICTED BY IDOCK:    0.32 KCAL/MOL
REMARK 927      BINDING AFFINITY PREDICTED BY RF-SCORE:    0.00 PKD
ROOT
HETATM    1  N   UNL     1      -9.539   8.953  68.645  1.00  0.00    -0.152 NA 
HETATM    2  H1  UNL     1     -10.306   8.356  68.953  1.00  0.00     0.000 HD 
HETATM    3  H2  UNL     1      -8.586   8.596  68.574  1.00  0.00     0.000 HD 
HETATM    4  C   UNL     1      -9.837  10.249  68.333  1.00  0.00    -0.156 C  
HETATM    5  N   UNL     1      -8.863  11.007  67.943  1.00  0.00    -0.131 N  
HETATM    6  C   UNL     1      -9.110  12.311  67.589  1.00  0.00    -0.184 C  
HETATM    7  H   UNL     1      -7.913  10.637  67.900  1.00  0.00     0.000 HD 
HETATM    8  N   UNL     1     -10.379  12.854  67.850  1.00  0.00    -0.225 N  
HETATM    9  O   UNL     1      -8.236  12.984  67.045  1.00  0.00    -0.154 OA 
HETATM   10  C   UNL     1     -11.226  10.724  68.447  1.00  0.00    -0.345 C  
HETATM   11  C   UNL     1     -11.421  12.019  68.203  1.00  0.00    -0.322 C  
ENDROOT
BRANCH   8  12
HETATM   12  C   UNL     1     -10.622  14.242  67.420  1.00  0.00    -0.276 C  
HETATM   13  C   UNL     1      -9.559  15.283  67.813  1.00  0.00    -0.206 C  
HETATM   14  S   UNL     1     -10.066  15.834  69.441  1.00  0.00    -0.284 SA 
HETATM   15  C   UNL     1     -11.800  15.557  69.025  1.00  0.00    -0.354 C  
HETATM   16  O   UNL     1     -11.915  14.703  67.878  1.00  0.00    -0.337 OA 
BRANCH  15  17
HETATM   17  C   UNL     1     -12.549  14.968  70.227  1.00  0.00    -0.317 C  
HETATM   18  O   UNL     1     -12.976  15.975  71.146  1.00  0.00    -0.585 OA 
HETATM   19  H   UNL     1     -13.440  15.611  71.890  1.00  0.00     0.000 HD 
ENDBRANCH  15  17
ENDBRANCH   8  12
TORSDOF 2
ENDMDL
MODEL      126
REMARK 921   NORMALIZED FREE ENERGY PREDICTED BY IDOCK:   -3.35 KCAL/MOL
REMARK 922        TOTAL FREE ENERGY PREDICTED BY IDOCK:   -3.70 KCAL/MOL
REMARK 923 INTER-LIGAND FREE ENERGY PREDICTED BY IDOCK:   -3.85 KCAL/MOL
REMARK 924 INTRA-LIGAND FREE ENERGY PREDICTED BY IDOCK:    0.14 KCAL/MOL
REMARK 927      BINDING AFFINITY PREDICTED BY RF-SCORE:    0.00 PKD
ROOT
HETATM    1  N   UNL     1      -9.308   4.273  67.114  1.00  0.00    -0.154 NA 
HETATM    2  H1  UNL     1      -9.489   4.742  66.226  1.00  0.00     0.000 HD 
HETATM    3  H2  UNL     1      -8.735   3.431  67.161  1.00  0.00     0.000 HD 
HETATM    4  C   UNL     1      -9.865   4.818  68.236  1.00  0.00    -0.118 C  
HETATM    5  N   UNL     1      -9.635   4.223  69.363  1.00  0.00    -0.187 N  
HETATM    6  C   UNL     1     -10.145   4.743  70.528  1.00  0.00    -0.220 C  
HETATM    7  H   UNL     1      -9.078   3.369  69.386  1.00  0.00     0.000 HD 
HETATM    8  N   UNL     1     -11.074   5.795  70.449  1.00  0.00    -0.273 N  
HETATM    9  O   UNL     1      -9.786   4.299  71.617  1.00  0.00    -0.171 OA 
HETATM   10  C   UNL     1     -10.684   6.036  68.126  1.00  0.00    -0.353 C  
HETATM   11  C   UNL     1     -11.256   6.458  69.252  1.00  0.00    -0.375 C  
ENDROOT
BRANCH   8  12
HETATM   12  C   UNL     1     -11.568   6.356  71.718  1.00  0.00    -0.316 C  
HETATM   13  C   UNL     1     -12.698   7.396  71.620  1.00  0.00    -0.365 C  
HETATM   14  S   UNL     1     -11.840   8.957  71.413  1.00  0.00    -0.337 SA 
HETATM   15  C   UNL     1     -10.449   8.352  72.392  1.00  0.00    -0.332 C  
HETATM   16  O   UNL     1     -10.482   6.921  72.488  1.00  0.00    -0.201 OA 
BRANCH  15  17
HETATM   17  C   UNL     1      -9.123   8.833  71.788  1.00  0.00    -0.235 C  
HETATM   18  O   UNL     1      -9.271   9.277  70.439  1.00  0.00    -0.208 OA 
HETATM   19  H   UNL     1      -8.450   9.575  70.066  1.00  0.00     0.000 HD 
ENDBRANCH  15  17
ENDBRANCH   8  12
TORSDOF 2
ENDMDL
MODEL      127
REMARK 921   NORMALIZED FREE ENERGY PREDICTED BY IDOCK:   -3.35 KCAL/MOL
REMARK 922        TOTAL FREE ENERGY PREDICTED BY IDOCK:   -3.70 KCAL/MOL
REMARK 923 INTER-LIGAND FREE ENERGY PREDICTED BY IDOCK:   -4.11 KCAL/MOL
REMARK 924 INTRA-LIGAND FREE ENERGY PREDICTED BY IDOCK:    0.41 KCAL/MOL
REMARK 927      BINDING AFFINITY PREDICTED BY RF-SCORE:    0.00 PKD
ROOT
HETATM    1  N   UNL     1      -6.511  10.234  64.295  1.00  0.00    -0.248 NA 
HETATM    2  H1  UNL     1      -6.391   9.850  63.357  1.00  0.00     0.000 HD 
HETATM    3  H2  UNL     1      -5.737  10.261  64.959  1.00  0.00     0.000 HD 
HETATM    4  C   UNL     1      -7.747  10.711  64.625  1.00  0.00     0.118 C  
HETATM    5  N   UNL     1      -7.899  11.199  65.815  1.00  0.00    -0.370 N  
HETATM    6  C   UNL     1      -9.113  11.719  66.191  1.00  0.00    -0.185 C  
HETATM    7  H   UNL     1      -7.118  11.196  66.472  1.00  0.00     0.000 HD 
HETATM    8  N   UNL     1     -10.222  11.527  65.349  1.00  0.00    -0.252 N  
HETATM    9  O   UNL     1      -9.221  12.348  67.242  1.00  0.00    -0.176 OA 
HETATM   10  C   UNL     1      -8.837  10.656  63.636  1.00  0.00    -0.183 C  
HETATM   11  C   UNL     1     -10.031  11.066  64.062  1.00  0.00    -0.335 C  
ENDROOT
BRANCH   8  12
HETATM   12  C   UNL     1     -11.498  12.134  65.764  1.00  0.00    -0.361 C  
HETATM   13  C   UNL     1     -12.614  12.188  64.705  1.00  0.00    -0.175 C  
HETATM   14  S   UNL     1     -12.315  13.725  63.832  1.00  0.00    -0.166 SA 
HETATM   15  C   UNL     1     -11.640  14.475  65.328  1.00  0.00    -0.359 C  
HETATM   16  O   UNL     1     -11.289  13.467  66.286  1.00  0.00    -0.295 OA 
BRANCH  15  17
HETATM   17  C   UNL     1     -10.431  15.355  64.986  1.00  0.00    -0.381 C  
HETATM   18  O   UNL     1     -10.794  16.722  64.791  1.00  0.00    -0.745 OA 
HETATM   19  H   UNL     1     -10.046  17.267  64.578  1.00  0.00     0.000 HD 
ENDBRANCH  15  17
ENDBRANCH   8  12
TORSDOF 2
ENDMDL
MODEL      128
REMARK 921   NORMALIZED FREE ENERGY PREDICTED BY IDOCK:   -3.34 KCAL/MOL
REMARK 922        TOTAL FREE ENERGY PREDICTED BY IDOCK:   -3.69 KCAL/MOL
REMARK 923 INTER-LIGAND FREE ENERGY PREDICTED BY IDOCK:   -3.88 KCAL/MOL
REMARK 924 INTRA-LIGAND FREE ENERGY PREDICTED BY IDOCK:    0.19 KCAL/MOL
REMARK 927      BINDING AFFINITY PREDICTED BY RF-SCORE:    0.00 PKD
ROOT
HETATM    1  N   UNL     1     -11.216   5.612  73.887  1.00  0.00    -0.362 NA 
HETATM    2  H1  UNL     1     -11.787   6.300  74.378  1.00  0.00     0.000 HD 
HETATM    3  H2  UNL     1     -10.747   4.859  74.390  1.00  0.00     0.000 HD 
HETATM    4  C   UNL     1     -11.105   5.739  72.532  1.00  0.00    -0.279 C  
HETATM    5  N   UNL     1     -10.379   4.866  71.910  1.00  0.00    -0.203 N  
HETATM    6  C   UNL     1     -10.256   4.928  70.543  1.00  0.00    -0.218 C  
HETATM    7  H   UNL     1      -9.900   4.133  72.433  1.00  0.00     0.000 HD 
HETATM    8  N   UNL     1     -10.753   6.057  69.869  1.00  0.00    -0.291 N  
HETATM    9  O   UNL     1      -9.727   4.006  69.924  1.00  0.00    -0.203 OA 
HETATM   10  C   UNL     1     -11.801   6.840  71.844  1.00  0.00    -0.366 C  
HETATM   11  C   UNL     1     -11.577   6.942  70.535  1.00  0.00    -0.346 C  
ENDROOT
BRANCH   8  12
HETATM   12  C   UNL     1     -10.640   6.071  68.401  1.00  0.00    -0.261 C  
HETATM   13  C   UNL     1      -9.226   5.910  67.815  1.00  0.00    -0.108 C  
HETATM   14  S   UNL     1      -8.584   7.583  67.753  1.00  0.00    -0.120 SA 
HETATM   15  C   UNL     1     -10.244   8.238  67.485  1.00  0.00    -0.243 C  
HETATM   16  O   UNL     1     -11.236   7.269  67.851  1.00  0.00     0.006 OA 
BRANCH  15  17
HETATM   17  C   UNL     1     -10.434   9.544  68.268  1.00  0.00    -0.223 C  
HETATM   18  O   UNL     1     -11.769  10.043  68.174  1.00  0.00    -0.660 OA 
HETATM   19  H   UNL     1     -11.887  10.851  68.658  1.00  0.00     0.000 HD 
ENDBRANCH  15  17
ENDBRANCH   8  12
TORSDOF 2
ENDMDL
MODEL      129
REMARK 921   NORMALIZED FREE ENERGY PREDICTED BY IDOCK:   -3.34 KCAL/MOL
REMARK 922        TOTAL FREE ENERGY PREDICTED BY IDOCK:   -3.69 KCAL/MOL
REMARK 923 INTER-LIGAND FREE ENERGY PREDICTED BY IDOCK:   -3.84 KCAL/MOL
REMARK 924 INTRA-LIGAND FREE ENERGY PREDICTED BY IDOCK:    0.15 KCAL/MOL
REMARK 927      BINDING AFFINITY PREDICTED BY RF-SCORE:    0.00 PKD
ROOT
HETATM    1  N   UNL     1     -11.124   9.348  71.164  1.00  0.00    -0.331 NA 
HETATM    2  H1  UNL     1     -12.125   9.360  71.359  1.00  0.00     0.000 HD 
HETATM    3  H2  UNL     1     -10.488   8.757  71.699  1.00  0.00     0.000 HD 
HETATM    4  C   UNL     1     -10.670  10.155  70.160  1.00  0.00    -0.300 C  
HETATM    5  N   UNL     1      -9.399  10.139  69.913  1.00  0.00    -0.391 N  
HETATM    6  C   UNL     1      -8.891  10.908  68.895  1.00  0.00    -0.138 C  
HETATM    7  H   UNL     1      -8.776   9.558  70.474  1.00  0.00     0.000 HD 
HETATM    8  N   UNL     1      -9.729  11.850  68.274  1.00  0.00    -0.197 N  
HETATM    9  O   UNL     1      -7.725  10.766  68.530  1.00  0.00    -0.104 OA 
HETATM   10  C   UNL     1     -11.622  10.991  69.410  1.00  0.00    -0.383 C  
HETATM   11  C   UNL     1     -11.090  11.808  68.502  1.00  0.00    -0.239 C  
ENDROOT
BRANCH   8  12
HETATM   12  C   UNL     1      -9.163  12.628  67.159  1.00  0.00    -0.214 C  
HETATM   13  C   UNL     1      -8.010  13.588  67.503  1.00  0.00    -0.181 C  
HETATM   14  S   UNL     1      -8.832  15.109  67.978  1.00  0.00    -0.174 SA 
HETATM   15  C   UNL     1     -10.194  14.757  66.847  1.00  0.00    -0.257 C  
HETATM   16  O   UNL     1     -10.197  13.372  66.474  1.00  0.00    -0.270 OA 
BRANCH  15  17
HETATM   17  C   UNL     1     -11.531  15.160  67.482  1.00  0.00    -0.298 C  
HETATM   18  O   UNL     1     -11.406  16.299  68.334  1.00  0.00    -0.367 OA 
HETATM   19  H   UNL     1     -12.234  16.548  68.727  1.00  0.00     0.000 HD 
ENDBRANCH  15  17
ENDBRANCH   8  12
TORSDOF 2
ENDMDL
MODEL      130
REMARK 921   NORMALIZED FREE ENERGY PREDICTED BY IDOCK:   -3.33 KCAL/MOL
REMARK 922        TOTAL FREE ENERGY PREDICTED BY IDOCK:   -3.67 KCAL/MOL
REMARK 923 INTER-LIGAND FREE ENERGY PREDICTED BY IDOCK:   -3.74 KCAL/MOL
REMARK 924 INTRA-LIGAND FREE ENERGY PREDICTED BY IDOCK:    0.06 KCAL/MOL
REMARK 927      BINDING AFFINITY PREDICTED BY RF-SCORE:    0.00 PKD
ROOT
HETATM    1  N   UNL     1      -8.074   7.077  67.346  1.00  0.00    -0.115 NA 
HETATM    2  H1  UNL     1      -7.755   7.963  66.954  1.00  0.00     0.000 HD 
HETATM    3  H2  UNL     1      -7.842   6.188  66.904  1.00  0.00     0.000 HD 
HETATM    4  C   UNL     1      -8.825   7.129  68.486  1.00  0.00    -0.125 C  
HETATM    5  N   UNL     1      -9.230   6.004  68.984  1.00  0.00    -0.121 N  
HETATM    6  C   UNL     1      -9.963   5.995  70.145  1.00  0.00    -0.178 C  
HETATM    7  H   UNL     1      -9.006   5.127  68.513  1.00  0.00     0.000 HD 
HETATM    8  N   UNL     1     -10.432   7.216  70.660  1.00  0.00    -0.208 N  
HETATM    9  O   UNL     1     -10.196   4.936  70.725  1.00  0.00    -0.232 OA 
HETATM   10  C   UNL     1      -9.136   8.433  69.095  1.00  0.00    -0.147 C  
HETATM   11  C   UNL     1      -9.938   8.403  70.158  1.00  0.00    -0.187 C  
ENDROOT
BRANCH   8  12
HETATM   12  C   UNL     1     -11.180   7.172  71.928  1.00  0.00    -0.249 C  
HETATM   13  C   UNL     1     -12.566   6.504  71.890  1.00  0.00    -0.187 C  
HETATM   14  S   UNL     1     -13.679   7.830  71.427  1.00  0.00    -0.236 SA 
HETATM   15  C   UNL     1     -12.628   9.039  72.259  1.00  0.00    -0.375 C  
HETATM   16  O   UNL     1     -11.320   8.498  72.489  1.00  0.00    -0.368 OA 
BRANCH  15  17
HETATM   17  C   UNL     1     -12.553  10.334  71.439  1.00  0.00    -0.434 C  
HETATM   18  O   UNL     1     -13.041  10.162  70.108  1.00  0.00    -0.574 OA 
HETATM   19  H   UNL     1     -12.994  10.963  69.601  1.00  0.00     0.000 HD 
ENDBRANCH  15  17
ENDBRANCH   8  12
TORSDOF 2
ENDMDL
MODEL      131
REMARK 921   NORMALIZED FREE ENERGY PREDICTED BY IDOCK:   -3.32 KCAL/MOL
REMARK 922        TOTAL FREE ENERGY PREDICTED BY IDOCK:   -3.66 KCAL/MOL
REMARK 923 INTER-LIGAND FREE ENERGY PREDICTED BY IDOCK:   -3.74 KCAL/MOL
REMARK 924 INTRA-LIGAND FREE ENERGY PREDICTED BY IDOCK:    0.08 KCAL/MOL
REMARK 927      BINDING AFFINITY PREDICTED BY RF-SCORE:    0.00 PKD
ROOT
HETATM    1  N   UNL     1     -13.292   7.806  72.026  1.00  0.00    -0.492 NA 
HETATM    2  H1  UNL     1     -13.379   7.788  73.042  1.00  0.00     0.000 HD 
HETATM    3  H2  UNL     1     -13.885   8.406  71.454  1.00  0.00     0.000 HD 
HETATM    4  C   UNL     1     -12.348   6.994  71.463  1.00  0.00    -0.379 C  
HETATM    5  N   UNL     1     -12.238   7.017  70.173  1.00  0.00    -0.615 N  
HETATM    6  C   UNL     1     -11.285   6.244  69.554  1.00  0.00    -0.430 C  
HETATM    7  H   UNL     1     -12.856   7.608  69.617  1.00  0.00     0.000 HD 
HETATM    8  N   UNL     1     -10.588   5.291  70.316  1.00  0.00    -0.260 N  
HETATM    9  O   UNL     1     -11.046   6.392  68.357  1.00  0.00    -0.315 OA 
HETATM   10  C   UNL     1     -11.509   6.145  72.324  1.00  0.00    -0.360 C  
HETATM   11  C   UNL     1     -10.670   5.325  71.694  1.00  0.00    -0.156 C  
ENDROOT
BRANCH   8  12
HETATM   12  C   UNL     1      -9.546   4.508  69.630  1.00  0.00    -0.199 C  
HETATM   13  C   UNL     1      -9.286   3.088  70.163  1.00  0.00    -0.158 C  
HETATM   14  S   UNL     1      -8.073   3.323  71.462  1.00  0.00    -0.061 SA 
HETATM   15  C   UNL     1      -7.375   4.741  70.591  1.00  0.00    -0.056 C  
HETATM   16  O   UNL     1      -8.293   5.231  69.604  1.00  0.00    -0.096 OA 
BRANCH  15  17
HETATM   17  C   UNL     1      -6.995   5.844  71.587  1.00  0.00    -0.073 C  
HETATM   18  O   UNL     1      -7.368   5.517  72.926  1.00  0.00    -0.089 OA 
HETATM   19  H   UNL     1      -7.133   6.200  73.542  1.00  0.00     0.000 HD 
ENDBRANCH  15  17
ENDBRANCH   8  12
TORSDOF 2
ENDMDL
MODEL      132
REMARK 921   NORMALIZED FREE ENERGY PREDICTED BY IDOCK:   -3.30 KCAL/MOL
REMARK 922        TOTAL FREE ENERGY PREDICTED BY IDOCK:   -3.64 KCAL/MOL
REMARK 923 INTER-LIGAND FREE ENERGY PREDICTED BY IDOCK:   -3.75 KCAL/MOL
REMARK 924 INTRA-LIGAND FREE ENERGY PREDICTED BY IDOCK:    0.11 KCAL/MOL
REMARK 927      BINDING AFFINITY PREDICTED BY RF-SCORE:    0.00 PKD
ROOT
HETATM    1  N   UNL     1     -11.117   4.807  74.055  1.00  0.00    -0.346 NA 
HETATM    2  H1  UNL     1     -10.451   4.079  74.313  1.00  0.00     0.000 HD 
HETATM    3  H2  UNL     1     -11.782   5.181  74.731  1.00  0.00     0.000 HD 
HETATM    4  C   UNL     1     -11.084   5.260  72.766  1.00  0.00    -0.286 C  
HETATM    5  N   UNL     1     -11.929   6.183  72.438  1.00  0.00    -0.501 N  
HETATM    6  C   UNL     1     -11.921   6.697  71.164  1.00  0.00    -0.357 C  
HETATM    7  H   UNL     1     -12.601   6.529  73.124  1.00  0.00     0.000 HD 
HETATM    8  N   UNL     1     -11.132   6.068  70.186  1.00  0.00    -0.361 N  
HETATM    9  O   UNL     1     -12.587   7.694  70.891  1.00  0.00    -0.194 OA 
HETATM   10  C   UNL     1     -10.106   4.695  71.821  1.00  0.00    -0.261 C  
HETATM   11  C   UNL     1     -10.191   5.131  70.565  1.00  0.00    -0.260 C  
ENDROOT
BRANCH   8  12
HETATM   12  C   UNL     1     -11.116   6.669  68.842  1.00  0.00    -0.246 C  
HETATM   13  C   UNL     1     -10.622   5.774  67.691  1.00  0.00    -0.239 C  
HETATM   14  S   UNL     1      -8.846   6.013  67.680  1.00  0.00    -0.104 SA 
HETATM   15  C   UNL     1      -9.043   7.706  68.275  1.00  0.00    -0.136 C  
HETATM   16  O   UNL     1     -10.348   7.896  68.837  1.00  0.00    -0.210 OA 
BRANCH  15  17
HETATM   17  C   UNL     1      -7.948   8.043  69.296  1.00  0.00    -0.116 C  
HETATM   18  O   UNL     1      -8.416   8.919  70.322  1.00  0.00    -0.132 OA 
HETATM   19  H   UNL     1      -7.738   9.128  70.954  1.00  0.00     0.000 HD 
ENDBRANCH  15  17
ENDBRANCH   8  12
TORSDOF 2
ENDMDL
MODEL      133
REMARK 921   NORMALIZED FREE ENERGY PREDICTED BY IDOCK:   -3.29 KCAL/MOL
REMARK 922        TOTAL FREE ENERGY PREDICTED BY IDOCK:   -3.63 KCAL/MOL
REMARK 923 INTER-LIGAND FREE ENERGY PREDICTED BY IDOCK:   -3.76 KCAL/MOL
REMARK 924 INTRA-LIGAND FREE ENERGY PREDICTED BY IDOCK:    0.13 KCAL/MOL
REMARK 927      BINDING AFFINITY PREDICTED BY RF-SCORE:    0.00 PKD
ROOT
HETATM    1  N   UNL     1     -10.308  10.705  63.906  1.00  0.00    -0.465 NA 
HETATM    2  H1  UNL     1     -10.836  11.568  64.031  1.00  0.00     0.000 HD 
HETATM    3  H2  UNL     1     -10.049  10.373  62.977  1.00  0.00     0.000 HD 
HETATM    4  C   UNL     1      -9.960  10.012  65.030  1.00  0.00    -0.250 C  
HETATM    5  N   UNL     1      -9.289   8.916  64.870  1.00  0.00    -0.407 N  
HETATM    6  C   UNL     1      -8.888   8.194  65.967  1.00  0.00    -0.172 C  
HETATM    7  H   UNL     1      -9.060   8.589  63.931  1.00  0.00     0.000 HD 
HETATM    8  N   UNL     1      -9.387   8.549  67.231  1.00  0.00    -0.145 N  
HETATM    9  O   UNL     1      -8.099   7.259  65.841  1.00  0.00    -0.111 OA 
HETATM   10  C   UNL     1     -10.351  10.527  66.353  1.00  0.00    -0.283 C  
HETATM   11  C   UNL     1     -10.044   9.753  67.393  1.00  0.00    -0.208 C  
ENDROOT
BRANCH   8  12
HETATM   12  C   UNL     1      -8.904   7.779  68.390  1.00  0.00    -0.130 C  
HETATM   13  C   UNL     1      -9.430   6.339  68.530  1.00  0.00    -0.123 C  
HETATM   14  S   UNL     1     -10.959   6.519  69.450  1.00  0.00    -0.353 SA 
HETATM   15  C   UNL     1     -10.299   7.957  70.317  1.00  0.00    -0.212 C  
HETATM   16  O   UNL     1      -9.162   8.489  69.624  1.00  0.00    -0.154 OA 
BRANCH  15  17
HETATM   17  C   UNL     1     -11.390   9.023  70.486  1.00  0.00    -0.243 C  
HETATM   18  O   UNL     1     -12.635   8.464  70.904  1.00  0.00    -0.499 OA 
HETATM   19  H   UNL     1     -13.310   9.123  71.009  1.00  0.00     0.000 HD 
ENDBRANCH  15  17
ENDBRANCH   8  12
TORSDOF 2
ENDMDL
MODEL      134
REMARK 921   NORMALIZED FREE ENERGY PREDICTED BY IDOCK:   -3.29 KCAL/MOL
REMARK 922        TOTAL FREE ENERGY PREDICTED BY IDOCK:   -3.63 KCAL/MOL
REMARK 923 INTER-LIGAND FREE ENERGY PREDICTED BY IDOCK:   -3.66 KCAL/MOL
REMARK 924 INTRA-LIGAND FREE ENERGY PREDICTED BY IDOCK:    0.03 KCAL/MOL
REMARK 927      BINDING AFFINITY PREDICTED BY RF-SCORE:    0.00 PKD
ROOT
HETATM    1  N   UNL     1      -9.592  11.999  64.392  1.00  0.00    -0.470 NA 
HETATM    2  H1  UNL     1     -10.445  11.780  63.878  1.00  0.00     0.000 HD 
HETATM    3  H2  UNL     1      -8.942  12.711  64.059  1.00  0.00     0.000 HD 
HETATM    4  C   UNL     1      -9.354  11.301  65.541  1.00  0.00    -0.221 C  
HETATM    5  N   UNL     1      -8.270  11.578  66.193  1.00  0.00    -0.366 N  
HETATM    6  C   UNL     1      -7.995  10.928  67.371  1.00  0.00    -0.113 C  
HETATM    7  H   UNL     1      -7.621  12.278  65.831  1.00  0.00     0.000 HD 
HETATM    8  N   UNL     1      -8.791   9.831  67.740  1.00  0.00    -0.129 N  
HETATM    9  O   UNL     1      -7.072  11.307  68.090  1.00  0.00    -0.067 OA 
HETATM   10  C   UNL     1     -10.319  10.283  65.988  1.00  0.00    -0.248 C  
HETATM   11  C   UNL     1      -9.976   9.591  67.073  1.00  0.00    -0.213 C  
ENDROOT
BRANCH   8  12
HETATM   12  C   UNL     1      -8.493   9.183  69.029  1.00  0.00    -0.132 C  
HETATM   13  C   UNL     1      -8.918   7.711  69.177  1.00  0.00    -0.135 C  
HETATM   14  S   UNL     1     -10.611   7.800  69.759  1.00  0.00    -0.234 SA 
HETATM   15  C   UNL     1     -10.262   9.346  70.622  1.00  0.00    -0.288 C  
HETATM   16  O   UNL     1      -9.054   9.940  70.127  1.00  0.00    -0.223 OA 
BRANCH  15  17
HETATM   17  C   UNL     1     -11.446  10.311  70.488  1.00  0.00    -0.343 C  
HETATM   18  O   UNL     1     -11.046  11.598  70.015  1.00  0.00    -0.481 OA 
HETATM   19  H   UNL     1     -11.779  12.196  69.932  1.00  0.00     0.000 HD 
ENDBRANCH  15  17
ENDBRANCH   8  12
TORSDOF 2
ENDMDL
MODEL      135
REMARK 921   NORMALIZED FREE ENERGY PREDICTED BY IDOCK:   -3.27 KCAL/MOL
REMARK 922        TOTAL FREE ENERGY PREDICTED BY IDOCK:   -3.61 KCAL/MOL
REMARK 923 INTER-LIGAND FREE ENERGY PREDICTED BY IDOCK:   -3.67 KCAL/MOL
REMARK 924 INTRA-LIGAND FREE ENERGY PREDICTED BY IDOCK:    0.06 KCAL/MOL
REMARK 927      BINDING AFFINITY PREDICTED BY RF-SCORE:    0.00 PKD
ROOT
HETATM    1  N   UNL     1      -6.348  11.976  66.522  1.00  0.00    -0.464 NA 
HETATM    2  H1  UNL     1      -6.874  11.270  66.007  1.00  0.00     0.000 HD 
HETATM    3  H2  UNL     1      -5.328  11.986  66.515  1.00  0.00     0.000 HD 
HETATM    4  C   UNL     1      -7.064  12.907  67.221  1.00  0.00    -0.063 C  
HETATM    5  N   UNL     1      -6.396  13.803  67.874  1.00  0.00    -0.144 N  
HETATM    6  C   UNL     1      -7.064  14.781  68.570  1.00  0.00    -0.110 C  
HETATM    7  H   UNL     1      -5.376  13.782  67.873  1.00  0.00     0.000 HD 
HETATM    8  N   UNL     1      -8.456  14.669  68.726  1.00  0.00    -0.166 N  
HETATM    9  O   UNL     1      -6.451  15.738  69.039  1.00  0.00    -0.118 OA 
HETATM   10  C   UNL     1      -8.535  12.858  67.202  1.00  0.00    -0.179 C  
HETATM   11  C   UNL     1      -9.157  13.750  67.972  1.00  0.00    -0.191 C  
ENDROOT
BRANCH   8  12
HETATM   12  C   UNL     1      -9.144  15.757  69.443  1.00  0.00    -0.254 C  
HETATM   13  C   UNL     1     -10.573  15.463  69.936  1.00  0.00    -0.303 C  
HETATM   14  S   UNL     1     -11.615  15.894  68.542  1.00  0.00    -0.273 SA 
HETATM   15  C   UNL     1     -10.447  17.170  68.029  1.00  0.00    -0.369 C  
HETATM   16  O   UNL     1      -9.168  16.964  68.646  1.00  0.00    -0.250 OA 
BRANCH  15  17
HETATM   17  C   UNL     1     -10.323  17.197  66.500  1.00  0.00    -0.306 C  
HETATM   18  O   UNL     1      -8.967  17.105  66.064  1.00  0.00    -0.481 OA 
HETATM   19  H   UNL     1      -8.890  17.121  65.118  1.00  0.00     0.000 HD 
ENDBRANCH  15  17
ENDBRANCH   8  12
TORSDOF 2
ENDMDL
MODEL      136
REMARK 921   NORMALIZED FREE ENERGY PREDICTED BY IDOCK:   -3.23 KCAL/MOL
REMARK 922        TOTAL FREE ENERGY PREDICTED BY IDOCK:   -3.57 KCAL/MOL
REMARK 923 INTER-LIGAND FREE ENERGY PREDICTED BY IDOCK:   -4.24 KCAL/MOL
REMARK 924 INTRA-LIGAND FREE ENERGY PREDICTED BY IDOCK:    0.67 KCAL/MOL
REMARK 927      BINDING AFFINITY PREDICTED BY RF-SCORE:    0.00 PKD
ROOT
HETATM    1  N   UNL     1     -14.342   8.063  72.115  1.00  0.00    -0.601 NA 
HETATM    2  H1  UNL     1     -14.482   8.702  72.897  1.00  0.00     0.000 HD 
HETATM    3  H2  UNL     1     -15.130   7.620  71.645  1.00  0.00     0.000 HD 
HETATM    4  C   UNL     1     -13.055   7.825  71.722  1.00  0.00    -0.322 C  
HETATM    5  N   UNL     1     -12.877   7.014  70.729  1.00  0.00    -0.552 N  
HETATM    6  C   UNL     1     -11.606   6.761  70.272  1.00  0.00    -0.362 C  
HETATM    7  H   UNL     1     -13.678   6.563  70.286  1.00  0.00     0.000 HD 
HETATM    8  N   UNL     1     -10.513   7.228  71.021  1.00  0.00    -0.214 N  
HETATM    9  O   UNL     1     -11.434   6.144  69.222  1.00  0.00    -0.404 OA 
HETATM   10  C   UNL     1     -11.944   8.488  72.425  1.00  0.00    -0.434 C  
HETATM   11  C   UNL     1     -10.719   8.142  72.035  1.00  0.00    -0.278 C  
ENDROOT
BRANCH   8  12
HETATM   12  C   UNL     1      -9.166   6.974  70.481  1.00  0.00    -0.159 C  
HETATM   13  C   UNL     1      -8.064   7.973  70.877  1.00  0.00    -0.102 C  
HETATM   14  S   UNL     1      -8.177   9.264  69.638  1.00  0.00    -0.140 SA 
HETATM   15  C   UNL     1      -8.737   8.071  68.406  1.00  0.00    -0.130 C  
HETATM   16  O   UNL     1      -9.202   6.870  69.038  1.00  0.00    -0.138 OA 
BRANCH  15  17
HETATM   17  C   UNL     1      -9.830   8.688  67.524  1.00  0.00    -0.180 C  
HETATM   18  O   UNL     1      -9.417   8.822  66.163  1.00  0.00    -0.218 OA 
HETATM   19  H   UNL     1     -10.094   9.204  65.617  1.00  0.00     0.000 HD 
ENDBRANCH  15  17
ENDBRANCH   8  12
TORSDOF 2
ENDMDL
MODEL      137
REMARK 921   NORMALIZED FREE ENERGY PREDICTED BY IDOCK:   -3.23 KCAL/MOL
REMARK 922        TOTAL FREE ENERGY PREDICTED BY IDOCK:   -3.57 KCAL/MOL
REMARK 923 INTER-LIGAND FREE ENERGY PREDICTED BY IDOCK:   -3.69 KCAL/MOL
REMARK 924 INTRA-LIGAND FREE ENERGY PREDICTED BY IDOCK:    0.12 KCAL/MOL
REMARK 927      BINDING AFFINITY PREDICTED BY RF-SCORE:    0.00 PKD
ROOT
HETATM    1  N   UNL     1     -10.981   8.576  72.283  1.00  0.00    -0.359 NA 
HETATM    2  H1  UNL     1     -10.312   7.806  72.268  1.00  0.00     0.000 HD 
HETATM    3  H2  UNL     1     -11.595   8.728  73.083  1.00  0.00     0.000 HD 
HETATM    4  C   UNL     1     -11.023   9.393  71.189  1.00  0.00    -0.360 C  
HETATM    5  N   UNL     1     -11.873  10.370  71.208  1.00  0.00    -0.332 N  
HETATM    6  C   UNL     1     -11.938  11.241  70.148  1.00  0.00    -0.369 C  
HETATM    7  H   UNL     1     -12.494  10.492  72.009  1.00  0.00     0.000 HD 
HETATM    8  N   UNL     1     -11.224  10.935  68.977  1.00  0.00    -0.242 N  
HETATM    9  O   UNL     1     -12.603  12.272  70.230  1.00  0.00    -0.107 OA 
HETATM   10  C   UNL     1     -10.118   9.140  70.056  1.00  0.00    -0.230 C  
HETATM   11  C   UNL     1     -10.276   9.931  68.996  1.00  0.00    -0.200 C  
ENDROOT
BRANCH   8  12
HETATM   12  C   UNL     1     -11.284  11.911  67.875  1.00  0.00    -0.263 C  
HETATM   13  C   UNL     1     -10.837  11.415  66.488  1.00  0.00    -0.283 C  
HETATM   14  S   UNL     1      -9.067  11.696  66.471  1.00  0.00    -0.199 SA 
HETATM   15  C   UNL     1      -9.256  13.127  67.554  1.00  0.00    -0.206 C  
HETATM   16  O   UNL     1     -10.534  13.104  68.204  1.00  0.00    -0.234 OA 
BRANCH  15  17
HETATM   17  C   UNL     1      -8.116  13.174  68.579  1.00  0.00    -0.087 C  
HETATM   18  O   UNL     1      -7.581  11.879  68.855  1.00  0.00    -0.215 OA 
HETATM   19  H   UNL     1      -6.876  11.908  69.490  1.00  0.00     0.000 HD 
ENDBRANCH  15  17
ENDBRANCH   8  12
TORSDOF 2
ENDMDL
MODEL      138
REMARK 921   NORMALIZED FREE ENERGY PREDICTED BY IDOCK:   -3.22 KCAL/MOL
REMARK 922        TOTAL FREE ENERGY PREDICTED BY IDOCK:   -3.56 KCAL/MOL
REMARK 923 INTER-LIGAND FREE ENERGY PREDICTED BY IDOCK:   -3.69 KCAL/MOL
REMARK 924 INTRA-LIGAND FREE ENERGY PREDICTED BY IDOCK:    0.13 KCAL/MOL
REMARK 927      BINDING AFFINITY PREDICTED BY RF-SCORE:    0.00 PKD
ROOT
HETATM    1  N   UNL     1      -8.239   6.456  66.964  1.00  0.00    -0.112 NA 
HETATM    2  H1  UNL     1      -8.308   5.442  66.874  1.00  0.00     0.000 HD 
HETATM    3  H2  UNL     1      -7.919   7.036  66.189  1.00  0.00     0.000 HD 
HETATM    4  C   UNL     1      -8.594   7.005  68.164  1.00  0.00    -0.128 C  
HETATM    5  N   UNL     1      -8.507   8.292  68.278  1.00  0.00    -0.135 N  
HETATM    6  C   UNL     1      -8.879   8.901  69.452  1.00  0.00    -0.143 C  
HETATM    7  H   UNL     1      -8.163   8.853  67.498  1.00  0.00     0.000 HD 
HETATM    8  N   UNL     1      -9.152   8.099  70.573  1.00  0.00    -0.148 N  
HETATM    9  O   UNL     1      -8.977  10.125  69.514  1.00  0.00    -0.192 OA 
HETATM   10  C   UNL     1      -9.054   6.133  69.257  1.00  0.00    -0.129 C  
HETATM   11  C   UNL     1      -9.304   6.735  70.418  1.00  0.00    -0.163 C  
ENDROOT
BRANCH   8  12
HETATM   12  C   UNL     1      -9.587   8.783  71.803  1.00  0.00    -0.301 C  
HETATM   13  C   UNL     1      -9.317   8.053  73.131  1.00  0.00    -0.277 C  
HETATM   14  S   UNL     1     -10.755   7.007  73.357  1.00  0.00    -0.305 SA 
HETATM   15  C   UNL     1     -11.795   8.206  72.498  1.00  0.00    -0.376 C  
HETATM   16  O   UNL     1     -10.993   9.118  71.736  1.00  0.00    -0.353 OA 
BRANCH  15  17
HETATM   17  C   UNL     1     -12.811   7.485  71.603  1.00  0.00    -0.358 C  
HETATM   18  O   UNL     1     -13.834   8.362  71.129  1.00  0.00    -0.570 OA 
HETATM   19  H   UNL     1     -14.463   7.916  70.575  1.00  0.00     0.000 HD 
ENDBRANCH  15  17
ENDBRANCH   8  12
TORSDOF 2
ENDMDL
MODEL      139
REMARK 921   NORMALIZED FREE ENERGY PREDICTED BY IDOCK:   -3.21 KCAL/MOL
REMARK 922        TOTAL FREE ENERGY PREDICTED BY IDOCK:   -3.54 KCAL/MOL
REMARK 923 INTER-LIGAND FREE ENERGY PREDICTED BY IDOCK:   -3.69 KCAL/MOL
REMARK 924 INTRA-LIGAND FREE ENERGY PREDICTED BY IDOCK:    0.16 KCAL/MOL
REMARK 927      BINDING AFFINITY PREDICTED BY RF-SCORE:    0.00 PKD
ROOT
HETATM    1  N   UNL     1     -12.386   9.984  71.661  1.00  0.00    -0.399 NA 
HETATM    2  H1  UNL     1     -11.930   9.624  72.500  1.00  0.00     0.000 HD 
HETATM    3  H2  UNL     1     -13.371  10.247  71.666  1.00  0.00     0.000 HD 
HETATM    4  C   UNL     1     -11.625  10.098  70.533  1.00  0.00    -0.329 C  
HETATM    5  N   UNL     1     -12.204  10.554  69.468  1.00  0.00    -0.540 N  
HETATM    6  C   UNL     1     -11.480  10.719  68.313  1.00  0.00    -0.280 C  
HETATM    7  H   UNL     1     -13.196  10.791  69.488  1.00  0.00     0.000 HD 
HETATM    8  N   UNL     1     -10.176  10.197  68.251  1.00  0.00    -0.159 N  
HETATM    9  O   UNL     1     -11.964  11.318  67.355  1.00  0.00    -0.581 OA 
HETATM   10  C   UNL     1     -10.205   9.709  70.569  1.00  0.00    -0.351 C  
HETATM   11  C   UNL     1      -9.554   9.775  69.409  1.00  0.00    -0.207 C  
ENDROOT
BRANCH   8  12
HETATM   12  C   UNL     1      -9.414  10.426  67.012  1.00  0.00    -0.163 C  
HETATM   13  C   UNL     1      -9.553   9.362  65.909  1.00  0.00    -0.270 C  
HETATM   14  S   UNL     1      -8.293   8.151  66.307  1.00  0.00    -0.125 SA 
HETATM   15  C   UNL     1      -7.244   9.436  67.017  1.00  0.00    -0.087 C  
HETATM   16  O   UNL     1      -8.009  10.615  67.300  1.00  0.00    -0.113 OA 
BRANCH  15  17
HETATM   17  C   UNL     1      -6.545   8.916  68.280  1.00  0.00    -0.060 C  
HETATM   18  O   UNL     1      -5.688   7.806  68.008  1.00  0.00    -0.031 OA 
HETATM   19  H   UNL     1      -5.256   7.484  68.789  1.00  0.00     0.000 HD 
ENDBRANCH  15  17
ENDBRANCH   8  12
TORSDOF 2
ENDMDL
MODEL      140
REMARK 921   NORMALIZED FREE ENERGY PREDICTED BY IDOCK:   -3.16 KCAL/MOL
REMARK 922        TOTAL FREE ENERGY PREDICTED BY IDOCK:   -3.48 KCAL/MOL
REMARK 923 INTER-LIGAND FREE ENERGY PREDICTED BY IDOCK:   -3.54 KCAL/MOL
REMARK 924 INTRA-LIGAND FREE ENERGY PREDICTED BY IDOCK:    0.06 KCAL/MOL
REMARK 927      BINDING AFFINITY PREDICTED BY RF-SCORE:    0.00 PKD
ROOT
HETATM    1  N   UNL     1      -8.197  15.379  67.389  1.00  0.00    -0.168 NA 
HETATM    2  H1  UNL     1      -7.259  15.171  67.046  1.00  0.00     0.000 HD 
HETATM    3  H2  UNL     1      -8.505  16.339  67.540  1.00  0.00     0.000 HD 
HETATM    4  C   UNL     1      -9.023  14.320  67.640  1.00  0.00    -0.194 C  
HETATM    5  N   UNL     1     -10.213  14.585  68.077  1.00  0.00    -0.230 N  
HETATM    6  C   UNL     1     -11.096  13.561  68.317  1.00  0.00    -0.261 C  
HETATM    7  H   UNL     1     -10.494  15.551  68.242  1.00  0.00     0.000 HD 
HETATM    8  N   UNL     1     -10.624  12.237  68.280  1.00  0.00    -0.219 N  
HETATM    9  O   UNL     1     -12.279  13.802  68.553  1.00  0.00    -0.348 OA 
HETATM   10  C   UNL     1      -8.541  12.949  67.407  1.00  0.00    -0.195 C  
HETATM   11  C   UNL     1      -9.377  11.971  67.751  1.00  0.00    -0.190 C  
ENDROOT
BRANCH   8  12
HETATM   12  C   UNL     1     -11.607  11.163  68.503  1.00  0.00    -0.314 C  
HETATM   13  C   UNL     1     -12.107  10.973  69.946  1.00  0.00    -0.361 C  
HETATM   14  S   UNL     1     -10.912   9.857  70.681  1.00  0.00    -0.339 SA 
HETATM   15  C   UNL     1     -10.629   9.066  69.083  1.00  0.00    -0.203 C  
HETATM   16  O   UNL     1     -11.104   9.897  68.016  1.00  0.00    -0.249 OA 
BRANCH  15  17
HETATM   17  C   UNL     1      -9.140   8.739  68.907  1.00  0.00    -0.141 C  
HETATM   18  O   UNL     1      -8.322   9.398  69.874  1.00  0.00    -0.130 OA 
HETATM   19  H   UNL     1      -7.401   9.196  69.765  1.00  0.00     0.000 HD 
ENDBRANCH  15  17
ENDBRANCH   8  12
TORSDOF 2
ENDMDL
MODEL      141
REMARK 921   NORMALIZED FREE ENERGY PREDICTED BY IDOCK:   -3.15 KCAL/MOL
REMARK 922        TOTAL FREE ENERGY PREDICTED BY IDOCK:   -3.48 KCAL/MOL
REMARK 923 INTER-LIGAND FREE ENERGY PREDICTED BY IDOCK:   -3.56 KCAL/MOL
REMARK 924 INTRA-LIGAND FREE ENERGY PREDICTED BY IDOCK:    0.08 KCAL/MOL
REMARK 927      BINDING AFFINITY PREDICTED BY RF-SCORE:    0.00 PKD
ROOT
HETATM    1  N   UNL     1      -7.017  20.699  64.794  1.00  0.00    -0.458 NA 
HETATM    2  H1  UNL     1      -6.439  20.484  63.981  1.00  0.00     0.000 HD 
HETATM    3  H2  UNL     1      -7.609  21.529  64.819  1.00  0.00     0.000 HD 
HETATM    4  C   UNL     1      -6.965  19.831  65.848  1.00  0.00    -0.285 C  
HETATM    5  N   UNL     1      -7.697  20.104  66.880  1.00  0.00    -0.292 N  
HETATM    6  C   UNL     1      -7.707  19.251  67.957  1.00  0.00    -0.288 C  
HETATM    7  H   UNL     1      -8.266  20.951  66.894  1.00  0.00     0.000 HD 
HETATM    8  N   UNL     1      -6.768  18.207  68.001  1.00  0.00    -0.202 N  
HETATM    9  O   UNL     1      -8.530  19.398  68.859  1.00  0.00    -0.367 OA 
HETATM   10  C   UNL     1      -6.099  18.643  65.771  1.00  0.00    -0.249 C  
HETATM   11  C   UNL     1      -6.043  17.891  66.869  1.00  0.00    -0.153 C  
ENDROOT
BRANCH   8  12
HETATM   12  C   UNL     1      -6.833  17.287  69.150  1.00  0.00    -0.234 C  
HETATM   13  C   UNL     1      -5.565  16.471  69.454  1.00  0.00    -0.148 C  
HETATM   14  S   UNL     1      -5.731  15.005  68.435  1.00  0.00    -0.115 SA 
HETATM   15  C   UNL     1      -7.529  15.078  68.578  1.00  0.00    -0.119 C  
HETATM   16  O   UNL     1      -7.950  16.377  69.017  1.00  0.00    -0.224 OA 
BRANCH  15  17
HETATM   17  C   UNL     1      -8.185  14.708  67.241  1.00  0.00    -0.212 C  
HETATM   18  O   UNL     1      -9.317  15.527  66.948  1.00  0.00    -0.214 OA 
HETATM   19  H   UNL     1      -9.723  15.298  66.121  1.00  0.00     0.000 HD 
ENDBRANCH  15  17
ENDBRANCH   8  12
TORSDOF 2
ENDMDL
MODEL      142
REMARK 921   NORMALIZED FREE ENERGY PREDICTED BY IDOCK:   -3.15 KCAL/MOL
REMARK 922        TOTAL FREE ENERGY PREDICTED BY IDOCK:   -3.48 KCAL/MOL
REMARK 923 INTER-LIGAND FREE ENERGY PREDICTED BY IDOCK:   -3.67 KCAL/MOL
REMARK 924 INTRA-LIGAND FREE ENERGY PREDICTED BY IDOCK:    0.19 KCAL/MOL
REMARK 927      BINDING AFFINITY PREDICTED BY RF-SCORE:    0.00 PKD
ROOT
HETATM    1  N   UNL     1      -9.223  19.947  68.117  1.00  0.00    -0.316 NA 
HETATM    2  H1  UNL     1      -8.289  20.356  68.158  1.00  0.00     0.000 HD 
HETATM    3  H2  UNL     1     -10.048  20.526  67.961  1.00  0.00     0.000 HD 
HETATM    4  C   UNL     1      -9.324  18.595  68.280  1.00  0.00    -0.328 C  
HETATM    5  N   UNL     1     -10.509  18.076  68.228  1.00  0.00    -0.369 N  
HETATM    6  C   UNL     1     -10.668  16.718  68.356  1.00  0.00    -0.362 C  
HETATM    7  H   UNL     1     -11.324  18.675  68.094  1.00  0.00     0.000 HD 
HETATM    8  N   UNL     1      -9.562  15.941  68.744  1.00  0.00    -0.208 N  
HETATM    9  O   UNL     1     -11.756  16.194  68.126  1.00  0.00    -0.228 OA 
HETATM   10  C   UNL     1      -8.108  17.794  68.501  1.00  0.00    -0.297 C  
HETATM   11  C   UNL     1      -8.298  16.497  68.730  1.00  0.00    -0.248 C  
ENDROOT
BRANCH   8  12
HETATM   12  C   UNL     1      -9.758  14.484  68.831  1.00  0.00    -0.169 C  
HETATM   13  C   UNL     1      -8.487  13.615  68.828  1.00  0.00     0.056 C  
HETATM   14  S   UNL     1      -8.150  13.337  67.090  1.00  0.00    -0.022 SA 
HETATM   15  C   UNL     1      -9.913  13.403  66.709  1.00  0.00    -0.264 C  
HETATM   16  O   UNL     1     -10.639  14.020  67.781  1.00  0.00    -0.239 OA 
BRANCH  15  17
HETATM   17  C   UNL     1     -10.145  14.145  65.387  1.00  0.00    -0.333 C  
HETATM   18  O   UNL     1     -11.325  14.950  65.417  1.00  0.00    -0.343 OA 
HETATM   19  H   UNL     1     -11.469  15.409  64.599  1.00  0.00     0.000 HD 
ENDBRANCH  15  17
ENDBRANCH   8  12
TORSDOF 2
ENDMDL
MODEL      143
REMARK 921   NORMALIZED FREE ENERGY PREDICTED BY IDOCK:   -3.12 KCAL/MOL
REMARK 922        TOTAL FREE ENERGY PREDICTED BY IDOCK:   -3.44 KCAL/MOL
REMARK 923 INTER-LIGAND FREE ENERGY PREDICTED BY IDOCK:   -3.57 KCAL/MOL
REMARK 924 INTRA-LIGAND FREE ENERGY PREDICTED BY IDOCK:    0.13 KCAL/MOL
REMARK 927      BINDING AFFINITY PREDICTED BY RF-SCORE:    0.00 PKD
ROOT
HETATM    1  N   UNL     1     -12.320  14.315  66.613  1.00  0.00    -0.541 NA 
HETATM    2  H1  UNL     1     -12.256  15.037  67.330  1.00  0.00     0.000 HD 
HETATM    3  H2  UNL     1     -13.107  14.279  65.966  1.00  0.00     0.000 HD 
HETATM    4  C   UNL     1     -11.310  13.397  66.554  1.00  0.00    -0.320 C  
HETATM    5  N   UNL     1     -11.391  12.480  65.644  1.00  0.00    -0.320 N  
HETATM    6  C   UNL     1     -10.389  11.549  65.520  1.00  0.00    -0.273 C  
HETATM    7  H   UNL     1     -12.198  12.448  65.021  1.00  0.00     0.000 HD 
HETATM    8  N   UNL     1      -9.397  11.486  66.513  1.00  0.00    -0.192 N  
HETATM    9  O   UNL     1     -10.361  10.791  64.552  1.00  0.00    -0.345 OA 
HETATM   10  C   UNL     1     -10.189  13.485  67.506  1.00  0.00    -0.234 C  
HETATM   11  C   UNL     1      -9.287  12.508  67.435  1.00  0.00    -0.187 C  
ENDROOT
BRANCH   8  12
HETATM   12  C   UNL     1      -8.315  10.503  66.327  1.00  0.00    -0.152 C  
HETATM   13  C   UNL     1      -8.736   9.027  66.217  1.00  0.00    -0.135 C  
HETATM   14  S   UNL     1      -8.787   8.457  67.916  1.00  0.00    -0.138 SA 
HETATM   15  C   UNL     1      -7.468   9.603  68.368  1.00  0.00    -0.080 C  
HETATM   16  O   UNL     1      -7.323  10.626  67.373  1.00  0.00    -0.090 OA 
BRANCH  15  17
HETATM   17  C   UNL     1      -7.742  10.213  69.749  1.00  0.00    -0.168 C  
HETATM   18  O   UNL     1      -9.138  10.299  70.037  1.00  0.00    -0.392 OA 
HETATM   19  H   UNL     1      -9.307  10.676  70.892  1.00  0.00     0.000 HD 
ENDBRANCH  15  17
ENDBRANCH   8  12
TORSDOF 2
ENDMDL
MODEL      144
REMARK 921   NORMALIZED FREE ENERGY PREDICTED BY IDOCK:   -3.11 KCAL/MOL
REMARK 922        TOTAL FREE ENERGY PREDICTED BY IDOCK:   -3.43 KCAL/MOL
REMARK 923 INTER-LIGAND FREE ENERGY PREDICTED BY IDOCK:   -3.57 KCAL/MOL
REMARK 924 INTRA-LIGAND FREE ENERGY PREDICTED BY IDOCK:    0.14 KCAL/MOL
REMARK 927      BINDING AFFINITY PREDICTED BY RF-SCORE:    0.00 PKD
ROOT
HETATM    1  N   UNL     1      -5.466  11.109  65.251  1.00  0.00    -0.493 NA 
HETATM    2  H1  UNL     1      -4.749  10.405  65.078  1.00  0.00     0.000 HD 
HETATM    3  H2  UNL     1      -5.485  11.986  64.730  1.00  0.00     0.000 HD 
HETATM    4  C   UNL     1      -6.401  10.832  66.208  1.00  0.00    -0.129 C  
HETATM    5  N   UNL     1      -7.311  11.726  66.428  1.00  0.00    -0.371 N  
HETATM    6  C   UNL     1      -8.293  11.487  67.359  1.00  0.00    -0.148 C  
HETATM    7  H   UNL     1      -7.299  12.606  65.912  1.00  0.00     0.000 HD 
HETATM    8  N   UNL     1      -8.173  10.366  68.197  1.00  0.00    -0.113 N  
HETATM    9  O   UNL     1      -9.262  12.239  67.447  1.00  0.00    -0.172 OA 
HETATM   10  C   UNL     1      -6.340   9.553  66.936  1.00  0.00    -0.066 C  
HETATM   11  C   UNL     1      -7.237   9.393  67.907  1.00  0.00    -0.082 C  
ENDROOT
BRANCH   8  12
HETATM   12  C   UNL     1      -9.264  10.118  69.155  1.00  0.00    -0.197 C  
HETATM   13  C   UNL     1      -8.923   9.253  70.382  1.00  0.00    -0.239 C  
HETATM   14  S   UNL     1      -9.204   7.572  69.824  1.00  0.00    -0.146 SA 
HETATM   15  C   UNL     1     -10.507   8.132  68.708  1.00  0.00    -0.174 C  
HETATM   16  O   UNL     1     -10.413   9.546  68.489  1.00  0.00    -0.204 OA 
BRANCH  15  17
HETATM   17  C   UNL     1     -10.441   7.362  67.383  1.00  0.00    -0.296 C  
HETATM   18  O   UNL     1     -11.590   6.541  67.175  1.00  0.00    -0.743 OA 
HETATM   19  H   UNL     1     -11.549   6.064  66.354  1.00  0.00     0.000 HD 
ENDBRANCH  15  17
ENDBRANCH   8  12
TORSDOF 2
ENDMDL
MODEL      145
REMARK 921   NORMALIZED FREE ENERGY PREDICTED BY IDOCK:   -3.11 KCAL/MOL
REMARK 922        TOTAL FREE ENERGY PREDICTED BY IDOCK:   -3.43 KCAL/MOL
REMARK 923 INTER-LIGAND FREE ENERGY PREDICTED BY IDOCK:   -3.52 KCAL/MOL
REMARK 924 INTRA-LIGAND FREE ENERGY PREDICTED BY IDOCK:    0.09 KCAL/MOL
REMARK 927      BINDING AFFINITY PREDICTED BY RF-SCORE:    0.00 PKD
ROOT
HETATM    1  N   UNL     1      -5.822  11.012  67.879  1.00  0.00    -0.046 NA 
HETATM    2  H1  UNL     1      -5.971  10.033  67.635  1.00  0.00     0.000 HD 
HETATM    3  H2  UNL     1      -5.008  11.305  68.420  1.00  0.00     0.000 HD 
HETATM    4  C   UNL     1      -6.754  11.915  67.454  1.00  0.00    -0.126 C  
HETATM    5  N   UNL     1      -6.564  13.157  67.765  1.00  0.00    -0.136 N  
HETATM    6  C   UNL     1      -7.455  14.113  67.338  1.00  0.00    -0.134 C  
HETATM    7  H   UNL     1      -5.756  13.427  68.325  1.00  0.00     0.000 HD 
HETATM    8  N   UNL     1      -8.661  13.698  66.748  1.00  0.00    -0.101 N  
HETATM    9  O   UNL     1      -7.193  15.307  67.465  1.00  0.00    -0.164 OA 
HETATM   10  C   UNL     1      -7.914  11.452  66.674  1.00  0.00    -0.148 C  
HETATM   11  C   UNL     1      -8.818  12.380  66.367  1.00  0.00    -0.046 C  
ENDROOT
BRANCH   8  12
HETATM   12  C   UNL     1      -9.573  14.749  66.266  1.00  0.00    -0.312 C  
HETATM   13  C   UNL     1     -10.433  15.458  67.328  1.00  0.00    -0.282 C  
HETATM   14  S   UNL     1     -11.896  14.430  67.465  1.00  0.00    -0.360 SA 
HETATM   15  C   UNL     1     -11.759  13.956  65.729  1.00  0.00    -0.359 C  
HETATM   16  O   UNL     1     -10.444  14.238  65.229  1.00  0.00    -0.340 OA 
BRANCH  15  17
HETATM   17  C   UNL     1     -12.110  12.474  65.551  1.00  0.00    -0.419 C  
HETATM   18  O   UNL     1     -12.102  11.762  66.789  1.00  0.00    -0.547 OA 
HETATM   19  H   UNL     1     -12.319  10.844  66.679  1.00  0.00     0.000 HD 
ENDBRANCH  15  17
ENDBRANCH   8  12
TORSDOF 2
ENDMDL
MODEL      146
REMARK 921   NORMALIZED FREE ENERGY PREDICTED BY IDOCK:   -3.11 KCAL/MOL
REMARK 922        TOTAL FREE ENERGY PREDICTED BY IDOCK:   -3.43 KCAL/MOL
REMARK 923 INTER-LIGAND FREE ENERGY PREDICTED BY IDOCK:   -3.87 KCAL/MOL
REMARK 924 INTRA-LIGAND FREE ENERGY PREDICTED BY IDOCK:    0.45 KCAL/MOL
REMARK 927      BINDING AFFINITY PREDICTED BY RF-SCORE:    0.00 PKD
ROOT
HETATM    1  N   UNL     1     -12.905  10.927  71.867  1.00  0.00    -0.396 NA 
HETATM    2  H1  UNL     1     -12.667  10.654  72.821  1.00  0.00     0.000 HD 
HETATM    3  H2  UNL     1     -13.708  11.525  71.672  1.00  0.00     0.000 HD 
HETATM    4  C   UNL     1     -12.106  10.461  70.862  1.00  0.00    -0.374 C  
HETATM    5  N   UNL     1     -12.408  10.808  69.652  1.00  0.00    -0.497 N  
HETATM    6  C   UNL     1     -11.622  10.393  68.605  1.00  0.00    -0.101 C  
HETATM    7  H   UNL     1     -13.229  11.389  69.476  1.00  0.00     0.000 HD 
HETATM    8  N   UNL     1     -10.625   9.433  68.847  1.00  0.00    -0.219 N  
HETATM    9  O   UNL     1     -11.787  10.861  67.480  1.00  0.00    -0.524 OA 
HETATM   10  C   UNL     1     -10.954   9.602  71.186  1.00  0.00    -0.430 C  
HETATM   11  C   UNL     1     -10.274   9.124  70.146  1.00  0.00    -0.205 C  
ENDROOT
BRANCH   8  12
HETATM   12  C   UNL     1      -9.775   9.041  67.709  1.00  0.00    -0.156 C  
HETATM   13  C   UNL     1      -8.434   8.367  68.050  1.00  0.00    -0.132 C  
HETATM   14  S   UNL     1      -7.296   9.736  68.264  1.00  0.00    -0.080 SA 
HETATM   15  C   UNL     1      -8.208  10.717  67.054  1.00  0.00    -0.124 C  
HETATM   16  O   UNL     1      -9.518  10.172  66.845  1.00  0.00    -0.162 OA 
BRANCH  15  17
HETATM   17  C   UNL     1      -8.285  12.181  67.504  1.00  0.00    -0.167 C  
HETATM   18  O   UNL     1      -7.848  12.358  68.852  1.00  0.00    -0.309 OA 
HETATM   19  H   UNL     1      -7.896  13.264  69.131  1.00  0.00     0.000 HD 
ENDBRANCH  15  17
ENDBRANCH   8  12
TORSDOF 2
ENDMDL
MODEL      147
REMARK 921   NORMALIZED FREE ENERGY PREDICTED BY IDOCK:   -3.08 KCAL/MOL
REMARK 922        TOTAL FREE ENERGY PREDICTED BY IDOCK:   -3.40 KCAL/MOL
REMARK 923 INTER-LIGAND FREE ENERGY PREDICTED BY IDOCK:   -3.52 KCAL/MOL
REMARK 924 INTRA-LIGAND FREE ENERGY PREDICTED BY IDOCK:    0.13 KCAL/MOL
REMARK 927      BINDING AFFINITY PREDICTED BY RF-SCORE:    0.00 PKD
ROOT
HETATM    1  N   UNL     1     -11.641   5.015  73.696  1.00  0.00    -0.402 NA 
HETATM    2  H1  UNL     1     -11.301   4.053  73.711  1.00  0.00     0.000 HD 
HETATM    3  H2  UNL     1     -12.334   5.342  74.368  1.00  0.00     0.000 HD 
HETATM    4  C   UNL     1     -11.130   5.847  72.740  1.00  0.00    -0.281 C  
HETATM    5  N   UNL     1     -11.562   7.067  72.722  1.00  0.00    -0.503 N  
HETATM    6  C   UNL     1     -11.062   7.956  71.801  1.00  0.00    -0.253 C  
HETATM    7  H   UNL     1     -12.273   7.369  73.389  1.00  0.00     0.000 HD 
HETATM    8  N   UNL     1     -10.242   7.470  70.768  1.00  0.00    -0.194 N  
HETATM    9  O   UNL     1     -11.322   9.154  71.888  1.00  0.00    -0.365 OA 
HETATM   10  C   UNL     1     -10.128   5.336  71.790  1.00  0.00    -0.257 C  
HETATM   11  C   UNL     1      -9.741   6.186  70.840  1.00  0.00    -0.177 C  
ENDROOT
BRANCH   8  12
HETATM   12  C   UNL     1      -9.690   8.456  69.823  1.00  0.00    -0.180 C  
HETATM   13  C   UNL     1     -10.623   8.926  68.692  1.00  0.00    -0.147 C  
HETATM   14  S   UNL     1     -10.369   7.723  67.387  1.00  0.00    -0.302 SA 
HETATM   15  C   UNL     1      -8.658   7.481  67.906  1.00  0.00    -0.121 C  
HETATM   16  O   UNL     1      -8.458   7.974  69.238  1.00  0.00    -0.132 OA 
BRANCH  15  17
HETATM   17  C   UNL     1      -8.274   5.999  67.803  1.00  0.00    -0.112 C  
HETATM   18  O   UNL     1      -7.718   5.671  66.529  1.00  0.00    -0.097 OA 
HETATM   19  H   UNL     1      -7.481   4.753  66.465  1.00  0.00     0.000 HD 
ENDBRANCH  15  17
ENDBRANCH   8  12
TORSDOF 2
ENDMDL
MODEL      148
REMARK 921   NORMALIZED FREE ENERGY PREDICTED BY IDOCK:   -3.05 KCAL/MOL
REMARK 922        TOTAL FREE ENERGY PREDICTED BY IDOCK:   -3.37 KCAL/MOL
REMARK 923 INTER-LIGAND FREE ENERGY PREDICTED BY IDOCK:   -3.54 KCAL/MOL
REMARK 924 INTRA-LIGAND FREE ENERGY PREDICTED BY IDOCK:    0.18 KCAL/MOL
REMARK 927      BINDING AFFINITY PREDICTED BY RF-SCORE:    0.00 PKD
ROOT
HETATM    1  N   UNL     1      -7.361  15.456  69.245  1.00  0.00    -0.180 NA 
HETATM    2  H1  UNL     1      -6.444  15.552  68.809  1.00  0.00     0.000 HD 
HETATM    3  H2  UNL     1      -7.609  15.985  70.081  1.00  0.00     0.000 HD 
HETATM    4  C   UNL     1      -8.244  14.589  68.666  1.00  0.00    -0.152 C  
HETATM    5  N   UNL     1      -9.408  14.467  69.220  1.00  0.00    -0.399 N  
HETATM    6  C   UNL     1     -10.346  13.632  68.662  1.00  0.00    -0.219 C  
HETATM    7  H   UNL     1      -9.628  14.988  70.068  1.00  0.00     0.000 HD 
HETATM    8  N   UNL     1      -9.955  12.774  67.621  1.00  0.00    -0.213 N  
HETATM    9  O   UNL     1     -11.508  13.645  69.066  1.00  0.00    -0.261 OA 
HETATM   10  C   UNL     1      -7.849  13.846  67.458  1.00  0.00    -0.193 C  
HETATM   11  C   UNL     1      -8.736  12.963  67.001  1.00  0.00    -0.195 C  
ENDROOT
BRANCH   8  12
HETATM   12  C   UNL     1     -10.996  11.922  67.020  1.00  0.00    -0.278 C  
HETATM   13  C   UNL     1     -11.151  10.506  67.603  1.00  0.00    -0.309 C  
HETATM   14  S   UNL     1      -9.983   9.517  66.669  1.00  0.00    -0.258 SA 
HETATM   15  C   UNL     1     -10.212  10.567  65.219  1.00  0.00    -0.282 C  
HETATM   16  O   UNL     1     -10.811  11.817  65.589  1.00  0.00    -0.278 OA 
BRANCH  15  17
HETATM   17  C   UNL     1      -8.873  10.788  64.504  1.00  0.00    -0.131 C  
HETATM   18  O   UNL     1      -8.982  10.631  63.089  1.00  0.00    -0.195 OA 
HETATM   19  H   UNL     1      -8.153  10.768  62.645  1.00  0.00     0.000 HD 
ENDBRANCH  15  17
ENDBRANCH   8  12
TORSDOF 2
ENDMDL
MODEL      149
REMARK 921   NORMALIZED FREE ENERGY PREDICTED BY IDOCK:   -3.03 KCAL/MOL
REMARK 922        TOTAL FREE ENERGY PREDICTED BY IDOCK:   -3.34 KCAL/MOL
REMARK 923 INTER-LIGAND FREE ENERGY PREDICTED BY IDOCK:   -3.74 KCAL/MOL
REMARK 924 INTRA-LIGAND FREE ENERGY PREDICTED BY IDOCK:    0.40 KCAL/MOL
REMARK 927      BINDING AFFINITY PREDICTED BY RF-SCORE:    0.00 PKD
ROOT
HETATM    1  N   UNL     1     -12.491   9.789  70.601  1.00  0.00    -0.485 NA 
HETATM    2  H1  UNL     1     -12.001   9.277  71.335  1.00  0.00     0.000 HD 
HETATM    3  H2  UNL     1     -13.509   9.846  70.584  1.00  0.00     0.000 HD 
HETATM    4  C   UNL     1     -11.729  10.395  69.643  1.00  0.00    -0.212 C  
HETATM    5  N   UNL     1     -12.350  11.045  68.712  1.00  0.00    -0.269 N  
HETATM    6  C   UNL     1     -11.633  11.699  67.739  1.00  0.00    -0.289 C  
HETATM    7  H   UNL     1     -13.370  11.070  68.699  1.00  0.00     0.000 HD 
HETATM    8  N   UNL     1     -10.247  11.480  67.658  1.00  0.00    -0.182 N  
HETATM    9  O   UNL     1     -12.197  12.466  66.961  1.00  0.00    -0.508 OA 
HETATM   10  C   UNL     1     -10.261  10.292  69.706  1.00  0.00    -0.262 C  
HETATM   11  C   UNL     1      -9.594  10.841  68.693  1.00  0.00    -0.187 C  
ENDROOT
BRANCH   8  12
HETATM   12  C   UNL     1      -9.504  12.228  66.629  1.00  0.00    -0.226 C  
HETATM   13  C   UNL     1      -7.969  12.193  66.724  1.00  0.00    -0.023 C  
HETATM   14  S   UNL     1      -7.566  13.553  67.822  1.00  0.00    -0.180 SA 
HETATM   15  C   UNL     1      -9.005  14.478  67.247  1.00  0.00    -0.210 C  
HETATM   16  O   UNL     1      -9.935  13.609  66.586  1.00  0.00    -0.267 OA 
BRANCH  15  17
HETATM   17  C   UNL     1      -9.671  15.211  68.418  1.00  0.00    -0.212 C  
HETATM   18  O   UNL     1      -8.821  16.207  68.988  1.00  0.00    -0.232 OA 
HETATM   19  H   UNL     1      -9.233  16.661  69.714  1.00  0.00     0.000 HD 
ENDBRANCH  15  17
ENDBRANCH   8  12
TORSDOF 2
ENDMDL
MODEL      150
REMARK 921   NORMALIZED FREE ENERGY PREDICTED BY IDOCK:   -3.02 KCAL/MOL
REMARK 922        TOTAL FREE ENERGY PREDICTED BY IDOCK:   -3.33 KCAL/MOL
REMARK 923 INTER-LIGAND FREE ENERGY PREDICTED BY IDOCK:   -3.58 KCAL/MOL
REMARK 924 INTRA-LIGAND FREE ENERGY PREDICTED BY IDOCK:    0.24 KCAL/MOL
REMARK 927      BINDING AFFINITY PREDICTED BY RF-SCORE:    0.00 PKD
ROOT
HETATM    1  N   UNL     1      -6.980  10.972  70.237  1.00  0.00    -0.480 NA 
HETATM    2  H1  UNL     1      -6.163  11.049  70.843  1.00  0.00     0.000 HD 
HETATM    3  H2  UNL     1      -7.255  11.735  69.619  1.00  0.00     0.000 HD 
HETATM    4  C   UNL     1      -7.691   9.806  70.286  1.00  0.00    -0.172 C  
HETATM    5  N   UNL     1      -8.728   9.709  69.517  1.00  0.00    -0.169 N  
HETATM    6  C   UNL     1      -9.463   8.549  69.504  1.00  0.00    -0.165 C  
HETATM    7  H   UNL     1      -8.999  10.492  68.923  1.00  0.00     0.000 HD 
HETATM    8  N   UNL     1      -9.196   7.567  70.474  1.00  0.00    -0.156 N  
HETATM    9  O   UNL     1     -10.333   8.373  68.653  1.00  0.00    -0.203 OA 
HETATM   10  C   UNL     1      -7.259   8.728  71.191  1.00  0.00    -0.097 C  
HETATM   11  C   UNL     1      -8.050   7.657  71.240  1.00  0.00    -0.095 C  
ENDROOT
BRANCH   8  12
HETATM   12  C   UNL     1      -9.975   6.319  70.405  1.00  0.00    -0.178 C  
HETATM   13  C   UNL     1     -11.505   6.464  70.324  1.00  0.00    -0.402 C  
HETATM   14  S   UNL     1     -12.029   6.546  72.036  1.00  0.00    -0.295 SA 
HETATM   15  C   UNL     1     -10.655   5.487  72.535  1.00  0.00    -0.226 C  
HETATM   16  O   UNL     1      -9.649   5.448  71.513  1.00  0.00    -0.147 OA 
BRANCH  15  17
HETATM   17  C   UNL     1     -10.067   5.970  73.868  1.00  0.00    -0.245 C  
HETATM   18  O   UNL     1     -10.623   7.217  74.285  1.00  0.00    -0.545 OA 
HETATM   19  H   UNL     1     -10.259   7.516  75.110  1.00  0.00     0.000 HD 
ENDBRANCH  15  17
ENDBRANCH   8  12
TORSDOF 2
ENDMDL
MODEL      151
REMARK 921   NORMALIZED FREE ENERGY PREDICTED BY IDOCK:   -3.02 KCAL/MOL
REMARK 922        TOTAL FREE ENERGY PREDICTED BY IDOCK:   -3.33 KCAL/MOL
REMARK 923 INTER-LIGAND FREE ENERGY PREDICTED BY IDOCK:   -3.54 KCAL/MOL
REMARK 924 INTRA-LIGAND FREE ENERGY PREDICTED BY IDOCK:    0.21 KCAL/MOL
REMARK 927      BINDING AFFINITY PREDICTED BY RF-SCORE:    0.00 PKD
ROOT
HETATM    1  N   UNL     1     -10.103   8.559  66.172  1.00  0.00    -0.448 NA 
HETATM    2  H1  UNL     1      -9.926   9.550  66.008  1.00  0.00     0.000 HD 
HETATM    3  H2  UNL     1     -10.069   7.882  65.410  1.00  0.00     0.000 HD 
HETATM    4  C   UNL     1     -10.386   8.175  67.451  1.00  0.00    -0.281 C  
HETATM    5  N   UNL     1     -10.610   6.917  67.659  1.00  0.00    -0.231 N  
HETATM    6  C   UNL     1     -10.871   6.469  68.932  1.00  0.00    -0.301 C  
HETATM    7  H   UNL     1     -10.594   6.259  66.880  1.00  0.00     0.000 HD 
HETATM    8  N   UNL     1     -11.090   7.414  69.949  1.00  0.00    -0.229 N  
HETATM    9  O   UNL     1     -10.903   5.264  69.173  1.00  0.00    -0.130 OA 
HETATM   10  C   UNL     1     -10.422   9.183  68.524  1.00  0.00    -0.238 C  
HETATM   11  C   UNL     1     -10.784   8.741  69.727  1.00  0.00    -0.218 C  
ENDROOT
BRANCH   8  12
HETATM   12  C   UNL     1     -11.327   6.899  71.309  1.00  0.00    -0.279 C  
HETATM   13  C   UNL     1     -11.302   7.930  72.451  1.00  0.00    -0.369 C  
HETATM   14  S   UNL     1      -9.575   8.020  72.924  1.00  0.00    -0.279 SA 
HETATM   15  C   UNL     1      -9.333   6.290  72.469  1.00  0.00    -0.146 C  
HETATM   16  O   UNL     1     -10.399   5.835  71.624  1.00  0.00    -0.200 OA 
BRANCH  15  17
HETATM   17  C   UNL     1      -7.971   6.103  71.788  1.00  0.00    -0.103 C  
HETATM   18  O   UNL     1      -8.015   5.125  70.749  1.00  0.00    -0.091 OA 
HETATM   19  H   UNL     1      -7.172   5.008  70.328  1.00  0.00     0.000 HD 
ENDBRANCH  15  17
ENDBRANCH   8  12
TORSDOF 2
ENDMDL
MODEL      152
REMARK 921   NORMALIZED FREE ENERGY PREDICTED BY IDOCK:   -3.02 KCAL/MOL
REMARK 922        TOTAL FREE ENERGY PREDICTED BY IDOCK:   -3.33 KCAL/MOL
REMARK 923 INTER-LIGAND FREE ENERGY PREDICTED BY IDOCK:   -3.42 KCAL/MOL
REMARK 924 INTRA-LIGAND FREE ENERGY PREDICTED BY IDOCK:    0.09 KCAL/MOL
REMARK 927      BINDING AFFINITY PREDICTED BY RF-SCORE:    0.00 PKD
ROOT
HETATM    1  N   UNL     1      -9.483  11.232  64.635  1.00  0.00    -0.313 NA 
HETATM    2  H1  UNL     1      -9.638  12.233  64.755  1.00  0.00     0.000 HD 
HETATM    3  H2  UNL     1      -9.205  10.844  63.734  1.00  0.00     0.000 HD 
HETATM    4  C   UNL     1      -9.663  10.433  65.728  1.00  0.00    -0.228 C  
HETATM    5  N   UNL     1      -9.468   9.162  65.574  1.00  0.00    -0.398 N  
HETATM    6  C   UNL     1      -9.605   8.315  66.647  1.00  0.00    -0.233 C  
HETATM    7  H   UNL     1      -9.212   8.791  64.659  1.00  0.00     0.000 HD 
HETATM    8  N   UNL     1     -10.155   8.816  67.839  1.00  0.00    -0.195 N  
HETATM    9  O   UNL     1      -9.247   7.142  66.563  1.00  0.00    -0.154 OA 
HETATM   10  C   UNL     1     -10.062  11.033  67.012  1.00  0.00    -0.232 C  
HETATM   11  C   UNL     1     -10.295  10.179  68.007  1.00  0.00    -0.190 C  
ENDROOT
BRANCH   8  12
HETATM   12  C   UNL     1     -10.250   7.890  68.981  1.00  0.00    -0.209 C  
HETATM   13  C   UNL     1     -11.150   8.327  70.151  1.00  0.00    -0.189 C  
HETATM   14  S   UNL     1     -10.068   9.302  71.196  1.00  0.00    -0.277 SA 
HETATM   15  C   UNL     1      -8.647   8.308  70.698  1.00  0.00    -0.136 C  
HETATM   16  O   UNL     1      -8.936   7.575  69.499  1.00  0.00    -0.143 OA 
BRANCH  15  17
HETATM   17  C   UNL     1      -7.411   9.198  70.514  1.00  0.00    -0.103 C  
HETATM   18  O   UNL     1      -7.753  10.577  70.370  1.00  0.00    -0.425 OA 
HETATM   19  H   UNL     1      -6.988  11.128  70.256  1.00  0.00     0.000 HD 
ENDBRANCH  15  17
ENDBRANCH   8  12
TORSDOF 2
ENDMDL
MODEL      153
REMARK 921   NORMALIZED FREE ENERGY PREDICTED BY IDOCK:   -3.02 KCAL/MOL
REMARK 922        TOTAL FREE ENERGY PREDICTED BY IDOCK:   -3.33 KCAL/MOL
REMARK 923 INTER-LIGAND FREE ENERGY PREDICTED BY IDOCK:   -3.54 KCAL/MOL
REMARK 924 INTRA-LIGAND FREE ENERGY PREDICTED BY IDOCK:    0.21 KCAL/MOL
REMARK 927      BINDING AFFINITY PREDICTED BY RF-SCORE:    0.00 PKD
ROOT
HETATM    1  N   UNL     1      -7.023  10.516  63.469  1.00  0.00    -0.340 NA 
HETATM    2  H1  UNL     1      -6.502   9.844  62.905  1.00  0.00     0.000 HD 
HETATM    3  H2  UNL     1      -6.914  11.520  63.332  1.00  0.00     0.000 HD 
HETATM    4  C   UNL     1      -7.872  10.015  64.415  1.00  0.00    -0.144 C  
HETATM    5  N   UNL     1      -8.533  10.867  65.132  1.00  0.00    -0.349 N  
HETATM    6  C   UNL     1      -9.423  10.420  66.078  1.00  0.00    -0.185 C  
HETATM    7  H   UNL     1      -8.393  11.868  64.994  1.00  0.00     0.000 HD 
HETATM    8  N   UNL     1      -9.447   9.050  66.390  1.00  0.00    -0.206 N  
HETATM    9  O   UNL     1     -10.187  11.207  66.633  1.00  0.00    -0.216 OA 
HETATM   10  C   UNL     1      -8.002   8.558  64.580  1.00  0.00    -0.145 C  
HETATM   11  C   UNL     1      -8.787   8.152  65.576  1.00  0.00    -0.089 C  
ENDROOT
BRANCH   8  12
HETATM   12  C   UNL     1     -10.441   8.601  67.380  1.00  0.00    -0.281 C  
HETATM   13  C   UNL     1      -9.936   8.385  68.817  1.00  0.00    -0.187 C  
HETATM   14  S   UNL     1      -9.349   6.691  68.827  1.00  0.00    -0.129 SA 
HETATM   15  C   UNL     1     -10.584   6.229  67.594  1.00  0.00    -0.271 C  
HETATM   16  O   UNL     1     -11.100   7.392  66.934  1.00  0.00    -0.236 OA 
BRANCH  15  17
HETATM   17  C   UNL     1      -9.984   5.242  66.583  1.00  0.00    -0.202 C  
HETATM   18  O   UNL     1     -10.983   4.444  65.947  1.00  0.00    -0.560 OA 
HETATM   19  H   UNL     1     -10.612   3.833  65.322  1.00  0.00     0.000 HD 
ENDBRANCH  15  17
ENDBRANCH   8  12
TORSDOF 2
ENDMDL
MODEL      154
REMARK 921   NORMALIZED FREE ENERGY PREDICTED BY IDOCK:   -3.01 KCAL/MOL
REMARK 922        TOTAL FREE ENERGY PREDICTED BY IDOCK:   -3.32 KCAL/MOL
REMARK 923 INTER-LIGAND FREE ENERGY PREDICTED BY IDOCK:   -3.48 KCAL/MOL
REMARK 924 INTRA-LIGAND FREE ENERGY PREDICTED BY IDOCK:    0.15 KCAL/MOL
REMARK 927      BINDING AFFINITY PREDICTED BY RF-SCORE:    0.00 PKD
ROOT
HETATM    1  N   UNL     1     -11.878   7.650  72.869  1.00  0.00    -0.607 NA 
HETATM    2  H1  UNL     1     -12.064   6.810  73.418  1.00  0.00     0.000 HD 
HETATM    3  H2  UNL     1     -12.032   8.580  73.256  1.00  0.00     0.000 HD 
HETATM    4  C   UNL     1     -11.416   7.477  71.595  1.00  0.00    -0.261 C  
HETATM    5  N   UNL     1     -11.181   8.543  70.898  1.00  0.00    -0.261 N  
HETATM    6  C   UNL     1     -10.687   8.430  69.621  1.00  0.00    -0.198 C  
HETATM    7  H   UNL     1     -11.362   9.465  71.296  1.00  0.00     0.000 HD 
HETATM    8  N   UNL     1     -10.640   7.159  69.024  1.00  0.00    -0.213 N  
HETATM    9  O   UNL     1     -10.287   9.425  69.019  1.00  0.00    -0.198 OA 
HETATM   10  C   UNL     1     -11.205   6.116  71.074  1.00  0.00    -0.361 C  
HETATM   11  C   UNL     1     -10.831   6.032  69.799  1.00  0.00    -0.363 C  
ENDROOT
BRANCH   8  12
HETATM   12  C   UNL     1     -10.067   7.069  67.670  1.00  0.00    -0.172 C  
HETATM   13  C   UNL     1     -10.688   6.025  66.725  1.00  0.00    -0.302 C  
HETATM   14  S   UNL     1      -9.774   4.522  67.072  1.00  0.00    -0.200 SA 
HETATM   15  C   UNL     1      -8.299   5.480  67.474  1.00  0.00    -0.100 C  
HETATM   16  O   UNL     1      -8.638   6.850  67.730  1.00  0.00    -0.122 OA 
BRANCH  15  17
HETATM   17  C   UNL     1      -7.571   4.860  68.674  1.00  0.00    -0.077 C  
HETATM   18  O   UNL     1      -6.611   3.880  68.278  1.00  0.00    -0.043 OA 
HETATM   19  H   UNL     1      -6.160   3.495  69.021  1.00  0.00     0.000 HD 
ENDBRANCH  15  17
ENDBRANCH   8  12
TORSDOF 2
ENDMDL
MODEL      155
REMARK 921   NORMALIZED FREE ENERGY PREDICTED BY IDOCK:   -3.01 KCAL/MOL
REMARK 922        TOTAL FREE ENERGY PREDICTED BY IDOCK:   -3.32 KCAL/MOL
REMARK 923 INTER-LIGAND FREE ENERGY PREDICTED BY IDOCK:   -4.04 KCAL/MOL
REMARK 924 INTRA-LIGAND FREE ENERGY PREDICTED BY IDOCK:    0.71 KCAL/MOL
REMARK 927      BINDING AFFINITY PREDICTED BY RF-SCORE:    0.00 PKD
ROOT
HETATM    1  N   UNL     1      -5.897  20.126  70.267  1.00  0.00    -0.318 NA 
HETATM    2  H1  UNL     1      -4.887  20.005  70.193  1.00  0.00     0.000 HD 
HETATM    3  H2  UNL     1      -6.313  20.652  71.036  1.00  0.00     0.000 HD 
HETATM    4  C   UNL     1      -6.671  19.556  69.297  1.00  0.00    -0.341 C  
HETATM    5  N   UNL     1      -7.954  19.710  69.392  1.00  0.00    -0.087 N  
HETATM    6  C   UNL     1      -8.778  19.183  68.428  1.00  0.00    -0.351 C  
HETATM    7  H   UNL     1      -8.350  20.220  70.181  1.00  0.00     0.000 HD 
HETATM    8  N   UNL     1      -8.230  18.315  67.468  1.00  0.00    -0.236 N  
HETATM    9  O   UNL     1      -9.973  19.475  68.404  1.00  0.00    -0.391 OA 
HETATM   10  C   UNL     1      -6.033  18.807  68.202  1.00  0.00    -0.214 C  
HETATM   11  C   UNL     1      -6.859  18.215  67.342  1.00  0.00    -0.195 C  
ENDROOT
BRANCH   8  12
HETATM   12  C   UNL     1      -9.135  17.802  66.426  1.00  0.00    -0.234 C  
HETATM   13  C   UNL     1     -10.619  17.656  66.810  1.00  0.00    -0.224 C  
HETATM   14  S   UNL     1     -10.727  16.018  67.530  1.00  0.00    -0.294 SA 
HETATM   15  C   UNL     1      -9.398  15.430  66.460  1.00  0.00    -0.282 C  
HETATM   16  O   UNL     1      -8.663  16.534  65.913  1.00  0.00    -0.456 OA 
BRANCH  15  17
HETATM   17  C   UNL     1      -8.474  14.479  67.230  1.00  0.00    -0.215 C  
HETATM   18  O   UNL     1      -9.173  13.734  68.228  1.00  0.00    -0.198 OA 
HETATM   19  H   UNL     1      -8.600  13.145  68.705  1.00  0.00     0.000 HD 
ENDBRANCH  15  17
ENDBRANCH   8  12
TORSDOF 2
ENDMDL
MODEL      156
REMARK 921   NORMALIZED FREE ENERGY PREDICTED BY IDOCK:   -2.99 KCAL/MOL
REMARK 922        TOTAL FREE ENERGY PREDICTED BY IDOCK:   -3.30 KCAL/MOL
REMARK 923 INTER-LIGAND FREE ENERGY PREDICTED BY IDOCK:   -3.43 KCAL/MOL
REMARK 924 INTRA-LIGAND FREE ENERGY PREDICTED BY IDOCK:    0.13 KCAL/MOL
REMARK 927      BINDING AFFINITY PREDICTED BY RF-SCORE:    0.00 PKD
ROOT
HETATM    1  N   UNL     1     -11.007   5.671  66.853  1.00  0.00    -0.494 NA 
HETATM    2  H1  UNL     1     -11.283   4.701  67.006  1.00  0.00     0.000 HD 
HETATM    3  H2  UNL     1     -10.932   6.059  65.913  1.00  0.00     0.000 HD 
HETATM    4  C   UNL     1     -10.741   6.429  67.958  1.00  0.00    -0.291 C  
HETATM    5  N   UNL     1     -10.390   7.660  67.765  1.00  0.00    -0.207 N  
HETATM    6  C   UNL     1     -10.140   8.477  68.840  1.00  0.00    -0.203 C  
HETATM    7  H   UNL     1     -10.300   8.023  66.815  1.00  0.00     0.000 HD 
HETATM    8  N   UNL     1     -10.070   7.905  70.122  1.00  0.00    -0.192 N  
HETATM    9  O   UNL     1      -9.987   9.686  68.680  1.00  0.00    -0.157 OA 
HETATM   10  C   UNL     1     -10.863   5.831  69.298  1.00  0.00    -0.374 C  
HETATM   11  C   UNL     1     -10.509   6.611  70.318  1.00  0.00    -0.209 C  
ENDROOT
BRANCH   8  12
HETATM   12  C   UNL     1      -9.840   8.816  71.257  1.00  0.00    -0.266 C  
HETATM   13  C   UNL     1      -8.374   9.071  71.651  1.00  0.00     0.063 C  
HETATM   14  S   UNL     1      -7.993   7.750  72.801  1.00  0.00    -0.128 SA 
HETATM   15  C   UNL     1      -9.706   7.713  73.368  1.00  0.00    -0.304 C  
HETATM   16  O   UNL     1     -10.565   8.373  72.428  1.00  0.00    -0.316 OA 
BRANCH  15  17
HETATM   17  C   UNL     1     -10.157   6.266  73.606  1.00  0.00    -0.230 C  
HETATM   18  O   UNL     1      -9.054   5.370  73.747  1.00  0.00    -0.124 OA 
HETATM   19  H   UNL     1      -9.334   4.474  73.894  1.00  0.00     0.000 HD 
ENDBRANCH  15  17
ENDBRANCH   8  12
TORSDOF 2
ENDMDL
MODEL      157
REMARK 921   NORMALIZED FREE ENERGY PREDICTED BY IDOCK:   -2.99 KCAL/MOL
REMARK 922        TOTAL FREE ENERGY PREDICTED BY IDOCK:   -3.30 KCAL/MOL
REMARK 923 INTER-LIGAND FREE ENERGY PREDICTED BY IDOCK:   -3.46 KCAL/MOL
REMARK 924 INTRA-LIGAND FREE ENERGY PREDICTED BY IDOCK:    0.16 KCAL/MOL
REMARK 927      BINDING AFFINITY PREDICTED BY RF-SCORE:    0.00 PKD
ROOT
HETATM    1  N   UNL     1      -9.354  12.964  67.668  1.00  0.00    -0.187 NA 
HETATM    2  H1  UNL     1     -10.066  13.243  66.993  1.00  0.00     0.000 HD 
HETATM    3  H2  UNL     1      -8.598  13.595  67.933  1.00  0.00     0.000 HD 
HETATM    4  C   UNL     1      -9.453  11.711  68.203  1.00  0.00    -0.191 C  
HETATM    5  N   UNL     1      -8.549  11.356  69.059  1.00  0.00    -0.373 N  
HETATM    6  C   UNL     1      -8.617  10.118  69.651  1.00  0.00    -0.153 C  
HETATM    7  H   UNL     1      -7.789  11.994  69.294  1.00  0.00     0.000 HD 
HETATM    8  N   UNL     1      -9.547   9.185  69.164  1.00  0.00    -0.158 N  
HETATM    9  O   UNL     1      -7.879   9.839  70.594  1.00  0.00    -0.277 OA 
HETATM   10  C   UNL     1     -10.561  10.831  67.796  1.00  0.00    -0.266 C  
HETATM   11  C   UNL     1     -10.542   9.598  68.300  1.00  0.00    -0.225 C  
ENDROOT
BRANCH   8  12
HETATM   12  C   UNL     1      -9.620   7.882  69.848  1.00  0.00    -0.168 C  
HETATM   13  C   UNL     1      -8.361   6.999  69.786  1.00  0.00    -0.132 C  
HETATM   14  S   UNL     1      -8.554   6.067  68.266  1.00  0.00    -0.114 SA 
HETATM   15  C   UNL     1     -10.349   6.095  68.445  1.00  0.00    -0.200 C  
HETATM   16  O   UNL     1     -10.749   7.114  69.372  1.00  0.00    -0.231 OA 
BRANCH  15  17
HETATM   17  C   UNL     1     -11.018   6.299  67.080  1.00  0.00    -0.364 C  
HETATM   18  O   UNL     1     -10.287   5.680  66.020  1.00  0.00    -0.419 OA 
HETATM   19  H   UNL     1     -10.701   5.807  65.175  1.00  0.00     0.000 HD 
ENDBRANCH  15  17
ENDBRANCH   8  12
TORSDOF 2
ENDMDL
MODEL      158
REMARK 921   NORMALIZED FREE ENERGY PREDICTED BY IDOCK:   -2.99 KCAL/MOL
REMARK 922        TOTAL FREE ENERGY PREDICTED BY IDOCK:   -3.30 KCAL/MOL
REMARK 923 INTER-LIGAND FREE ENERGY PREDICTED BY IDOCK:   -3.44 KCAL/MOL
REMARK 924 INTRA-LIGAND FREE ENERGY PREDICTED BY IDOCK:    0.15 KCAL/MOL
REMARK 927      BINDING AFFINITY PREDICTED BY RF-SCORE:    0.00 PKD
ROOT
HETATM    1  N   UNL     1      -5.499  12.094  69.315  1.00  0.00    -0.064 NA 
HETATM    2  H1  UNL     1      -5.940  11.227  69.621  1.00  0.00     0.000 HD 
HETATM    3  H2  UNL     1      -4.508  12.270  69.475  1.00  0.00     0.000 HD 
HETATM    4  C   UNL     1      -6.291  13.012  68.683  1.00  0.00    -0.083 C  
HETATM    5  N   UNL     1      -5.732  14.113  68.296  1.00  0.00    -0.107 N  
HETATM    6  C   UNL     1      -6.473  15.058  67.629  1.00  0.00    -0.150 C  
HETATM    7  H   UNL     1      -4.743  14.279  68.485  1.00  0.00     0.000 HD 
HETATM    8  N   UNL     1      -7.867  14.901  67.562  1.00  0.00    -0.170 N  
HETATM    9  O   UNL     1      -5.920  16.019  67.097  1.00  0.00    -0.306 OA 
HETATM   10  C   UNL     1      -7.718  12.718  68.470  1.00  0.00    -0.113 C  
HETATM   11  C   UNL     1      -8.437  13.695  67.920  1.00  0.00    -0.177 C  
ENDROOT
BRANCH   8  12
HETATM   12  C   UNL     1      -8.626  15.911  66.805  1.00  0.00    -0.266 C  
HETATM   13  C   UNL     1      -8.526  17.365  67.302  1.00  0.00    -0.208 C  
HETATM   14  S   UNL     1      -9.824  17.497  68.531  1.00  0.00    -0.346 SA 
HETATM   15  C   UNL     1     -10.828  16.291  67.641  1.00  0.00    -0.293 C  
HETATM   16  O   UNL     1     -10.023  15.546  66.716  1.00  0.00    -0.239 OA 
BRANCH  15  17
HETATM   17  C   UNL     1     -11.540  15.357  68.628  1.00  0.00    -0.359 C  
HETATM   18  O   UNL     1     -12.182  14.263  67.973  1.00  0.00    -0.562 OA 
HETATM   19  H   UNL     1     -12.622  13.684  68.584  1.00  0.00     0.000 HD 
ENDBRANCH  15  17
ENDBRANCH   8  12
TORSDOF 2
ENDMDL
MODEL      159
REMARK 921   NORMALIZED FREE ENERGY PREDICTED BY IDOCK:   -2.98 KCAL/MOL
REMARK 922        TOTAL FREE ENERGY PREDICTED BY IDOCK:   -3.29 KCAL/MOL
REMARK 923 INTER-LIGAND FREE ENERGY PREDICTED BY IDOCK:   -3.43 KCAL/MOL
REMARK 924 INTRA-LIGAND FREE ENERGY PREDICTED BY IDOCK:    0.14 KCAL/MOL
REMARK 927      BINDING AFFINITY PREDICTED BY RF-SCORE:    0.00 PKD
ROOT
HETATM    1  N   UNL     1      -8.843   9.864  65.704  1.00  0.00    -0.150 NA 
HETATM    2  H1  UNL     1      -8.489  10.748  66.069  1.00  0.00     0.000 HD 
HETATM    3  H2  UNL     1      -8.783   9.640  64.711  1.00  0.00     0.000 HD 
HETATM    4  C   UNL     1      -9.401   8.993  66.596  1.00  0.00    -0.177 C  
HETATM    5  N   UNL     1      -9.850   7.871  66.132  1.00  0.00    -0.464 N  
HETATM    6  C   UNL     1     -10.394   6.945  66.988  1.00  0.00    -0.278 C  
HETATM    7  H   UNL     1      -9.801   7.675  65.132  1.00  0.00     0.000 HD 
HETATM    8  N   UNL     1     -10.638   7.318  68.321  1.00  0.00    -0.195 N  
HETATM    9  O   UNL     1     -10.654   5.810  66.593  1.00  0.00    -0.268 OA 
HETATM   10  C   UNL     1      -9.466   9.354  68.022  1.00  0.00    -0.148 C  
HETATM   11  C   UNL     1     -10.096   8.488  68.814  1.00  0.00    -0.196 C  
ENDROOT
BRANCH   8  12
HETATM   12  C   UNL     1     -11.185   6.288  69.221  1.00  0.00    -0.389 C  
HETATM   13  C   UNL     1     -11.910   6.788  70.483  1.00  0.00    -0.362 C  
HETATM   14  S   UNL     1     -10.602   6.972  71.696  1.00  0.00    -0.204 SA 
HETATM   15  C   UNL     1      -9.678   5.616  70.945  1.00  0.00    -0.173 C  
HETATM   16  O   UNL     1     -10.154   5.353  69.618  1.00  0.00    -0.203 OA 
BRANCH  15  17
HETATM   17  C   UNL     1      -8.177   5.933  70.939  1.00  0.00    -0.125 C  
HETATM   18  O   UNL     1      -7.781   6.705  72.073  1.00  0.00    -0.095 OA 
HETATM   19  H   UNL     1      -6.852   6.901  72.070  1.00  0.00     0.000 HD 
ENDBRANCH  15  17
ENDBRANCH   8  12
TORSDOF 2
ENDMDL
MODEL      160
REMARK 921   NORMALIZED FREE ENERGY PREDICTED BY IDOCK:   -2.97 KCAL/MOL
REMARK 922        TOTAL FREE ENERGY PREDICTED BY IDOCK:   -3.27 KCAL/MOL
REMARK 923 INTER-LIGAND FREE ENERGY PREDICTED BY IDOCK:   -3.41 KCAL/MOL
REMARK 924 INTRA-LIGAND FREE ENERGY PREDICTED BY IDOCK:    0.14 KCAL/MOL
REMARK 927      BINDING AFFINITY PREDICTED BY RF-SCORE:    0.00 PKD
ROOT
HETATM    1  N   UNL     1      -6.906  10.842  70.318  1.00  0.00    -0.467 NA 
HETATM    2  H1  UNL     1      -5.983  10.494  70.578  1.00  0.00     0.000 HD 
HETATM    3  H2  UNL     1      -7.123  11.839  70.344  1.00  0.00     0.000 HD 
HETATM    4  C   UNL     1      -7.839   9.922  69.932  1.00  0.00    -0.173 C  
HETATM    5  N   UNL     1      -9.010  10.364  69.602  1.00  0.00    -0.390 N  
HETATM    6  C   UNL     1      -9.977   9.486  69.178  1.00  0.00    -0.183 C  
HETATM    7  H   UNL     1      -9.214  11.362  69.657  1.00  0.00     0.000 HD 
HETATM    8  N   UNL     1      -9.742   8.106  69.306  1.00  0.00    -0.168 N  
HETATM    9  O   UNL     1     -11.025   9.904  68.689  1.00  0.00    -0.225 OA 
HETATM   10  C   UNL     1      -7.484   8.493  69.905  1.00  0.00    -0.063 C  
HETATM   11  C   UNL     1      -8.471   7.654  69.596  1.00  0.00    -0.135 C  
ENDROOT
BRANCH   8  12
HETATM   12  C   UNL     1     -10.784   7.194  68.804  1.00  0.00    -0.169 C  
HETATM   13  C   UNL     1     -10.771   5.759  69.360  1.00  0.00    -0.326 C  
HETATM   14  S   UNL     1      -9.654   4.876  68.270  1.00  0.00    -0.147 SA 
HETATM   15  C   UNL     1     -10.123   5.937  66.887  1.00  0.00    -0.188 C  
HETATM   16  O   UNL     1     -10.760   7.132  67.358  1.00  0.00    -0.265 OA 
BRANCH  15  17
HETATM   17  C   UNL     1      -8.895   6.269  66.030  1.00  0.00    -0.151 C  
HETATM   18  O   UNL     1      -8.999   5.743  64.706  1.00  0.00    -0.363 OA 
HETATM   19  H   UNL     1      -8.239   5.948  64.175  1.00  0.00     0.000 HD 
ENDBRANCH  15  17
ENDBRANCH   8  12
TORSDOF 2
ENDMDL
MODEL      161
REMARK 921   NORMALIZED FREE ENERGY PREDICTED BY IDOCK:   -2.95 KCAL/MOL
REMARK 922        TOTAL FREE ENERGY PREDICTED BY IDOCK:   -3.25 KCAL/MOL
REMARK 923 INTER-LIGAND FREE ENERGY PREDICTED BY IDOCK:   -3.38 KCAL/MOL
REMARK 924 INTRA-LIGAND FREE ENERGY PREDICTED BY IDOCK:    0.12 KCAL/MOL
REMARK 927      BINDING AFFINITY PREDICTED BY RF-SCORE:    0.00 PKD
ROOT
HETATM    1  N   UNL     1     -11.126   4.714  65.448  1.00  0.00    -0.958 NA 
HETATM    2  H1  UNL     1     -12.035   5.103  65.198  1.00  0.00     0.000 HD 
HETATM    3  H2  UNL     1     -10.732   3.920  64.944  1.00  0.00     0.000 HD 
HETATM    4  C   UNL     1     -10.456   5.299  66.486  1.00  0.00    -0.298 C  
HETATM    5  N   UNL     1      -9.302   4.806  66.803  1.00  0.00    -0.134 N  
HETATM    6  C   UNL     1      -8.572   5.374  67.819  1.00  0.00    -0.104 C  
HETATM    7  H   UNL     1      -8.936   3.997  66.301  1.00  0.00     0.000 HD 
HETATM    8  N   UNL     1      -9.181   6.349  68.627  1.00  0.00    -0.126 N  
HETATM    9  O   UNL     1      -7.405   5.037  68.009  1.00  0.00    -0.072 OA 
HETATM   10  C   UNL     1     -11.058   6.446  67.187  1.00  0.00    -0.422 C  
HETATM   11  C   UNL     1     -10.381   6.908  68.236  1.00  0.00    -0.193 C  
ENDROOT
BRANCH   8  12
HETATM   12  C   UNL     1      -8.356   6.965  69.680  1.00  0.00    -0.133 C  
HETATM   13  C   UNL     1      -9.076   7.351  70.985  1.00  0.00    -0.152 C  
HETATM   14  S   UNL     1      -9.688   9.007  70.674  1.00  0.00    -0.255 SA 
HETATM   15  C   UNL     1      -8.291   9.348  69.584  1.00  0.00    -0.147 C  
HETATM   16  O   UNL     1      -7.659   8.127  69.174  1.00  0.00    -0.092 OA 
BRANCH  15  17
HETATM   17  C   UNL     1      -8.749  10.167  68.370  1.00  0.00    -0.123 C  
HETATM   18  O   UNL     1     -10.009  10.801  68.589  1.00  0.00    -0.167 OA 
HETATM   19  H   UNL     1     -10.293  11.308  67.837  1.00  0.00     0.000 HD 
ENDBRANCH  15  17
ENDBRANCH   8  12
TORSDOF 2
ENDMDL
MODEL      162
REMARK 921   NORMALIZED FREE ENERGY PREDICTED BY IDOCK:   -2.95 KCAL/MOL
REMARK 922        TOTAL FREE ENERGY PREDICTED BY IDOCK:   -3.25 KCAL/MOL
REMARK 923 INTER-LIGAND FREE ENERGY PREDICTED BY IDOCK:   -3.37 KCAL/MOL
REMARK 924 INTRA-LIGAND FREE ENERGY PREDICTED BY IDOCK:    0.11 KCAL/MOL
REMARK 927      BINDING AFFINITY PREDICTED BY RF-SCORE:    0.00 PKD
ROOT
HETATM    1  N   UNL     1      -6.418  10.661  70.354  1.00  0.00    -0.257 NA 
HETATM    2  H1  UNL     1      -5.649  10.288  70.910  1.00  0.00     0.000 HD 
HETATM    3  H2  UNL     1      -6.291  11.475  69.752  1.00  0.00     0.000 HD 
HETATM    4  C   UNL     1      -7.625  10.029  70.447  1.00  0.00    -0.014 C  
HETATM    5  N   UNL     1      -8.602  10.503  69.742  1.00  0.00    -0.381 N  
HETATM    6  C   UNL     1      -9.830   9.889  69.774  1.00  0.00    -0.236 C  
HETATM    7  H   UNL     1      -8.460  11.331  69.163  1.00  0.00     0.000 HD 
HETATM    8  N   UNL     1     -10.058   8.882  70.728  1.00  0.00    -0.209 N  
HETATM    9  O   UNL     1     -10.708  10.212  68.976  1.00  0.00    -0.201 OA 
HETATM   10  C   UNL     1      -7.766   8.856  71.326  1.00  0.00    -0.145 C  
HETATM   11  C   UNL     1      -8.993   8.345  71.423  1.00  0.00    -0.186 C  
ENDROOT
BRANCH   8  12
HETATM   12  C   UNL     1     -11.372   8.217  70.707  1.00  0.00    -0.270 C  
HETATM   13  C   UNL     1     -11.932   7.751  72.063  1.00  0.00    -0.308 C  
HETATM   14  S   UNL     1     -11.247   6.109  72.279  1.00  0.00    -0.302 SA 
HETATM   15  C   UNL     1     -11.249   5.844  70.494  1.00  0.00    -0.223 C  
HETATM   16  O   UNL     1     -11.365   7.092  69.797  1.00  0.00    -0.249 OA 
BRANCH  15  17
HETATM   17  C   UNL     1      -9.984   5.089  70.066  1.00  0.00    -0.254 C  
HETATM   18  O   UNL     1      -9.307   4.494  71.174  1.00  0.00    -0.132 OA 
HETATM   19  H   UNL     1      -8.523   4.027  70.909  1.00  0.00     0.000 HD 
ENDBRANCH  15  17
ENDBRANCH   8  12
TORSDOF 2
ENDMDL
MODEL      163
REMARK 921   NORMALIZED FREE ENERGY PREDICTED BY IDOCK:   -2.93 KCAL/MOL
REMARK 922        TOTAL FREE ENERGY PREDICTED BY IDOCK:   -3.23 KCAL/MOL
REMARK 923 INTER-LIGAND FREE ENERGY PREDICTED BY IDOCK:   -3.29 KCAL/MOL
REMARK 924 INTRA-LIGAND FREE ENERGY PREDICTED BY IDOCK:    0.06 KCAL/MOL
REMARK 927      BINDING AFFINITY PREDICTED BY RF-SCORE:    0.00 PKD
ROOT
HETATM    1  N   UNL     1      -7.605  10.731  62.882  1.00  0.00    -0.356 NA 
HETATM    2  H1  UNL     1      -6.931  10.043  62.546  1.00  0.00     0.000 HD 
HETATM    3  H2  UNL     1      -7.705  11.639  62.428  1.00  0.00     0.000 HD 
HETATM    4  C   UNL     1      -8.369  10.388  63.961  1.00  0.00    -0.139 C  
HETATM    5  N   UNL     1      -9.224  11.262  64.386  1.00  0.00    -0.385 N  
HETATM    6  C   UNL     1     -10.039  10.960  65.450  1.00  0.00    -0.277 C  
HETATM    7  H   UNL     1      -9.292  12.174  63.933  1.00  0.00     0.000 HD 
HETATM    8  N   UNL     1      -9.788   9.788  66.184  1.00  0.00    -0.244 N  
HETATM    9  O   UNL     1     -10.975  11.701  65.747  1.00  0.00    -0.292 OA 
HETATM   10  C   UNL     1      -8.196   9.066  64.585  1.00  0.00    -0.160 C  
HETATM   11  C   UNL     1      -8.920   8.840  65.680  1.00  0.00    -0.200 C  
ENDROOT
BRANCH   8  12
HETATM   12  C   UNL     1     -10.706   9.475  67.292  1.00  0.00    -0.199 C  
HETATM   13  C   UNL     1     -10.617  10.375  68.538  1.00  0.00    -0.209 C  
HETATM   14  S   UNL     1      -9.346   9.607  69.543  1.00  0.00    -0.213 SA 
HETATM   15  C   UNL     1      -9.790   7.977  68.909  1.00  0.00    -0.175 C  
HETATM   16  O   UNL     1     -10.562   8.096  67.705  1.00  0.00    -0.233 OA 
BRANCH  15  17
HETATM   17  C   UNL     1      -8.530   7.135  68.675  1.00  0.00    -0.125 C  
HETATM   18  O   UNL     1      -7.341   7.926  68.674  1.00  0.00    -0.086 OA 
HETATM   19  H   UNL     1      -6.561   7.404  68.529  1.00  0.00     0.000 HD 
ENDBRANCH  15  17
ENDBRANCH   8  12
TORSDOF 2
ENDMDL
MODEL      164
REMARK 921   NORMALIZED FREE ENERGY PREDICTED BY IDOCK:   -2.93 KCAL/MOL
REMARK 922        TOTAL FREE ENERGY PREDICTED BY IDOCK:   -3.23 KCAL/MOL
REMARK 923 INTER-LIGAND FREE ENERGY PREDICTED BY IDOCK:   -3.31 KCAL/MOL
REMARK 924 INTRA-LIGAND FREE ENERGY PREDICTED BY IDOCK:    0.08 KCAL/MOL
REMARK 927      BINDING AFFINITY PREDICTED BY RF-SCORE:    0.00 PKD
ROOT
HETATM    1  N   UNL     1     -11.288   4.581  64.837  1.00  0.00    -1.065 NA 
HETATM    2  H1  UNL     1     -11.884   5.366  64.574  1.00  0.00     0.000 HD 
HETATM    3  H2  UNL     1     -11.153   3.786  64.212  1.00  0.00     0.000 HD 
HETATM    4  C   UNL     1     -10.679   4.636  66.059  1.00  0.00    -0.077 C  
HETATM    5  N   UNL     1      -9.923   3.639  66.392  1.00  0.00    -0.403 N  
HETATM    6  C   UNL     1      -9.262   3.655  67.596  1.00  0.00    -0.185 C  
HETATM    7  H   UNL     1      -9.818   2.843  65.762  1.00  0.00     0.000 HD 
HETATM    8  N   UNL     1      -9.580   4.656  68.530  1.00  0.00    -0.153 N  
HETATM    9  O   UNL     1      -8.403   2.811  67.845  1.00  0.00    -0.076 OA 
HETATM   10  C   UNL     1     -10.899   5.802  66.930  1.00  0.00    -0.337 C  
HETATM   11  C   UNL     1     -10.335   5.743  68.136  1.00  0.00    -0.212 C  
ENDROOT
BRANCH   8  12
HETATM   12  C   UNL     1      -8.824   4.666  69.793  1.00  0.00    -0.089 C  
HETATM   13  C   UNL     1      -9.608   5.040  71.064  1.00  0.00    -0.170 C  
HETATM   14  S   UNL     1      -9.502   6.829  71.135  1.00  0.00    -0.162 SA 
HETATM   15  C   UNL     1      -7.883   6.791  70.337  1.00  0.00    -0.109 C  
HETATM   16  O   UNL     1      -7.666   5.528  69.692  1.00  0.00    -0.076 OA 
BRANCH  15  17
HETATM   17  C   UNL     1      -7.754   7.949  69.338  1.00  0.00    -0.105 C  
HETATM   18  O   UNL     1      -7.342   7.505  68.045  1.00  0.00    -0.090 OA 
HETATM   19  H   UNL     1      -7.262   8.222  67.427  1.00  0.00     0.000 HD 
ENDBRANCH  15  17
ENDBRANCH   8  12
TORSDOF 2
ENDMDL
MODEL      165
REMARK 921   NORMALIZED FREE ENERGY PREDICTED BY IDOCK:   -2.93 KCAL/MOL
REMARK 922        TOTAL FREE ENERGY PREDICTED BY IDOCK:   -3.23 KCAL/MOL
REMARK 923 INTER-LIGAND FREE ENERGY PREDICTED BY IDOCK:   -3.29 KCAL/MOL
REMARK 924 INTRA-LIGAND FREE ENERGY PREDICTED BY IDOCK:    0.06 KCAL/MOL
REMARK 927      BINDING AFFINITY PREDICTED BY RF-SCORE:    0.00 PKD
ROOT
HETATM    1  N   UNL     1     -12.446   6.846  70.591  1.00  0.00    -0.574 NA 
HETATM    2  H1  UNL     1     -12.627   6.117  71.281  1.00  0.00     0.000 HD 
HETATM    3  H2  UNL     1     -13.024   7.685  70.543  1.00  0.00     0.000 HD 
HETATM    4  C   UNL     1     -11.400   6.654  69.734  1.00  0.00    -0.354 C  
HETATM    5  N   UNL     1     -11.171   7.580  68.858  1.00  0.00    -0.394 N  
HETATM    6  C   UNL     1     -10.113   7.453  67.991  1.00  0.00    -0.179 C  
HETATM    7  H   UNL     1     -11.774   8.401  68.812  1.00  0.00     0.000 HD 
HETATM    8  N   UNL     1      -9.426   6.229  67.936  1.00  0.00    -0.116 N  
HETATM    9  O   UNL     1      -9.773   8.399  67.283  1.00  0.00    -0.160 OA 
HETATM   10  C   UNL     1     -10.588   5.430  69.839  1.00  0.00    -0.351 C  
HETATM   11  C   UNL     1      -9.638   5.281  68.917  1.00  0.00    -0.137 C  
ENDROOT
BRANCH   8  12
HETATM   12  C   UNL     1      -8.272   6.142  67.024  1.00  0.00    -0.106 C  
HETATM   13  C   UNL     1      -8.581   6.154  65.516  1.00  0.00    -0.130 C  
HETATM   14  S   UNL     1      -8.867   4.431  65.113  1.00  0.00    -0.144 SA 
HETATM   15  C   UNL     1      -7.707   3.911  66.394  1.00  0.00    -0.089 C  
HETATM   16  O   UNL     1      -7.467   4.977  67.323  1.00  0.00    -0.081 OA 
BRANCH  15  17
HETATM   17  C   UNL     1      -8.231   2.661  67.113  1.00  0.00    -0.078 C  
HETATM   18  O   UNL     1      -9.620   2.439  66.869  1.00  0.00    -0.396 OA 
HETATM   19  H   UNL     1      -9.945   1.665  67.314  1.00  0.00     0.000 HD 
ENDBRANCH  15  17
ENDBRANCH   8  12
TORSDOF 2
ENDMDL
MODEL      166
REMARK 921   NORMALIZED FREE ENERGY PREDICTED BY IDOCK:   -2.89 KCAL/MOL
REMARK 922        TOTAL FREE ENERGY PREDICTED BY IDOCK:   -3.19 KCAL/MOL
REMARK 923 INTER-LIGAND FREE ENERGY PREDICTED BY IDOCK:   -3.27 KCAL/MOL
REMARK 924 INTRA-LIGAND FREE ENERGY PREDICTED BY IDOCK:    0.08 KCAL/MOL
REMARK 927      BINDING AFFINITY PREDICTED BY RF-SCORE:    0.00 PKD
ROOT
HETATM    1  N   UNL     1      -9.940  12.438  64.915  1.00  0.00    -0.434 NA 
HETATM    2  H1  UNL     1     -10.894  12.693  65.170  1.00  0.00     0.000 HD 
HETATM    3  H2  UNL     1      -9.385  13.025  64.292  1.00  0.00     0.000 HD 
HETATM    4  C   UNL     1      -9.437  11.281  65.438  1.00  0.00    -0.225 C  
HETATM    5  N   UNL     1      -8.227  10.958  65.113  1.00  0.00    -0.365 N  
HETATM    6  C   UNL     1      -7.659   9.821  65.634  1.00  0.00    -0.109 C  
HETATM    7  H   UNL     1      -7.695  11.546  64.471  1.00  0.00     0.000 HD 
HETATM    8  N   UNL     1      -8.473   8.924  66.346  1.00  0.00    -0.114 N  
HETATM    9  O   UNL     1      -6.459   9.599  65.483  1.00  0.00    -0.072 OA 
HETATM   10  C   UNL     1     -10.272  10.464  66.335  1.00  0.00    -0.292 C  
HETATM   11  C   UNL     1      -9.739   9.313  66.739  1.00  0.00    -0.200 C  
ENDROOT
BRANCH   8  12
HETATM   12  C   UNL     1      -7.823   7.735  66.925  1.00  0.00    -0.107 C  
HETATM   13  C   UNL     1      -7.347   6.658  65.934  1.00  0.00    -0.079 C  
HETATM   14  S   UNL     1      -8.781   5.605  65.708  1.00  0.00    -0.149 SA 
HETATM   15  C   UNL     1      -9.329   5.945  67.394  1.00  0.00    -0.111 C  
HETATM   16  O   UNL     1      -8.677   7.112  67.913  1.00  0.00    -0.126 OA 
BRANCH  15  17
HETATM   17  C   UNL     1     -10.855   6.101  67.436  1.00  0.00    -0.343 C  
HETATM   18  O   UNL     1     -11.311   6.624  68.684  1.00  0.00    -0.545 OA 
HETATM   19  H   UNL     1     -12.256   6.721  68.711  1.00  0.00     0.000 HD 
ENDBRANCH  15  17
ENDBRANCH   8  12
TORSDOF 2
ENDMDL
MODEL      167
REMARK 921   NORMALIZED FREE ENERGY PREDICTED BY IDOCK:   -2.89 KCAL/MOL
REMARK 922        TOTAL FREE ENERGY PREDICTED BY IDOCK:   -3.19 KCAL/MOL
REMARK 923 INTER-LIGAND FREE ENERGY PREDICTED BY IDOCK:   -3.27 KCAL/MOL
REMARK 924 INTRA-LIGAND FREE ENERGY PREDICTED BY IDOCK:    0.08 KCAL/MOL
REMARK 927      BINDING AFFINITY PREDICTED BY RF-SCORE:    0.00 PKD
ROOT
HETATM    1  N   UNL     1     -11.308   4.257  65.010  1.00  0.00    -1.043 NA 
HETATM    2  H1  UNL     1     -12.318   4.395  64.999  1.00  0.00     0.000 HD 
HETATM    3  H2  UNL     1     -10.861   3.565  64.409  1.00  0.00     0.000 HD 
HETATM    4  C   UNL     1     -10.577   5.036  65.862  1.00  0.00    -0.183 C  
HETATM    5  N   UNL     1      -9.294   4.861  65.877  1.00  0.00    -0.153 N  
HETATM    6  C   UNL     1      -8.507   5.637  66.692  1.00  0.00    -0.113 C  
HETATM    7  H   UNL     1      -8.869   4.148  65.284  1.00  0.00     0.000 HD 
HETATM    8  N   UNL     1      -9.128   6.464  67.644  1.00  0.00    -0.116 N  
HETATM    9  O   UNL     1      -7.283   5.610  66.583  1.00  0.00    -0.071 OA 
HETATM   10  C   UNL     1     -11.261   6.025  66.712  1.00  0.00    -0.042 C  
HETATM   11  C   UNL     1     -10.489   6.688  67.571  1.00  0.00    -0.239 C  
ENDROOT
BRANCH   8  12
HETATM   12  C   UNL     1      -8.255   7.312  68.474  1.00  0.00    -0.125 C  
HETATM   13  C   UNL     1      -7.413   6.596  69.545  1.00  0.00    -0.093 C  
HETATM   14  S   UNL     1      -8.491   6.527  70.976  1.00  0.00    -0.127 SA 
HETATM   15  C   UNL     1      -9.283   8.074  70.488  1.00  0.00    -0.154 C  
HETATM   16  O   UNL     1      -9.016   8.366  69.109  1.00  0.00    -0.145 OA 
BRANCH  15  17
HETATM   17  C   UNL     1     -10.792   8.007  70.755  1.00  0.00    -0.232 C  
HETATM   18  O   UNL     1     -11.520   8.974  69.997  1.00  0.00    -0.435 OA 
HETATM   19  H   UNL     1     -12.454   8.933  70.163  1.00  0.00     0.000 HD 
ENDBRANCH  15  17
ENDBRANCH   8  12
TORSDOF 2
ENDMDL
MODEL      168
REMARK 921   NORMALIZED FREE ENERGY PREDICTED BY IDOCK:   -2.87 KCAL/MOL
REMARK 922        TOTAL FREE ENERGY PREDICTED BY IDOCK:   -3.16 KCAL/MOL
REMARK 923 INTER-LIGAND FREE ENERGY PREDICTED BY IDOCK:   -3.51 KCAL/MOL
REMARK 924 INTRA-LIGAND FREE ENERGY PREDICTED BY IDOCK:    0.35 KCAL/MOL
REMARK 927      BINDING AFFINITY PREDICTED BY RF-SCORE:    0.00 PKD
ROOT
HETATM    1  N   UNL     1     -11.597   7.615  73.206  1.00  0.00    -0.629 NA 
HETATM    2  H1  UNL     1     -12.107   8.442  73.516  1.00  0.00     0.000 HD 
HETATM    3  H2  UNL     1     -11.667   6.731  73.709  1.00  0.00     0.000 HD 
HETATM    4  C   UNL     1     -10.816   7.740  72.092  1.00  0.00    -0.257 C  
HETATM    5  N   UNL     1     -10.168   6.690  71.699  1.00  0.00    -0.192 N  
HETATM    6  C   UNL     1      -9.391   6.749  70.568  1.00  0.00    -0.162 C  
HETATM    7  H   UNL     1     -10.234   5.820  72.229  1.00  0.00     0.000 HD 
HETATM    8  N   UNL     1      -9.153   8.001  69.976  1.00  0.00    -0.151 N  
HETATM    9  O   UNL     1      -8.921   5.722  70.082  1.00  0.00    -0.137 OA 
HETATM   10  C   UNL     1     -10.745   9.034  71.393  1.00  0.00    -0.401 C  
HETATM   11  C   UNL     1      -9.901   9.095  70.365  1.00  0.00    -0.218 C  
ENDROOT
BRANCH   8  12
HETATM   12  C   UNL     1      -8.350   8.023  68.741  1.00  0.00    -0.127 C  
HETATM   13  C   UNL     1      -8.282   9.361  67.985  1.00  0.00    -0.114 C  
HETATM   14  S   UNL     1      -9.710   9.326  66.902  1.00  0.00    -0.207 SA 
HETATM   15  C   UNL     1      -9.598   7.530  66.769  1.00  0.00    -0.206 C  
HETATM   16  O   UNL     1      -8.788   6.993  67.824  1.00  0.00    -0.124 OA 
BRANCH  15  17
HETATM   17  C   UNL     1     -11.000   6.906  66.779  1.00  0.00    -0.125 C  
HETATM   18  O   UNL     1     -10.959   5.481  66.864  1.00  0.00    -0.457 OA 
HETATM   19  H   UNL     1     -11.826   5.095  66.870  1.00  0.00     0.000 HD 
ENDBRANCH  15  17
ENDBRANCH   8  12
TORSDOF 2
ENDMDL
MODEL      169
REMARK 921   NORMALIZED FREE ENERGY PREDICTED BY IDOCK:   -2.87 KCAL/MOL
REMARK 922        TOTAL FREE ENERGY PREDICTED BY IDOCK:   -3.16 KCAL/MOL
REMARK 923 INTER-LIGAND FREE ENERGY PREDICTED BY IDOCK:   -3.40 KCAL/MOL
REMARK 924 INTRA-LIGAND FREE ENERGY PREDICTED BY IDOCK:    0.24 KCAL/MOL
REMARK 927      BINDING AFFINITY PREDICTED BY RF-SCORE:    0.00 PKD
ROOT
HETATM    1  N   UNL     1      -7.366   4.008  73.599  1.00  0.00    -0.069 NA 
HETATM    2  H1  UNL     1      -6.379   4.078  73.349  1.00  0.00     0.000 HD 
HETATM    3  H2  UNL     1      -7.660   3.585  74.479  1.00  0.00     0.000 HD 
HETATM    4  C   UNL     1      -8.275   4.504  72.709  1.00  0.00    -0.099 C  
HETATM    5  N   UNL     1      -9.528   4.415  73.027  1.00  0.00    -0.127 N  
HETATM    6  C   UNL     1     -10.485   4.924  72.183  1.00  0.00    -0.192 C  
HETATM    7  H   UNL     1      -9.803   3.968  73.901  1.00  0.00     0.000 HD 
HETATM    8  N   UNL     1     -10.099   5.347  70.899  1.00  0.00    -0.207 N  
HETATM    9  O   UNL     1     -11.655   5.013  72.551  1.00  0.00    -0.095 OA 
HETATM   10  C   UNL     1      -7.808   5.110  71.451  1.00  0.00    -0.107 C  
HETATM   11  C   UNL     1      -8.759   5.496  70.603  1.00  0.00    -0.129 C  
ENDROOT
BRANCH   8  12
HETATM   12  C   UNL     1     -11.144   5.925  70.036  1.00  0.00    -0.341 C  
HETATM   13  C   UNL     1     -10.665   6.805  68.868  1.00  0.00    -0.240 C  
HETATM   14  S   UNL     1     -10.528   8.444  69.581  1.00  0.00    -0.216 SA 
HETATM   15  C   UNL     1     -11.876   8.089  70.726  1.00  0.00    -0.162 C  
HETATM   16  O   UNL     1     -12.101   6.675  70.820  1.00  0.00    -0.385 OA 
BRANCH  15  17
HETATM   17  C   UNL     1     -11.578   8.693  72.104  1.00  0.00    -0.370 C  
HETATM   18  O   UNL     1     -12.225   7.980  73.159  1.00  0.00    -0.659 OA 
HETATM   19  H   UNL     1     -12.041   8.354  74.013  1.00  0.00     0.000 HD 
ENDBRANCH  15  17
ENDBRANCH   8  12
TORSDOF 2
ENDMDL
MODEL      170
REMARK 921   NORMALIZED FREE ENERGY PREDICTED BY IDOCK:   -2.86 KCAL/MOL
REMARK 922        TOTAL FREE ENERGY PREDICTED BY IDOCK:   -3.15 KCAL/MOL
REMARK 923 INTER-LIGAND FREE ENERGY PREDICTED BY IDOCK:   -3.33 KCAL/MOL
REMARK 924 INTRA-LIGAND FREE ENERGY PREDICTED BY IDOCK:    0.17 KCAL/MOL
REMARK 927      BINDING AFFINITY PREDICTED BY RF-SCORE:    0.00 PKD
ROOT
HETATM    1  N   UNL     1     -11.313   6.466  70.545  1.00  0.00    -0.352 NA 
HETATM    2  H1  UNL     1     -11.425   6.721  71.527  1.00  0.00     0.000 HD 
HETATM    3  H2  UNL     1     -11.638   5.566  70.191  1.00  0.00     0.000 HD 
HETATM    4  C   UNL     1     -10.710   7.377  69.725  1.00  0.00    -0.241 C  
HETATM    5  N   UNL     1     -10.567   7.053  68.480  1.00  0.00    -0.232 N  
HETATM    6  C   UNL     1      -9.994   7.942  67.603  1.00  0.00    -0.181 C  
HETATM    7  H   UNL     1     -10.878   6.139  68.150  1.00  0.00     0.000 HD 
HETATM    8  N   UNL     1      -9.390   9.103  68.115  1.00  0.00    -0.138 N  
HETATM    9  O   UNL     1     -10.019   7.726  66.393  1.00  0.00    -0.197 OA 
HETATM   10  C   UNL     1     -10.257   8.665  70.275  1.00  0.00    -0.213 C  
HETATM   11  C   UNL     1      -9.608   9.464  69.430  1.00  0.00    -0.173 C  
ENDROOT
BRANCH   8  12
HETATM   12  C   UNL     1      -8.822  10.053  67.144  1.00  0.00    -0.135 C  
HETATM   13  C   UNL     1      -7.881  11.134  67.705  1.00  0.00    -0.114 C  
HETATM   14  S   UNL     1      -8.979  12.470  68.177  1.00  0.00    -0.187 SA 
HETATM   15  C   UNL     1     -10.125  12.030  66.854  1.00  0.00    -0.205 C  
HETATM   16  O   UNL     1      -9.869  10.700  66.384  1.00  0.00    -0.196 OA 
BRANCH  15  17
HETATM   17  C   UNL     1     -11.575  12.176  67.334  1.00  0.00    -0.340 C  
HETATM   18  O   UNL     1     -12.495  12.308  66.250  1.00  0.00    -0.421 OA 
HETATM   19  H   UNL     1     -13.392  12.398  66.547  1.00  0.00     0.000 HD 
ENDBRANCH  15  17
ENDBRANCH   8  12
TORSDOF 2
ENDMDL
MODEL      171
REMARK 921   NORMALIZED FREE ENERGY PREDICTED BY IDOCK:   -2.84 KCAL/MOL
REMARK 922        TOTAL FREE ENERGY PREDICTED BY IDOCK:   -3.13 KCAL/MOL
REMARK 923 INTER-LIGAND FREE ENERGY PREDICTED BY IDOCK:   -3.31 KCAL/MOL
REMARK 924 INTRA-LIGAND FREE ENERGY PREDICTED BY IDOCK:    0.18 KCAL/MOL
REMARK 927      BINDING AFFINITY PREDICTED BY RF-SCORE:    0.00 PKD
ROOT
HETATM    1  N   UNL     1      -8.037   5.785  74.540  1.00  0.00    -0.106 NA 
HETATM    2  H1  UNL     1      -7.144   5.344  74.318  1.00  0.00     0.000 HD 
HETATM    3  H2  UNL     1      -8.326   5.940  75.505  1.00  0.00     0.000 HD 
HETATM    4  C   UNL     1      -8.829   6.160  73.492  1.00  0.00    -0.124 C  
HETATM    5  N   UNL     1      -9.962   6.719  73.773  1.00  0.00    -0.255 N  
HETATM    6  C   UNL     1     -10.786   7.143  72.759  1.00  0.00    -0.300 C  
HETATM    7  H   UNL     1     -10.243   6.845  74.746  1.00  0.00     0.000 HD 
HETATM    8  N   UNL     1     -10.476   6.778  71.438  1.00  0.00    -0.214 N  
HETATM    9  O   UNL     1     -11.771   7.836  73.007  1.00  0.00    -0.277 OA 
HETATM   10  C   UNL     1      -8.374   5.921  72.112  1.00  0.00    -0.118 C  
HETATM   11  C   UNL     1      -9.237   6.241  71.150  1.00  0.00    -0.153 C  
ENDROOT
BRANCH   8  12
HETATM   12  C   UNL     1     -11.359   7.284  70.372  1.00  0.00    -0.271 C  
HETATM   13  C   UNL     1     -11.209   6.633  68.985  1.00  0.00    -0.220 C  
HETATM   14  S   UNL     1      -9.915   7.587  68.191  1.00  0.00    -0.179 SA 
HETATM   15  C   UNL     1     -10.410   9.066  69.100  1.00  0.00    -0.219 C  
HETATM   16  O   UNL     1     -11.223   8.717  70.230  1.00  0.00    -0.253 OA 
BRANCH  15  17
HETATM   17  C   UNL     1      -9.173   9.862  69.536  1.00  0.00    -0.223 C  
HETATM   18  O   UNL     1      -9.232  11.226  69.117  1.00  0.00    -0.397 OA 
HETATM   19  H   UNL     1      -8.467  11.719  69.387  1.00  0.00     0.000 HD 
ENDBRANCH  15  17
ENDBRANCH   8  12
TORSDOF 2
ENDMDL
MODEL      172
REMARK 921   NORMALIZED FREE ENERGY PREDICTED BY IDOCK:   -2.83 KCAL/MOL
REMARK 922        TOTAL FREE ENERGY PREDICTED BY IDOCK:   -3.12 KCAL/MOL
REMARK 923 INTER-LIGAND FREE ENERGY PREDICTED BY IDOCK:   -3.30 KCAL/MOL
REMARK 924 INTRA-LIGAND FREE ENERGY PREDICTED BY IDOCK:    0.18 KCAL/MOL
REMARK 927      BINDING AFFINITY PREDICTED BY RF-SCORE:    0.00 PKD
ROOT
HETATM    1  N   UNL     1      -5.931  11.774  66.327  1.00  0.00    -0.495 NA 
HETATM    2  H1  UNL     1      -5.200  11.919  67.024  1.00  0.00     0.000 HD 
HETATM    3  H2  UNL     1      -5.770  11.977  65.341  1.00  0.00     0.000 HD 
HETATM    4  C   UNL     1      -7.132  11.297  66.768  1.00  0.00    -0.143 C  
HETATM    5  N   UNL     1      -8.060  11.114  65.883  1.00  0.00    -0.335 N  
HETATM    6  C   UNL     1      -9.279  10.608  66.265  1.00  0.00    -0.170 C  
HETATM    7  H   UNL     1      -7.887  11.345  64.905  1.00  0.00     0.000 HD 
HETATM    8  N   UNL     1      -9.564  10.492  67.637  1.00  0.00    -0.156 N  
HETATM    9  O   UNL     1     -10.099  10.257  65.419  1.00  0.00    -0.293 OA 
HETATM   10  C   UNL     1      -7.323  11.014  68.200  1.00  0.00    -0.086 C  
HETATM   11  C   UNL     1      -8.546  10.629  68.560  1.00  0.00    -0.137 C  
ENDROOT
BRANCH   8  12
HETATM   12  C   UNL     1     -10.863   9.909  68.010  1.00  0.00    -0.243 C  
HETATM   13  C   UNL     1     -11.581  10.536  69.219  1.00  0.00    -0.236 C  
HETATM   14  S   UNL     1     -10.921   9.647  70.629  1.00  0.00    -0.345 SA 
HETATM   15  C   UNL     1     -10.707   8.162  69.627  1.00  0.00    -0.195 C  
HETATM   16  O   UNL     1     -10.743   8.484  68.230  1.00  0.00    -0.154 OA 
BRANCH  15  17
HETATM   17  C   UNL     1      -9.397   7.454  69.996  1.00  0.00    -0.151 C  
HETATM   18  O   UNL     1      -9.611   6.110  70.429  1.00  0.00    -0.162 OA 
HETATM   19  H   UNL     1      -8.800   5.671  70.657  1.00  0.00     0.000 HD 
ENDBRANCH  15  17
ENDBRANCH   8  12
TORSDOF 2
ENDMDL
MODEL      173
REMARK 921   NORMALIZED FREE ENERGY PREDICTED BY IDOCK:   -2.81 KCAL/MOL
REMARK 922        TOTAL FREE ENERGY PREDICTED BY IDOCK:   -3.09 KCAL/MOL
REMARK 923 INTER-LIGAND FREE ENERGY PREDICTED BY IDOCK:   -3.22 KCAL/MOL
REMARK 924 INTRA-LIGAND FREE ENERGY PREDICTED BY IDOCK:    0.13 KCAL/MOL
REMARK 927      BINDING AFFINITY PREDICTED BY RF-SCORE:    0.00 PKD
ROOT
HETATM    1  N   UNL     1      -8.418   9.340  68.794  1.00  0.00    -0.127 NA 
HETATM    2  H1  UNL     1      -9.307   8.894  69.017  1.00  0.00     0.000 HD 
HETATM    3  H2  UNL     1      -7.531   8.864  68.957  1.00  0.00     0.000 HD 
HETATM    4  C   UNL     1      -8.461  10.601  68.269  1.00  0.00    -0.127 C  
HETATM    5  N   UNL     1      -7.332  11.167  67.986  1.00  0.00    -0.086 N  
HETATM    6  C   UNL     1      -7.317  12.422  67.429  1.00  0.00    -0.149 C  
HETATM    7  H   UNL     1      -6.455  10.683  68.178  1.00  0.00     0.000 HD 
HETATM    8  N   UNL     1      -8.519  13.149  67.365  1.00  0.00    -0.191 N  
HETATM    9  O   UNL     1      -6.271  12.895  66.988  1.00  0.00    -0.242 OA 
HETATM   10  C   UNL     1      -9.763  11.253  68.047  1.00  0.00    -0.185 C  
HETATM   11  C   UNL     1      -9.718  12.509  67.608  1.00  0.00    -0.196 C  
ENDROOT
BRANCH   8  12
HETATM   12  C   UNL     1      -8.474  14.475  66.725  1.00  0.00    -0.074 C  
HETATM   13  C   UNL     1      -7.599  15.542  67.407  1.00  0.00    -0.201 C  
HETATM   14  S   UNL     1      -8.692  16.301  68.608  1.00  0.00    -0.237 SA 
HETATM   15  C   UNL     1     -10.117  15.998  67.544  1.00  0.00    -0.247 C  
HETATM   16  O   UNL     1      -9.807  15.008  66.553  1.00  0.00    -0.239 OA 
BRANCH  15  17
HETATM   17  C   UNL     1     -11.330  15.576  68.384  1.00  0.00    -0.354 C  
HETATM   18  O   UNL     1     -12.277  14.821  67.628  1.00  0.00    -0.563 OA 
HETATM   19  H   UNL     1     -13.028  14.560  68.147  1.00  0.00     0.000 HD 
ENDBRANCH  15  17
ENDBRANCH   8  12
TORSDOF 2
ENDMDL
MODEL      174
REMARK 921   NORMALIZED FREE ENERGY PREDICTED BY IDOCK:   -2.80 KCAL/MOL
REMARK 922        TOTAL FREE ENERGY PREDICTED BY IDOCK:   -3.09 KCAL/MOL
REMARK 923 INTER-LIGAND FREE ENERGY PREDICTED BY IDOCK:   -3.12 KCAL/MOL
REMARK 924 INTRA-LIGAND FREE ENERGY PREDICTED BY IDOCK:    0.04 KCAL/MOL
REMARK 927      BINDING AFFINITY PREDICTED BY RF-SCORE:    0.00 PKD
ROOT
HETATM    1  N   UNL     1      -8.112   7.409  68.604  1.00  0.00    -0.123 NA 
HETATM    2  H1  UNL     1      -8.793   6.670  68.429  1.00  0.00     0.000 HD 
HETATM    3  H2  UNL     1      -7.171   7.195  68.931  1.00  0.00     0.000 HD 
HETATM    4  C   UNL     1      -8.512   8.696  68.382  1.00  0.00    -0.131 C  
HETATM    5  N   UNL     1      -7.647   9.634  68.605  1.00  0.00    -0.079 N  
HETATM    6  C   UNL     1      -7.985  10.945  68.371  1.00  0.00    -0.127 C  
HETATM    7  H   UNL     1      -6.718   9.400  68.954  1.00  0.00     0.000 HD 
HETATM    8  N   UNL     1      -9.326  11.258  68.089  1.00  0.00    -0.174 N  
HETATM    9  O   UNL     1      -7.125  11.823  68.400  1.00  0.00    -0.073 OA 
HETATM   10  C   UNL     1      -9.880   8.963  67.907  1.00  0.00    -0.205 C  
HETATM   11  C   UNL     1     -10.217  10.246  67.792  1.00  0.00    -0.187 C  
ENDROOT
BRANCH   8  12
HETATM   12  C   UNL     1      -9.644  12.668  67.804  1.00  0.00    -0.197 C  
HETATM   13  C   UNL     1     -11.109  13.099  68.002  1.00  0.00    -0.263 C  
HETATM   14  S   UNL     1     -11.889  12.736  66.428  1.00  0.00    -0.379 SA 
HETATM   15  C   UNL     1     -10.343  13.062  65.556  1.00  0.00    -0.294 C  
HETATM   16  O   UNL     1      -9.233  13.027  66.464  1.00  0.00    -0.240 OA 
BRANCH  15  17
HETATM   17  C   UNL     1     -10.153  12.056  64.414  1.00  0.00    -0.271 C  
HETATM   18  O   UNL     1      -8.888  11.396  64.477  1.00  0.00    -0.383 OA 
HETATM   19  H   UNL     1      -8.771  10.773  63.770  1.00  0.00     0.000 HD 
ENDBRANCH  15  17
ENDBRANCH   8  12
TORSDOF 2
ENDMDL
MODEL      175
REMARK 921   NORMALIZED FREE ENERGY PREDICTED BY IDOCK:   -2.78 KCAL/MOL
REMARK 922        TOTAL FREE ENERGY PREDICTED BY IDOCK:   -3.06 KCAL/MOL
REMARK 923 INTER-LIGAND FREE ENERGY PREDICTED BY IDOCK:   -3.27 KCAL/MOL
REMARK 924 INTRA-LIGAND FREE ENERGY PREDICTED BY IDOCK:    0.21 KCAL/MOL
REMARK 927      BINDING AFFINITY PREDICTED BY RF-SCORE:    0.00 PKD
ROOT
HETATM    1  N   UNL     1      -9.142   3.249  67.597  1.00  0.00    -0.157 NA 
HETATM    2  H1  UNL     1      -9.500   2.407  68.046  1.00  0.00     0.000 HD 
HETATM    3  H2  UNL     1      -8.685   3.211  66.686  1.00  0.00     0.000 HD 
HETATM    4  C   UNL     1      -9.299   4.431  68.263  1.00  0.00    -0.147 C  
HETATM    5  N   UNL     1      -8.844   5.501  67.693  1.00  0.00    -0.107 N  
HETATM    6  C   UNL     1      -9.001   6.721  68.304  1.00  0.00    -0.123 C  
HETATM    7  H   UNL     1      -8.370   5.438  66.792  1.00  0.00     0.000 HD 
HETATM    8  N   UNL     1      -9.469   6.760  69.628  1.00  0.00    -0.147 N  
HETATM    9  O   UNL     1      -8.742   7.759  67.697  1.00  0.00    -0.125 OA 
HETATM   10  C   UNL     1      -9.967   4.445  69.575  1.00  0.00    -0.187 C  
HETATM   11  C   UNL     1     -10.009   5.622  70.196  1.00  0.00    -0.207 C  
ENDROOT
BRANCH   8  12
HETATM   12  C   UNL     1      -9.663   8.086  70.238  1.00  0.00    -0.175 C  
HETATM   13  C   UNL     1      -8.996   8.323  71.605  1.00  0.00    -0.180 C  
HETATM   14  S   UNL     1     -10.209   7.741  72.791  1.00  0.00    -0.327 SA 
HETATM   15  C   UNL     1     -11.555   8.214  71.686  1.00  0.00    -0.279 C  
HETATM   16  O   UNL     1     -11.071   8.400  70.349  1.00  0.00    -0.245 OA 
BRANCH  15  17
HETATM   17  C   UNL     1     -12.672   7.163  71.727  1.00  0.00    -0.339 C  
HETATM   18  O   UNL     1     -12.425   6.147  72.700  1.00  0.00    -0.529 OA 
HETATM   19  H   UNL     1     -13.117   5.497  72.726  1.00  0.00     0.000 HD 
ENDBRANCH  15  17
ENDBRANCH   8  12
TORSDOF 2
ENDMDL
MODEL      176
REMARK 921   NORMALIZED FREE ENERGY PREDICTED BY IDOCK:   -2.77 KCAL/MOL
REMARK 922        TOTAL FREE ENERGY PREDICTED BY IDOCK:   -3.06 KCAL/MOL
REMARK 923 INTER-LIGAND FREE ENERGY PREDICTED BY IDOCK:   -3.20 KCAL/MOL
REMARK 924 INTRA-LIGAND FREE ENERGY PREDICTED BY IDOCK:    0.15 KCAL/MOL
REMARK 927      BINDING AFFINITY PREDICTED BY RF-SCORE:    0.00 PKD
ROOT
HETATM    1  N   UNL     1      -8.490   7.747  64.350  1.00  0.00    -0.374 NA 
HETATM    2  H1  UNL     1      -7.730   8.033  63.732  1.00  0.00     0.000 HD 
HETATM    3  H2  UNL     1      -8.951   6.844  64.240  1.00  0.00     0.000 HD 
HETATM    4  C   UNL     1      -8.866   8.622  65.329  1.00  0.00    -0.135 C  
HETATM    5  N   UNL     1      -9.830   8.260  66.113  1.00  0.00    -0.463 N  
HETATM    6  C   UNL     1     -10.230   9.088  67.133  1.00  0.00    -0.265 C  
HETATM    7  H   UNL     1     -10.293   7.362  65.972  1.00  0.00     0.000 HD 
HETATM    8  N   UNL     1      -9.723  10.398  67.180  1.00  0.00    -0.168 N  
HETATM    9  O   UNL     1     -11.012   8.684  67.992  1.00  0.00    -0.035 OA 
HETATM   10  C   UNL     1      -8.173   9.916  65.455  1.00  0.00    -0.139 C  
HETATM   11  C   UNL     1      -8.651  10.745  66.381  1.00  0.00    -0.158 C  
ENDROOT
BRANCH   8  12
HETATM   12  C   UNL     1     -10.141  11.244  68.311  1.00  0.00    -0.188 C  
HETATM   13  C   UNL     1     -11.445  12.041  68.131  1.00  0.00    -0.322 C  
HETATM   14  S   UNL     1     -10.922  13.567  67.348  1.00  0.00    -0.277 SA 
HETATM   15  C   UNL     1      -9.329  13.485  68.190  1.00  0.00    -0.213 C  
HETATM   16  O   UNL     1      -9.085  12.161  68.685  1.00  0.00    -0.124 OA 
BRANCH  15  17
HETATM   17  C   UNL     1      -8.204  13.936  67.249  1.00  0.00    -0.161 C  
HETATM   18  O   UNL     1      -8.111  15.358  67.159  1.00  0.00    -0.182 OA 
HETATM   19  H   UNL     1      -7.415  15.638  66.577  1.00  0.00     0.000 HD 
ENDBRANCH  15  17
ENDBRANCH   8  12
TORSDOF 2
ENDMDL
MODEL      177
REMARK 921   NORMALIZED FREE ENERGY PREDICTED BY IDOCK:   -2.76 KCAL/MOL
REMARK 922        TOTAL FREE ENERGY PREDICTED BY IDOCK:   -3.05 KCAL/MOL
REMARK 923 INTER-LIGAND FREE ENERGY PREDICTED BY IDOCK:   -3.13 KCAL/MOL
REMARK 924 INTRA-LIGAND FREE ENERGY PREDICTED BY IDOCK:    0.08 KCAL/MOL
REMARK 927      BINDING AFFINITY PREDICTED BY RF-SCORE:    0.00 PKD
ROOT
HETATM    1  N   UNL     1      -5.327   7.582  70.047  1.00  0.00    -0.023 NA 
HETATM    2  H1  UNL     1      -5.266   7.172  69.115  1.00  0.00     0.000 HD 
HETATM    3  H2  UNL     1      -4.539   8.082  70.458  1.00  0.00     0.000 HD 
HETATM    4  C   UNL     1      -6.506   7.435  70.722  1.00  0.00    -0.039 C  
HETATM    5  N   UNL     1      -6.583   7.956  71.905  1.00  0.00    -0.047 N  
HETATM    6  C   UNL     1      -7.754   7.864  72.617  1.00  0.00    -0.114 C  
HETATM    7  H   UNL     1      -5.775   8.432  72.307  1.00  0.00     0.000 HD 
HETATM    8  N   UNL     1      -8.778   7.033  72.132  1.00  0.00    -0.126 N  
HETATM    9  O   UNL     1      -7.902   8.506  73.655  1.00  0.00    -0.362 OA 
HETATM   10  C   UNL     1      -7.621   6.709  70.091  1.00  0.00    -0.096 C  
HETATM   11  C   UNL     1      -8.706   6.541  70.844  1.00  0.00    -0.136 C  
ENDROOT
BRANCH   8  12
HETATM   12  C   UNL     1     -10.034   6.990  72.900  1.00  0.00    -0.187 C  
HETATM   13  C   UNL     1     -11.083   5.958  72.451  1.00  0.00    -0.280 C  
HETATM   14  S   UNL     1     -12.030   6.814  71.192  1.00  0.00    -0.363 SA 
HETATM   15  C   UNL     1     -11.750   8.394  72.018  1.00  0.00    -0.352 C  
HETATM   16  O   UNL     1     -10.656   8.296  72.940  1.00  0.00    -0.320 OA 
BRANCH  15  17
HETATM   17  C   UNL     1     -11.503   9.499  70.984  1.00  0.00    -0.349 C  
HETATM   18  O   UNL     1     -10.136   9.910  70.946  1.00  0.00    -0.337 OA 
HETATM   19  H   UNL     1      -9.982  10.594  70.306  1.00  0.00     0.000 HD 
ENDBRANCH  15  17
ENDBRANCH   8  12
TORSDOF 2
ENDMDL
MODEL      178
REMARK 921   NORMALIZED FREE ENERGY PREDICTED BY IDOCK:   -2.74 KCAL/MOL
REMARK 922        TOTAL FREE ENERGY PREDICTED BY IDOCK:   -3.02 KCAL/MOL
REMARK 923 INTER-LIGAND FREE ENERGY PREDICTED BY IDOCK:   -3.78 KCAL/MOL
REMARK 924 INTRA-LIGAND FREE ENERGY PREDICTED BY IDOCK:    0.76 KCAL/MOL
REMARK 927      BINDING AFFINITY PREDICTED BY RF-SCORE:    0.00 PKD
ROOT
HETATM    1  N   UNL     1     -11.112   5.419  66.133  1.00  0.00    -0.784 NA 
HETATM    2  H1  UNL     1     -11.276   4.472  66.475  1.00  0.00     0.000 HD 
HETATM    3  H2  UNL     1     -11.175   5.640  65.139  1.00  0.00     0.000 HD 
HETATM    4  C   UNL     1     -10.805   6.377  67.056  1.00  0.00    -0.392 C  
HETATM    5  N   UNL     1     -10.598   7.578  66.621  1.00  0.00    -0.498 N  
HETATM    6  C   UNL     1     -10.315   8.588  67.508  1.00  0.00    -0.267 C  
HETATM    7  H   UNL     1     -10.644   7.775  65.621  1.00  0.00     0.000 HD 
HETATM    8  N   UNL     1     -10.055   8.257  68.849  1.00  0.00    -0.194 N  
HETATM    9  O   UNL     1     -10.298   9.759  67.133  1.00  0.00    -0.222 OA 
HETATM   10  C   UNL     1     -10.726   6.016  68.482  1.00  0.00    -0.354 C  
HETATM   11  C   UNL     1     -10.344   6.988  69.308  1.00  0.00    -0.200 C  
ENDROOT
BRANCH   8  12
HETATM   12  C   UNL     1      -9.795   9.368  69.781  1.00  0.00    -0.201 C  
HETATM   13  C   UNL     1      -9.217  10.659  69.173  1.00  0.00    -0.148 C  
HETATM   14  S   UNL     1      -7.443  10.396  69.194  1.00  0.00    -0.125 SA 
HETATM   15  C   UNL     1      -7.584   9.378  70.677  1.00  0.00    -0.144 C  
HETATM   16  O   UNL     1      -8.937   8.941  70.865  1.00  0.00    -0.181 OA 
BRANCH  15  17
HETATM   17  C   UNL     1      -6.625   8.184  70.598  1.00  0.00    -0.037 C  
HETATM   18  O   UNL     1      -5.944   8.118  69.344  1.00  0.00    -0.035 OA 
HETATM   19  H   UNL     1      -5.350   7.378  69.294  1.00  0.00     0.000 HD 
ENDBRANCH  15  17
ENDBRANCH   8  12
TORSDOF 2
ENDMDL
MODEL      179
REMARK 921   NORMALIZED FREE ENERGY PREDICTED BY IDOCK:   -2.74 KCAL/MOL
REMARK 922        TOTAL FREE ENERGY PREDICTED BY IDOCK:   -3.02 KCAL/MOL
REMARK 923 INTER-LIGAND FREE ENERGY PREDICTED BY IDOCK:   -3.17 KCAL/MOL
REMARK 924 INTRA-LIGAND FREE ENERGY PREDICTED BY IDOCK:    0.15 KCAL/MOL
REMARK 927      BINDING AFFINITY PREDICTED BY RF-SCORE:    0.00 PKD
ROOT
HETATM    1  N   UNL     1     -11.150  16.611  64.237  1.00  0.00    -1.336 NA 
HETATM    2  H1  UNL     1     -11.054  17.611  64.415  1.00  0.00     0.000 HD 
HETATM    3  H2  UNL     1     -11.713  16.263  63.462  1.00  0.00     0.000 HD 
HETATM    4  C   UNL     1     -10.495  15.758  65.079  1.00  0.00    -0.301 C  
HETATM    5  N   UNL     1     -10.618  14.489  64.854  1.00  0.00    -0.462 N  
HETATM    6  C   UNL     1      -9.957  13.586  65.651  1.00  0.00    -0.236 C  
HETATM    7  H   UNL     1     -11.204  14.160  64.086  1.00  0.00     0.000 HD 
HETATM    8  N   UNL     1      -9.326  14.048  66.818  1.00  0.00    -0.269 N  
HETATM    9  O   UNL     1      -9.915  12.397  65.340  1.00  0.00    -0.267 OA 
HETATM   10  C   UNL     1      -9.690  16.302  66.186  1.00  0.00    -0.357 C  
HETATM   11  C   UNL     1      -9.149  15.404  67.008  1.00  0.00    -0.227 C  
ENDROOT
BRANCH   8  12
HETATM   12  C   UNL     1      -8.594  13.059  67.627  1.00  0.00    -0.190 C  
HETATM   13  C   UNL     1      -8.680  13.217  69.156  1.00  0.00     0.640 C  
HETATM   14  S   UNL     1      -7.344  14.344  69.556  1.00  0.00     0.060 SA 
HETATM   15  C   UNL     1      -6.367  13.720  68.173  1.00  0.00    -0.125 C  
HETATM   16  O   UNL     1      -7.199  13.013  67.244  1.00  0.00    -0.138 OA 
BRANCH  15  17
HETATM   17  C   UNL     1      -5.624  14.871  67.483  1.00  0.00     0.143 C  
HETATM   18  O   UNL     1      -5.999  16.147  68.002  1.00  0.00    -0.102 OA 
HETATM   19  H   UNL     1      -5.539  16.860  67.575  1.00  0.00     0.000 HD 
ENDBRANCH  15  17
ENDBRANCH   8  12
TORSDOF 2
ENDMDL
MODEL      180
REMARK 921   NORMALIZED FREE ENERGY PREDICTED BY IDOCK:   -2.72 KCAL/MOL
REMARK 922        TOTAL FREE ENERGY PREDICTED BY IDOCK:   -3.00 KCAL/MOL
REMARK 923 INTER-LIGAND FREE ENERGY PREDICTED BY IDOCK:   -3.10 KCAL/MOL
REMARK 924 INTRA-LIGAND FREE ENERGY PREDICTED BY IDOCK:    0.10 KCAL/MOL
REMARK 927      BINDING AFFINITY PREDICTED BY RF-SCORE:    0.00 PKD
ROOT
HETATM    1  N   UNL     1     -10.506  12.693  67.780  1.00  0.00    -0.218 NA 
HETATM    2  H1  UNL     1     -11.154  13.337  68.233  1.00  0.00     0.000 HD 
HETATM    3  H2  UNL     1      -9.893  13.002  67.027  1.00  0.00     0.000 HD 
HETATM    4  C   UNL     1     -10.494  11.401  68.223  1.00  0.00    -0.198 C  
HETATM    5  N   UNL     1      -9.671  10.583  67.648  1.00  0.00    -0.163 N  
HETATM    6  C   UNL     1      -9.595   9.279  68.073  1.00  0.00    -0.142 C  
HETATM    7  H   UNL     1      -9.082  10.906  66.881  1.00  0.00     0.000 HD 
HETATM    8  N   UNL     1     -10.554   8.807  68.984  1.00  0.00    -0.206 N  
HETATM    9  O   UNL     1      -8.697   8.544  67.665  1.00  0.00    -0.134 OA 
HETATM   10  C   UNL     1     -11.394  10.996  69.316  1.00  0.00    -0.350 C  
HETATM   11  C   UNL     1     -11.378   9.703  69.635  1.00  0.00    -0.073 C  
ENDROOT
BRANCH   8  12
HETATM   12  C   UNL     1     -10.417   7.415  69.449  1.00  0.00    -0.217 C  
HETATM   13  C   UNL     1     -11.617   6.820  70.208  1.00  0.00    -0.362 C  
HETATM   14  S   UNL     1     -11.330   7.284  71.916  1.00  0.00    -0.263 SA 
HETATM   15  C   UNL     1      -9.544   7.219  71.661  1.00  0.00    -0.151 C  
HETATM   16  O   UNL     1      -9.231   7.259  70.262  1.00  0.00    -0.155 OA 
BRANCH  15  17
HETATM   17  C   UNL     1      -8.857   8.366  72.413  1.00  0.00    -0.224 C  
HETATM   18  O   UNL     1      -8.576   9.479  71.564  1.00  0.00    -0.245 OA 
HETATM   19  H   UNL     1      -8.150  10.189  72.029  1.00  0.00     0.000 HD 
ENDBRANCH  15  17
ENDBRANCH   8  12
TORSDOF 2
ENDMDL
MODEL      181
REMARK 921   NORMALIZED FREE ENERGY PREDICTED BY IDOCK:   -2.67 KCAL/MOL
REMARK 922        TOTAL FREE ENERGY PREDICTED BY IDOCK:   -2.94 KCAL/MOL
REMARK 923 INTER-LIGAND FREE ENERGY PREDICTED BY IDOCK:   -3.02 KCAL/MOL
REMARK 924 INTRA-LIGAND FREE ENERGY PREDICTED BY IDOCK:    0.08 KCAL/MOL
REMARK 927      BINDING AFFINITY PREDICTED BY RF-SCORE:    0.00 PKD
ROOT
HETATM    1  N   UNL     1      -8.784   7.530  68.228  1.00  0.00    -0.124 NA 
HETATM    2  H1  UNL     1      -9.452   7.156  68.902  1.00  0.00     0.000 HD 
HETATM    3  H2  UNL     1      -8.137   6.920  67.728  1.00  0.00     0.000 HD 
HETATM    4  C   UNL     1      -8.791   8.880  68.020  1.00  0.00    -0.133 C  
HETATM    5  N   UNL     1      -7.943   9.355  67.164  1.00  0.00    -0.102 N  
HETATM    6  C   UNL     1      -7.925  10.701  66.894  1.00  0.00    -0.124 C  
HETATM    7  H   UNL     1      -7.289   8.730  66.692  1.00  0.00     0.000 HD 
HETATM    8  N   UNL     1      -8.687  11.564  67.700  1.00  0.00    -0.138 N  
HETATM    9  O   UNL     1      -7.259  11.139  65.957  1.00  0.00    -0.069 OA 
HETATM   10  C   UNL     1      -9.742   9.727  68.759  1.00  0.00    -0.165 C  
HETATM   11  C   UNL     1      -9.631  11.039  68.561  1.00  0.00    -0.187 C  
ENDROOT
BRANCH   8  12
HETATM   12  C   UNL     1      -8.677  12.996  67.357  1.00  0.00    -0.205 C  
HETATM   13  C   UNL     1      -8.699  13.989  68.533  1.00  0.00    -0.156 C  
HETATM   14  S   UNL     1     -10.443  14.216  68.881  1.00  0.00    -0.185 SA 
HETATM   15  C   UNL     1     -10.852  13.953  67.144  1.00  0.00    -0.284 C  
HETATM   16  O   UNL     1      -9.764  13.317  66.458  1.00  0.00    -0.261 OA 
BRANCH  15  17
HETATM   17  C   UNL     1     -12.140  13.128  67.019  1.00  0.00    -0.307 C  
HETATM   18  O   UNL     1     -11.972  11.985  66.179  1.00  0.00    -0.581 OA 
HETATM   19  H   UNL     1     -12.769  11.474  66.101  1.00  0.00     0.000 HD 
ENDBRANCH  15  17
ENDBRANCH   8  12
TORSDOF 2
ENDMDL
MODEL      182
REMARK 921   NORMALIZED FREE ENERGY PREDICTED BY IDOCK:   -2.65 KCAL/MOL
REMARK 922        TOTAL FREE ENERGY PREDICTED BY IDOCK:   -2.92 KCAL/MOL
REMARK 923 INTER-LIGAND FREE ENERGY PREDICTED BY IDOCK:   -3.00 KCAL/MOL
REMARK 924 INTRA-LIGAND FREE ENERGY PREDICTED BY IDOCK:    0.08 KCAL/MOL
REMARK 927      BINDING AFFINITY PREDICTED BY RF-SCORE:    0.00 PKD
ROOT
HETATM    1  N   UNL     1      -6.593   4.352  69.511  1.00  0.00    -0.033 NA 
HETATM    2  H1  UNL     1      -6.163   4.700  68.654  1.00  0.00     0.000 HD 
HETATM    3  H2  UNL     1      -6.447   3.392  69.824  1.00  0.00     0.000 HD 
HETATM    4  C   UNL     1      -7.371   5.220  70.221  1.00  0.00    -0.067 C  
HETATM    5  N   UNL     1      -7.917   4.777  71.308  1.00  0.00    -0.093 N  
HETATM    6  C   UNL     1      -8.686   5.616  72.078  1.00  0.00    -0.134 C  
HETATM    7  H   UNL     1      -7.778   3.808  71.593  1.00  0.00     0.000 HD 
HETATM    8  N   UNL     1      -9.032   6.878  71.566  1.00  0.00    -0.140 N  
HETATM    9  O   UNL     1      -9.056   5.267  73.198  1.00  0.00    -0.127 OA 
HETATM   10  C   UNL     1      -7.554   6.599  69.736  1.00  0.00    -0.104 C  
HETATM   11  C   UNL     1      -8.391   7.358  70.441  1.00  0.00    -0.129 C  
ENDROOT
BRANCH   8  12
HETATM   12  C   UNL     1      -9.823   7.766  72.435  1.00  0.00    -0.206 C  
HETATM   13  C   UNL     1     -11.283   7.355  72.697  1.00  0.00    -0.332 C  
HETATM   14  S   UNL     1     -12.195   8.085  71.337  1.00  0.00    -0.299 SA 
HETATM   15  C   UNL     1     -11.023   9.455  71.251  1.00  0.00    -0.370 C  
HETATM   16  O   UNL     1      -9.806   9.124  71.934  1.00  0.00    -0.289 OA 
BRANCH  15  17
HETATM   17  C   UNL     1     -10.750   9.831  69.789  1.00  0.00    -0.256 C  
HETATM   18  O   UNL     1      -9.559  10.606  69.642  1.00  0.00    -0.419 OA 
HETATM   19  H   UNL     1      -9.390  10.839  68.737  1.00  0.00     0.000 HD 
ENDBRANCH  15  17
ENDBRANCH   8  12
TORSDOF 2
ENDMDL
MODEL      183
REMARK 921   NORMALIZED FREE ENERGY PREDICTED BY IDOCK:   -2.65 KCAL/MOL
REMARK 922        TOTAL FREE ENERGY PREDICTED BY IDOCK:   -2.91 KCAL/MOL
REMARK 923 INTER-LIGAND FREE ENERGY PREDICTED BY IDOCK:   -3.19 KCAL/MOL
REMARK 924 INTRA-LIGAND FREE ENERGY PREDICTED BY IDOCK:    0.28 KCAL/MOL
REMARK 927      BINDING AFFINITY PREDICTED BY RF-SCORE:    0.00 PKD
ROOT
HETATM    1  N   UNL     1      -9.952   9.343  65.222  1.00  0.00    -0.382 NA 
HETATM    2  H1  UNL     1     -10.092   8.822  64.357  1.00  0.00     0.000 HD 
HETATM    3  H2  UNL     1     -10.108  10.350  65.266  1.00  0.00     0.000 HD 
HETATM    4  C   UNL     1      -9.549   8.639  66.321  1.00  0.00    -0.252 C  
HETATM    5  N   UNL     1      -9.372   9.300  67.420  1.00  0.00    -0.126 N  
HETATM    6  C   UNL     1      -8.995   8.638  68.563  1.00  0.00    -0.139 C  
HETATM    7  H   UNL     1      -9.511  10.310  67.437  1.00  0.00     0.000 HD 
HETATM    8  N   UNL     1      -8.612   7.290  68.469  1.00  0.00    -0.125 N  
HETATM    9  O   UNL     1      -9.002   9.218  69.648  1.00  0.00    -0.140 OA 
HETATM   10  C   UNL     1      -9.338   7.185  66.218  1.00  0.00    -0.154 C  
HETATM   11  C   UNL     1      -8.869   6.585  67.310  1.00  0.00    -0.112 C  
ENDROOT
BRANCH   8  12
HETATM   12  C   UNL     1      -8.253   6.600  69.721  1.00  0.00    -0.127 C  
HETATM   13  C   UNL     1      -8.211   5.062  69.675  1.00  0.00    -0.088 C  
HETATM   14  S   UNL     1      -9.896   4.566  70.034  1.00  0.00    -0.209 SA 
HETATM   15  C   UNL     1     -10.131   6.022  71.075  1.00  0.00    -0.192 C  
HETATM   16  O   UNL     1      -9.126   7.008  70.801  1.00  0.00    -0.153 OA 
BRANCH  15  17
HETATM   17  C   UNL     1     -11.538   6.599  70.876  1.00  0.00    -0.361 C  
HETATM   18  O   UNL     1     -11.871   6.750  69.495  1.00  0.00    -0.635 OA 
HETATM   19  H   UNL     1     -12.743   7.107  69.372  1.00  0.00     0.000 HD 
ENDBRANCH  15  17
ENDBRANCH   8  12
TORSDOF 2
ENDMDL
MODEL      184
REMARK 921   NORMALIZED FREE ENERGY PREDICTED BY IDOCK:   -2.64 KCAL/MOL
REMARK 922        TOTAL FREE ENERGY PREDICTED BY IDOCK:   -2.91 KCAL/MOL
REMARK 923 INTER-LIGAND FREE ENERGY PREDICTED BY IDOCK:   -3.06 KCAL/MOL
REMARK 924 INTRA-LIGAND FREE ENERGY PREDICTED BY IDOCK:    0.15 KCAL/MOL
REMARK 927      BINDING AFFINITY PREDICTED BY RF-SCORE:    0.00 PKD
ROOT
HETATM    1  N   UNL     1     -10.461   6.742  74.483  1.00  0.00    -0.464 NA 
HETATM    2  H1  UNL     1     -10.328   7.747  74.591  1.00  0.00     0.000 HD 
HETATM    3  H2  UNL     1     -10.864   6.178  75.231  1.00  0.00     0.000 HD 
HETATM    4  C   UNL     1     -10.078   6.182  73.298  1.00  0.00    -0.196 C  
HETATM    5  N   UNL     1     -10.247   4.905  73.161  1.00  0.00    -0.160 N  
HETATM    6  C   UNL     1      -9.907   4.294  71.978  1.00  0.00    -0.175 C  
HETATM    7  H   UNL     1     -10.631   4.355  73.929  1.00  0.00     0.000 HD 
HETATM    8  N   UNL     1      -9.195   5.029  71.016  1.00  0.00    -0.143 N  
HETATM    9  O   UNL     1     -10.230   3.126  71.767  1.00  0.00    -0.106 OA 
HETATM   10  C   UNL     1      -9.503   7.032  72.242  1.00  0.00    -0.154 C  
HETATM   11  C   UNL     1      -9.082   6.399  71.149  1.00  0.00    -0.150 C  
ENDROOT
BRANCH   8  12
HETATM   12  C   UNL     1      -8.883   4.355  69.744  1.00  0.00    -0.084 C  
HETATM   13  C   UNL     1      -7.560   4.746  69.061  1.00  0.00    -0.067 C  
HETATM   14  S   UNL     1      -7.990   6.166  68.055  1.00  0.00    -0.111 SA 
HETATM   15  C   UNL     1      -9.660   5.525  67.816  1.00  0.00    -0.123 C  
HETATM   16  O   UNL     1      -9.962   4.522  68.796  1.00  0.00    -0.139 OA 
BRANCH  15  17
HETATM   17  C   UNL     1     -10.682   6.668  67.865  1.00  0.00    -0.274 C  
HETATM   18  O   UNL     1     -11.498   6.716  66.694  1.00  0.00    -0.709 OA 
HETATM   19  H   UNL     1     -12.130   7.424  66.723  1.00  0.00     0.000 HD 
ENDBRANCH  15  17
ENDBRANCH   8  12
TORSDOF 2
ENDMDL
MODEL      185
REMARK 921   NORMALIZED FREE ENERGY PREDICTED BY IDOCK:   -2.62 KCAL/MOL
REMARK 922        TOTAL FREE ENERGY PREDICTED BY IDOCK:   -2.89 KCAL/MOL
REMARK 923 INTER-LIGAND FREE ENERGY PREDICTED BY IDOCK:   -3.01 KCAL/MOL
REMARK 924 INTRA-LIGAND FREE ENERGY PREDICTED BY IDOCK:    0.12 KCAL/MOL
REMARK 927      BINDING AFFINITY PREDICTED BY RF-SCORE:    0.00 PKD
ROOT
HETATM    1  N   UNL     1      -9.441   3.236  66.299  1.00  0.00    -0.358 NA 
HETATM    2  H1  UNL     1      -9.072   2.329  66.587  1.00  0.00     0.000 HD 
HETATM    3  H2  UNL     1      -9.539   3.479  65.313  1.00  0.00     0.000 HD 
HETATM    4  C   UNL     1      -9.797   4.111  67.285  1.00  0.00    -0.123 C  
HETATM    5  N   UNL     1     -10.265   5.262  66.919  1.00  0.00    -0.216 N  
HETATM    6  C   UNL     1     -10.667   6.170  67.868  1.00  0.00    -0.296 C  
HETATM    7  H   UNL     1     -10.334   5.494  65.928  1.00  0.00     0.000 HD 
HETATM    8  N   UNL     1     -10.373   5.913  69.218  1.00  0.00    -0.220 N  
HETATM    9  O   UNL     1     -11.279   7.184  67.539  1.00  0.00    -0.147 OA 
HETATM   10  C   UNL     1      -9.643   3.721  68.697  1.00  0.00    -0.173 C  
HETATM   11  C   UNL     1      -9.937   4.658  69.596  1.00  0.00    -0.211 C  
ENDROOT
BRANCH   8  12
HETATM   12  C   UNL     1     -10.855   6.887  70.212  1.00  0.00    -0.257 C  
HETATM   13  C   UNL     1     -10.022   8.171  70.380  1.00  0.00    -0.188 C  
HETATM   14  S   UNL     1      -8.783   7.733  71.599  1.00  0.00    -0.124 SA 
HETATM   15  C   UNL     1      -9.927   6.583  72.389  1.00  0.00    -0.170 C  
HETATM   16  O   UNL     1     -11.013   6.264  71.508  1.00  0.00    -0.250 OA 
BRANCH  15  17
HETATM   17  C   UNL     1      -9.187   5.315  72.833  1.00  0.00    -0.131 C  
HETATM   18  O   UNL     1     -10.048   4.176  72.889  1.00  0.00    -0.146 OA 
HETATM   19  H   UNL     1      -9.590   3.391  73.164  1.00  0.00     0.000 HD 
ENDBRANCH  15  17
ENDBRANCH   8  12
TORSDOF 2
ENDMDL
MODEL      186
REMARK 921   NORMALIZED FREE ENERGY PREDICTED BY IDOCK:   -2.61 KCAL/MOL
REMARK 922        TOTAL FREE ENERGY PREDICTED BY IDOCK:   -2.87 KCAL/MOL
REMARK 923 INTER-LIGAND FREE ENERGY PREDICTED BY IDOCK:   -3.06 KCAL/MOL
REMARK 924 INTRA-LIGAND FREE ENERGY PREDICTED BY IDOCK:    0.19 KCAL/MOL
REMARK 927      BINDING AFFINITY PREDICTED BY RF-SCORE:    0.00 PKD
ROOT
HETATM    1  N   UNL     1      -7.575   6.149  67.595  1.00  0.00    -0.095 NA 
HETATM    2  H1  UNL     1      -6.571   6.117  67.773  1.00  0.00     0.000 HD 
HETATM    3  H2  UNL     1      -7.950   6.038  66.653  1.00  0.00     0.000 HD 
HETATM    4  C   UNL     1      -8.398   6.346  68.668  1.00  0.00    -0.121 C  
HETATM    5  N   UNL     1      -9.672   6.386  68.441  1.00  0.00    -0.130 N  
HETATM    6  C   UNL     1     -10.547   6.552  69.487  1.00  0.00    -0.246 C  
HETATM    7  H   UNL     1     -10.025   6.295  67.489  1.00  0.00     0.000 HD 
HETATM    8  N   UNL     1     -10.034   6.879  70.754  1.00  0.00    -0.190 N  
HETATM    9  O   UNL     1     -11.756   6.408  69.314  1.00  0.00    -0.277 OA 
HETATM   10  C   UNL     1      -7.817   6.499  70.012  1.00  0.00    -0.111 C  
HETATM   11  C   UNL     1      -8.678   6.767  70.991  1.00  0.00    -0.137 C  
ENDROOT
BRANCH   8  12
HETATM   12  C   UNL     1     -10.998   7.009  71.860  1.00  0.00    -0.233 C  
HETATM   13  C   UNL     1     -10.473   7.639  73.162  1.00  0.00    -0.374 C  
HETATM   14  S   UNL     1      -9.801   6.253  74.080  1.00  0.00    -0.290 SA 
HETATM   15  C   UNL     1     -11.018   5.142  73.346  1.00  0.00    -0.320 C  
HETATM   16  O   UNL     1     -11.598   5.730  72.173  1.00  0.00    -0.276 OA 
BRANCH  15  17
HETATM   17  C   UNL     1     -10.376   3.786  73.023  1.00  0.00    -0.167 C  
HETATM   18  O   UNL     1      -9.395   3.408  73.989  1.00  0.00    -0.092 OA 
HETATM   19  H   UNL     1      -8.997   2.569  73.789  1.00  0.00     0.000 HD 
ENDBRANCH  15  17
ENDBRANCH   8  12
TORSDOF 2
ENDMDL
MODEL      187
REMARK 921   NORMALIZED FREE ENERGY PREDICTED BY IDOCK:   -2.59 KCAL/MOL
REMARK 922        TOTAL FREE ENERGY PREDICTED BY IDOCK:   -2.85 KCAL/MOL
REMARK 923 INTER-LIGAND FREE ENERGY PREDICTED BY IDOCK:   -3.08 KCAL/MOL
REMARK 924 INTRA-LIGAND FREE ENERGY PREDICTED BY IDOCK:    0.23 KCAL/MOL
REMARK 927      BINDING AFFINITY PREDICTED BY RF-SCORE:    0.00 PKD
ROOT
HETATM    1  N   UNL     1      -5.504   9.819  68.664  1.00  0.00    -0.036 NA 
HETATM    2  H1  UNL     1      -5.285  10.067  69.629  1.00  0.00     0.000 HD 
HETATM    3  H2  UNL     1      -4.866   9.253  68.105  1.00  0.00     0.000 HD 
HETATM    4  C   UNL     1      -6.684  10.276  68.151  1.00  0.00    -0.058 C  
HETATM    5  N   UNL     1      -6.962   9.962  66.926  1.00  0.00    -0.087 N  
HETATM    6  C   UNL     1      -8.149  10.369  66.367  1.00  0.00    -0.129 C  
HETATM    7  H   UNL     1      -6.300   9.413  66.376  1.00  0.00     0.000 HD 
HETATM    8  N   UNL     1      -8.946  11.290  67.068  1.00  0.00    -0.151 N  
HETATM    9  O   UNL     1      -8.507   9.927  65.277  1.00  0.00    -0.136 OA 
HETATM   10  C   UNL     1      -7.578  11.090  68.992  1.00  0.00    -0.134 C  
HETATM   11  C   UNL     1      -8.670  11.563  68.393  1.00  0.00    -0.160 C  
ENDROOT
BRANCH   8  12
HETATM   12  C   UNL     1     -10.230  11.674  66.458  1.00  0.00    -0.214 C  
HETATM   13  C   UNL     1     -10.477  13.179  66.257  1.00  0.00    -0.285 C  
HETATM   14  S   UNL     1     -11.199  13.716  67.808  1.00  0.00    -0.299 SA 
HETATM   15  C   UNL     1     -11.962  12.098  68.044  1.00  0.00    -0.166 C  
HETATM   16  O   UNL     1     -11.339  11.117  67.203  1.00  0.00    -0.395 OA 
BRANCH  15  17
HETATM   17  C   UNL     1     -11.889  11.685  69.520  1.00  0.00    -0.348 C  
HETATM   18  O   UNL     1     -12.090  10.282  69.700  1.00  0.00    -0.483 OA 
HETATM   19  H   UNL     1     -12.045  10.026  70.614  1.00  0.00     0.000 HD 
ENDBRANCH  15  17
ENDBRANCH   8  12
TORSDOF 2
ENDMDL
MODEL      188
REMARK 921   NORMALIZED FREE ENERGY PREDICTED BY IDOCK:   -2.59 KCAL/MOL
REMARK 922        TOTAL FREE ENERGY PREDICTED BY IDOCK:   -2.85 KCAL/MOL
REMARK 923 INTER-LIGAND FREE ENERGY PREDICTED BY IDOCK:   -2.98 KCAL/MOL
REMARK 924 INTRA-LIGAND FREE ENERGY PREDICTED BY IDOCK:    0.14 KCAL/MOL
REMARK 927      BINDING AFFINITY PREDICTED BY RF-SCORE:    0.00 PKD
ROOT
HETATM    1  N   UNL     1      -9.637   4.930  64.485  1.00  0.00    -0.357 NA 
HETATM    2  H1  UNL     1     -10.544   5.127  64.063  1.00  0.00     0.000 HD 
HETATM    3  H2  UNL     1      -8.848   4.614  63.922  1.00  0.00     0.000 HD 
HETATM    4  C   UNL     1      -9.521   5.107  65.835  1.00  0.00    -0.156 C  
HETATM    5  N   UNL     1      -8.369   4.856  66.371  1.00  0.00    -0.108 N  
HETATM    6  C   UNL     1      -8.187   5.045  67.719  1.00  0.00    -0.098 C  
HETATM    7  H   UNL     1      -7.599   4.519  65.793  1.00  0.00     0.000 HD 
HETATM    8  N   UNL     1      -9.309   5.310  68.523  1.00  0.00    -0.117 N  
HETATM    9  O   UNL     1      -7.060   4.989  68.208  1.00  0.00    -0.060 OA 
HETATM   10  C   UNL     1     -10.684   5.568  66.612  1.00  0.00    -0.332 C  
HETATM   11  C   UNL     1     -10.512   5.637  67.931  1.00  0.00    -0.211 C  
ENDROOT
BRANCH   8  12
HETATM   12  C   UNL     1      -9.072   5.547  69.957  1.00  0.00    -0.135 C  
HETATM   13  C   UNL     1     -10.253   5.278  70.907  1.00  0.00    -0.234 C  
HETATM   14  S   UNL     1     -11.157   6.826  70.931  1.00  0.00    -0.295 SA 
HETATM   15  C   UNL     1      -9.630   7.752  70.676  1.00  0.00    -0.166 C  
HETATM   16  O   UNL     1      -8.592   6.893  70.184  1.00  0.00    -0.138 OA 
BRANCH  15  17
HETATM   17  C   UNL     1      -9.872   8.927  69.719  1.00  0.00    -0.180 C  
HETATM   18  O   UNL     1     -10.248  10.119  70.409  1.00  0.00    -0.398 OA 
HETATM   19  H   UNL     1     -10.399  10.846  69.816  1.00  0.00     0.000 HD 
ENDBRANCH  15  17
ENDBRANCH   8  12
TORSDOF 2
ENDMDL
MODEL      189
REMARK 921   NORMALIZED FREE ENERGY PREDICTED BY IDOCK:   -2.49 KCAL/MOL
REMARK 922        TOTAL FREE ENERGY PREDICTED BY IDOCK:   -2.74 KCAL/MOL
REMARK 923 INTER-LIGAND FREE ENERGY PREDICTED BY IDOCK:   -3.02 KCAL/MOL
REMARK 924 INTRA-LIGAND FREE ENERGY PREDICTED BY IDOCK:    0.28 KCAL/MOL
REMARK 927      BINDING AFFINITY PREDICTED BY RF-SCORE:    0.00 PKD
ROOT
HETATM    1  N   UNL     1      -7.418   6.613  66.340  1.00  0.00    -0.083 NA 
HETATM    2  H1  UNL     1      -6.834   5.812  66.580  1.00  0.00     0.000 HD 
HETATM    3  H2  UNL     1      -7.356   7.059  65.425  1.00  0.00     0.000 HD 
HETATM    4  C   UNL     1      -8.288   7.063  67.293  1.00  0.00    -0.122 C  
HETATM    5  N   UNL     1      -9.029   8.080  66.988  1.00  0.00    -0.134 N  
HETATM    6  C   UNL     1      -9.943   8.557  67.897  1.00  0.00    -0.181 C  
HETATM    7  H   UNL     1      -8.936   8.526  66.076  1.00  0.00     0.000 HD 
HETATM    8  N   UNL     1      -9.911   8.061  69.212  1.00  0.00    -0.175 N  
HETATM    9  O   UNL     1     -10.776   9.396  67.560  1.00  0.00    -0.280 OA 
HETATM   10  C   UNL     1      -8.349   6.389  68.600  1.00  0.00    -0.121 C  
HETATM   11  C   UNL     1      -9.163   6.937  69.501  1.00  0.00    -0.148 C  
ENDROOT
BRANCH   8  12
HETATM   12  C   UNL     1     -10.930   8.565  70.148  1.00  0.00    -0.216 C  
HETATM   13  C   UNL     1     -10.416   9.316  71.390  1.00  0.00    -0.338 C  
HETATM   14  S   UNL     1     -10.130   8.023  72.597  1.00  0.00    -0.313 SA 
HETATM   15  C   UNL     1     -11.470   7.036  71.899  1.00  0.00    -0.268 C  
HETATM   16  O   UNL     1     -11.803   7.496  70.582  1.00  0.00    -0.267 OA 
BRANCH  15  17
HETATM   17  C   UNL     1     -11.087   5.551  71.885  1.00  0.00    -0.166 C  
HETATM   18  O   UNL     1     -10.708   5.076  73.177  1.00  0.00    -0.210 OA 
HETATM   19  H   UNL     1     -10.471   4.157  73.168  1.00  0.00     0.000 HD 
ENDBRANCH  15  17
ENDBRANCH   8  12
TORSDOF 2
ENDMDL
MODEL      190
REMARK 921   NORMALIZED FREE ENERGY PREDICTED BY IDOCK:   -2.44 KCAL/MOL
REMARK 922        TOTAL FREE ENERGY PREDICTED BY IDOCK:   -2.68 KCAL/MOL
REMARK 923 INTER-LIGAND FREE ENERGY PREDICTED BY IDOCK:   -2.79 KCAL/MOL
REMARK 924 INTRA-LIGAND FREE ENERGY PREDICTED BY IDOCK:    0.12 KCAL/MOL
REMARK 927      BINDING AFFINITY PREDICTED BY RF-SCORE:    0.00 PKD
ROOT
HETATM    1  N   UNL     1      -6.713   4.293  68.897  1.00  0.00    -0.045 NA 
HETATM    2  H1  UNL     1      -6.282   5.086  68.422  1.00  0.00     0.000 HD 
HETATM    3  H2  UNL     1      -6.420   3.336  68.702  1.00  0.00     0.000 HD 
HETATM    4  C   UNL     1      -7.697   4.563  69.805  1.00  0.00    -0.054 C  
HETATM    5  N   UNL     1      -8.243   3.556  70.408  1.00  0.00    -0.052 N  
HETATM    6  C   UNL     1      -9.217   3.771  71.353  1.00  0.00    -0.126 C  
HETATM    7  H   UNL     1      -7.952   2.605  70.182  1.00  0.00     0.000 HD 
HETATM    8  N   UNL     1      -9.744   5.065  71.499  1.00  0.00    -0.162 N  
HETATM    9  O   UNL     1      -9.611   2.846  72.061  1.00  0.00    -0.120 OA 
HETATM   10  C   UNL     1      -8.088   5.960  70.061  1.00  0.00    -0.109 C  
HETATM   11  C   UNL     1      -9.108   6.134  70.899  1.00  0.00    -0.150 C  
ENDROOT
BRANCH   8  12
HETATM   12  C   UNL     1     -10.758   5.268  72.549  1.00  0.00    -0.236 C  
HETATM   13  C   UNL     1     -11.880   6.274  72.240  1.00  0.00    -0.278 C  
HETATM   14  S   UNL     1     -11.209   7.853  72.762  1.00  0.00    -0.355 SA 
HETATM   15  C   UNL     1     -10.244   7.045  74.055  1.00  0.00    -0.308 C  
HETATM   16  O   UNL     1     -10.134   5.638  73.801  1.00  0.00    -0.179 OA 
BRANCH  15  17
HETATM   17  C   UNL     1      -8.858   7.694  74.170  1.00  0.00    -0.228 C  
HETATM   18  O   UNL     1      -8.637   8.681  73.162  1.00  0.00    -0.393 OA 
HETATM   19  H   UNL     1      -7.779   9.083  73.233  1.00  0.00     0.000 HD 
ENDBRANCH  15  17
ENDBRANCH   8  12
TORSDOF 2
ENDMDL
MODEL      191
REMARK 921   NORMALIZED FREE ENERGY PREDICTED BY IDOCK:   -2.32 KCAL/MOL
REMARK 922        TOTAL FREE ENERGY PREDICTED BY IDOCK:   -2.55 KCAL/MOL
REMARK 923 INTER-LIGAND FREE ENERGY PREDICTED BY IDOCK:   -2.61 KCAL/MOL
REMARK 924 INTRA-LIGAND FREE ENERGY PREDICTED BY IDOCK:    0.06 KCAL/MOL
REMARK 927      BINDING AFFINITY PREDICTED BY RF-SCORE:    0.00 PKD
ROOT
HETATM    1  N   UNL     1     -10.402   4.288  74.125  1.00  0.00    -0.205 NA 
HETATM    2  H1  UNL     1     -10.077   3.337  74.296  1.00  0.00     0.000 HD 
HETATM    3  H2  UNL     1     -10.953   4.792  74.820  1.00  0.00     0.000 HD 
HETATM    4  C   UNL     1     -10.070   4.861  72.930  1.00  0.00    -0.166 C  
HETATM    5  N   UNL     1     -10.483   6.068  72.714  1.00  0.00    -0.206 N  
HETATM    6  C   UNL     1     -10.154   6.704  71.541  1.00  0.00    -0.182 C  
HETATM    7  H   UNL     1     -11.052   6.547  73.412  1.00  0.00     0.000 HD 
HETATM    8  N   UNL     1      -9.549   5.959  70.514  1.00  0.00    -0.170 N  
HETATM    9  O   UNL     1     -10.379   7.905  71.400  1.00  0.00    -0.195 OA 
HETATM   10  C   UNL     1      -9.271   4.100  71.955  1.00  0.00    -0.176 C  
HETATM   11  C   UNL     1      -9.058   4.697  70.784  1.00  0.00    -0.130 C  
ENDROOT
BRANCH   8  12
HETATM   12  C   UNL     1      -9.173   6.682  69.287  1.00  0.00    -0.140 C  
HETATM   13  C   UNL     1     -10.315   7.043  68.321  1.00  0.00    -0.194 C  
HETATM   14  S   UNL     1     -10.472   5.599  67.269  1.00  0.00    -0.256 SA 
HETATM   15  C   UNL     1      -8.708   5.255  67.432  1.00  0.00    -0.106 C  
HETATM   16  O   UNL     1      -8.157   5.957  68.555  1.00  0.00    -0.104 OA 
BRANCH  15  17
HETATM   17  C   UNL     1      -8.469   3.745  67.555  1.00  0.00    -0.096 C  
HETATM   18  O   UNL     1      -9.679   3.020  67.776  1.00  0.00    -0.280 OA 
HETATM   19  H   UNL     1      -9.531   2.085  67.852  1.00  0.00     0.000 HD 
ENDBRANCH  15  17
ENDBRANCH   8  12
TORSDOF 2
ENDMDL
MODEL      192
REMARK 921   NORMALIZED FREE ENERGY PREDICTED BY IDOCK:   -2.31 KCAL/MOL
REMARK 922        TOTAL FREE ENERGY PREDICTED BY IDOCK:   -2.54 KCAL/MOL
REMARK 923 INTER-LIGAND FREE ENERGY PREDICTED BY IDOCK:   -2.61 KCAL/MOL
REMARK 924 INTRA-LIGAND FREE ENERGY PREDICTED BY IDOCK:    0.07 KCAL/MOL
REMARK 927      BINDING AFFINITY PREDICTED BY RF-SCORE:    0.00 PKD
ROOT
HETATM    1  N   UNL     1     -12.898   6.927  70.520  1.00  0.00    -0.451 NA 
HETATM    2  H1  UNL     1     -13.191   7.469  71.333  1.00  0.00     0.000 HD 
HETATM    3  H2  UNL     1     -13.571   6.397  69.967  1.00  0.00     0.000 HD 
HETATM    4  C   UNL     1     -11.570   6.938  70.203  1.00  0.00    -0.289 C  
HETATM    5  N   UNL     1     -11.198   6.249  69.172  1.00  0.00    -0.474 N  
HETATM    6  C   UNL     1      -9.879   6.249  68.789  1.00  0.00    -0.137 C  
HETATM    7  H   UNL     1     -11.884   5.708  68.645  1.00  0.00     0.000 HD 
HETATM    8  N   UNL     1      -8.926   6.830  69.642  1.00  0.00    -0.143 N  
HETATM    9  O   UNL     1      -9.544   5.754  67.714  1.00  0.00    -0.111 OA 
HETATM   10  C   UNL     1     -10.631   7.719  71.026  1.00  0.00    -0.226 C  
HETATM   11  C   UNL     1      -9.344   7.614  70.700  1.00  0.00    -0.163 C  
ENDROOT
BRANCH   8  12
HETATM   12  C   UNL     1      -7.527   6.847  69.182  1.00  0.00    -0.095 C  
HETATM   13  C   UNL     1      -6.736   5.535  69.327  1.00  0.00    -0.056 C  
HETATM   14  S   UNL     1      -6.057   5.614  70.984  1.00  0.00    -0.034 SA 
HETATM   15  C   UNL     1      -5.957   7.413  70.887  1.00  0.00    -0.035 C  
HETATM   16  O   UNL     1      -6.786   7.909  69.827  1.00  0.00    -0.041 OA 
BRANCH  15  17
HETATM   17  C   UNL     1      -6.345   8.042  72.231  1.00  0.00    -0.056 C  
HETATM   18  O   UNL     1      -6.525   9.455  72.137  1.00  0.00    -0.299 OA 
HETATM   19  H   UNL     1      -6.765   9.844  72.969  1.00  0.00     0.000 HD 
ENDBRANCH  15  17
ENDBRANCH   8  12
TORSDOF 2
ENDMDL
MODEL      193
REMARK 921   NORMALIZED FREE ENERGY PREDICTED BY IDOCK:   -2.21 KCAL/MOL
REMARK 922        TOTAL FREE ENERGY PREDICTED BY IDOCK:   -2.42 KCAL/MOL
REMARK 923 INTER-LIGAND FREE ENERGY PREDICTED BY IDOCK:   -2.50 KCAL/MOL
REMARK 924 INTRA-LIGAND FREE ENERGY PREDICTED BY IDOCK:    0.08 KCAL/MOL
REMARK 927      BINDING AFFINITY PREDICTED BY RF-SCORE:    0.00 PKD
ROOT
HETATM    1  N   UNL     1      -6.605  10.980  65.779  1.00  0.00    -0.357 NA 
HETATM    2  H1  UNL     1      -5.635  11.195  66.012  1.00  0.00     0.000 HD 
HETATM    3  H2  UNL     1      -7.086  11.463  65.020  1.00  0.00     0.000 HD 
HETATM    4  C   UNL     1      -7.232  10.021  66.522  1.00  0.00    -0.101 C  
HETATM    5  N   UNL     1      -8.463   9.749  66.226  1.00  0.00    -0.123 N  
HETATM    6  C   UNL     1      -9.133   8.772  66.922  1.00  0.00    -0.139 C  
HETATM    7  H   UNL     1      -8.934  10.259  65.479  1.00  0.00     0.000 HD 
HETATM    8  N   UNL     1      -8.537   8.231  68.073  1.00  0.00    -0.131 N  
HETATM    9  O   UNL     1     -10.232   8.377  66.535  1.00  0.00    -0.293 OA 
HETATM   10  C   UNL     1      -6.500   9.346  67.607  1.00  0.00    -0.062 C  
HETATM   11  C   UNL     1      -7.205   8.483  68.336  1.00  0.00    -0.085 C  
ENDROOT
BRANCH   8  12
HETATM   12  C   UNL     1      -9.266   7.158  68.771  1.00  0.00    -0.136 C  
HETATM   13  C   UNL     1     -10.557   7.563  69.504  1.00  0.00    -0.236 C  
HETATM   14  S   UNL     1      -9.998   8.066  71.131  1.00  0.00    -0.176 SA 
HETATM   15  C   UNL     1      -8.633   6.889  71.055  1.00  0.00    -0.135 C  
HETATM   16  O   UNL     1      -8.400   6.470  69.704  1.00  0.00    -0.127 OA 
BRANCH  15  17
HETATM   17  C   UNL     1      -7.367   7.501  71.669  1.00  0.00    -0.075 C  
HETATM   18  O   UNL     1      -7.563   8.854  72.079  1.00  0.00    -0.325 OA 
HETATM   19  H   UNL     1      -6.779   9.233  72.459  1.00  0.00     0.000 HD 
ENDBRANCH  15  17
ENDBRANCH   8  12
TORSDOF 2
ENDMDL
MODEL      194
REMARK 921   NORMALIZED FREE ENERGY PREDICTED BY IDOCK:   -2.18 KCAL/MOL
REMARK 922        TOTAL FREE ENERGY PREDICTED BY IDOCK:   -2.39 KCAL/MOL
REMARK 923 INTER-LIGAND FREE ENERGY PREDICTED BY IDOCK:   -2.68 KCAL/MOL
REMARK 924 INTRA-LIGAND FREE ENERGY PREDICTED BY IDOCK:    0.28 KCAL/MOL
REMARK 927      BINDING AFFINITY PREDICTED BY RF-SCORE:    0.00 PKD
ROOT
HETATM    1  N   UNL     1      -6.083   8.007  65.331  1.00  0.00    -0.044 NA 
HETATM    2  H1  UNL     1      -6.550   7.174  64.974  1.00  0.00     0.000 HD 
HETATM    3  H2  UNL     1      -5.078   8.141  65.218  1.00  0.00     0.000 HD 
HETATM    4  C   UNL     1      -6.856   8.936  65.967  1.00  0.00    -0.076 C  
HETATM    5  N   UNL     1      -6.263   9.994  66.421  1.00  0.00    -0.065 N  
HETATM    6  C   UNL     1      -6.997  10.976  67.042  1.00  0.00    -0.117 C  
HETATM    7  H   UNL     1      -5.254  10.099  66.317  1.00  0.00     0.000 HD 
HETATM    8  N   UNL     1      -8.343  10.719  67.355  1.00  0.00    -0.119 N  
HETATM    9  O   UNL     1      -6.483  12.060  67.311  1.00  0.00    -0.121 OA 
HETATM   10  C   UNL     1      -8.304   8.707  66.107  1.00  0.00    -0.127 C  
HETATM   11  C   UNL     1      -8.974   9.619  66.808  1.00  0.00    -0.138 C  
ENDROOT
BRANCH   8  12
HETATM   12  C   UNL     1      -9.109  11.808  67.984  1.00  0.00    -0.180 C  
HETATM   13  C   UNL     1     -10.583  11.512  68.318  1.00  0.00    -0.200 C  
HETATM   14  S   UNL     1     -11.466  11.931  66.815  1.00  0.00    -0.264 SA 
HETATM   15  C   UNL     1     -10.252  13.209  66.426  1.00  0.00    -0.286 C  
HETATM   16  O   UNL     1      -9.048  13.011  67.181  1.00  0.00    -0.209 OA 
BRANCH  15  17
HETATM   17  C   UNL     1      -9.960  13.226  64.920  1.00  0.00    -0.132 C  
HETATM   18  O   UNL     1     -10.838  14.099  64.208  1.00  0.00    -0.600 OA 
HETATM   19  H   UNL     1     -10.658  14.110  63.276  1.00  0.00     0.000 HD 
ENDBRANCH  15  17
ENDBRANCH   8  12
TORSDOF 2
ENDMDL
MODEL      195
REMARK 921   NORMALIZED FREE ENERGY PREDICTED BY IDOCK:   -2.18 KCAL/MOL
REMARK 922        TOTAL FREE ENERGY PREDICTED BY IDOCK:   -2.39 KCAL/MOL
REMARK 923 INTER-LIGAND FREE ENERGY PREDICTED BY IDOCK:   -2.79 KCAL/MOL
REMARK 924 INTRA-LIGAND FREE ENERGY PREDICTED BY IDOCK:    0.40 KCAL/MOL
REMARK 927      BINDING AFFINITY PREDICTED BY RF-SCORE:    0.00 PKD
ROOT
HETATM    1  N   UNL     1     -12.061   6.796  69.973  1.00  0.00    -0.638 NA 
HETATM    2  H1  UNL     1     -12.030   6.108  70.725  1.00  0.00     0.000 HD 
HETATM    3  H2  UNL     1     -12.788   7.509  69.936  1.00  0.00     0.000 HD 
HETATM    4  C   UNL     1     -11.089   6.723  69.016  1.00  0.00    -0.197 C  
HETATM    5  N   UNL     1     -11.127   7.595  68.060  1.00  0.00    -0.448 N  
HETATM    6  C   UNL     1     -10.158   7.588  67.087  1.00  0.00    -0.247 C  
HETATM    7  H   UNL     1     -11.877   8.287  68.030  1.00  0.00     0.000 HD 
HETATM    8  N   UNL     1      -9.261   6.507  67.034  1.00  0.00    -0.130 N  
HETATM    9  O   UNL     1     -10.076   8.515  66.284  1.00  0.00    -0.258 OA 
HETATM   10  C   UNL     1     -10.054   5.679  69.106  1.00  0.00    -0.274 C  
HETATM   11  C   UNL     1      -9.191   5.624  68.094  1.00  0.00    -0.110 C  
ENDROOT
BRANCH   8  12
HETATM   12  C   UNL     1      -8.209   6.552  66.004  1.00  0.00    -0.127 C  
HETATM   13  C   UNL     1      -6.997   5.627  66.214  1.00  0.00    -0.060 C  
HETATM   14  S   UNL     1      -5.874   6.598  67.219  1.00  0.00    -0.014 SA 
HETATM   15  C   UNL     1      -6.474   8.123  66.464  1.00  0.00    -0.055 C  
HETATM   16  O   UNL     1      -7.734   7.905  65.813  1.00  0.00    -0.083 OA 
BRANCH  15  17
HETATM   17  C   UNL     1      -6.584   9.233  67.517  1.00  0.00    -0.064 C  
HETATM   18  O   UNL     1      -7.660   9.010  68.430  1.00  0.00    -0.088 OA 
HETATM   19  H   UNL     1      -7.728   9.697  69.082  1.00  0.00     0.000 HD 
ENDBRANCH  15  17
ENDBRANCH   8  12
TORSDOF 2
ENDMDL
MODEL      196
REMARK 921   NORMALIZED FREE ENERGY PREDICTED BY IDOCK:   -2.16 KCAL/MOL
REMARK 922        TOTAL FREE ENERGY PREDICTED BY IDOCK:   -2.37 KCAL/MOL
REMARK 923 INTER-LIGAND FREE ENERGY PREDICTED BY IDOCK:   -2.46 KCAL/MOL
REMARK 924 INTRA-LIGAND FREE ENERGY PREDICTED BY IDOCK:    0.09 KCAL/MOL
REMARK 927      BINDING AFFINITY PREDICTED BY RF-SCORE:    0.00 PKD
ROOT
HETATM    1  N   UNL     1     -11.003   9.182  67.981  1.00  0.00    -0.493 NA 
HETATM    2  H1  UNL     1     -10.922   9.930  67.293  1.00  0.00     0.000 HD 
HETATM    3  H2  UNL     1     -11.671   9.240  68.750  1.00  0.00     0.000 HD 
HETATM    4  C   UNL     1     -10.182   8.100  67.834  1.00  0.00    -0.218 C  
HETATM    5  N   UNL     1     -10.285   7.151  68.708  1.00  0.00    -0.174 N  
HETATM    6  C   UNL     1      -9.505   6.027  68.592  1.00  0.00    -0.124 C  
HETATM    7  H   UNL     1     -10.944   7.239  69.482  1.00  0.00     0.000 HD 
HETATM    8  N   UNL     1      -8.467   6.018  67.645  1.00  0.00    -0.108 N  
HETATM    9  O   UNL     1      -9.719   5.045  69.301  1.00  0.00    -0.147 OA 
HETATM   10  C   UNL     1      -9.233   8.054  66.709  1.00  0.00    -0.206 C  
HETATM   11  C   UNL     1      -8.413   7.006  66.681  1.00  0.00    -0.121 C  
ENDROOT
BRANCH   8  12
HETATM   12  C   UNL     1      -7.677   4.782  67.519  1.00  0.00    -0.090 C  
HETATM   13  C   UNL     1      -6.331   4.894  66.781  1.00  0.00    -0.040 C  
HETATM   14  S   UNL     1      -6.754   4.646  65.057  1.00  0.00    -0.045 SA 
HETATM   15  C   UNL     1      -8.115   3.556  65.520  1.00  0.00    -0.093 C  
HETATM   16  O   UNL     1      -8.458   3.732  66.901  1.00  0.00    -0.102 OA 
BRANCH  15  17
HETATM   17  C   UNL     1      -9.328   3.803  64.615  1.00  0.00    -0.153 C  
HETATM   18  O   UNL     1      -9.198   5.002  63.849  1.00  0.00    -0.348 OA 
HETATM   19  H   UNL     1      -9.949   5.156  63.289  1.00  0.00     0.000 HD 
ENDBRANCH  15  17
ENDBRANCH   8  12
TORSDOF 2
ENDMDL
MODEL      197
REMARK 921   NORMALIZED FREE ENERGY PREDICTED BY IDOCK:   -2.12 KCAL/MOL
REMARK 922        TOTAL FREE ENERGY PREDICTED BY IDOCK:   -2.33 KCAL/MOL
REMARK 923 INTER-LIGAND FREE ENERGY PREDICTED BY IDOCK:   -2.38 KCAL/MOL
REMARK 924 INTRA-LIGAND FREE ENERGY PREDICTED BY IDOCK:    0.05 KCAL/MOL
REMARK 927      BINDING AFFINITY PREDICTED BY RF-SCORE:    0.00 PKD
ROOT
HETATM    1  N   UNL     1      -7.170   5.059  69.965  1.00  0.00    -0.057 NA 
HETATM    2  H1  UNL     1      -7.437   4.368  69.263  1.00  0.00     0.000 HD 
HETATM    3  H2  UNL     1      -6.456   4.854  70.664  1.00  0.00     0.000 HD 
HETATM    4  C   UNL     1      -7.807   6.267  69.931  1.00  0.00    -0.110 C  
HETATM    5  N   UNL     1      -7.468   7.142  70.823  1.00  0.00    -0.079 N  
HETATM    6  C   UNL     1      -8.055   8.385  70.818  1.00  0.00    -0.111 C  
HETATM    7  H   UNL     1      -6.768   6.911  71.527  1.00  0.00     0.000 HD 
HETATM    8  N   UNL     1      -9.156   8.610  69.974  1.00  0.00    -0.152 N  
HETATM    9  O   UNL     1      -7.616   9.282  71.535  1.00  0.00    -0.340 OA 
HETATM   10  C   UNL     1      -8.830   6.523  68.904  1.00  0.00    -0.126 C  
HETATM   11  C   UNL     1      -9.460   7.693  68.988  1.00  0.00    -0.150 C  
ENDROOT
BRANCH   8  12
HETATM   12  C   UNL     1      -9.734   9.965  69.965  1.00  0.00    -0.227 C  
HETATM   13  C   UNL     1     -11.145  10.109  69.369  1.00  0.00    -0.243 C  
HETATM   14  S   UNL     1     -10.858  10.359  67.617  1.00  0.00    -0.309 SA 
HETATM   15  C   UNL     1      -9.293  11.188  67.964  1.00  0.00    -0.166 C  
HETATM   16  O   UNL     1      -8.851  10.896  69.297  1.00  0.00    -0.095 OA 
BRANCH  15  17
HETATM   17  C   UNL     1      -8.234  10.782  66.931  1.00  0.00    -0.130 C  
HETATM   18  O   UNL     1      -7.049  10.271  67.541  1.00  0.00    -0.084 OA 
HETATM   19  H   UNL     1      -6.394  10.020  66.902  1.00  0.00     0.000 HD 
ENDBRANCH  15  17
ENDBRANCH   8  12
TORSDOF 2
ENDMDL
MODEL      198
REMARK 921   NORMALIZED FREE ENERGY PREDICTED BY IDOCK:   -2.12 KCAL/MOL
REMARK 922        TOTAL FREE ENERGY PREDICTED BY IDOCK:   -2.33 KCAL/MOL
REMARK 923 INTER-LIGAND FREE ENERGY PREDICTED BY IDOCK:   -2.63 KCAL/MOL
REMARK 924 INTRA-LIGAND FREE ENERGY PREDICTED BY IDOCK:    0.31 KCAL/MOL
REMARK 927      BINDING AFFINITY PREDICTED BY RF-SCORE:    0.00 PKD
ROOT
HETATM    1  N   UNL     1      -8.424   3.824  63.603  1.00  0.00    -0.091 NA 
HETATM    2  H1  UNL     1      -8.764   2.864  63.540  1.00  0.00     0.000 HD 
HETATM    3  H2  UNL     1      -7.712   4.177  62.964  1.00  0.00     0.000 HD 
HETATM    4  C   UNL     1      -8.961   4.617  64.577  1.00  0.00    -0.147 C  
HETATM    5  N   UNL     1      -8.530   5.835  64.658  1.00  0.00    -0.274 N  
HETATM    6  C   UNL     1      -9.056   6.686  65.599  1.00  0.00     0.110 C  
HETATM    7  H   UNL     1      -7.800   6.162  64.024  1.00  0.00     0.000 HD 
HETATM    8  N   UNL     1      -9.904   6.159  66.588  1.00  0.00    -0.162 N  
HETATM    9  O   UNL     1      -8.792   7.886  65.569  1.00  0.00    -0.130 OA 
HETATM   10  C   UNL     1      -9.990   4.069  65.477  1.00  0.00    -0.171 C  
HETATM   11  C   UNL     1     -10.404   4.880  66.450  1.00  0.00    -0.288 C  
ENDROOT
BRANCH   8  12
HETATM   12  C   UNL     1     -10.482   7.107  67.557  1.00  0.00    -0.260 C  
HETATM   13  C   UNL     1      -9.502   8.073  68.246  1.00  0.00    -0.141 C  
HETATM   14  S   UNL     1      -8.923   7.162  69.678  1.00  0.00    -0.140 SA 
HETATM   15  C   UNL     1     -10.503   6.299  69.801  1.00  0.00    -0.232 C  
HETATM   16  O   UNL     1     -11.236   6.407  68.574  1.00  0.00    -0.328 OA 
BRANCH  15  17
HETATM   17  C   UNL     1     -10.280   4.830  70.183  1.00  0.00    -0.189 C  
HETATM   18  O   UNL     1     -10.355   4.618  71.593  1.00  0.00    -0.187 OA 
HETATM   19  H   UNL     1     -10.217   3.709  71.829  1.00  0.00     0.000 HD 
ENDBRANCH  15  17
ENDBRANCH   8  12
TORSDOF 2
ENDMDL
MODEL      199
REMARK 921   NORMALIZED FREE ENERGY PREDICTED BY IDOCK:   -2.12 KCAL/MOL
REMARK 922        TOTAL FREE ENERGY PREDICTED BY IDOCK:   -2.32 KCAL/MOL
REMARK 923 INTER-LIGAND FREE ENERGY PREDICTED BY IDOCK:   -2.48 KCAL/MOL
REMARK 924 INTRA-LIGAND FREE ENERGY PREDICTED BY IDOCK:    0.15 KCAL/MOL
REMARK 927      BINDING AFFINITY PREDICTED BY RF-SCORE:    0.00 PKD
ROOT
HETATM    1  N   UNL     1      -8.826  10.133  67.657  1.00  0.00    -0.125 NA 
HETATM    2  H1  UNL     1      -8.777   9.851  66.677  1.00  0.00     0.000 HD 
HETATM    3  H2  UNL     1      -8.559  11.072  67.951  1.00  0.00     0.000 HD 
HETATM    4  C   UNL     1      -9.262   9.203  68.557  1.00  0.00    -0.136 C  
HETATM    5  N   UNL     1      -9.323   9.560  69.800  1.00  0.00    -0.195 N  
HETATM    6  C   UNL     1      -9.783   8.675  70.744  1.00  0.00    -0.194 C  
HETATM    7  H   UNL     1      -9.030  10.497  70.077  1.00  0.00     0.000 HD 
HETATM    8  N   UNL     1      -9.984   7.334  70.374  1.00  0.00    -0.190 N  
HETATM    9  O   UNL     1     -10.020   9.055  71.889  1.00  0.00    -0.332 OA 
HETATM   10  C   UNL     1      -9.640   7.858  68.090  1.00  0.00    -0.163 C  
HETATM   11  C   UNL     1      -9.977   6.986  69.038  1.00  0.00    -0.164 C  
ENDROOT
BRANCH   8  12
HETATM   12  C   UNL     1     -10.515   6.422  71.401  1.00  0.00    -0.218 C  
HETATM   13  C   UNL     1      -9.609   6.145  72.614  1.00  0.00    -0.155 C  
HETATM   14  S   UNL     1      -8.593   4.762  72.095  1.00  0.00    -0.121 SA 
HETATM   15  C   UNL     1      -9.929   4.135  71.057  1.00  0.00    -0.136 C  
HETATM   16  O   UNL     1     -10.905   5.158  70.814  1.00  0.00    -0.132 OA 
BRANCH  15  17
HETATM   17  C   UNL     1      -9.367   3.587  69.739  1.00  0.00    -0.174 C  
HETATM   18  O   UNL     1      -8.182   2.814  69.935  1.00  0.00    -0.041 OA 
HETATM   19  H   UNL     1      -7.834   2.474  69.119  1.00  0.00     0.000 HD 
ENDBRANCH  15  17
ENDBRANCH   8  12
TORSDOF 2
ENDMDL
MODEL      200
REMARK 921   NORMALIZED FREE ENERGY PREDICTED BY IDOCK:   -2.09 KCAL/MOL
REMARK 922        TOTAL FREE ENERGY PREDICTED BY IDOCK:   -2.29 KCAL/MOL
REMARK 923 INTER-LIGAND FREE ENERGY PREDICTED BY IDOCK:   -2.78 KCAL/MOL
REMARK 924 INTRA-LIGAND FREE ENERGY PREDICTED BY IDOCK:    0.49 KCAL/MOL
REMARK 927      BINDING AFFINITY PREDICTED BY RF-SCORE:    0.00 PKD
ROOT
HETATM    1  N   UNL     1      -9.471  13.458  67.521  1.00  0.00    -0.212 NA 
HETATM    2  H1  UNL     1      -8.580  12.986  67.369  1.00  0.00     0.000 HD 
HETATM    3  H2  UNL     1     -10.350  12.941  67.531  1.00  0.00     0.000 HD 
HETATM    4  C   UNL     1      -9.441  14.811  67.712  1.00  0.00    -0.204 C  
HETATM    5  N   UNL     1     -10.572  15.410  67.906  1.00  0.00    -0.260 N  
HETATM    6  C   UNL     1     -10.598  16.764  68.133  1.00  0.00    -0.350 C  
HETATM    7  H   UNL     1     -11.442  14.878  67.890  1.00  0.00     0.000 HD 
HETATM    8  N   UNL     1      -9.418  17.505  67.948  1.00  0.00    -0.271 N  
HETATM    9  O   UNL     1     -11.636  17.314  68.499  1.00  0.00     0.309 OA 
HETATM   10  C   UNL     1      -8.151  15.520  67.694  1.00  0.00    -0.162 C  
HETATM   11  C   UNL     1      -8.213  16.846  67.807  1.00  0.00    -0.189 C  
ENDROOT
BRANCH   8  12
HETATM   12  C   UNL     1      -9.473  18.947  68.239  1.00  0.00    -0.348 C  
HETATM   13  C   UNL     1     -10.750  19.691  67.808  1.00  0.00    -0.322 C  
HETATM   14  S   UNL     1     -10.424  20.176  66.114  1.00  0.00    -0.224 SA 
HETATM   15  C   UNL     1      -8.660  20.321  66.466  1.00  0.00    -0.192 C  
HETATM   16  O   UNL     1      -8.327  19.629  67.678  1.00  0.00    -0.292 OA 
BRANCH  15  17
HETATM   17  C   UNL     1      -7.835  19.793  65.285  1.00  0.00     0.452 C  
HETATM   18  O   UNL     1      -6.959  20.784  64.749  1.00  0.00    -0.515 OA 
HETATM   19  H   UNL     1      -6.449  20.457  64.018  1.00  0.00     0.000 HD 
ENDBRANCH  15  17
ENDBRANCH   8  12
TORSDOF 2
ENDMDL
MODEL      201
REMARK 921   NORMALIZED FREE ENERGY PREDICTED BY IDOCK:   -2.08 KCAL/MOL
REMARK 922        TOTAL FREE ENERGY PREDICTED BY IDOCK:   -2.28 KCAL/MOL
REMARK 923 INTER-LIGAND FREE ENERGY PREDICTED BY IDOCK:   -2.38 KCAL/MOL
REMARK 924 INTRA-LIGAND FREE ENERGY PREDICTED BY IDOCK:    0.10 KCAL/MOL
REMARK 927      BINDING AFFINITY PREDICTED BY RF-SCORE:    0.00 PKD
ROOT
HETATM    1  N   UNL     1      -6.895   9.353  66.284  1.00  0.00    -0.084 NA 
HETATM    2  H1  UNL     1      -7.621   9.245  65.575  1.00  0.00     0.000 HD 
HETATM    3  H2  UNL     1      -5.927   9.543  66.026  1.00  0.00     0.000 HD 
HETATM    4  C   UNL     1      -7.272   9.236  67.591  1.00  0.00    -0.083 C  
HETATM    5  N   UNL     1      -6.351   9.374  68.491  1.00  0.00    -0.052 N  
HETATM    6  C   UNL     1      -6.678   9.294  69.823  1.00  0.00    -0.051 C  
HETATM    7  H   UNL     1      -5.384   9.540  68.211  1.00  0.00     0.000 HD 
HETATM    8  N   UNL     1      -7.968   8.863  70.178  1.00  0.00    -0.100 N  
HETATM    9  O   UNL     1      -5.857   9.604  70.684  1.00  0.00    -0.052 OA 
HETATM   10  C   UNL     1      -8.681   8.965  67.922  1.00  0.00    -0.129 C  
HETATM   11  C   UNL     1      -8.952   8.784  69.213  1.00  0.00    -0.144 C  
ENDROOT
BRANCH   8  12
HETATM   12  C   UNL     1      -8.297   8.829  71.613  1.00  0.00    -0.125 C  
HETATM   13  C   UNL     1      -7.981   7.522  72.364  1.00  0.00    -0.103 C  
HETATM   14  S   UNL     1      -9.449   6.519  72.134  1.00  0.00    -0.146 SA 
HETATM   15  C   UNL     1     -10.484   7.997  72.081  1.00  0.00    -0.265 C  
HETATM   16  O   UNL     1      -9.688   9.163  71.830  1.00  0.00    -0.283 OA 
BRANCH  15  17
HETATM   17  C   UNL     1     -11.583   7.841  71.023  1.00  0.00    -0.283 C  
HETATM   18  O   UNL     1     -12.191   9.087  70.685  1.00  0.00    -0.481 OA 
HETATM   19  H   UNL     1     -12.872   8.991  70.030  1.00  0.00     0.000 HD 
ENDBRANCH  15  17
ENDBRANCH   8  12
TORSDOF 2
ENDMDL
MODEL      202
REMARK 921   NORMALIZED FREE ENERGY PREDICTED BY IDOCK:   -2.08 KCAL/MOL
REMARK 922        TOTAL FREE ENERGY PREDICTED BY IDOCK:   -2.28 KCAL/MOL
REMARK 923 INTER-LIGAND FREE ENERGY PREDICTED BY IDOCK:   -2.41 KCAL/MOL
REMARK 924 INTRA-LIGAND FREE ENERGY PREDICTED BY IDOCK:    0.13 KCAL/MOL
REMARK 927      BINDING AFFINITY PREDICTED BY RF-SCORE:    0.00 PKD
ROOT
HETATM    1  N   UNL     1     -11.796   9.587  70.189  1.00  0.00    -0.466 NA 
HETATM    2  H1  UNL     1     -12.659   9.401  69.678  1.00  0.00     0.000 HD 
HETATM    3  H2  UNL     1     -11.809  10.035  71.105  1.00  0.00     0.000 HD 
HETATM    4  C   UNL     1     -10.623   9.210  69.599  1.00  0.00    -0.228 C  
HETATM    5  N   UNL     1      -9.528   9.446  70.248  1.00  0.00    -0.233 N  
HETATM    6  C   UNL     1      -8.321   9.062  69.716  1.00  0.00    -0.129 C  
HETATM    7  H   UNL     1      -9.561   9.916  71.153  1.00  0.00     0.000 HD 
HETATM    8  N   UNL     1      -8.282   8.606  68.387  1.00  0.00    -0.121 N  
HETATM    9  O   UNL     1      -7.298   9.110  70.395  1.00  0.00    -0.073 OA 
HETATM   10  C   UNL     1     -10.648   8.563  68.276  1.00  0.00    -0.173 C  
HETATM   11  C   UNL     1      -9.460   8.300  67.734  1.00  0.00    -0.149 C  
ENDROOT
BRANCH   8  12
HETATM   12  C   UNL     1      -6.979   8.164  67.862  1.00  0.00    -0.078 C  
HETATM   13  C   UNL     1      -5.908   9.253  67.666  1.00  0.00    -0.045 C  
HETATM   14  S   UNL     1      -6.217   9.879  66.014  1.00  0.00    -0.080 SA 
HETATM   15  C   UNL     1      -6.814   8.260  65.483  1.00  0.00    -0.066 C  
HETATM   16  O   UNL     1      -7.142   7.445  66.617  1.00  0.00    -0.071 OA 
BRANCH  15  17
HETATM   17  C   UNL     1      -8.021   8.417  64.549  1.00  0.00    -0.146 C  
HETATM   18  O   UNL     1      -8.387   7.186  63.926  1.00  0.00    -0.350 OA 
HETATM   19  H   UNL     1      -9.134   7.283  63.347  1.00  0.00     0.000 HD 
ENDBRANCH  15  17
ENDBRANCH   8  12
TORSDOF 2
ENDMDL
MODEL      203
REMARK 921   NORMALIZED FREE ENERGY PREDICTED BY IDOCK:   -1.96 KCAL/MOL
REMARK 922        TOTAL FREE ENERGY PREDICTED BY IDOCK:   -2.14 KCAL/MOL
REMARK 923 INTER-LIGAND FREE ENERGY PREDICTED BY IDOCK:   -2.58 KCAL/MOL
REMARK 924 INTRA-LIGAND FREE ENERGY PREDICTED BY IDOCK:    0.44 KCAL/MOL
REMARK 927      BINDING AFFINITY PREDICTED BY RF-SCORE:    0.00 PKD
ROOT
HETATM    1  N   UNL     1      -7.390   6.670  64.116  1.00  0.00    -0.071 NA 
HETATM    2  H1  UNL     1      -6.415   6.376  64.060  1.00  0.00     0.000 HD 
HETATM    3  H2  UNL     1      -8.139   6.096  63.728  1.00  0.00     0.000 HD 
HETATM    4  C   UNL     1      -7.653   7.862  64.728  1.00  0.00    -0.110 C  
HETATM    5  N   UNL     1      -8.891   8.236  64.798  1.00  0.00    -0.405 N  
HETATM    6  C   UNL     1      -9.216   9.411  65.429  1.00  0.00    -0.244 C  
HETATM    7  H   UNL     1      -9.623   7.658  64.384  1.00  0.00     0.000 HD 
HETATM    8  N   UNL     1      -8.183  10.285  65.807  1.00  0.00    -0.141 N  
HETATM    9  O   UNL     1     -10.392   9.686  65.664  1.00  0.00    -0.173 OA 
HETATM   10  C   UNL     1      -6.543   8.660  65.277  1.00  0.00    -0.064 C  
HETATM   11  C   UNL     1      -6.874   9.845  65.786  1.00  0.00    -0.104 C  
ENDROOT
BRANCH   8  12
HETATM   12  C   UNL     1      -8.565  11.517  66.518  1.00  0.00    -0.172 C  
HETATM   13  C   UNL     1      -7.438  12.274  67.243  1.00  0.00    -0.147 C  
HETATM   14  S   UNL     1      -7.371  11.512  68.865  1.00  0.00    -0.096 SA 
HETATM   15  C   UNL     1      -9.142  11.170  68.807  1.00  0.00    -0.139 C  
HETATM   16  O   UNL     1      -9.631  11.257  67.462  1.00  0.00    -0.168 OA 
BRANCH  15  17
HETATM   17  C   UNL     1      -9.439   9.793  69.414  1.00  0.00    -0.201 C  
HETATM   18  O   UNL     1      -9.938   9.885  70.749  1.00  0.00    -0.348 OA 
HETATM   19  H   UNL     1     -10.122   9.032  71.125  1.00  0.00     0.000 HD 
ENDBRANCH  15  17
ENDBRANCH   8  12
TORSDOF 2
ENDMDL
MODEL      204
REMARK 921   NORMALIZED FREE ENERGY PREDICTED BY IDOCK:   -1.95 KCAL/MOL
REMARK 922        TOTAL FREE ENERGY PREDICTED BY IDOCK:   -2.14 KCAL/MOL
REMARK 923 INTER-LIGAND FREE ENERGY PREDICTED BY IDOCK:   -2.22 KCAL/MOL
REMARK 924 INTRA-LIGAND FREE ENERGY PREDICTED BY IDOCK:    0.08 KCAL/MOL
REMARK 927      BINDING AFFINITY PREDICTED BY RF-SCORE:    0.00 PKD
ROOT
HETATM    1  N   UNL     1      -8.832   6.586  64.958  1.00  0.00    -0.352 NA 
HETATM    2  H1  UNL     1      -8.535   6.806  64.008  1.00  0.00     0.000 HD 
HETATM    3  H2  UNL     1      -9.016   5.625  65.246  1.00  0.00     0.000 HD 
HETATM    4  C   UNL     1      -8.973   7.628  65.830  1.00  0.00    -0.053 C  
HETATM    5  N   UNL     1      -9.350   7.348  67.036  1.00  0.00    -0.142 N  
HETATM    6  C   UNL     1      -9.480   8.354  67.963  1.00  0.00    -0.143 C  
HETATM    7  H   UNL     1      -9.551   6.383  67.298  1.00  0.00     0.000 HD 
HETATM    8  N   UNL     1      -9.399   9.688  67.529  1.00  0.00    -0.130 N  
HETATM    9  O   UNL     1      -9.656   8.087  69.150  1.00  0.00    -0.155 OA 
HETATM   10  C   UNL     1      -8.695   9.001  65.375  1.00  0.00    -0.221 C  
HETATM   11  C   UNL     1      -8.933   9.967  66.259  1.00  0.00    -0.148 C  
ENDROOT
BRANCH   8  12
HETATM   12  C   UNL     1      -9.502  10.740  68.555  1.00  0.00    -0.181 C  
HETATM   13  C   UNL     1     -10.014  12.114  68.087  1.00  0.00    -0.201 C  
HETATM   14  S   UNL     1      -8.537  12.970  67.541  1.00  0.00    -0.204 SA 
HETATM   15  C   UNL     1      -7.541  12.084  68.758  1.00  0.00    -0.070 C  
HETATM   16  O   UNL     1      -8.237  10.923  69.233  1.00  0.00    -0.130 OA 
BRANCH  15  17
HETATM   17  C   UNL     1      -6.180  11.706  68.160  1.00  0.00    -0.046 C  
HETATM   18  O   UNL     1      -5.725  10.431  68.614  1.00  0.00    -0.041 OA 
HETATM   19  H   UNL     1      -4.882  10.196  68.244  1.00  0.00     0.000 HD 
ENDBRANCH  15  17
ENDBRANCH   8  12
TORSDOF 2
ENDMDL
MODEL      205
REMARK 921   NORMALIZED FREE ENERGY PREDICTED BY IDOCK:   -1.90 KCAL/MOL
REMARK 922        TOTAL FREE ENERGY PREDICTED BY IDOCK:   -2.08 KCAL/MOL
REMARK 923 INTER-LIGAND FREE ENERGY PREDICTED BY IDOCK:   -2.27 KCAL/MOL
REMARK 924 INTRA-LIGAND FREE ENERGY PREDICTED BY IDOCK:    0.19 KCAL/MOL
REMARK 927      BINDING AFFINITY PREDICTED BY RF-SCORE:    0.00 PKD
ROOT
HETATM    1  N   UNL     1      -7.341  18.191  65.947  1.00  0.00    -0.481 NA 
HETATM    2  H1  UNL     1      -7.840  18.884  65.390  1.00  0.00     0.000 HD 
HETATM    3  H2  UNL     1      -6.323  18.195  66.011  1.00  0.00     0.000 HD 
HETATM    4  C   UNL     1      -8.090  17.257  66.605  1.00  0.00    -0.265 C  
HETATM    5  N   UNL     1      -7.457  16.377  67.313  1.00  0.00    -0.152 N  
HETATM    6  C   UNL     1      -8.161  15.432  68.019  1.00  0.00    -0.144 C  
HETATM    7  H   UNL     1      -6.438  16.384  67.345  1.00  0.00     0.000 HD 
HETATM    8  N   UNL     1      -9.544  15.313  67.797  1.00  0.00    -0.206 N  
HETATM    9  O   UNL     1      -7.589  14.711  68.835  1.00  0.00    -0.127 OA 
HETATM   10  C   UNL     1      -9.558  17.287  66.489  1.00  0.00    -0.286 C  
HETATM   11  C   UNL     1     -10.211  16.296  67.093  1.00  0.00    -0.276 C  
ENDROOT
BRANCH   8  12
HETATM   12  C   UNL     1     -10.274  14.317  68.601  1.00  0.00    -0.246 C  
HETATM   13  C   UNL     1     -11.743  14.064  68.219  1.00  0.00    -0.357 C  
HETATM   14  S   UNL     1     -12.656  15.296  69.148  1.00  0.00     0.374 SA 
HETATM   15  C   UNL     1     -11.428  15.247  70.470  1.00  0.00    -0.310 C  
HETATM   16  O   UNL     1     -10.210  14.646  70.008  1.00  0.00     0.076 OA 
BRANCH  15  17
HETATM   17  C   UNL     1     -11.175  16.658  71.015  1.00  0.00     0.201 C  
HETATM   18  O   UNL     1     -10.903  17.599  69.977  1.00  0.00    -0.068 OA 
HETATM   19  H   UNL     1     -10.746  18.473  70.314  1.00  0.00     0.000 HD 
ENDBRANCH  15  17
ENDBRANCH   8  12
TORSDOF 2
ENDMDL
MODEL      206
REMARK 921   NORMALIZED FREE ENERGY PREDICTED BY IDOCK:   -1.86 KCAL/MOL
REMARK 922        TOTAL FREE ENERGY PREDICTED BY IDOCK:   -2.04 KCAL/MOL
REMARK 923 INTER-LIGAND FREE ENERGY PREDICTED BY IDOCK:   -2.23 KCAL/MOL
REMARK 924 INTRA-LIGAND FREE ENERGY PREDICTED BY IDOCK:    0.20 KCAL/MOL
REMARK 927      BINDING AFFINITY PREDICTED BY RF-SCORE:    0.00 PKD
ROOT
HETATM    1  N   UNL     1      -6.340   2.046  73.492  1.00  0.00    -0.012 NA 
HETATM    2  H1  UNL     1      -5.509   2.050  72.901  1.00  0.00     0.000 HD 
HETATM    3  H2  UNL     1      -6.395   1.460  74.325  1.00  0.00     0.000 HD 
HETATM    4  C   UNL     1      -7.377   2.856  73.124  1.00  0.00    -0.045 C  
HETATM    5  N   UNL     1      -8.432   2.850  73.874  1.00  0.00    -0.072 N  
HETATM    6  C   UNL     1      -9.493   3.667  73.568  1.00  0.00    -0.103 C  
HETATM    7  H   UNL     1      -8.476   2.240  74.690  1.00  0.00     0.000 HD 
HETATM    8  N   UNL     1      -9.494   4.341  72.334  1.00  0.00    -0.125 N  
HETATM    9  O   UNL     1     -10.419   3.809  74.364  1.00  0.00    -0.191 OA 
HETATM   10  C   UNL     1      -7.257   3.689  71.915  1.00  0.00    -0.050 C  
HETATM   11  C   UNL     1      -8.339   4.389  71.580  1.00  0.00    -0.101 C  
ENDROOT
BRANCH   8  12
HETATM   12  C   UNL     1     -10.628   5.240  72.057  1.00  0.00    -0.216 C  
HETATM   13  C   UNL     1     -10.747   5.778  70.619  1.00  0.00    -0.281 C  
HETATM   14  S   UNL     1      -9.738   7.260  70.621  1.00  0.00    -0.174 SA 
HETATM   15  C   UNL     1     -10.122   7.552  72.360  1.00  0.00    -0.203 C  
HETATM   16  O   UNL     1     -10.632   6.360  72.973  1.00  0.00    -0.216 OA 
BRANCH  15  17
HETATM   17  C   UNL     1      -8.880   8.065  73.101  1.00  0.00    -0.254 C  
HETATM   18  O   UNL     1      -8.296   9.198  72.459  1.00  0.00    -0.190 OA 
HETATM   19  H   UNL     1      -7.527   9.516  72.918  1.00  0.00     0.000 HD 
ENDBRANCH  15  17
ENDBRANCH   8  12
TORSDOF 2
ENDMDL
MODEL      207
REMARK 921   NORMALIZED FREE ENERGY PREDICTED BY IDOCK:   -1.83 KCAL/MOL
REMARK 922        TOTAL FREE ENERGY PREDICTED BY IDOCK:   -2.00 KCAL/MOL
REMARK 923 INTER-LIGAND FREE ENERGY PREDICTED BY IDOCK:   -2.12 KCAL/MOL
REMARK 924 INTRA-LIGAND FREE ENERGY PREDICTED BY IDOCK:    0.12 KCAL/MOL
REMARK 927      BINDING AFFINITY PREDICTED BY RF-SCORE:    0.00 PKD
ROOT
HETATM    1  N   UNL     1      -9.416   9.032  65.147  1.00  0.00    -0.449 NA 
HETATM    2  H1  UNL     1      -9.561   8.739  64.181  1.00  0.00     0.000 HD 
HETATM    3  H2  UNL     1      -9.710   9.954  65.471  1.00  0.00     0.000 HD 
HETATM    4  C   UNL     1      -8.813   8.142  65.989  1.00  0.00    -0.172 C  
HETATM    5  N   UNL     1      -8.628   8.514  67.216  1.00  0.00    -0.122 N  
HETATM    6  C   UNL     1      -8.053   7.649  68.114  1.00  0.00    -0.124 C  
HETATM    7  H   UNL     1      -8.908   9.449  67.514  1.00  0.00     0.000 HD 
HETATM    8  N   UNL     1      -7.491   6.453  67.636  1.00  0.00    -0.091 N  
HETATM    9  O   UNL     1      -8.039   7.916  69.314  1.00  0.00    -0.121 OA 
HETATM   10  C   UNL     1      -8.406   6.820  65.483  1.00  0.00    -0.143 C  
HETATM   11  C   UNL     1      -7.753   6.042  66.344  1.00  0.00    -0.102 C  
ENDROOT
BRANCH   8  12
HETATM   12  C   UNL     1      -6.919   5.530  68.632  1.00  0.00    -0.060 C  
HETATM   13  C   UNL     1      -5.852   4.543  68.125  1.00  0.00    -0.026 C  
HETATM   14  S   UNL     1      -6.797   3.132  67.550  1.00  0.00    -0.046 SA 
HETATM   15  C   UNL     1      -8.071   3.446  68.789  1.00  0.00    -0.060 C  
HETATM   16  O   UNL     1      -7.963   4.782  69.299  1.00  0.00    -0.070 OA 
BRANCH  15  17
HETATM   17  C   UNL     1      -9.464   3.194  68.197  1.00  0.00    -0.157 C  
HETATM   18  O   UNL     1      -9.412   2.410  67.004  1.00  0.00    -0.377 OA 
HETATM   19  H   UNL     1     -10.274   2.254  66.638  1.00  0.00     0.000 HD 
ENDBRANCH  15  17
ENDBRANCH   8  12
TORSDOF 2
ENDMDL
MODEL      208
REMARK 921   NORMALIZED FREE ENERGY PREDICTED BY IDOCK:   -1.82 KCAL/MOL
REMARK 922        TOTAL FREE ENERGY PREDICTED BY IDOCK:   -1.99 KCAL/MOL
REMARK 923 INTER-LIGAND FREE ENERGY PREDICTED BY IDOCK:   -2.15 KCAL/MOL
REMARK 924 INTRA-LIGAND FREE ENERGY PREDICTED BY IDOCK:    0.16 KCAL/MOL
REMARK 927      BINDING AFFINITY PREDICTED BY RF-SCORE:    0.00 PKD
ROOT
HETATM    1  N   UNL     1      -6.707   5.188  73.885  1.00  0.00    -0.073 NA 
HETATM    2  H1  UNL     1      -5.693   5.188  73.783  1.00  0.00     0.000 HD 
HETATM    3  H2  UNL     1      -7.147   5.221  74.805  1.00  0.00     0.000 HD 
HETATM    4  C   UNL     1      -7.454   5.141  72.742  1.00  0.00    -0.096 C  
HETATM    5  N   UNL     1      -8.742   5.140  72.873  1.00  0.00    -0.118 N  
HETATM    6  C   UNL     1      -9.543   5.124  71.756  1.00  0.00    -0.152 C  
HETATM    7  H   UNL     1      -9.162   5.151  73.802  1.00  0.00     0.000 HD 
HETATM    8  N   UNL     1      -8.950   4.903  70.502  1.00  0.00    -0.117 N  
HETATM    9  O   UNL     1     -10.754   5.309  71.857  1.00  0.00    -0.225 OA 
HETATM   10  C   UNL     1      -6.781   5.096  71.433  1.00  0.00    -0.043 C  
HETATM   11  C   UNL     1      -7.577   4.971  70.373  1.00  0.00    -0.063 C  
ENDROOT
BRANCH   8  12
HETATM   12  C   UNL     1      -9.832   4.932  69.323  1.00  0.00    -0.201 C  
HETATM   13  C   UNL     1      -9.145   4.916  67.945  1.00  0.00    -0.113 C  
HETATM   14  S   UNL     1      -8.829   6.646  67.593  1.00  0.00    -0.115 SA 
HETATM   15  C   UNL     1     -10.298   7.131  68.522  1.00  0.00    -0.183 C  
HETATM   16  O   UNL     1     -10.729   6.066  69.380  1.00  0.00    -0.262 OA 
BRANCH  15  17
HETATM   17  C   UNL     1     -10.023   8.409  69.325  1.00  0.00    -0.195 C  
HETATM   18  O   UNL     1     -10.247   8.229  70.724  1.00  0.00    -0.189 OA 
HETATM   19  H   UNL     1     -10.076   9.020  71.221  1.00  0.00     0.000 HD 
ENDBRANCH  15  17
ENDBRANCH   8  12
TORSDOF 2
ENDMDL
MODEL      209
REMARK 921   NORMALIZED FREE ENERGY PREDICTED BY IDOCK:   -1.79 KCAL/MOL
REMARK 922        TOTAL FREE ENERGY PREDICTED BY IDOCK:   -1.96 KCAL/MOL
REMARK 923 INTER-LIGAND FREE ENERGY PREDICTED BY IDOCK:   -2.07 KCAL/MOL
REMARK 924 INTRA-LIGAND FREE ENERGY PREDICTED BY IDOCK:    0.10 KCAL/MOL
REMARK 927      BINDING AFFINITY PREDICTED BY RF-SCORE:    0.00 PKD
ROOT
HETATM    1  N   UNL     1      -7.057   3.501  71.545  1.00  0.00    -0.031 NA 
HETATM    2  H1  UNL     1      -6.183   3.305  71.058  1.00  0.00     0.000 HD 
HETATM    3  H2  UNL     1      -7.295   3.030  72.418  1.00  0.00     0.000 HD 
HETATM    4  C   UNL     1      -7.897   4.421  70.983  1.00  0.00    -0.068 C  
HETATM    5  N   UNL     1      -9.006   4.670  71.602  1.00  0.00    -0.130 N  
HETATM    6  C   UNL     1      -9.875   5.607  71.097  1.00  0.00    -0.177 C  
HETATM    7  H   UNL     1      -9.236   4.171  72.461  1.00  0.00     0.000 HD 
HETATM    8  N   UNL     1      -9.637   6.128  69.814  1.00  0.00    -0.149 N  
HETATM    9  O   UNL     1     -10.837   5.986  71.763  1.00  0.00    -0.241 OA 
HETATM   10  C   UNL     1      -7.515   5.081  69.723  1.00  0.00    -0.056 C  
HETATM   11  C   UNL     1      -8.422   5.903  69.199  1.00  0.00    -0.112 C  
ENDROOT
BRANCH   8  12
HETATM   12  C   UNL     1     -10.566   7.160  69.321  1.00  0.00    -0.221 C  
HETATM   13  C   UNL     1     -10.718   7.280  67.795  1.00  0.00    -0.197 C  
HETATM   14  S   UNL     1      -9.411   8.407  67.310  1.00  0.00    -0.152 SA 
HETATM   15  C   UNL     1      -9.527   9.266  68.893  1.00  0.00    -0.154 C  
HETATM   16  O   UNL     1     -10.220   8.460  69.856  1.00  0.00    -0.192 OA 
BRANCH  15  17
HETATM   17  C   UNL     1      -8.130   9.647  69.397  1.00  0.00    -0.118 C  
HETATM   18  O   UNL     1      -7.095   8.941  68.711  1.00  0.00    -0.065 OA 
HETATM   19  H   UNL     1      -6.229   9.176  69.023  1.00  0.00     0.000 HD 
ENDBRANCH  15  17
ENDBRANCH   8  12
TORSDOF 2
ENDMDL
MODEL      210
REMARK 921   NORMALIZED FREE ENERGY PREDICTED BY IDOCK:   -1.74 KCAL/MOL
REMARK 922        TOTAL FREE ENERGY PREDICTED BY IDOCK:   -1.90 KCAL/MOL
REMARK 923 INTER-LIGAND FREE ENERGY PREDICTED BY IDOCK:   -2.04 KCAL/MOL
REMARK 924 INTRA-LIGAND FREE ENERGY PREDICTED BY IDOCK:    0.14 KCAL/MOL
REMARK 927      BINDING AFFINITY PREDICTED BY RF-SCORE:    0.00 PKD
ROOT
HETATM    1  N   UNL     1      -5.327   4.519  71.129  1.00  0.00    -0.003 NA 
HETATM    2  H1  UNL     1      -5.427   5.432  71.571  1.00  0.00     0.000 HD 
HETATM    3  H2  UNL     1      -4.602   3.865  71.421  1.00  0.00     0.000 HD 
HETATM    4  C   UNL     1      -6.203   4.207  70.128  1.00  0.00    -0.026 C  
HETATM    5  N   UNL     1      -6.077   3.048  69.566  1.00  0.00    -0.024 N  
HETATM    6  C   UNL     1      -6.949   2.670  68.575  1.00  0.00    -0.047 C  
HETATM    7  H   UNL     1      -5.330   2.417  69.858  1.00  0.00     0.000 HD 
HETATM    8  N   UNL     1      -7.833   3.627  68.050  1.00  0.00    -0.068 N  
HETATM    9  O   UNL     1      -6.958   1.511  68.162  1.00  0.00    -0.032 OA 
HETATM   10  C   UNL     1      -7.238   5.179  69.737  1.00  0.00    -0.060 C  
HETATM   11  C   UNL     1      -8.001   4.833  68.701  1.00  0.00    -0.080 C  
ENDROOT
BRANCH   8  12
HETATM   12  C   UNL     1      -8.782   3.177  67.017  1.00  0.00    -0.124 C  
HETATM   13  C   UNL     1      -8.292   3.231  65.558  1.00  0.00    -0.099 C  
HETATM   14  S   UNL     1      -8.696   4.894  65.022  1.00  0.00    -0.150 SA 
HETATM   15  C   UNL     1     -10.130   4.927  66.117  1.00  0.00    -0.254 C  
HETATM   16  O   UNL     1     -10.030   3.902  67.114  1.00  0.00    -0.134 OA 
BRANCH  15  17
HETATM   17  C   UNL     1     -10.276   6.311  66.762  1.00  0.00    -0.202 C  
HETATM   18  O   UNL     1     -11.585   6.528  67.290  1.00  0.00    -0.737 OA 
HETATM   19  H   UNL     1     -11.676   7.385  67.689  1.00  0.00     0.000 HD 
ENDBRANCH  15  17
ENDBRANCH   8  12
TORSDOF 2
ENDMDL
MODEL      211
REMARK 921   NORMALIZED FREE ENERGY PREDICTED BY IDOCK:   -1.74 KCAL/MOL
REMARK 922        TOTAL FREE ENERGY PREDICTED BY IDOCK:   -1.90 KCAL/MOL
REMARK 923 INTER-LIGAND FREE ENERGY PREDICTED BY IDOCK:   -2.17 KCAL/MOL
REMARK 924 INTRA-LIGAND FREE ENERGY PREDICTED BY IDOCK:    0.27 KCAL/MOL
REMARK 927      BINDING AFFINITY PREDICTED BY RF-SCORE:    0.00 PKD
ROOT
HETATM    1  N   UNL     1      -8.131   3.769  63.483  1.00  0.00    -0.087 NA 
HETATM    2  H1  UNL     1      -8.763   2.971  63.416  1.00  0.00     0.000 HD 
HETATM    3  H2  UNL     1      -7.585   4.081  62.681  1.00  0.00     0.000 HD 
HETATM    4  C   UNL     1      -8.044   4.401  64.691  1.00  0.00    -0.099 C  
HETATM    5  N   UNL     1      -7.241   5.413  64.777  1.00  0.00    -0.060 N  
HETATM    6  C   UNL     1      -7.137   6.105  65.959  1.00  0.00    -0.067 C  
HETATM    7  H   UNL     1      -6.688   5.696  63.968  1.00  0.00     0.000 HD 
HETATM    8  N   UNL     1      -7.748   5.576  67.109  1.00  0.00    -0.099 N  
HETATM    9  O   UNL     1      -6.525   7.170  66.004  1.00  0.00    -0.048 OA 
HETATM   10  C   UNL     1      -8.851   3.919  65.825  1.00  0.00    -0.125 C  
HETATM   11  C   UNL     1      -8.650   4.538  66.987  1.00  0.00    -0.104 C  
ENDROOT
BRANCH   8  12
HETATM   12  C   UNL     1      -7.650   6.364  68.349  1.00  0.00    -0.100 C  
HETATM   13  C   UNL     1      -8.416   5.826  69.571  1.00  0.00    -0.112 C  
HETATM   14  S   UNL     1     -10.056   6.530  69.406  1.00  0.00    -0.180 SA 
HETATM   15  C   UNL     1      -9.377   7.992  68.596  1.00  0.00    -0.146 C  
HETATM   16  O   UNL     1      -8.048   7.736  68.119  1.00  0.00    -0.120 OA 
BRANCH  15  17
HETATM   17  C   UNL     1     -10.295   8.444  67.453  1.00  0.00    -0.285 C  
HETATM   18  O   UNL     1     -11.273   7.458  67.121  1.00  0.00    -0.539 OA 
HETATM   19  H   UNL     1     -11.841   7.737  66.413  1.00  0.00     0.000 HD 
ENDBRANCH  15  17
ENDBRANCH   8  12
TORSDOF 2
ENDMDL
MODEL      212
REMARK 921   NORMALIZED FREE ENERGY PREDICTED BY IDOCK:   -1.72 KCAL/MOL
REMARK 922        TOTAL FREE ENERGY PREDICTED BY IDOCK:   -1.88 KCAL/MOL
REMARK 923 INTER-LIGAND FREE ENERGY PREDICTED BY IDOCK:   -2.09 KCAL/MOL
REMARK 924 INTRA-LIGAND FREE ENERGY PREDICTED BY IDOCK:    0.21 KCAL/MOL
REMARK 927      BINDING AFFINITY PREDICTED BY RF-SCORE:    0.00 PKD
ROOT
HETATM    1  N   UNL     1      -5.283   4.685  71.193  1.00  0.00    -0.003 NA 
HETATM    2  H1  UNL     1      -4.628   5.205  71.776  1.00  0.00     0.000 HD 
HETATM    3  H2  UNL     1      -5.065   3.745  70.861  1.00  0.00     0.000 HD 
HETATM    4  C   UNL     1      -6.463   5.295  70.874  1.00  0.00    -0.034 C  
HETATM    5  N   UNL     1      -7.294   4.634  70.134  1.00  0.00    -0.050 N  
HETATM    6  C   UNL     1      -8.508   5.187  69.806  1.00  0.00    -0.096 C  
HETATM    7  H   UNL     1      -7.047   3.704  69.793  1.00  0.00     0.000 HD 
HETATM    8  N   UNL     1      -8.740   6.539  70.112  1.00  0.00    -0.139 N  
HETATM    9  O   UNL     1      -9.376   4.506  69.263  1.00  0.00    -0.121 OA 
HETATM   10  C   UNL     1      -6.740   6.651  71.376  1.00  0.00    -0.058 C  
HETATM   11  C   UNL     1      -7.875   7.207  70.955  1.00  0.00    -0.095 C  
ENDROOT
BRANCH   8  12
HETATM   12  C   UNL     1     -10.066   7.088  69.783  1.00  0.00    -0.189 C  
HETATM   13  C   UNL     1     -10.241   8.610  69.935  1.00  0.00    -0.203 C  
HETATM   14  S   UNL     1     -10.717   8.828  71.650  1.00  0.00    -0.352 SA 
HETATM   15  C   UNL     1     -11.543   7.223  71.653  1.00  0.00    -0.274 C  
HETATM   16  O   UNL     1     -11.101   6.424  70.547  1.00  0.00    -0.278 OA 
BRANCH  15  17
HETATM   17  C   UNL     1     -11.303   6.502  72.985  1.00  0.00    -0.062 C  
HETATM   18  O   UNL     1     -12.318   5.539  73.271  1.00  0.00    -0.135 OA 
HETATM   19  H   UNL     1     -12.169   5.092  74.096  1.00  0.00     0.000 HD 
ENDBRANCH  15  17
ENDBRANCH   8  12
TORSDOF 2
ENDMDL
MODEL      213
REMARK 921   NORMALIZED FREE ENERGY PREDICTED BY IDOCK:   -1.72 KCAL/MOL
REMARK 922        TOTAL FREE ENERGY PREDICTED BY IDOCK:   -1.87 KCAL/MOL
REMARK 923 INTER-LIGAND FREE ENERGY PREDICTED BY IDOCK:   -2.02 KCAL/MOL
REMARK 924 INTRA-LIGAND FREE ENERGY PREDICTED BY IDOCK:    0.15 KCAL/MOL
REMARK 927      BINDING AFFINITY PREDICTED BY RF-SCORE:    0.00 PKD
ROOT
HETATM    1  N   UNL     1      -5.764   4.567  70.782  1.00  0.00    -0.015 NA 
HETATM    2  H1  UNL     1      -5.086   5.003  71.409  1.00  0.00     0.000 HD 
HETATM    3  H2  UNL     1      -5.790   3.557  70.650  1.00  0.00     0.000 HD 
HETATM    4  C   UNL     1      -6.634   5.392  70.128  1.00  0.00    -0.039 C  
HETATM    5  N   UNL     1      -7.494   4.840  69.333  1.00  0.00    -0.052 N  
HETATM    6  C   UNL     1      -8.412   5.618  68.672  1.00  0.00    -0.105 C  
HETATM    7  H   UNL     1      -7.488   3.829  69.197  1.00  0.00     0.000 HD 
HETATM    8  N   UNL     1      -8.270   7.015  68.713  1.00  0.00    -0.121 N  
HETATM    9  O   UNL     1      -9.345   5.097  68.063  1.00  0.00    -0.113 OA 
HETATM   10  C   UNL     1      -6.565   6.846  70.349  1.00  0.00    -0.052 C  
HETATM   11  C   UNL     1      -7.393   7.587  69.614  1.00  0.00    -0.090 C  
ENDROOT
BRANCH   8  12
HETATM   12  C   UNL     1      -9.296   7.820  68.027  1.00  0.00    -0.141 C  
HETATM   13  C   UNL     1      -8.999   9.321  67.861  1.00  0.00    -0.127 C  
HETATM   14  S   UNL     1      -9.615  10.060  69.374  1.00  0.00    -0.230 SA 
HETATM   15  C   UNL     1     -10.898   8.798  69.500  1.00  0.00    -0.142 C  
HETATM   16  O   UNL     1     -10.583   7.670  68.672  1.00  0.00    -0.195 OA 
BRANCH  15  17
HETATM   17  C   UNL     1     -11.086   8.373  70.962  1.00  0.00    -0.258 C  
HETATM   18  O   UNL     1     -10.175   9.033  71.840  1.00  0.00    -0.343 OA 
HETATM   19  H   UNL     1     -10.291   8.770  72.745  1.00  0.00     0.000 HD 
ENDBRANCH  15  17
ENDBRANCH   8  12
TORSDOF 2
ENDMDL
MODEL      214
REMARK 921   NORMALIZED FREE ENERGY PREDICTED BY IDOCK:   -1.68 KCAL/MOL
REMARK 922        TOTAL FREE ENERGY PREDICTED BY IDOCK:   -1.83 KCAL/MOL
REMARK 923 INTER-LIGAND FREE ENERGY PREDICTED BY IDOCK:   -1.92 KCAL/MOL
REMARK 924 INTRA-LIGAND FREE ENERGY PREDICTED BY IDOCK:    0.09 KCAL/MOL
REMARK 927      BINDING AFFINITY PREDICTED BY RF-SCORE:    0.00 PKD
ROOT
HETATM    1  N   UNL     1      -9.166   3.281  67.750  1.00  0.00    -0.179 NA 
HETATM    2  H1  UNL     1      -9.555   2.342  67.842  1.00  0.00     0.000 HD 
HETATM    3  H2  UNL     1      -9.067   3.726  66.838  1.00  0.00     0.000 HD 
HETATM    4  C   UNL     1      -8.784   3.917  68.896  1.00  0.00    -0.094 C  
HETATM    5  N   UNL     1      -8.290   5.109  68.779  1.00  0.00    -0.088 N  
HETATM    6  C   UNL     1      -7.916   5.807  69.901  1.00  0.00    -0.096 C  
HETATM    7  H   UNL     1      -8.179   5.527  67.855  1.00  0.00     0.000 HD 
HETATM    8  N   UNL     1      -7.886   5.138  71.136  1.00  0.00    -0.099 N  
HETATM    9  O   UNL     1      -7.621   6.999  69.822  1.00  0.00    -0.098 OA 
HETATM   10  C   UNL     1      -8.945   3.241  70.194  1.00  0.00    -0.171 C  
HETATM   11  C   UNL     1      -8.475   3.895  71.255  1.00  0.00    -0.073 C  
ENDROOT
BRANCH   8  12
HETATM   12  C   UNL     1      -7.520   5.928  72.324  1.00  0.00    -0.099 C  
HETATM   13  C   UNL     1      -6.855   5.165  73.483  1.00  0.00    -0.075 C  
HETATM   14  S   UNL     1      -8.233   4.568  74.463  1.00  0.00    -0.093 SA 
HETATM   15  C   UNL     1      -9.222   6.004  73.995  1.00  0.00    -0.131 C  
HETATM   16  O   UNL     1      -8.667   6.645  72.838  1.00  0.00    -0.122 OA 
BRANCH  15  17
HETATM   17  C   UNL     1     -10.679   5.590  73.749  1.00  0.00    -0.260 C  
HETATM   18  O   UNL     1     -10.914   4.218  74.069  1.00  0.00    -0.242 OA 
HETATM   19  H   UNL     1     -11.816   3.962  73.917  1.00  0.00     0.000 HD 
ENDBRANCH  15  17
ENDBRANCH   8  12
TORSDOF 2
ENDMDL
MODEL      215
REMARK 921   NORMALIZED FREE ENERGY PREDICTED BY IDOCK:   -1.63 KCAL/MOL
REMARK 922        TOTAL FREE ENERGY PREDICTED BY IDOCK:   -1.78 KCAL/MOL
REMARK 923 INTER-LIGAND FREE ENERGY PREDICTED BY IDOCK:   -3.03 KCAL/MOL
REMARK 924 INTRA-LIGAND FREE ENERGY PREDICTED BY IDOCK:    1.25 KCAL/MOL
REMARK 927      BINDING AFFINITY PREDICTED BY RF-SCORE:    0.00 PKD
ROOT
HETATM    1  N   UNL     1      -9.359  13.386  67.581  1.00  0.00    -0.208 NA 
HETATM    2  H1  UNL     1      -8.878  12.539  67.276  1.00  0.00     0.000 HD 
HETATM    3  H2  UNL     1     -10.369  13.399  67.723  1.00  0.00     0.000 HD 
HETATM    4  C   UNL     1      -8.597  14.500  67.792  1.00  0.00    -0.175 C  
HETATM    5  N   UNL     1      -9.208  15.574  68.179  1.00  0.00    -0.187 N  
HETATM    6  C   UNL     1      -8.488  16.715  68.435  1.00  0.00    -0.216 C  
HETATM    7  H   UNL     1     -10.221  15.572  68.293  1.00  0.00     0.000 HD 
HETATM    8  N   UNL     1      -7.130  16.753  68.076  1.00  0.00    -0.149 N  
HETATM    9  O   UNL     1      -9.024  17.681  68.976  1.00  0.00    -0.170 OA 
HETATM   10  C   UNL     1      -7.141  14.438  67.579  1.00  0.00    -0.197 C  
HETATM   11  C   UNL     1      -6.482  15.585  67.728  1.00  0.00    -0.164 C  
ENDROOT
BRANCH   8  12
HETATM   12  C   UNL     1      -6.379  17.978  68.402  1.00  0.00    -0.196 C  
HETATM   13  C   UNL     1      -7.208  19.207  68.815  1.00  0.00    -0.333 C  
HETATM   14  S   UNL     1      -7.599  20.014  67.263  1.00  0.00    -0.299 SA 
HETATM   15  C   UNL     1      -6.051  19.433  66.540  1.00  0.00    -0.165 C  
HETATM   16  O   UNL     1      -5.507  18.352  67.310  1.00  0.00    -0.137 OA 
BRANCH  15  17
HETATM   17  C   UNL     1      -6.269  19.014  65.080  1.00  0.00    -0.285 C  
HETATM   18  O   UNL     1      -5.155  19.344  64.250  1.00  0.00    -0.149 OA 
HETATM   19  H   UNL     1      -5.289  19.085  63.346  1.00  0.00     0.000 HD 
ENDBRANCH  15  17
ENDBRANCH   8  12
TORSDOF 2
ENDMDL
MODEL      216
REMARK 921   NORMALIZED FREE ENERGY PREDICTED BY IDOCK:   -1.63 KCAL/MOL
REMARK 922        TOTAL FREE ENERGY PREDICTED BY IDOCK:   -1.77 KCAL/MOL
REMARK 923 INTER-LIGAND FREE ENERGY PREDICTED BY IDOCK:   -1.90 KCAL/MOL
REMARK 924 INTRA-LIGAND FREE ENERGY PREDICTED BY IDOCK:    0.13 KCAL/MOL
REMARK 927      BINDING AFFINITY PREDICTED BY RF-SCORE:    0.00 PKD
ROOT
HETATM    1  N   UNL     1      -9.010  10.030  67.590  1.00  0.00    -0.131 NA 
HETATM    2  H1  UNL     1      -8.786  10.308  66.635  1.00  0.00     0.000 HD 
HETATM    3  H2  UNL     1      -9.086  10.718  68.338  1.00  0.00     0.000 HD 
HETATM    4  C   UNL     1      -9.202   8.698  67.828  1.00  0.00    -0.134 C  
HETATM    5  N   UNL     1      -9.485   8.345  69.041  1.00  0.00    -0.150 N  
HETATM    6  C   UNL     1      -9.718   7.023  69.332  1.00  0.00    -0.159 C  
HETATM    7  H   UNL     1      -9.535   9.047  69.779  1.00  0.00     0.000 HD 
HETATM    8  N   UNL     1      -9.443   6.056  68.350  1.00  0.00    -0.119 N  
HETATM    9  O   UNL     1     -10.165   6.697  70.430  1.00  0.00    -0.185 OA 
HETATM   10  C   UNL     1      -9.084   7.736  66.719  1.00  0.00    -0.185 C  
HETATM   11  C   UNL     1      -9.206   6.451  67.048  1.00  0.00    -0.129 C  
ENDROOT
BRANCH   8  12
HETATM   12  C   UNL     1      -9.742   4.652  68.682  1.00  0.00    -0.149 C  
HETATM   13  C   UNL     1      -8.684   3.896  69.504  1.00  0.00    -0.081 C  
HETATM   14  S   UNL     1      -7.563   3.232  68.272  1.00  0.00    -0.056 SA 
HETATM   15  C   UNL     1      -8.914   3.086  67.084  1.00  0.00    -0.158 C  
HETATM   16  O   UNL     1     -10.031   3.891  67.485  1.00  0.00    -0.095 OA 
BRANCH  15  17
HETATM   17  C   UNL     1      -8.432   3.472  65.679  1.00  0.00    -0.108 C  
HETATM   18  O   UNL     1      -7.344   2.660  65.238  1.00  0.00    -0.061 OA 
HETATM   19  H   UNL     1      -7.045   2.899  64.368  1.00  0.00     0.000 HD 
ENDBRANCH  15  17
ENDBRANCH   8  12
TORSDOF 2
ENDMDL
MODEL      217
REMARK 921   NORMALIZED FREE ENERGY PREDICTED BY IDOCK:   -1.56 KCAL/MOL
REMARK 922        TOTAL FREE ENERGY PREDICTED BY IDOCK:   -1.70 KCAL/MOL
REMARK 923 INTER-LIGAND FREE ENERGY PREDICTED BY IDOCK:   -1.92 KCAL/MOL
REMARK 924 INTRA-LIGAND FREE ENERGY PREDICTED BY IDOCK:    0.22 KCAL/MOL
REMARK 927      BINDING AFFINITY PREDICTED BY RF-SCORE:    0.00 PKD
ROOT
HETATM    1  N   UNL     1      -5.789   9.226  69.655  1.00  0.00    -0.033 NA 
HETATM    2  H1  UNL     1      -6.226   9.027  70.555  1.00  0.00     0.000 HD 
HETATM    3  H2  UNL     1      -5.253   8.515  69.158  1.00  0.00     0.000 HD 
HETATM    4  C   UNL     1      -5.949  10.482  69.143  1.00  0.00    -0.040 C  
HETATM    5  N   UNL     1      -5.394  10.734  68.001  1.00  0.00    -0.037 N  
HETATM    6  C   UNL     1      -5.547  11.972  67.424  1.00  0.00    -0.120 C  
HETATM    7  H   UNL     1      -4.843  10.016  67.530  1.00  0.00     0.000 HD 
HETATM    8  N   UNL     1      -6.131  13.003  68.179  1.00  0.00    -0.086 N  
HETATM    9  O   UNL     1      -5.185  12.167  66.265  1.00  0.00    -0.234 OA 
HETATM   10  C   UNL     1      -6.732  11.480  69.891  1.00  0.00     0.002 C  
HETATM   11  C   UNL     1      -6.774  12.702  69.364  1.00  0.00    -0.022 C  
ENDROOT
BRANCH   8  12
HETATM   12  C   UNL     1      -6.317  14.305  67.516  1.00  0.00    -0.006 C  
HETATM   13  C   UNL     1      -5.821  15.546  68.279  1.00  0.00    -0.114 C  
HETATM   14  S   UNL     1      -7.214  16.014  69.306  1.00  0.00    -0.221 SA 
HETATM   15  C   UNL     1      -8.370  15.386  68.071  1.00  0.00    -0.142 C  
HETATM   16  O   UNL     1      -7.704  14.505  67.156  1.00  0.00    -0.184 OA 
BRANCH  15  17
HETATM   17  C   UNL     1      -9.549  14.681  68.755  1.00  0.00    -0.210 C  
HETATM   18  O   UNL     1      -9.756  15.143  70.090  1.00  0.00    -0.476 OA 
HETATM   19  H   UNL     1     -10.486  14.707  70.513  1.00  0.00     0.000 HD 
ENDBRANCH  15  17
ENDBRANCH   8  12
TORSDOF 2
ENDMDL
MODEL      218
REMARK 921   NORMALIZED FREE ENERGY PREDICTED BY IDOCK:   -1.40 KCAL/MOL
REMARK 922        TOTAL FREE ENERGY PREDICTED BY IDOCK:   -1.52 KCAL/MOL
REMARK 923 INTER-LIGAND FREE ENERGY PREDICTED BY IDOCK:   -1.63 KCAL/MOL
REMARK 924 INTRA-LIGAND FREE ENERGY PREDICTED BY IDOCK:    0.12 KCAL/MOL
REMARK 927      BINDING AFFINITY PREDICTED BY RF-SCORE:    0.00 PKD
ROOT
HETATM    1  N   UNL     1      -8.629   8.233  64.063  1.00  0.00    -0.396 NA 
HETATM    2  H1  UNL     1      -9.009   8.093  63.127  1.00  0.00     0.000 HD 
HETATM    3  H2  UNL     1      -8.701   9.135  64.534  1.00  0.00     0.000 HD 
HETATM    4  C   UNL     1      -8.022   7.165  64.661  1.00  0.00    -0.114 C  
HETATM    5  N   UNL     1      -7.540   7.344  65.849  1.00  0.00    -0.086 N  
HETATM    6  C   UNL     1      -6.944   6.297  66.510  1.00  0.00    -0.067 C  
HETATM    7  H   UNL     1      -7.601   8.260  66.294  1.00  0.00     0.000 HD 
HETATM    8  N   UNL     1      -6.688   5.109  65.804  1.00  0.00    -0.051 N  
HETATM    9  O   UNL     1      -6.649   6.399  67.700  1.00  0.00    -0.053 OA 
HETATM   10  C   UNL     1      -7.942   5.879  63.948  1.00  0.00    -0.119 C  
HETATM   11  C   UNL     1      -7.265   4.913  64.565  1.00  0.00    -0.058 C  
ENDROOT
BRANCH   8  12
HETATM   12  C   UNL     1      -6.086   3.994  66.554  1.00  0.00    -0.031 C  
HETATM   13  C   UNL     1      -5.537   2.819  65.724  1.00  0.00    -0.017 C  
HETATM   14  S   UNL     1      -6.952   1.740  65.504  1.00  0.00    -0.044 SA 
HETATM   15  C   UNL     1      -7.626   2.254  67.097  1.00  0.00    -0.061 C  
HETATM   16  O   UNL     1      -7.013   3.474  67.536  1.00  0.00    -0.052 OA 
BRANCH  15  17
HETATM   17  C   UNL     1      -9.150   2.404  67.008  1.00  0.00    -0.122 C  
HETATM   18  O   UNL     1      -9.587   2.714  65.684  1.00  0.00    -0.360 OA 
HETATM   19  H   UNL     1     -10.531   2.807  65.629  1.00  0.00     0.000 HD 
ENDBRANCH  15  17
ENDBRANCH   8  12
TORSDOF 2
ENDMDL
MODEL      219
REMARK 921   NORMALIZED FREE ENERGY PREDICTED BY IDOCK:   -1.23 KCAL/MOL
REMARK 922        TOTAL FREE ENERGY PREDICTED BY IDOCK:   -1.34 KCAL/MOL
REMARK 923 INTER-LIGAND FREE ENERGY PREDICTED BY IDOCK:   -3.99 KCAL/MOL
REMARK 924 INTRA-LIGAND FREE ENERGY PREDICTED BY IDOCK:    2.66 KCAL/MOL
REMARK 927      BINDING AFFINITY PREDICTED BY RF-SCORE:    0.00 PKD
ROOT
HETATM    1  N   UNL     1     -13.425  10.224  72.313  1.00  0.00    -0.575 NA 
HETATM    2  H1  UNL     1     -13.446   9.404  72.920  1.00  0.00     0.000 HD 
HETATM    3  H2  UNL     1     -14.163  10.928  72.349  1.00  0.00     0.000 HD 
HETATM    4  C   UNL     1     -12.372  10.342  71.452  1.00  0.00    -0.401 C  
HETATM    5  N   UNL     1     -12.346  11.382  70.682  1.00  0.00    -0.372 N  
HETATM    6  C   UNL     1     -11.295  11.567  69.817  1.00  0.00    -0.226 C  
HETATM    7  H   UNL     1     -13.105  12.063  70.717  1.00  0.00     0.000 HD 
HETATM    8  N   UNL     1     -10.373  10.522  69.639  1.00  0.00    -0.222 N  
HETATM    9  O   UNL     1     -11.163  12.633  69.217  1.00  0.00    -0.243 OA 
HETATM   10  C   UNL     1     -11.326   9.305  71.433  1.00  0.00    -0.434 C  
HETATM   11  C   UNL     1     -10.377   9.451  70.511  1.00  0.00    -0.281 C  
ENDROOT
BRANCH   8  12
HETATM   12  C   UNL     1      -9.236  10.769  68.735  1.00  0.00    -0.189 C  
HETATM   13  C   UNL     1      -8.633  12.185  68.757  1.00  0.00     0.105 C  
HETATM   14  S   UNL     1      -9.613  13.099  67.566  1.00  0.00    -0.215 SA 
HETATM   15  C   UNL     1      -9.872  11.602  66.592  1.00  0.00    -0.200 C  
HETATM   16  O   UNL     1      -9.582  10.434  67.371  1.00  0.00    -0.152 OA 
BRANCH  15  17
HETATM   17  C   UNL     1     -11.307  11.561  66.050  1.00  0.00    -0.116 C  
HETATM   18  O   UNL     1     -12.037  12.749  66.358  1.00  0.00    -0.470 OA 
HETATM   19  H   UNL     1     -12.926  12.723  66.023  1.00  0.00     0.000 HD 
ENDBRANCH  15  17
ENDBRANCH   8  12
TORSDOF 2
ENDMDL
MODEL      220
REMARK 921   NORMALIZED FREE ENERGY PREDICTED BY IDOCK:   -0.32 KCAL/MOL
REMARK 922        TOTAL FREE ENERGY PREDICTED BY IDOCK:   -0.31 KCAL/MOL
REMARK 923 INTER-LIGAND FREE ENERGY PREDICTED BY IDOCK:   -1.87 KCAL/MOL
REMARK 924 INTRA-LIGAND FREE ENERGY PREDICTED BY IDOCK:    1.56 KCAL/MOL
REMARK 927      BINDING AFFINITY PREDICTED BY RF-SCORE:    0.00 PKD
ROOT
HETATM    1  N   UNL     1      -9.257  13.411  67.497  1.00  0.00    -0.209 NA 
HETATM    2  H1  UNL     1      -8.763  12.525  67.387  1.00  0.00     0.000 HD 
HETATM    3  H2  UNL     1      -8.975  14.243  66.980  1.00  0.00     0.000 HD 
HETATM    4  C   UNL     1     -10.312  13.437  68.365  1.00  0.00    -0.251 C  
HETATM    5  N   UNL     1     -10.940  14.560  68.505  1.00  0.00    -0.241 N  
HETATM    6  C   UNL     1     -12.026  14.637  69.342  1.00  0.00    -0.313 C  
HETATM    7  H   UNL     1     -10.628  15.387  67.996  1.00  0.00     0.000 HD 
HETATM    8  N   UNL     1     -12.310  13.548  70.184  1.00  0.00    -0.304 N  
HETATM    9  O   UNL     1     -12.739  15.639  69.345  1.00  0.00     0.023 OA 
HETATM   10  C   UNL     1     -10.689  12.212  69.090  1.00  0.00    -0.107 C  
HETATM   11  C   UNL     1     -11.676  12.340  69.975  1.00  0.00    -0.242 C  
ENDROOT
BRANCH   8  12
HETATM   12  C   UNL     1     -13.506  13.648  71.038  1.00  0.00     0.042 C  
HETATM   13  C   UNL     1     -14.294  14.969  70.971  1.00  0.00    -0.131 C  
HETATM   14  S   UNL     1     -13.495  16.018  72.186  1.00  0.00     0.169 SA 
HETATM   15  C   UNL     1     -13.077  14.579  73.192  1.00  0.00    -0.446 C  
HETATM   16  O   UNL     1     -13.176  13.375  72.420  1.00  0.00    -0.474 OA 
BRANCH  15  17
HETATM   17  C   UNL     1     -11.673  14.737  73.791  1.00  0.00     0.136 C  
HETATM   18  O   UNL     1     -10.786  15.434  72.915  1.00  0.00     0.476 OA 
HETATM   19  H   UNL     1      -9.917  15.531  73.286  1.00  0.00     0.000 HD 
ENDBRANCH  15  17
ENDBRANCH   8  12
TORSDOF 2
ENDMDL
MODEL      221
REMARK 921   NORMALIZED FREE ENERGY PREDICTED BY IDOCK:    0.24 KCAL/MOL
REMARK 922        TOTAL FREE ENERGY PREDICTED BY IDOCK:    0.32 KCAL/MOL
REMARK 923 INTER-LIGAND FREE ENERGY PREDICTED BY IDOCK:    0.12 KCAL/MOL
REMARK 924 INTRA-LIGAND FREE ENERGY PREDICTED BY IDOCK:    0.20 KCAL/MOL
REMARK 927      BINDING AFFINITY PREDICTED BY RF-SCORE:    0.00 PKD
ROOT
HETATM    1  N   UNL     1      -7.138  20.246  72.212  1.00  0.00     0.088 NA 
HETATM    2  H1  UNL     1      -6.146  20.189  72.441  1.00  0.00     0.000 HD 
HETATM    3  H2  UNL     1      -7.831  20.498  72.916  1.00  0.00     0.000 HD 
HETATM    4  C   UNL     1      -7.502  19.970  70.924  1.00  0.00     1.130 C  
HETATM    5  N   UNL     1      -8.762  20.042  70.634  1.00  0.00     1.456 N  
HETATM    6  C   UNL     1      -9.181  19.803  69.348  1.00  0.00     0.185 C  
HETATM    7  H   UNL     1      -9.441  20.274  71.358  1.00  0.00     0.000 HD 
HETATM    8  N   UNL     1      -8.260  19.288  68.420  1.00  0.00    -0.336 N  
HETATM    9  O   UNL     1     -10.340  20.046  69.017  1.00  0.00    -0.382 OA 
HETATM   10  C   UNL     1      -6.470  19.612  69.937  1.00  0.00    -0.331 C  
HETATM   11  C   UNL     1      -6.914  19.280  68.726  1.00  0.00    -0.330 C  
ENDROOT
BRANCH   8  12
HETATM   12  C   UNL     1      -8.734  19.083  67.040  1.00  0.00    -0.294 C  
HETATM   13  C   UNL     1      -9.129  17.647  66.652  1.00  0.00    -0.264 C  
HETATM   14  S   UNL     1      -7.594  16.904  66.099  1.00  0.00    -0.038 SA 
HETATM   15  C   UNL     1      -7.004  18.502  65.503  1.00  0.00    -0.152 C  
HETATM   16  O   UNL     1      -7.762  19.571  66.085  1.00  0.00    -0.288 OA 
BRANCH  15  17
HETATM   17  C   UNL     1      -5.507  18.662  65.801  1.00  0.00    -0.166 C  
HETATM   18  O   UNL     1      -5.131  20.029  65.965  1.00  0.00    -0.161 OA 
HETATM   19  H   UNL     1      -4.204  20.129  66.149  1.00  0.00     0.000 HD 
ENDBRANCH  15  17
ENDBRANCH   8  12
TORSDOF 2
ENDMDL
MODEL      222
REMARK 921   NORMALIZED FREE ENERGY PREDICTED BY IDOCK:    0.70 KCAL/MOL
REMARK 922        TOTAL FREE ENERGY PREDICTED BY IDOCK:    0.83 KCAL/MOL
REMARK 923 INTER-LIGAND FREE ENERGY PREDICTED BY IDOCK:   -1.21 KCAL/MOL
REMARK 924 INTRA-LIGAND FREE ENERGY PREDICTED BY IDOCK:    2.04 KCAL/MOL
REMARK 927      BINDING AFFINITY PREDICTED BY RF-SCORE:    0.00 PKD
ROOT
HETATM    1  N   UNL     1     -11.678   9.535  70.508  1.00  0.00    -0.371 NA 
HETATM    2  H1  UNL     1     -12.361   8.865  70.157  1.00  0.00     0.000 HD 
HETATM    3  H2  UNL     1     -11.954  10.301  71.123  1.00  0.00     0.000 HD 
HETATM    4  C   UNL     1     -10.378   9.368  70.122  1.00  0.00    -0.233 C  
HETATM    5  N   UNL     1      -9.511  10.220  70.568  1.00  0.00    -0.112 N  
HETATM    6  C   UNL     1      -8.185  10.082  70.237  1.00  0.00     0.049 C  
HETATM    7  H   UNL     1      -9.811  10.991  71.164  1.00  0.00     0.000 HD 
HETATM    8  N   UNL     1      -7.826   9.142  69.257  1.00  0.00    -0.092 N  
HETATM    9  O   UNL     1      -7.330  10.767  70.796  1.00  0.00     0.321 OA 
HETATM   10  C   UNL     1     -10.019   8.248  69.236  1.00  0.00    -0.192 C  
HETATM   11  C   UNL     1      -8.748   8.201  68.842  1.00  0.00    -0.137 C  
ENDROOT
BRANCH   8  12
HETATM   12  C   UNL     1      -6.392   8.993  68.956  1.00  0.00    -0.043 C  
HETATM   13  C   UNL     1      -5.409   9.695  69.910  1.00  0.00    -0.033 C  
HETATM   14  S   UNL     1      -5.248  11.348  69.235  1.00  0.00    -0.044 SA 
HETATM   15  C   UNL     1      -5.514  10.720  67.564  1.00  0.00    -0.043 C  
HETATM   16  O   UNL     1      -6.104   9.414  67.602  1.00  0.00    -0.052 OA 
BRANCH  15  17
HETATM   17  C   UNL     1      -6.384  11.695  66.760  1.00  0.00    -0.114 C  
HETATM   18  O   UNL     1      -7.160  12.550  67.602  1.00  0.00    -0.111 OA 
HETATM   19  H   UNL     1      -7.699  13.153  67.104  1.00  0.00     0.000 HD 
ENDBRANCH  15  17
ENDBRANCH   8  12
TORSDOF 2
ENDMDL
