MODEL        1
REMARK 921   NORMALIZED FREE ENERGY PREDICTED BY IDOCK:   -6.81 KCAL/MOL
REMARK 922        TOTAL FREE ENERGY PREDICTED BY IDOCK:   -7.48 KCAL/MOL
REMARK 923 INTER-LIGAND FREE ENERGY PREDICTED BY IDOCK:   -7.20 KCAL/MOL
REMARK 924 INTRA-LIGAND FREE ENERGY PREDICTED BY IDOCK:   -0.28 KCAL/MOL
REMARK 927      BINDING AFFINITY PREDICTED BY RF-SCORE:    0.00 PKD
ROOT
HETATM    1  N   UNL     1     -12.346  14.017  63.438  1.00  0.00    -1.154 NA 
HETATM    2  H2  UNL     1     -13.146  13.572  63.887  1.00  0.00     0.000 HD 
HETATM    3  C   UNL     1     -11.823  14.979  64.280  1.00  0.00    -0.275 A  
HETATM    4  H1  UNL     1     -12.606  14.310  62.496  1.00  0.00     0.000 HD 
HETATM    5  N   UNL     1     -11.483  14.596  65.511  1.00  0.00    -0.340 NA 
HETATM    6  C   UNL     1     -10.886  15.521  66.287  1.00  0.00    -0.283 A  
HETATM    7  C   UNL     1     -10.660  16.846  65.873  1.00  0.00    -0.233 A  
HETATM    8  N   UNL     1     -10.530  15.017  67.543  1.00  0.00    -0.252 NA 
HETATM    9  N   UNL     1     -11.689  16.239  63.842  1.00  0.00    -0.978 NA 
HETATM   10  H1  UNL     1     -10.078  15.718  68.130  1.00  0.00     0.000 HD 
HETATM   11  N   UNL     1     -11.123  17.185  64.654  1.00  0.00    -1.007 NA 
HETATM   12  H2  UNL     1      -9.949  14.183  67.452  1.00  0.00     0.000 HD 
ENDROOT
BRANCH   7  13
HETATM   13  C   UNL     1      -9.944  17.905  66.641  1.00  0.00    -0.355 A  
HETATM   14  C   UNL     1      -8.534  17.925  66.847  1.00  0.00    -0.244 A  
HETATM   15  C   UNL     1      -7.932  18.942  67.622  1.00  0.00    -0.250 A  
HETATM   16 CL   UNL     1      -7.496  16.677  66.207  1.00  0.00    -0.260 Cl 
HETATM   17 CL   UNL     1      -6.220  19.039  67.886  1.00  0.00    -0.212 Cl 
HETATM   18  C   UNL     1      -8.705  19.930  68.230  1.00  0.00    -0.263 A  
HETATM   19  C   UNL     1     -10.078  19.942  68.035  1.00  0.00    -0.572 A  
HETATM   20  C   UNL     1     -10.676  18.962  67.235  1.00  0.00    -0.523 A  
ENDBRANCH   7  13
TORSDOF 1
ENDMDL
MODEL        2
REMARK 921   NORMALIZED FREE ENERGY PREDICTED BY IDOCK:   -6.80 KCAL/MOL
REMARK 922        TOTAL FREE ENERGY PREDICTED BY IDOCK:   -7.47 KCAL/MOL
REMARK 923 INTER-LIGAND FREE ENERGY PREDICTED BY IDOCK:   -7.19 KCAL/MOL
REMARK 924 INTRA-LIGAND FREE ENERGY PREDICTED BY IDOCK:   -0.28 KCAL/MOL
REMARK 927      BINDING AFFINITY PREDICTED BY RF-SCORE:    0.00 PKD
ROOT
HETATM    1  N   UNL     1     -11.592  16.516  63.849  1.00  0.00    -1.578 NA 
HETATM    2  H2  UNL     1     -12.501  16.915  64.086  1.00  0.00     0.000 HD 
HETATM    3  C   UNL     1     -11.459  15.282  64.458  1.00  0.00    -0.315 A  
HETATM    4  H1  UNL     1     -10.863  17.207  64.028  1.00  0.00     0.000 HD 
HETATM    5  N   UNL     1     -12.412  14.380  64.224  1.00  0.00    -0.691 NA 
HETATM    6  C   UNL     1     -12.221  13.152  64.744  1.00  0.00    -0.425 A  
HETATM    7  C   UNL     1     -11.109  12.816  65.537  1.00  0.00    -0.285 A  
HETATM    8  N   UNL     1     -13.250  12.264  64.414  1.00  0.00    -0.749 NA 
HETATM    9  N   UNL     1     -10.405  15.045  65.251  1.00  0.00    -0.381 NA 
HETATM   10  H1  UNL     1     -13.104  11.334  64.808  1.00  0.00     0.000 HD 
HETATM   11  N   UNL     1     -10.241  13.808  65.813  1.00  0.00    -0.303 NA 
HETATM   12  H2  UNL     1     -13.385  12.218  63.403  1.00  0.00     0.000 HD 
ENDROOT
BRANCH   7  13
HETATM   13  C   UNL     1     -10.788  11.466  66.086  1.00  0.00    -0.310 A  
HETATM   14  C   UNL     1     -11.067  11.064  67.425  1.00  0.00    -0.305 A  
HETATM   15  C   UNL     1     -10.695   9.779  67.884  1.00  0.00    -0.258 A  
HETATM   16 CL   UNL     1     -11.821  12.142  68.569  1.00  0.00    -0.378 Cl 
HETATM   17 CL   UNL     1     -11.031   9.218  69.491  1.00  0.00    -0.208 Cl 
HETATM   18  C   UNL     1     -10.019   8.889  67.050  1.00  0.00    -0.300 A  
HETATM   19  C   UNL     1      -9.747   9.251  65.739  1.00  0.00    -0.339 A  
HETATM   20  C   UNL     1     -10.149  10.504  65.265  1.00  0.00    -0.369 A  
ENDBRANCH   7  13
TORSDOF 1
ENDMDL
MODEL        3
REMARK 921   NORMALIZED FREE ENERGY PREDICTED BY IDOCK:   -6.73 KCAL/MOL
REMARK 922        TOTAL FREE ENERGY PREDICTED BY IDOCK:   -7.40 KCAL/MOL
REMARK 923 INTER-LIGAND FREE ENERGY PREDICTED BY IDOCK:   -7.16 KCAL/MOL
REMARK 924 INTRA-LIGAND FREE ENERGY PREDICTED BY IDOCK:   -0.24 KCAL/MOL
REMARK 927      BINDING AFFINITY PREDICTED BY RF-SCORE:    0.00 PKD
ROOT
HETATM    1  N   UNL     1     -11.467  16.564  63.862  1.00  0.00    -1.599 NA 
HETATM    2  H2  UNL     1     -12.411  16.935  63.755  1.00  0.00     0.000 HD 
HETATM    3  C   UNL     1     -11.499  15.462  64.695  1.00  0.00    -0.337 A  
HETATM    4  H1  UNL     1     -10.832  17.323  64.114  1.00  0.00     0.000 HD 
HETATM    5  N   UNL     1     -12.328  14.472  64.367  1.00  0.00    -0.635 NA 
HETATM    6  C   UNL     1     -12.278  13.364  65.133  1.00  0.00    -0.434 A  
HETATM    7  C   UNL     1     -11.441  13.242  66.256  1.00  0.00    -0.325 A  
HETATM    8  N   UNL     1     -13.153  12.367  64.690  1.00  0.00    -0.786 NA 
HETATM    9  N   UNL     1     -10.718  15.433  65.785  1.00  0.00    -0.335 NA 
HETATM   10  H1  UNL     1     -13.114  11.528  65.270  1.00  0.00     0.000 HD 
HETATM   11  N   UNL     1     -10.706  14.322  66.584  1.00  0.00    -0.288 NA 
HETATM   12  H2  UNL     1     -12.986  12.142  63.708  1.00  0.00     0.000 HD 
ENDROOT
BRANCH   7  13
HETATM   13  C   UNL     1     -11.273  12.028  67.108  1.00  0.00    -0.374 A  
HETATM   14  C   UNL     1     -10.654  10.823  66.666  1.00  0.00    -0.232 A  
HETATM   15  C   UNL     1     -10.569   9.700  67.521  1.00  0.00    -0.277 A  
HETATM   16 CL   UNL     1     -10.028  10.654  65.048  1.00  0.00    -0.343 Cl 
HETATM   17 CL   UNL     1      -9.803   8.215  67.055  1.00  0.00    -0.271 Cl 
HETATM   18  C   UNL     1     -11.116   9.734  68.803  1.00  0.00    -0.140 A  
HETATM   19  C   UNL     1     -11.712  10.899  69.263  1.00  0.00    -0.395 A  
HETATM   20  C   UNL     1     -11.763  12.028  68.438  1.00  0.00    -0.390 A  
ENDBRANCH   7  13
TORSDOF 1
ENDMDL
MODEL        4
REMARK 921   NORMALIZED FREE ENERGY PREDICTED BY IDOCK:   -6.62 KCAL/MOL
REMARK 922        TOTAL FREE ENERGY PREDICTED BY IDOCK:   -7.28 KCAL/MOL
REMARK 923 INTER-LIGAND FREE ENERGY PREDICTED BY IDOCK:   -7.01 KCAL/MOL
REMARK 924 INTRA-LIGAND FREE ENERGY PREDICTED BY IDOCK:   -0.28 KCAL/MOL
REMARK 927      BINDING AFFINITY PREDICTED BY RF-SCORE:    0.00 PKD
ROOT
HETATM    1  N   UNL     1     -11.460  16.428  63.846  1.00  0.00    -1.618 NA 
HETATM    2  H2  UNL     1     -10.749  16.363  63.117  1.00  0.00     0.000 HD 
HETATM    3  C   UNL     1     -11.369  15.327  64.676  1.00  0.00    -0.358 A  
HETATM    4  H1  UNL     1     -12.367  16.616  63.417  1.00  0.00     0.000 HD 
HETATM    5  N   UNL     1     -10.184  15.080  65.236  1.00  0.00    -0.377 NA 
HETATM    6  C   UNL     1     -10.134  14.063  66.118  1.00  0.00    -0.309 A  
HETATM    7  C   UNL     1     -11.241  13.252  66.422  1.00  0.00    -0.302 A  
HETATM    8  N   UNL     1      -8.863  13.906  66.681  1.00  0.00    -0.441 NA 
HETATM    9  N   UNL     1     -12.448  14.559  64.878  1.00  0.00    -0.500 NA 
HETATM   10  H1  UNL     1      -8.826  13.135  67.349  1.00  0.00     0.000 HD 
HETATM   11  N   UNL     1     -12.377  13.499  65.742  1.00  0.00    -0.456 NA 
HETATM   12  H2  UNL     1      -8.539  14.775  67.105  1.00  0.00     0.000 HD 
ENDROOT
BRANCH   7  13
HETATM   13  C   UNL     1     -11.287  12.158  67.436  1.00  0.00    -0.393 A  
HETATM   14  C   UNL     1     -11.778  12.322  68.764  1.00  0.00    -0.340 A  
HETATM   15  C   UNL     1     -11.751  11.247  69.681  1.00  0.00    -0.350 A  
HETATM   16 CL   UNL     1     -12.378  13.856  69.337  1.00  0.00    -0.322 Cl 
HETATM   17 CL   UNL     1     -12.359  11.372  71.301  1.00  0.00    -0.394 Cl 
HETATM   18  C   UNL     1     -11.214  10.011  69.319  1.00  0.00    -0.213 A  
HETATM   19  C   UNL     1     -10.742   9.821  68.029  1.00  0.00    -0.298 A  
HETATM   20  C   UNL     1     -10.804  10.868  67.104  1.00  0.00    -0.337 A  
ENDBRANCH   7  13
TORSDOF 1
ENDMDL
MODEL        5
REMARK 921   NORMALIZED FREE ENERGY PREDICTED BY IDOCK:   -6.56 KCAL/MOL
REMARK 922        TOTAL FREE ENERGY PREDICTED BY IDOCK:   -7.22 KCAL/MOL
REMARK 923 INTER-LIGAND FREE ENERGY PREDICTED BY IDOCK:   -7.23 KCAL/MOL
REMARK 924 INTRA-LIGAND FREE ENERGY PREDICTED BY IDOCK:    0.01 KCAL/MOL
REMARK 927      BINDING AFFINITY PREDICTED BY RF-SCORE:    0.00 PKD
ROOT
HETATM    1  N   UNL     1     -12.489  11.496  62.874  1.00  0.00    -0.867 NA 
HETATM    2  H2  UNL     1     -12.219  11.692  61.910  1.00  0.00     0.000 HD 
HETATM    3  C   UNL     1     -12.017  12.501  63.696  1.00  0.00    -0.537 A  
HETATM    4  H1  UNL     1     -12.227  10.538  63.109  1.00  0.00     0.000 HD 
HETATM    5  N   UNL     1     -12.358  13.753  63.389  1.00  0.00    -0.765 NA 
HETATM    6  C   UNL     1     -11.973  14.712  64.253  1.00  0.00    -0.386 A  
HETATM    7  C   UNL     1     -11.210  14.451  65.405  1.00  0.00    -0.335 A  
HETATM    8  N   UNL     1     -12.409  15.985  63.869  1.00  0.00    -1.044 NA 
HETATM    9  N   UNL     1     -11.244  12.190  64.746  1.00  0.00    -0.314 NA 
HETATM   10  H1  UNL     1     -12.118  16.711  64.523  1.00  0.00     0.000 HD 
HETATM   11  N   UNL     1     -10.819  13.177  65.595  1.00  0.00    -0.275 NA 
HETATM   12  H2  UNL     1     -13.420  16.000  63.729  1.00  0.00     0.000 HD 
ENDROOT
BRANCH   7  13
HETATM   13  C   UNL     1     -10.808  15.442  66.445  1.00  0.00    -0.303 A  
HETATM   14  C   UNL     1     -11.173  15.347  67.820  1.00  0.00    -0.321 A  
HETATM   15  C   UNL     1     -10.787  16.349  68.739  1.00  0.00    -0.338 A  
HETATM   16 CL   UNL     1     -12.151  14.035  68.421  1.00  0.00    -0.371 Cl 
HETATM   17 CL   UNL     1     -11.173  16.278  70.429  1.00  0.00    -0.384 Cl 
HETATM   18  C   UNL     1     -10.069  17.468  68.319  1.00  0.00    -0.346 A  
HETATM   19  C   UNL     1      -9.690  17.579  66.989  1.00  0.00    -0.284 A  
HETATM   20  C   UNL     1     -10.033  16.570  66.082  1.00  0.00    -0.363 A  
ENDBRANCH   7  13
TORSDOF 1
ENDMDL
MODEL        6
REMARK 921   NORMALIZED FREE ENERGY PREDICTED BY IDOCK:   -6.55 KCAL/MOL
REMARK 922        TOTAL FREE ENERGY PREDICTED BY IDOCK:   -7.21 KCAL/MOL
REMARK 923 INTER-LIGAND FREE ENERGY PREDICTED BY IDOCK:   -6.91 KCAL/MOL
REMARK 924 INTRA-LIGAND FREE ENERGY PREDICTED BY IDOCK:   -0.30 KCAL/MOL
REMARK 927      BINDING AFFINITY PREDICTED BY RF-SCORE:    0.00 PKD
ROOT
HETATM    1  N   UNL     1     -11.727  16.276  63.765  1.00  0.00    -1.488 NA 
HETATM    2  H2  UNL     1     -11.080  16.182  62.982  1.00  0.00     0.000 HD 
HETATM    3  C   UNL     1     -11.576  15.198  64.616  1.00  0.00    -0.357 A  
HETATM    4  H1  UNL     1     -12.665  16.462  63.408  1.00  0.00     0.000 HD 
HETATM    5  N   UNL     1     -10.350  14.955  65.082  1.00  0.00    -0.400 NA 
HETATM    6  C   UNL     1     -10.235  13.962  65.987  1.00  0.00    -0.310 A  
HETATM    7  C   UNL     1     -11.320  13.172  66.406  1.00  0.00    -0.315 A  
HETATM    8  N   UNL     1      -8.923  13.807  66.447  1.00  0.00    -0.471 NA 
HETATM    9  N   UNL     1     -12.641  14.448  64.931  1.00  0.00    -0.599 NA 
HETATM   10  H1  UNL     1      -8.837  13.056  67.132  1.00  0.00     0.000 HD 
HETATM   11  N   UNL     1     -12.507  13.412  65.816  1.00  0.00    -0.453 NA 
HETATM   12  H2  UNL     1      -8.557  14.685  66.816  1.00  0.00     0.000 HD 
ENDROOT
BRANCH   7  13
HETATM   13  C   UNL     1     -11.290  12.109  67.452  1.00  0.00    -0.393 A  
HETATM   14  C   UNL     1     -10.797  10.790  67.233  1.00  0.00    -0.288 A  
HETATM   15  C   UNL     1     -10.839   9.824  68.264  1.00  0.00    -0.210 A  
HETATM   16 CL   UNL     1     -10.177  10.288  65.683  1.00  0.00    -0.331 Cl 
HETATM   17 CL   UNL     1     -10.230   8.211  68.072  1.00  0.00    -0.248 Cl 
HETATM   18  C   UNL     1     -11.392  10.128  69.508  1.00  0.00    -0.260 A  
HETATM   19  C   UNL     1     -11.866  11.408  69.751  1.00  0.00    -0.435 A  
HETATM   20  C   UNL     1     -11.790  12.382  68.749  1.00  0.00    -0.358 A  
ENDBRANCH   7  13
TORSDOF 1
ENDMDL
MODEL        7
REMARK 921   NORMALIZED FREE ENERGY PREDICTED BY IDOCK:   -6.43 KCAL/MOL
REMARK 922        TOTAL FREE ENERGY PREDICTED BY IDOCK:   -7.08 KCAL/MOL
REMARK 923 INTER-LIGAND FREE ENERGY PREDICTED BY IDOCK:   -6.82 KCAL/MOL
REMARK 924 INTRA-LIGAND FREE ENERGY PREDICTED BY IDOCK:   -0.26 KCAL/MOL
REMARK 927      BINDING AFFINITY PREDICTED BY RF-SCORE:    0.00 PKD
ROOT
HETATM    1  N   UNL     1     -12.267  11.489  62.846  1.00  0.00    -0.855 NA 
HETATM    2  H2  UNL     1     -11.877  10.549  62.920  1.00  0.00     0.000 HD 
HETATM    3  C   UNL     1     -12.071  12.162  64.037  1.00  0.00    -0.443 A  
HETATM    4  H1  UNL     1     -13.222  11.433  62.493  1.00  0.00     0.000 HD 
HETATM    5  N   UNL     1     -10.822  12.236  64.499  1.00  0.00    -0.297 NA 
HETATM    6  C   UNL     1     -10.633  12.977  65.609  1.00  0.00    -0.282 A  
HETATM    7  C   UNL     1     -11.679  13.614  66.298  1.00  0.00    -0.367 A  
HETATM    8  N   UNL     1      -9.289  13.028  65.994  1.00  0.00    -0.462 NA 
HETATM    9  N   UNL     1     -13.121  12.697  64.676  1.00  0.00    -0.848 NA 
HETATM   10  H1  UNL     1      -9.146  13.590  66.834  1.00  0.00     0.000 HD 
HETATM   11  N   UNL     1     -12.925  13.410  65.828  1.00  0.00    -0.376 NA 
HETATM   12  H2  UNL     1      -8.699  13.356  65.229  1.00  0.00     0.000 HD 
ENDROOT
BRANCH   7  13
HETATM   13  C   UNL     1     -11.544  14.508  67.485  1.00  0.00    -0.403 A  
HETATM   14  C   UNL     1     -10.978  15.815  67.438  1.00  0.00    -0.279 A  
HETATM   15  C   UNL     1     -10.847  16.586  68.616  1.00  0.00    -0.345 A  
HETATM   16 CL   UNL     1     -10.372  16.500  65.954  1.00  0.00    -0.362 Cl 
HETATM   17 CL   UNL     1     -10.194  18.194  68.622  1.00  0.00    -0.393 Cl 
HETATM   18  C   UNL     1     -11.238  16.076  69.853  1.00  0.00    -0.361 A  
HETATM   19  C   UNL     1     -11.804  14.812  69.924  1.00  0.00    -0.364 A  
HETATM   20  C   UNL     1     -11.975  14.059  68.758  1.00  0.00    -0.382 A  
ENDBRANCH   7  13
TORSDOF 1
ENDMDL
MODEL        8
REMARK 921   NORMALIZED FREE ENERGY PREDICTED BY IDOCK:   -6.37 KCAL/MOL
REMARK 922        TOTAL FREE ENERGY PREDICTED BY IDOCK:   -7.02 KCAL/MOL
REMARK 923 INTER-LIGAND FREE ENERGY PREDICTED BY IDOCK:   -6.76 KCAL/MOL
REMARK 924 INTRA-LIGAND FREE ENERGY PREDICTED BY IDOCK:   -0.26 KCAL/MOL
REMARK 927      BINDING AFFINITY PREDICTED BY RF-SCORE:    0.00 PKD
ROOT
HETATM    1  N   UNL     1     -12.411  11.381  63.032  1.00  0.00    -0.854 NA 
HETATM    2  H2  UNL     1     -12.170  10.424  63.291  1.00  0.00     0.000 HD 
HETATM    3  C   UNL     1     -12.092  12.233  64.072  1.00  0.00    -0.471 A  
HETATM    4  H1  UNL     1     -13.370  11.406  62.684  1.00  0.00     0.000 HD 
HETATM    5  N   UNL     1     -10.839  12.200  64.527  1.00  0.00    -0.295 NA 
HETATM    6  C   UNL     1     -10.518  13.103  65.474  1.00  0.00    -0.288 A  
HETATM    7  C   UNL     1     -11.441  14.016  66.014  1.00  0.00    -0.338 A  
HETATM    8  N   UNL     1      -9.175  13.019  65.860  1.00  0.00    -0.453 NA 
HETATM    9  N   UNL     1     -13.036  13.037  64.582  1.00  0.00    -0.730 NA 
HETATM   10  H1  UNL     1      -8.933  13.703  66.577  1.00  0.00     0.000 HD 
HETATM   11  N   UNL     1     -12.711  13.920  65.577  1.00  0.00    -0.611 NA 
HETATM   12  H2  UNL     1      -8.556  13.097  65.053  1.00  0.00     0.000 HD 
ENDROOT
BRANCH   7  13
HETATM   13  C   UNL     1     -11.148  15.090  67.007  1.00  0.00    -0.334 A  
HETATM   14  C   UNL     1     -11.476  15.006  68.391  1.00  0.00    -0.323 A  
HETATM   15  C   UNL     1     -11.203  16.084  69.264  1.00  0.00    -0.346 A  
HETATM   16 CL   UNL     1     -12.275  13.609  69.062  1.00  0.00    -0.331 Cl 
HETATM   17 CL   UNL     1     -11.550  16.035  70.963  1.00  0.00    -0.451 Cl 
HETATM   18  C   UNL     1     -10.636  17.265  68.786  1.00  0.00    -0.305 A  
HETATM   19  C   UNL     1     -10.295  17.368  67.446  1.00  0.00    -0.343 A  
HETATM   20  C   UNL     1     -10.524  16.290  66.584  1.00  0.00    -0.290 A  
ENDBRANCH   7  13
TORSDOF 1
ENDMDL
MODEL        9
REMARK 921   NORMALIZED FREE ENERGY PREDICTED BY IDOCK:   -6.35 KCAL/MOL
REMARK 922        TOTAL FREE ENERGY PREDICTED BY IDOCK:   -6.99 KCAL/MOL
REMARK 923 INTER-LIGAND FREE ENERGY PREDICTED BY IDOCK:   -6.77 KCAL/MOL
REMARK 924 INTRA-LIGAND FREE ENERGY PREDICTED BY IDOCK:   -0.23 KCAL/MOL
REMARK 927      BINDING AFFINITY PREDICTED BY RF-SCORE:    0.00 PKD
ROOT
HETATM    1  N   UNL     1     -11.596  16.219  63.779  1.00  0.00    -1.482 NA 
HETATM    2  H2  UNL     1     -10.684  16.132  63.331  1.00  0.00     0.000 HD 
HETATM    3  C   UNL     1     -11.623  15.439  64.920  1.00  0.00    -0.248 A  
HETATM    4  H1  UNL     1     -12.330  16.060  63.088  1.00  0.00     0.000 HD 
HETATM    5  N   UNL     1     -10.665  15.646  65.824  1.00  0.00    -0.336 NA 
HETATM    6  C   UNL     1     -10.759  14.948  66.973  1.00  0.00    -0.307 A  
HETATM    7  C   UNL     1     -11.774  14.008  67.222  1.00  0.00    -0.389 A  
HETATM    8  N   UNL     1      -9.734  15.259  67.873  1.00  0.00    -0.211 NA 
HETATM    9  N   UNL     1     -12.585  14.518  65.070  1.00  0.00    -0.498 NA 
HETATM   10  H1  UNL     1      -9.806  14.731  68.743  1.00  0.00     0.000 HD 
HETATM   11  N   UNL     1     -12.647  13.781  66.222  1.00  0.00    -0.384 NA 
HETATM   12  H2  UNL     1      -9.697  16.263  68.055  1.00  0.00     0.000 HD 
ENDROOT
BRANCH   7  13
HETATM   13  C   UNL     1     -11.990  13.252  68.490  1.00  0.00    -0.340 A  
HETATM   14  C   UNL     1     -12.389  13.854  69.719  1.00  0.00    -0.275 A  
HETATM   15  C   UNL     1     -12.533  13.075  70.890  1.00  0.00    -0.310 A  
HETATM   16 CL   UNL     1     -12.661  15.571  69.854  1.00  0.00    -0.264 Cl 
HETATM   17 CL   UNL     1     -13.043  13.741  72.409  1.00  0.00    -0.513 Cl 
HETATM   18  C   UNL     1     -12.259  11.708  70.879  1.00  0.00    -0.401 A  
HETATM   19  C   UNL     1     -11.882  11.095  69.693  1.00  0.00    -0.419 A  
HETATM   20  C   UNL     1     -11.777  11.852  68.521  1.00  0.00    -0.388 A  
ENDBRANCH   7  13
TORSDOF 1
ENDMDL
MODEL       10
REMARK 921   NORMALIZED FREE ENERGY PREDICTED BY IDOCK:   -6.30 KCAL/MOL
REMARK 922        TOTAL FREE ENERGY PREDICTED BY IDOCK:   -6.94 KCAL/MOL
REMARK 923 INTER-LIGAND FREE ENERGY PREDICTED BY IDOCK:   -6.82 KCAL/MOL
REMARK 924 INTRA-LIGAND FREE ENERGY PREDICTED BY IDOCK:   -0.13 KCAL/MOL
REMARK 927      BINDING AFFINITY PREDICTED BY RF-SCORE:    0.00 PKD
ROOT
HETATM    1  N   UNL     1     -13.004  11.618  62.846  1.00  0.00    -0.792 NA 
HETATM    2  H2  UNL     1     -12.454  11.741  61.996  1.00  0.00     0.000 HD 
HETATM    3  C   UNL     1     -12.516  12.451  63.834  1.00  0.00    -0.476 A  
HETATM    4  H1  UNL     1     -13.071  10.623  63.064  1.00  0.00     0.000 HD 
HETATM    5  N   UNL     1     -12.428  13.751  63.550  1.00  0.00    -0.813 NA 
HETATM    6  C   UNL     1     -12.042  14.563  64.553  1.00  0.00    -0.484 A  
HETATM    7  C   UNL     1     -11.698  14.096  65.834  1.00  0.00    -0.365 A  
HETATM    8  N   UNL     1     -12.018  15.910  64.173  1.00  0.00    -0.959 NA 
HETATM    9  N   UNL     1     -12.148  11.934  65.015  1.00  0.00    -0.271 NA 
HETATM   10  H1  UNL     1     -11.726  16.524  64.933  1.00  0.00     0.000 HD 
HETATM   11  N   UNL     1     -11.714  12.762  66.015  1.00  0.00    -0.396 NA 
HETATM   12  H2  UNL     1     -12.918  16.200  63.790  1.00  0.00     0.000 HD 
ENDROOT
BRANCH   7  13
HETATM   13  C   UNL     1     -11.334  14.933  67.014  1.00  0.00    -0.345 A  
HETATM   14  C   UNL     1     -10.176  15.761  67.078  1.00  0.00    -0.280 A  
HETATM   15  C   UNL     1      -9.876  16.494  68.249  1.00  0.00    -0.243 A  
HETATM   16 CL   UNL     1      -9.049  15.866  65.751  1.00  0.00    -0.290 Cl 
HETATM   17 CL   UNL     1      -8.499  17.541  68.380  1.00  0.00    -0.268 Cl 
HETATM   18  C   UNL     1     -10.688  16.401  69.378  1.00  0.00    -0.324 A  
HETATM   19  C   UNL     1     -11.829  15.613  69.339  1.00  0.00    -0.391 A  
HETATM   20  C   UNL     1     -12.154  14.917  68.169  1.00  0.00    -0.120 A  
ENDBRANCH   7  13
TORSDOF 1
ENDMDL
MODEL       11
REMARK 921   NORMALIZED FREE ENERGY PREDICTED BY IDOCK:   -6.22 KCAL/MOL
REMARK 922        TOTAL FREE ENERGY PREDICTED BY IDOCK:   -6.86 KCAL/MOL
REMARK 923 INTER-LIGAND FREE ENERGY PREDICTED BY IDOCK:   -6.58 KCAL/MOL
REMARK 924 INTRA-LIGAND FREE ENERGY PREDICTED BY IDOCK:   -0.28 KCAL/MOL
REMARK 927      BINDING AFFINITY PREDICTED BY RF-SCORE:    0.00 PKD
ROOT
HETATM    1  N   UNL     1     -12.151  16.175  63.870  1.00  0.00    -1.261 NA 
HETATM    2  H2  UNL     1     -13.161  16.240  63.995  1.00  0.00     0.000 HD 
HETATM    3  C   UNL     1     -11.730  14.899  64.194  1.00  0.00    -0.128 A  
HETATM    4  H1  UNL     1     -11.700  16.953  64.352  1.00  0.00     0.000 HD 
HETATM    5  N   UNL     1     -12.320  13.882  63.565  1.00  0.00    -0.765 NA 
HETATM    6  C   UNL     1     -11.833  12.652  63.820  1.00  0.00    -0.498 A  
HETATM    7  C   UNL     1     -10.789  12.409  64.731  1.00  0.00    -0.304 A  
HETATM    8  N   UNL     1     -12.486  11.656  63.086  1.00  0.00    -0.949 NA 
HETATM    9  N   UNL     1     -10.771  14.733  65.116  1.00  0.00    -0.385 NA 
HETATM   10  H1  UNL     1     -12.117  10.724  63.279  1.00  0.00     0.000 HD 
HETATM   11  N   UNL     1     -10.313  13.475  65.402  1.00  0.00    -0.309 NA 
HETATM   12  H2  UNL     1     -12.463  11.860  62.087  1.00  0.00     0.000 HD 
ENDROOT
BRANCH   7  13
HETATM   13  C   UNL     1     -10.147  11.092  65.012  1.00  0.00    -0.338 A  
HETATM   14  C   UNL     1      -9.244  10.439  64.124  1.00  0.00    -0.259 A  
HETATM   15  C   UNL     1      -8.708   9.172  64.444  1.00  0.00    -0.153 A  
HETATM   16 CL   UNL     1      -8.804  11.137  62.587  1.00  0.00    -0.326 Cl 
HETATM   17 CL   UNL     1      -7.582   8.338  63.420  1.00  0.00    -0.123 Cl 
HETATM   18  C   UNL     1      -9.073   8.516  65.619  1.00  0.00    -0.189 A  
HETATM   19  C   UNL     1      -9.940   9.135  66.507  1.00  0.00    -0.359 A  
HETATM   20  C   UNL     1     -10.442  10.408  66.217  1.00  0.00    -0.229 A  
ENDBRANCH   7  13
TORSDOF 1
ENDMDL
MODEL       12
REMARK 921   NORMALIZED FREE ENERGY PREDICTED BY IDOCK:   -6.18 KCAL/MOL
REMARK 922        TOTAL FREE ENERGY PREDICTED BY IDOCK:   -6.82 KCAL/MOL
REMARK 923 INTER-LIGAND FREE ENERGY PREDICTED BY IDOCK:   -6.53 KCAL/MOL
REMARK 924 INTRA-LIGAND FREE ENERGY PREDICTED BY IDOCK:   -0.29 KCAL/MOL
REMARK 927      BINDING AFFINITY PREDICTED BY RF-SCORE:    0.00 PKD
ROOT
HETATM    1  N   UNL     1     -10.257  10.662  62.615  1.00  0.00    -0.757 NA 
HETATM    2  H2  UNL     1      -9.964  11.119  61.751  1.00  0.00     0.000 HD 
HETATM    3  C   UNL     1     -10.419  11.611  63.605  1.00  0.00    -0.429 A  
HETATM    4  H1  UNL     1      -9.630   9.881  62.813  1.00  0.00     0.000 HD 
HETATM    5  N   UNL     1     -11.237  12.632  63.347  1.00  0.00    -0.433 NA 
HETATM    6  C   UNL     1     -11.461  13.496  64.356  1.00  0.00    -0.394 A  
HETATM    7  C   UNL     1     -10.844  13.387  65.615  1.00  0.00    -0.283 A  
HETATM    8  N   UNL     1     -12.361  14.508  64.004  1.00  0.00    -0.974 NA 
HETATM    9  N   UNL     1      -9.755  11.480  64.763  1.00  0.00    -0.237 NA 
HETATM   10  H1  UNL     1     -12.530  15.162  64.768  1.00  0.00     0.000 HD 
HETATM   11  N   UNL     1      -9.954  12.389  65.767  1.00  0.00    -0.255 NA 
HETATM   12  H2  UNL     1     -13.236  14.116  63.655  1.00  0.00     0.000 HD 
ENDROOT
BRANCH   7  13
HETATM   13  C   UNL     1     -11.093  14.256  66.801  1.00  0.00    -0.316 A  
HETATM   14  C   UNL     1     -10.571  15.574  66.948  1.00  0.00    -0.307 A  
HETATM   15  C   UNL     1     -10.818  16.322  68.122  1.00  0.00    -0.342 A  
HETATM   16 CL   UNL     1      -9.563  16.303  65.725  1.00  0.00    -0.325 Cl 
HETATM   17 CL   UNL     1     -10.236  17.940  68.350  1.00  0.00    -0.378 Cl 
HETATM   18  C   UNL     1     -11.550  15.777  69.176  1.00  0.00    -0.399 A  
HETATM   19  C   UNL     1     -12.081  14.502  69.054  1.00  0.00    -0.286 A  
HETATM   20  C   UNL     1     -11.876  13.772  67.878  1.00  0.00    -0.413 A  
ENDBRANCH   7  13
TORSDOF 1
ENDMDL
MODEL       13
REMARK 921   NORMALIZED FREE ENERGY PREDICTED BY IDOCK:   -6.17 KCAL/MOL
REMARK 922        TOTAL FREE ENERGY PREDICTED BY IDOCK:   -6.81 KCAL/MOL
REMARK 923 INTER-LIGAND FREE ENERGY PREDICTED BY IDOCK:   -6.57 KCAL/MOL
REMARK 924 INTRA-LIGAND FREE ENERGY PREDICTED BY IDOCK:   -0.24 KCAL/MOL
REMARK 927      BINDING AFFINITY PREDICTED BY RF-SCORE:    0.00 PKD
ROOT
HETATM    1  N   UNL     1     -12.161  14.187  65.962  1.00  0.00    -0.438 NA 
HETATM    2  H2  UNL     1     -11.385  14.849  65.948  1.00  0.00     0.000 HD 
HETATM    3  C   UNL     1     -12.015  13.330  67.035  1.00  0.00    -0.365 A  
HETATM    4  H1  UNL     1     -12.264  13.767  65.037  1.00  0.00     0.000 HD 
HETATM    5  N   UNL     1     -11.881  13.879  68.243  1.00  0.00    -0.362 NA 
HETATM    6  C   UNL     1     -11.837  13.031  69.289  1.00  0.00    -0.316 A  
HETATM    7  C   UNL     1     -11.879  11.632  69.150  1.00  0.00    -0.326 A  
HETATM    8  N   UNL     1     -11.735  13.698  70.514  1.00  0.00    -0.527 NA 
HETATM    9  N   UNL     1     -12.004  12.005  66.828  1.00  0.00    -0.610 NA 
HETATM   10  H1  UNL     1     -11.702  13.056  71.307  1.00  0.00     0.000 HD 
HETATM   11  N   UNL     1     -11.913  11.150  67.893  1.00  0.00    -0.620 NA 
HETATM   12  H2  UNL     1     -12.488  14.379  70.625  1.00  0.00     0.000 HD 
ENDROOT
BRANCH   7  13
HETATM   13  C   UNL     1     -11.909  10.632  70.257  1.00  0.00    -0.430 A  
HETATM   14  C   UNL     1     -10.796   9.824  70.631  1.00  0.00    -0.329 A  
HETATM   15  C   UNL     1     -10.914   8.869  71.666  1.00  0.00    -0.345 A  
HETATM   16 CL   UNL     1      -9.265   9.931  69.803  1.00  0.00    -0.245 Cl 
HETATM   17 CL   UNL     1      -9.592   7.875  72.189  1.00  0.00    -0.236 Cl 
HETATM   18  C   UNL     1     -12.129   8.671  72.322  1.00  0.00    -0.443 A  
HETATM   19  C   UNL     1     -13.224   9.454  71.987  1.00  0.00    -0.529 A  
HETATM   20  C   UNL     1     -13.103  10.430  70.993  1.00  0.00    -0.450 A  
ENDBRANCH   7  13
TORSDOF 1
ENDMDL
MODEL       14
REMARK 921   NORMALIZED FREE ENERGY PREDICTED BY IDOCK:   -6.17 KCAL/MOL
REMARK 922        TOTAL FREE ENERGY PREDICTED BY IDOCK:   -6.80 KCAL/MOL
REMARK 923 INTER-LIGAND FREE ENERGY PREDICTED BY IDOCK:   -6.51 KCAL/MOL
REMARK 924 INTRA-LIGAND FREE ENERGY PREDICTED BY IDOCK:   -0.30 KCAL/MOL
REMARK 927      BINDING AFFINITY PREDICTED BY RF-SCORE:    0.00 PKD
ROOT
HETATM    1  N   UNL     1     -12.036  12.583  66.056  1.00  0.00    -0.612 NA 
HETATM    2  H2  UNL     1     -11.642  12.113  65.241  1.00  0.00     0.000 HD 
HETATM    3  C   UNL     1     -11.457  13.829  66.192  1.00  0.00    -0.338 A  
HETATM    4  H1  UNL     1     -11.994  11.956  66.860  1.00  0.00     0.000 HD 
HETATM    5  N   UNL     1     -11.511  14.648  65.141  1.00  0.00    -0.362 NA 
HETATM    6  C   UNL     1     -11.029  15.893  65.320  1.00  0.00    -0.324 A  
HETATM    7  C   UNL     1     -10.448  16.328  66.525  1.00  0.00    -0.290 A  
HETATM    8  N   UNL     1     -11.165  16.689  64.178  1.00  0.00    -1.430 NA 
HETATM    9  N   UNL     1     -10.866  14.162  67.349  1.00  0.00    -0.284 NA 
HETATM   10  H1  UNL     1     -10.800  17.632  64.314  1.00  0.00     0.000 HD 
HETATM   11  N   UNL     1     -10.337  15.414  67.507  1.00  0.00    -0.259 NA 
HETATM   12  H2  UNL     1     -12.134  16.713  63.860  1.00  0.00     0.000 HD 
ENDROOT
BRANCH   7  13
HETATM   13  C   UNL     1      -9.960  17.705  66.826  1.00  0.00    -0.320 A  
HETATM   14  C   UNL     1      -8.636  18.158  66.557  1.00  0.00    -0.263 A  
HETATM   15  C   UNL     1      -8.235  19.468  66.909  1.00  0.00    -0.285 A  
HETATM   16 CL   UNL     1      -7.437  17.114  65.840  1.00  0.00    -0.167 Cl 
HETATM   17 CL   UNL     1      -6.649  20.089  66.582  1.00  0.00    -0.220 Cl 
HETATM   18  C   UNL     1      -9.115  20.335  67.555  1.00  0.00    -0.462 A  
HETATM   19  C   UNL     1     -10.414  19.924  67.817  1.00  0.00    -0.511 A  
HETATM   20  C   UNL     1     -10.829  18.644  67.434  1.00  0.00    -0.381 A  
ENDBRANCH   7  13
TORSDOF 1
ENDMDL
MODEL       15
REMARK 921   NORMALIZED FREE ENERGY PREDICTED BY IDOCK:   -6.08 KCAL/MOL
REMARK 922        TOTAL FREE ENERGY PREDICTED BY IDOCK:   -6.71 KCAL/MOL
REMARK 923 INTER-LIGAND FREE ENERGY PREDICTED BY IDOCK:   -6.52 KCAL/MOL
REMARK 924 INTRA-LIGAND FREE ENERGY PREDICTED BY IDOCK:   -0.19 KCAL/MOL
REMARK 927      BINDING AFFINITY PREDICTED BY RF-SCORE:    0.00 PKD
ROOT
HETATM    1  N   UNL     1     -13.620  16.283  73.823  1.00  0.00    -0.847 NA 
HETATM    2  H2  UNL     1     -13.661  17.239  73.470  1.00  0.00     0.000 HD 
HETATM    3  C   UNL     1     -13.225  15.435  72.806  1.00  0.00    -0.490 A  
HETATM    4  H1  UNL     1     -14.492  16.062  74.304  1.00  0.00     0.000 HD 
HETATM    5  N   UNL     1     -12.085  15.723  72.177  1.00  0.00    -0.427 NA 
HETATM    6  C   UNL     1     -11.664  14.836  71.254  1.00  0.00    -0.303 A  
HETATM    7  C   UNL     1     -12.386  13.678  70.912  1.00  0.00    -0.371 A  
HETATM    8  N   UNL     1     -10.443  15.202  70.678  1.00  0.00    -0.511 NA 
HETATM    9  N   UNL     1     -13.990  14.380  72.488  1.00  0.00    -0.551 NA 
HETATM   10  H1  UNL     1     -10.125  14.530  69.980  1.00  0.00     0.000 HD 
HETATM   11  N   UNL     1     -13.577  13.508  71.518  1.00  0.00    -0.248 NA 
HETATM   12  H2  UNL     1      -9.731  15.355  71.392  1.00  0.00     0.000 HD 
ENDROOT
BRANCH   7  13
HETATM   13  C   UNL     1     -11.955  12.614  69.960  1.00  0.00    -0.377 A  
HETATM   14  C   UNL     1     -11.815  12.810  68.555  1.00  0.00    -0.306 A  
HETATM   15  C   UNL     1     -11.441  11.740  67.711  1.00  0.00    -0.311 A  
HETATM   16 CL   UNL     1     -12.151  14.349  67.806  1.00  0.00    -0.361 Cl 
HETATM   17 CL   UNL     1     -11.225  11.920  65.999  1.00  0.00    -0.375 Cl 
HETATM   18  C   UNL     1     -11.230  10.462  68.227  1.00  0.00    -0.330 A  
HETATM   19  C   UNL     1     -11.346  10.247  69.592  1.00  0.00    -0.315 A  
HETATM   20  C   UNL     1     -11.676  11.311  70.439  1.00  0.00    -0.398 A  
ENDBRANCH   7  13
TORSDOF 1
ENDMDL
MODEL       16
REMARK 921   NORMALIZED FREE ENERGY PREDICTED BY IDOCK:   -6.04 KCAL/MOL
REMARK 922        TOTAL FREE ENERGY PREDICTED BY IDOCK:   -6.67 KCAL/MOL
REMARK 923 INTER-LIGAND FREE ENERGY PREDICTED BY IDOCK:   -6.38 KCAL/MOL
REMARK 924 INTRA-LIGAND FREE ENERGY PREDICTED BY IDOCK:   -0.29 KCAL/MOL
REMARK 927      BINDING AFFINITY PREDICTED BY RF-SCORE:    0.00 PKD
ROOT
HETATM    1  N   UNL     1      -9.978  13.441  64.100  1.00  0.00    -0.757 NA 
HETATM    2  H2  UNL     1      -9.146  12.907  63.849  1.00  0.00     0.000 HD 
HETATM    3  C   UNL     1     -10.406  13.063  65.358  1.00  0.00    -0.300 A  
HETATM    4  H1  UNL     1     -10.656  13.387  63.339  1.00  0.00     0.000 HD 
HETATM    5  N   UNL     1      -9.520  13.134  66.352  1.00  0.00    -0.248 NA 
HETATM    6  C   UNL     1      -9.977  12.855  67.588  1.00  0.00    -0.218 A  
HETATM    7  C   UNL     1     -11.301  12.460  67.850  1.00  0.00    -0.289 A  
HETATM    8  N   UNL     1      -8.988  12.994  68.568  1.00  0.00    -0.363 NA 
HETATM    9  N   UNL     1     -11.666  12.639  65.529  1.00  0.00    -0.380 NA 
HETATM   10  H1  UNL     1      -9.335  12.783  69.504  1.00  0.00     0.000 HD 
HETATM   11  N   UNL     1     -12.110  12.313  66.783  1.00  0.00    -0.565 NA 
HETATM   12  H2  UNL     1      -8.565  13.922  68.534  1.00  0.00     0.000 HD 
ENDROOT
BRANCH   7  13
HETATM   13  C   UNL     1     -11.901  12.206  69.191  1.00  0.00    -0.361 A  
HETATM   14  C   UNL     1     -12.276  13.234  70.105  1.00  0.00    -0.306 A  
HETATM   15  C   UNL     1     -12.802  12.913  71.376  1.00  0.00    -0.283 A  
HETATM   16 CL   UNL     1     -12.054  14.922  69.727  1.00  0.00    -0.352 Cl 
HETATM   17 CL   UNL     1     -13.304  14.115  72.522  1.00  0.00    -0.568 Cl 
HETATM   18  C   UNL     1     -12.937  11.585  71.780  1.00  0.00    -0.500 A  
HETATM   19  C   UNL     1     -12.593  10.565  70.906  1.00  0.00    -0.493 A  
HETATM   20  C   UNL     1     -12.110  10.875  69.629  1.00  0.00    -0.400 A  
ENDBRANCH   7  13
TORSDOF 1
ENDMDL
MODEL       17
REMARK 921   NORMALIZED FREE ENERGY PREDICTED BY IDOCK:   -5.95 KCAL/MOL
REMARK 922        TOTAL FREE ENERGY PREDICTED BY IDOCK:   -6.58 KCAL/MOL
REMARK 923 INTER-LIGAND FREE ENERGY PREDICTED BY IDOCK:   -6.32 KCAL/MOL
REMARK 924 INTRA-LIGAND FREE ENERGY PREDICTED BY IDOCK:   -0.26 KCAL/MOL
REMARK 927      BINDING AFFINITY PREDICTED BY RF-SCORE:    0.00 PKD
ROOT
HETATM    1  N   UNL     1     -10.257  19.024  67.880  1.00  0.00    -0.380 NA 
HETATM    2  H2  UNL     1      -9.780  18.919  68.776  1.00  0.00     0.000 HD 
HETATM    3  C   UNL     1     -10.410  17.782  67.294  1.00  0.00    -0.363 A  
HETATM    4  H1  UNL     1      -9.790  19.746  67.331  1.00  0.00     0.000 HD 
HETATM    5  N   UNL     1     -11.020  16.838  68.011  1.00  0.00    -0.338 NA 
HETATM    6  C   UNL     1     -11.248  15.663  67.392  1.00  0.00    -0.219 A  
HETATM    7  C   UNL     1     -10.837  15.394  66.074  1.00  0.00    -0.314 A  
HETATM    8  N   UNL     1     -11.926  14.751  68.208  1.00  0.00    -0.529 NA 
HETATM    9  N   UNL     1      -9.942  17.573  66.055  1.00  0.00    -0.516 NA 
HETATM   10  H1  UNL     1     -12.099  13.862  67.739  1.00  0.00     0.000 HD 
HETATM   11  N   UNL     1     -10.138  16.361  65.450  1.00  0.00    -0.563 NA 
HETATM   12  H2  UNL     1     -12.793  15.152  68.566  1.00  0.00     0.000 HD 
ENDROOT
BRANCH   7  13
HETATM   13  C   UNL     1     -11.115  14.152  65.296  1.00  0.00    -0.331 A  
HETATM   14  C   UNL     1     -10.495  12.895  65.554  1.00  0.00    -0.289 A  
HETATM   15  C   UNL     1     -10.780  11.771  64.745  1.00  0.00    -0.302 A  
HETATM   16 CL   UNL     1      -9.323  12.694  66.829  1.00  0.00    -0.227 Cl 
HETATM   17 CL   UNL     1     -10.083  10.207  65.023  1.00  0.00    -0.375 Cl 
HETATM   18  C   UNL     1     -11.648  11.873  63.658  1.00  0.00    -0.559 A  
HETATM   19  C   UNL     1     -12.275  13.082  63.394  1.00  0.00    -0.552 A  
HETATM   20  C   UNL     1     -12.030  14.187  64.215  1.00  0.00    -0.460 A  
ENDBRANCH   7  13
TORSDOF 1
ENDMDL
MODEL       18
REMARK 921   NORMALIZED FREE ENERGY PREDICTED BY IDOCK:   -5.88 KCAL/MOL
REMARK 922        TOTAL FREE ENERGY PREDICTED BY IDOCK:   -6.50 KCAL/MOL
REMARK 923 INTER-LIGAND FREE ENERGY PREDICTED BY IDOCK:   -6.23 KCAL/MOL
REMARK 924 INTRA-LIGAND FREE ENERGY PREDICTED BY IDOCK:   -0.27 KCAL/MOL
REMARK 927      BINDING AFFINITY PREDICTED BY RF-SCORE:    0.00 PKD
ROOT
HETATM    1  N   UNL     1     -11.647  16.132  63.640  1.00  0.00    -1.221 NA 
HETATM    2  H2  UNL     1     -10.817  15.903  63.094  1.00  0.00     0.000 HD 
HETATM    3  C   UNL     1     -11.653  15.385  64.803  1.00  0.00    -0.286 A  
HETATM    4  H1  UNL     1     -12.472  16.072  63.042  1.00  0.00     0.000 HD 
HETATM    5  N   UNL     1     -10.575  15.463  65.584  1.00  0.00    -0.339 NA 
HETATM    6  C   UNL     1     -10.634  14.807  66.760  1.00  0.00    -0.302 A  
HETATM    7  C   UNL     1     -11.739  14.032  67.155  1.00  0.00    -0.393 A  
HETATM    8  N   UNL     1      -9.476  14.979  67.527  1.00  0.00    -0.202 NA 
HETATM    9  N   UNL     1     -12.714  14.620  65.093  1.00  0.00    -0.374 NA 
HETATM   10  H1  UNL     1      -9.522  14.482  68.417  1.00  0.00     0.000 HD 
HETATM   11  N   UNL     1     -12.746  13.920  66.269  1.00  0.00    -0.334 NA 
HETATM   12  H2  UNL     1      -9.273  15.969  67.668  1.00  0.00     0.000 HD 
ENDROOT
BRANCH   7  13
HETATM   13  C   UNL     1     -11.911  13.339  68.465  1.00  0.00    -0.384 A  
HETATM   14  C   UNL     1     -11.680  11.947  68.666  1.00  0.00    -0.323 A  
HETATM   15  C   UNL     1     -11.905  11.354  69.929  1.00  0.00    -0.359 A  
HETATM   16 CL   UNL     1     -11.170  10.904  67.365  1.00  0.00    -0.378 Cl 
HETATM   17 CL   UNL     1     -11.616   9.673  70.248  1.00  0.00    -0.279 Cl 
HETATM   18  C   UNL     1     -12.387  12.108  70.998  1.00  0.00    -0.331 A  
HETATM   19  C   UNL     1     -12.608  13.467  70.833  1.00  0.00    -0.414 A  
HETATM   20  C   UNL     1     -12.347  14.069  69.597  1.00  0.00    -0.309 A  
ENDBRANCH   7  13
TORSDOF 1
ENDMDL
MODEL       19
REMARK 921   NORMALIZED FREE ENERGY PREDICTED BY IDOCK:   -5.84 KCAL/MOL
REMARK 922        TOTAL FREE ENERGY PREDICTED BY IDOCK:   -6.46 KCAL/MOL
REMARK 923 INTER-LIGAND FREE ENERGY PREDICTED BY IDOCK:   -6.19 KCAL/MOL
REMARK 924 INTRA-LIGAND FREE ENERGY PREDICTED BY IDOCK:   -0.27 KCAL/MOL
REMARK 927      BINDING AFFINITY PREDICTED BY RF-SCORE:    0.00 PKD
ROOT
HETATM    1  N   UNL     1     -10.342  10.740  62.915  1.00  0.00    -0.754 NA 
HETATM    2  H2  UNL     1     -10.439  11.290  62.061  1.00  0.00     0.000 HD 
HETATM    3  C   UNL     1     -10.591  11.545  64.010  1.00  0.00    -0.379 A  
HETATM    4  H1  UNL     1      -9.454  10.239  62.895  1.00  0.00     0.000 HD 
HETATM    5  N   UNL     1     -11.751  12.201  64.036  1.00  0.00    -0.401 NA 
HETATM    6  C   UNL     1     -12.021  12.905  65.153  1.00  0.00    -0.414 A  
HETATM    7  C   UNL     1     -11.130  13.004  66.236  1.00  0.00    -0.289 A  
HETATM    8  N   UNL     1     -13.275  13.524  65.105  1.00  0.00    -0.644 NA 
HETATM    9  N   UNL     1      -9.672  11.643  64.982  1.00  0.00    -0.233 NA 
HETATM   10  H1  UNL     1     -13.479  14.057  65.951  1.00  0.00     0.000 HD 
HETATM   11  N   UNL     1      -9.936  12.397  66.094  1.00  0.00    -0.248 NA 
HETATM   12  H2  UNL     1     -14.012  12.847  64.910  1.00  0.00     0.000 HD 
ENDROOT
BRANCH   7  13
HETATM   13  C   UNL     1     -11.383  13.699  67.531  1.00  0.00    -0.335 A  
HETATM   14  C   UNL     1     -11.829  13.042  68.715  1.00  0.00    -0.317 A  
HETATM   15  C   UNL     1     -12.086  13.776  69.895  1.00  0.00    -0.348 A  
HETATM   16 CL   UNL     1     -12.131  11.325  68.752  1.00  0.00    -0.348 Cl 
HETATM   17 CL   UNL     1     -12.602  13.033  71.375  1.00  0.00    -0.384 Cl 
HETATM   18  C   UNL     1     -11.942  15.163  69.920  1.00  0.00    -0.372 A  
HETATM   19  C   UNL     1     -11.497  15.826  68.786  1.00  0.00    -0.391 A  
HETATM   20  C   UNL     1     -11.200  15.100  67.627  1.00  0.00    -0.329 A  
ENDBRANCH   7  13
TORSDOF 1
ENDMDL
MODEL       20
REMARK 921   NORMALIZED FREE ENERGY PREDICTED BY IDOCK:   -5.84 KCAL/MOL
REMARK 922        TOTAL FREE ENERGY PREDICTED BY IDOCK:   -6.46 KCAL/MOL
REMARK 923 INTER-LIGAND FREE ENERGY PREDICTED BY IDOCK:   -6.17 KCAL/MOL
REMARK 924 INTRA-LIGAND FREE ENERGY PREDICTED BY IDOCK:   -0.29 KCAL/MOL
REMARK 927      BINDING AFFINITY PREDICTED BY RF-SCORE:    0.00 PKD
ROOT
HETATM    1  N   UNL     1      -6.837  20.785  65.779  1.00  0.00    -0.476 NA 
HETATM    2  H2  UNL     1      -6.719  21.306  66.648  1.00  0.00     0.000 HD 
HETATM    3  C   UNL     1      -7.697  19.725  65.991  1.00  0.00    -0.332 A  
HETATM    4  H1  UNL     1      -5.920  20.572  65.386  1.00  0.00     0.000 HD 
HETATM    5  N   UNL     1      -8.895  20.003  66.506  1.00  0.00    -0.349 NA 
HETATM    6  C   UNL     1      -9.758  18.973  66.617  1.00  0.00    -0.341 A  
HETATM    7  C   UNL     1      -9.430  17.652  66.263  1.00  0.00    -0.215 A  
HETATM    8  N   UNL     1     -10.999  19.368  67.127  1.00  0.00    -0.449 NA 
HETATM    9  N   UNL     1      -7.301  18.480  65.688  1.00  0.00    -0.528 NA 
HETATM   10  H1  UNL     1     -11.652  18.588  67.211  1.00  0.00     0.000 HD 
HETATM   11  N   UNL     1      -8.169  17.433  65.847  1.00  0.00    -0.552 NA 
HETATM   12  H2  UNL     1     -11.400  20.125  66.573  1.00  0.00     0.000 HD 
ENDROOT
BRANCH   7  13
HETATM   13  C   UNL     1     -10.347  16.475  66.287  1.00  0.00    -0.327 A  
HETATM   14  C   UNL     1     -10.751  15.804  67.477  1.00  0.00    -0.317 A  
HETATM   15  C   UNL     1     -11.591  14.669  67.415  1.00  0.00    -0.389 A  
HETATM   16 CL   UNL     1     -10.189  16.306  69.050  1.00  0.00    -0.244 Cl 
HETATM   17 CL   UNL     1     -12.142  13.824  68.827  1.00  0.00    -0.392 Cl 
HETATM   18  C   UNL     1     -12.018  14.161  66.189  1.00  0.00    -0.437 A  
HETATM   19  C   UNL     1     -11.651  14.804  65.016  1.00  0.00    -0.378 A  
HETATM   20  C   UNL     1     -10.854  15.952  65.072  1.00  0.00    -0.444 A  
ENDBRANCH   7  13
TORSDOF 1
ENDMDL
MODEL       21
REMARK 921   NORMALIZED FREE ENERGY PREDICTED BY IDOCK:   -5.84 KCAL/MOL
REMARK 922        TOTAL FREE ENERGY PREDICTED BY IDOCK:   -6.46 KCAL/MOL
REMARK 923 INTER-LIGAND FREE ENERGY PREDICTED BY IDOCK:   -6.42 KCAL/MOL
REMARK 924 INTRA-LIGAND FREE ENERGY PREDICTED BY IDOCK:   -0.04 KCAL/MOL
REMARK 927      BINDING AFFINITY PREDICTED BY RF-SCORE:    0.00 PKD
ROOT
HETATM    1  N   UNL     1      -9.022  16.829  66.030  1.00  0.00    -0.495 NA 
HETATM    2  H2  UNL     1      -9.561  17.286  65.293  1.00  0.00     0.000 HD 
HETATM    3  C   UNL     1      -9.883  16.364  67.006  1.00  0.00    -0.251 A  
HETATM    4  H1  UNL     1      -8.266  17.446  66.328  1.00  0.00     0.000 HD 
HETATM    5  N   UNL     1     -10.871  15.558  66.617  1.00  0.00    -0.307 NA 
HETATM    6  C   UNL     1     -11.642  15.036  67.591  1.00  0.00    -0.312 A  
HETATM    7  C   UNL     1     -11.473  15.338  68.953  1.00  0.00    -0.332 A  
HETATM    8  N   UNL     1     -12.624  14.173  67.091  1.00  0.00    -0.458 NA 
HETATM    9  N   UNL     1      -9.702  16.739  68.281  1.00  0.00    -0.244 NA 
HETATM   10  H1  UNL     1     -13.207  13.778  67.828  1.00  0.00     0.000 HD 
HETATM   11  N   UNL     1     -10.519  16.238  69.259  1.00  0.00    -0.264 NA 
HETATM   12  H2  UNL     1     -12.210  13.439  66.516  1.00  0.00     0.000 HD 
ENDROOT
BRANCH   7  13
HETATM   13  C   UNL     1     -12.234  14.748  70.093  1.00  0.00    -0.391 A  
HETATM   14  C   UNL     1     -12.267  13.355  70.393  1.00  0.00    -0.345 A  
HETATM   15  C   UNL     1     -13.045  12.867  71.467  1.00  0.00    -0.298 A  
HETATM   16 CL   UNL     1     -11.405  12.188  69.426  1.00  0.00    -0.325 Cl 
HETATM   17 CL   UNL     1     -13.105  11.189  71.903  1.00  0.00    -0.583 Cl 
HETATM   18  C   UNL     1     -13.822  13.730  72.238  1.00  0.00    -0.679 A  
HETATM   19  C   UNL     1     -13.798  15.092  71.976  1.00  0.00    -0.608 A  
HETATM   20  C   UNL     1     -12.998  15.588  70.941  1.00  0.00    -0.526 A  
ENDBRANCH   7  13
TORSDOF 1
ENDMDL
MODEL       22
REMARK 921   NORMALIZED FREE ENERGY PREDICTED BY IDOCK:   -5.75 KCAL/MOL
REMARK 922        TOTAL FREE ENERGY PREDICTED BY IDOCK:   -6.36 KCAL/MOL
REMARK 923 INTER-LIGAND FREE ENERGY PREDICTED BY IDOCK:   -6.08 KCAL/MOL
REMARK 924 INTRA-LIGAND FREE ENERGY PREDICTED BY IDOCK:   -0.29 KCAL/MOL
REMARK 927      BINDING AFFINITY PREDICTED BY RF-SCORE:    0.00 PKD
ROOT
HETATM    1  N   UNL     1     -11.991  14.402  71.196  1.00  0.00    -0.407 NA 
HETATM    2  H2  UNL     1     -11.368  13.930  71.852  1.00  0.00     0.000 HD 
HETATM    3  C   UNL     1     -11.808  13.877  69.931  1.00  0.00    -0.328 A  
HETATM    4  H1  UNL     1     -11.891  15.412  71.303  1.00  0.00     0.000 HD 
HETATM    5  N   UNL     1     -11.938  12.557  69.792  1.00  0.00    -0.311 NA 
HETATM    6  C   UNL     1     -11.854  12.072  68.538  1.00  0.00    -0.311 A  
HETATM    7  C   UNL     1     -11.596  12.878  67.415  1.00  0.00    -0.360 A  
HETATM    8  N   UNL     1     -12.041  10.686  68.487  1.00  0.00    -0.819 NA 
HETATM    9  N   UNL     1     -11.506  14.694  68.913  1.00  0.00    -0.281 NA 
HETATM   10  H1  UNL     1     -11.977  10.319  67.537  1.00  0.00     0.000 HD 
HETATM   11  N   UNL     1     -11.377  14.186  67.648  1.00  0.00    -0.303 NA 
HETATM   12  H2  UNL     1     -12.923  10.419  68.926  1.00  0.00     0.000 HD 
ENDROOT
BRANCH   7  13
HETATM   13  C   UNL     1     -11.561  12.431  65.993  1.00  0.00    -0.455 A  
HETATM   14  C   UNL     1     -10.483  11.700  65.414  1.00  0.00    -0.275 A  
HETATM   15  C   UNL     1     -10.504  11.346  64.045  1.00  0.00    -0.378 A  
HETATM   16 CL   UNL     1      -9.072  11.259  66.339  1.00  0.00    -0.192 Cl 
HETATM   17 CL   UNL     1      -9.238  10.433  63.287  1.00  0.00    -0.277 Cl 
HETATM   18  C   UNL     1     -11.562  11.731  63.223  1.00  0.00    -0.325 A  
HETATM   19  C   UNL     1     -12.630  12.431  63.764  1.00  0.00    -0.541 A  
HETATM   20  C   UNL     1     -12.636  12.748  65.127  1.00  0.00    -0.513 A  
ENDBRANCH   7  13
TORSDOF 1
ENDMDL
MODEL       23
REMARK 921   NORMALIZED FREE ENERGY PREDICTED BY IDOCK:   -5.73 KCAL/MOL
REMARK 922        TOTAL FREE ENERGY PREDICTED BY IDOCK:   -6.34 KCAL/MOL
REMARK 923 INTER-LIGAND FREE ENERGY PREDICTED BY IDOCK:   -6.45 KCAL/MOL
REMARK 924 INTRA-LIGAND FREE ENERGY PREDICTED BY IDOCK:    0.11 KCAL/MOL
REMARK 927      BINDING AFFINITY PREDICTED BY RF-SCORE:    0.00 PKD
ROOT
HETATM    1  N   UNL     1     -10.041  20.102  66.350  1.00  0.00    -0.477 NA 
HETATM    2  H2  UNL     1     -10.889  20.611  66.101  1.00  0.00     0.000 HD 
HETATM    3  C   UNL     1     -10.296  18.744  66.323  1.00  0.00    -0.448 A  
HETATM    4  H1  UNL     1      -9.656  20.488  67.212  1.00  0.00     0.000 HD 
HETATM    5  N   UNL     1     -10.800  18.239  65.197  1.00  0.00    -0.555 NA 
HETATM    6  C   UNL     1     -10.952  16.901  65.151  1.00  0.00    -0.053 A  
HETATM    7  C   UNL     1     -10.651  16.053  66.232  1.00  0.00    -0.285 A  
HETATM    8  N   UNL     1     -11.448  16.460  63.919  1.00  0.00    -1.618 NA 
HETATM    9  N   UNL     1     -10.042  18.001  67.409  1.00  0.00    -0.334 NA 
HETATM   10  H1  UNL     1     -11.563  15.447  63.885  1.00  0.00     0.000 HD 
HETATM   11  N   UNL     1     -10.242  16.647  67.370  1.00  0.00    -0.280 NA 
HETATM   12  H2  UNL     1     -10.865  16.790  63.150  1.00  0.00     0.000 HD 
ENDROOT
BRANCH   7  13
HETATM   13  C   UNL     1     -10.722  14.563  66.237  1.00  0.00    -0.309 A  
HETATM   14  C   UNL     1      -9.631  13.714  66.584  1.00  0.00    -0.283 A  
HETATM   15  C   UNL     1      -9.764  12.308  66.525  1.00  0.00    -0.234 A  
HETATM   16 CL   UNL     1      -8.077  14.359  67.040  1.00  0.00    -0.165 Cl 
HETATM   17 CL   UNL     1      -8.486  11.220  66.963  1.00  0.00    -0.145 Cl 
HETATM   18  C   UNL     1     -10.953  11.720  66.096  1.00  0.00    -0.355 A  
HETATM   19  C   UNL     1     -12.034  12.522  65.764  1.00  0.00    -0.482 A  
HETATM   20  C   UNL     1     -11.923  13.914  65.860  1.00  0.00    -0.429 A  
ENDBRANCH   7  13
TORSDOF 1
ENDMDL
MODEL       24
REMARK 921   NORMALIZED FREE ENERGY PREDICTED BY IDOCK:   -5.69 KCAL/MOL
REMARK 922        TOTAL FREE ENERGY PREDICTED BY IDOCK:   -6.30 KCAL/MOL
REMARK 923 INTER-LIGAND FREE ENERGY PREDICTED BY IDOCK:   -6.17 KCAL/MOL
REMARK 924 INTRA-LIGAND FREE ENERGY PREDICTED BY IDOCK:   -0.13 KCAL/MOL
REMARK 927      BINDING AFFINITY PREDICTED BY RF-SCORE:    0.00 PKD
ROOT
HETATM    1  N   UNL     1     -13.399  16.232  73.784  1.00  0.00    -0.901 NA 
HETATM    2  H2  UNL     1     -13.417  17.248  73.692  1.00  0.00     0.000 HD 
HETATM    3  C   UNL     1     -13.097  15.666  72.560  1.00  0.00    -0.472 A  
HETATM    4  H1  UNL     1     -14.253  15.919  74.246  1.00  0.00     0.000 HD 
HETATM    5  N   UNL     1     -11.982  16.075  71.955  1.00  0.00    -0.497 NA 
HETATM    6  C   UNL     1     -11.650  15.445  70.811  1.00  0.00    -0.347 A  
HETATM    7  C   UNL     1     -12.440  14.436  70.230  1.00  0.00    -0.354 A  
HETATM    8  N   UNL     1     -10.447  15.913  70.271  1.00  0.00    -0.251 NA 
HETATM    9  N   UNL     1     -13.923  14.751  72.032  1.00  0.00    -0.435 NA 
HETATM   10  H1  UNL     1     -10.197  15.435  69.405  1.00  0.00     0.000 HD 
HETATM   11  N   UNL     1     -13.602  14.148  70.846  1.00  0.00    -0.126 NA 
HETATM   12  H2  UNL     1      -9.692  15.855  70.954  1.00  0.00     0.000 HD 
ENDROOT
BRANCH   7  13
HETATM   13  C   UNL     1     -12.107  13.643  69.011  1.00  0.00    -0.348 A  
HETATM   14  C   UNL     1     -11.814  12.249  69.023  1.00  0.00    -0.305 A  
HETATM   15  C   UNL     1     -11.468  11.574  67.830  1.00  0.00    -0.286 A  
HETATM   16 CL   UNL     1     -11.810  11.325  70.502  1.00  0.00    -0.442 Cl 
HETATM   17 CL   UNL     1     -11.127   9.874  67.771  1.00  0.00    -0.279 Cl 
HETATM   18  C   UNL     1     -11.374  12.262  66.620  1.00  0.00    -0.398 A  
HETATM   19  C   UNL     1     -11.668  13.617  66.578  1.00  0.00    -0.414 A  
HETATM   20  C   UNL     1     -12.052  14.282  67.748  1.00  0.00    -0.316 A  
ENDBRANCH   7  13
TORSDOF 1
ENDMDL
MODEL       25
REMARK 921   NORMALIZED FREE ENERGY PREDICTED BY IDOCK:   -5.66 KCAL/MOL
REMARK 922        TOTAL FREE ENERGY PREDICTED BY IDOCK:   -6.27 KCAL/MOL
REMARK 923 INTER-LIGAND FREE ENERGY PREDICTED BY IDOCK:   -6.53 KCAL/MOL
REMARK 924 INTRA-LIGAND FREE ENERGY PREDICTED BY IDOCK:    0.27 KCAL/MOL
REMARK 927      BINDING AFFINITY PREDICTED BY RF-SCORE:    0.00 PKD
ROOT
HETATM    1  N   UNL     1     -10.072  19.844  66.056  1.00  0.00    -0.491 NA 
HETATM    2  H2  UNL     1     -10.930  20.365  65.874  1.00  0.00     0.000 HD 
HETATM    3  C   UNL     1     -10.351  18.491  66.077  1.00  0.00    -0.393 A  
HETATM    4  H1  UNL     1      -9.604  20.238  66.873  1.00  0.00     0.000 HD 
HETATM    5  N   UNL     1     -10.962  17.976  65.009  1.00  0.00    -0.587 NA 
HETATM    6  C   UNL     1     -11.141  16.641  65.002  1.00  0.00    -0.115 A  
HETATM    7  C   UNL     1     -10.758  15.806  66.068  1.00  0.00    -0.306 A  
HETATM    8  N   UNL     1     -11.752  16.189  63.828  1.00  0.00    -1.406 NA 
HETATM    9  N   UNL     1     -10.013  17.762  67.150  1.00  0.00    -0.309 NA 
HETATM   10  H1  UNL     1     -11.887  15.178  63.823  1.00  0.00     0.000 HD 
HETATM   11  N   UNL     1     -10.240  16.411  67.153  1.00  0.00    -0.277 NA 
HETATM   12  H2  UNL     1     -11.235  16.495  63.003  1.00  0.00     0.000 HD 
ENDROOT
BRANCH   7  13
HETATM   13  C   UNL     1     -10.854  14.318  66.106  1.00  0.00    -0.310 A  
HETATM   14  C   UNL     1     -11.367  13.581  67.212  1.00  0.00    -0.315 A  
HETATM   15  C   UNL     1     -11.387  12.167  67.190  1.00  0.00    -0.331 A  
HETATM   16 CL   UNL     1     -11.936  14.372  68.658  1.00  0.00    -0.356 Cl 
HETATM   17 CL   UNL     1     -12.024  11.212  68.490  1.00  0.00    -0.330 Cl 
HETATM   18  C   UNL     1     -10.878  11.462  66.100  1.00  0.00    -0.310 A  
HETATM   19  C   UNL     1     -10.385  12.155  65.005  1.00  0.00    -0.320 A  
HETATM   20  C   UNL     1     -10.400  13.554  65.002  1.00  0.00    -0.379 A  
ENDBRANCH   7  13
TORSDOF 1
ENDMDL
MODEL       26
REMARK 921   NORMALIZED FREE ENERGY PREDICTED BY IDOCK:   -5.64 KCAL/MOL
REMARK 922        TOTAL FREE ENERGY PREDICTED BY IDOCK:   -6.25 KCAL/MOL
REMARK 923 INTER-LIGAND FREE ENERGY PREDICTED BY IDOCK:   -6.04 KCAL/MOL
REMARK 924 INTRA-LIGAND FREE ENERGY PREDICTED BY IDOCK:   -0.21 KCAL/MOL
REMARK 927      BINDING AFFINITY PREDICTED BY RF-SCORE:    0.00 PKD
ROOT
HETATM    1  N   UNL     1     -10.414  19.909  67.344  1.00  0.00    -0.420 NA 
HETATM    2  H2  UNL     1      -9.940  20.096  68.228  1.00  0.00     0.000 HD 
HETATM    3  C   UNL     1     -10.367  18.555  67.076  1.00  0.00    -0.399 A  
HETATM    4  H1  UNL     1     -10.054  20.541  66.627  1.00  0.00     0.000 HD 
HETATM    5  N   UNL     1     -10.836  17.729  68.012  1.00  0.00    -0.299 NA 
HETATM    6  C   UNL     1     -10.874  16.420  67.697  1.00  0.00    -0.280 A  
HETATM    7  C   UNL     1     -10.407  15.907  66.473  1.00  0.00    -0.300 A  
HETATM    8  N   UNL     1     -11.417  15.638  68.723  1.00  0.00    -0.356 NA 
HETATM    9  N   UNL     1      -9.854  18.127  65.913  1.00  0.00    -0.547 NA 
HETATM   10  H1  UNL     1     -11.445  14.647  68.484  1.00  0.00     0.000 HD 
HETATM   11  N   UNL     1      -9.855  16.790  65.620  1.00  0.00    -0.572 NA 
HETATM   12  H2  UNL     1     -12.340  15.978  68.993  1.00  0.00     0.000 HD 
ENDROOT
BRANCH   7  13
HETATM   13  C   UNL     1     -10.481  14.487  66.022  1.00  0.00    -0.315 A  
HETATM   14  C   UNL     1     -11.389  14.012  65.032  1.00  0.00    -0.342 A  
HETATM   15  C   UNL     1     -11.426  12.642  64.685  1.00  0.00    -0.330 A  
HETATM   16 CL   UNL     1     -12.527  15.073  64.246  1.00  0.00    -0.337 Cl 
HETATM   17 CL   UNL     1     -12.486  12.004  63.469  1.00  0.00    -0.682 Cl 
HETATM   18  C   UNL     1     -10.600  11.719  65.326  1.00  0.00    -0.327 A  
HETATM   19  C   UNL     1      -9.698  12.157  66.284  1.00  0.00    -0.251 A  
HETATM   20  C   UNL     1      -9.626  13.518  66.602  1.00  0.00    -0.282 A  
ENDBRANCH   7  13
TORSDOF 1
ENDMDL
MODEL       27
REMARK 921   NORMALIZED FREE ENERGY PREDICTED BY IDOCK:   -5.61 KCAL/MOL
REMARK 922        TOTAL FREE ENERGY PREDICTED BY IDOCK:   -6.22 KCAL/MOL
REMARK 923 INTER-LIGAND FREE ENERGY PREDICTED BY IDOCK:   -5.93 KCAL/MOL
REMARK 924 INTRA-LIGAND FREE ENERGY PREDICTED BY IDOCK:   -0.29 KCAL/MOL
REMARK 927      BINDING AFFINITY PREDICTED BY RF-SCORE:    0.00 PKD
ROOT
HETATM    1  N   UNL     1     -12.903  14.083  65.414  1.00  0.00    -0.716 NA 
HETATM    2  H2  UNL     1     -12.342  14.919  65.250  1.00  0.00     0.000 HD 
HETATM    3  C   UNL     1     -12.286  13.296  66.368  1.00  0.00    -0.356 A  
HETATM    4  H1  UNL     1     -13.127  13.644  64.521  1.00  0.00     0.000 HD 
HETATM    5  N   UNL     1     -11.993  13.869  67.537  1.00  0.00    -0.394 NA 
HETATM    6  C   UNL     1     -11.481  13.066  68.490  1.00  0.00    -0.304 A  
HETATM    7  C   UNL     1     -11.212  11.701  68.285  1.00  0.00    -0.260 A  
HETATM    8  N   UNL     1     -11.243  13.745  69.690  1.00  0.00    -0.440 NA 
HETATM    9  N   UNL     1     -12.002  12.016  66.089  1.00  0.00    -0.557 NA 
HETATM   10  H1  UNL     1     -10.856  13.137  70.412  1.00  0.00     0.000 HD 
HETATM   11  N   UNL     1     -11.440  11.219  67.049  1.00  0.00    -0.470 NA 
HETATM   12  H2  UNL     1     -12.087  14.215  70.020  1.00  0.00     0.000 HD 
ENDROOT
BRANCH   7  13
HETATM   13  C   UNL     1     -10.716  10.733  69.306  1.00  0.00    -0.268 A  
HETATM   14  C   UNL     1     -11.525  10.184  70.343  1.00  0.00    -0.322 A  
HETATM   15  C   UNL     1     -10.973   9.302  71.300  1.00  0.00    -0.351 A  
HETATM   16 CL   UNL     1     -13.207  10.612  70.518  1.00  0.00    -0.189 Cl 
HETATM   17 CL   UNL     1     -11.909   8.578  72.568  1.00  0.00    -0.438 Cl 
HETATM   18  C   UNL     1      -9.618   8.974  71.271  1.00  0.00    -0.361 A  
HETATM   19  C   UNL     1      -8.811   9.483  70.265  1.00  0.00    -0.281 A  
HETATM   20  C   UNL     1      -9.360  10.324  69.290  1.00  0.00    -0.221 A  
ENDBRANCH   7  13
TORSDOF 1
ENDMDL
MODEL       28
REMARK 921   NORMALIZED FREE ENERGY PREDICTED BY IDOCK:   -5.60 KCAL/MOL
REMARK 922        TOTAL FREE ENERGY PREDICTED BY IDOCK:   -6.21 KCAL/MOL
REMARK 923 INTER-LIGAND FREE ENERGY PREDICTED BY IDOCK:   -6.09 KCAL/MOL
REMARK 924 INTRA-LIGAND FREE ENERGY PREDICTED BY IDOCK:   -0.12 KCAL/MOL
REMARK 927      BINDING AFFINITY PREDICTED BY RF-SCORE:    0.00 PKD
ROOT
HETATM    1  N   UNL     1     -12.020  14.715  67.365  1.00  0.00    -0.517 NA 
HETATM    2  H2  UNL     1     -12.718  14.595  66.631  1.00  0.00     0.000 HD 
HETATM    3  C   UNL     1     -12.034  13.611  68.196  1.00  0.00    -0.355 A  
HETATM    4  H1  UNL     1     -12.140  15.630  67.801  1.00  0.00     0.000 HD 
HETATM    5  N   UNL     1     -11.877  12.415  67.627  1.00  0.00    -0.465 NA 
HETATM    6  C   UNL     1     -11.795  11.358  68.459  1.00  0.00    -0.294 A  
HETATM    7  C   UNL     1     -11.913  11.465  69.856  1.00  0.00    -0.359 A  
HETATM    8  N   UNL     1     -11.592  10.154  67.775  1.00  0.00    -0.567 NA 
HETATM    9  N   UNL     1     -12.210  13.777  69.515  1.00  0.00    -0.325 NA 
HETATM   10  H1  UNL     1     -11.530   9.354  68.405  1.00  0.00     0.000 HD 
HETATM   11  N   UNL     1     -12.171  12.692  70.348  1.00  0.00    -0.335 NA 
HETATM   12  H2  UNL     1     -10.772  10.210  67.170  1.00  0.00     0.000 HD 
ENDROOT
BRANCH   7  13
HETATM   13  C   UNL     1     -11.762  10.359  70.845  1.00  0.00    -0.455 A  
HETATM   14  C   UNL     1     -10.561   9.614  71.031  1.00  0.00    -0.292 A  
HETATM   15  C   UNL     1     -10.508   8.552  71.962  1.00  0.00    -0.336 A  
HETATM   16 CL   UNL     1      -9.128   9.934  70.089  1.00  0.00    -0.232 Cl 
HETATM   17 CL   UNL     1      -9.070   7.626  72.256  1.00  0.00    -0.170 Cl 
HETATM   18  C   UNL     1     -11.635   8.187  72.696  1.00  0.00    -0.441 A  
HETATM   19  C   UNL     1     -12.813   8.904  72.544  1.00  0.00    -0.401 A  
HETATM   20  C   UNL     1     -12.861   9.983  71.656  1.00  0.00    -0.543 A  
ENDBRANCH   7  13
TORSDOF 1
ENDMDL
MODEL       29
REMARK 921   NORMALIZED FREE ENERGY PREDICTED BY IDOCK:   -5.58 KCAL/MOL
REMARK 922        TOTAL FREE ENERGY PREDICTED BY IDOCK:   -6.18 KCAL/MOL
REMARK 923 INTER-LIGAND FREE ENERGY PREDICTED BY IDOCK:   -5.89 KCAL/MOL
REMARK 924 INTRA-LIGAND FREE ENERGY PREDICTED BY IDOCK:   -0.29 KCAL/MOL
REMARK 927      BINDING AFFINITY PREDICTED BY RF-SCORE:    0.00 PKD
ROOT
HETATM    1  N   UNL     1     -11.665  11.975  66.273  1.00  0.00    -0.547 NA 
HETATM    2  H2  UNL     1     -12.681  11.885  66.260  1.00  0.00     0.000 HD 
HETATM    3  C   UNL     1     -11.323  13.306  66.417  1.00  0.00    -0.312 A  
HETATM    4  H1  UNL     1     -11.271  11.474  65.476  1.00  0.00     0.000 HD 
HETATM    5  N   UNL     1     -11.838  13.960  67.458  1.00  0.00    -0.378 NA 
HETATM    6  C   UNL     1     -11.419  15.228  67.640  1.00  0.00    -0.280 A  
HETATM    7  C   UNL     1     -10.523  15.876  66.772  1.00  0.00    -0.309 A  
HETATM    8  N   UNL     1     -11.982  15.819  68.777  1.00  0.00    -0.546 NA 
HETATM    9  N   UNL     1     -10.510  13.881  65.520  1.00  0.00    -0.308 NA 
HETATM   10  H1  UNL     1     -11.664  16.779  68.915  1.00  0.00     0.000 HD 
HETATM   11  N   UNL     1     -10.126  15.184  65.687  1.00  0.00    -0.337 NA 
HETATM   12  H2  UNL     1     -11.810  15.253  69.608  1.00  0.00     0.000 HD 
ENDROOT
BRANCH   7  13
HETATM   13  C   UNL     1      -9.957  17.246  66.943  1.00  0.00    -0.294 A  
HETATM   14  C   UNL     1      -8.917  17.569  67.862  1.00  0.00    -0.251 A  
HETATM   15  C   UNL     1      -8.461  18.900  67.996  1.00  0.00    -0.295 A  
HETATM   16 CL   UNL     1      -8.200  16.363  68.897  1.00  0.00    -0.229 Cl 
HETATM   17 CL   UNL     1      -7.179  19.355  69.073  1.00  0.00    -0.392 Cl 
HETATM   18  C   UNL     1      -9.038  19.932  67.258  1.00  0.00    -0.434 A  
HETATM   19  C   UNL     1     -10.044  19.643  66.347  1.00  0.00    -0.573 A  
HETATM   20  C   UNL     1     -10.471  18.322  66.178  1.00  0.00    -0.403 A  
ENDBRANCH   7  13
TORSDOF 1
ENDMDL
MODEL       30
REMARK 921   NORMALIZED FREE ENERGY PREDICTED BY IDOCK:   -5.58 KCAL/MOL
REMARK 922        TOTAL FREE ENERGY PREDICTED BY IDOCK:   -6.18 KCAL/MOL
REMARK 923 INTER-LIGAND FREE ENERGY PREDICTED BY IDOCK:   -5.90 KCAL/MOL
REMARK 924 INTRA-LIGAND FREE ENERGY PREDICTED BY IDOCK:   -0.28 KCAL/MOL
REMARK 927      BINDING AFFINITY PREDICTED BY RF-SCORE:    0.00 PKD
ROOT
HETATM    1  N   UNL     1     -10.915   6.859  73.631  1.00  0.00    -0.528 NA 
HETATM    2  H2  UNL     1     -11.289   5.970  73.299  1.00  0.00     0.000 HD 
HETATM    3  C   UNL     1     -11.122   7.831  72.671  1.00  0.00    -0.376 A  
HETATM    4  H1  UNL     1      -9.959   6.723  73.960  1.00  0.00     0.000 HD 
HETATM    5  N   UNL     1     -12.372   8.010  72.241  1.00  0.00    -0.313 NA 
HETATM    6  C   UNL     1     -12.573   9.025  71.378  1.00  0.00    -0.311 A  
HETATM    7  C   UNL     1     -11.537   9.845  70.897  1.00  0.00    -0.373 A  
HETATM    8  N   UNL     1     -13.917   9.159  71.014  1.00  0.00    -0.526 NA 
HETATM    9  N   UNL     1     -10.081   8.539  72.211  1.00  0.00    -0.315 NA 
HETATM   10  H1  UNL     1     -14.069   9.928  70.361  1.00  0.00     0.000 HD 
HETATM   11  N   UNL     1     -10.288   9.539  71.299  1.00  0.00    -0.285 NA 
HETATM   12  H2  UNL     1     -14.513   9.253  71.837  1.00  0.00     0.000 HD 
ENDROOT
BRANCH   7  13
HETATM   13  C   UNL     1     -11.686  11.029  70.002  1.00  0.00    -0.437 A  
HETATM   14  C   UNL     1     -11.447  11.002  68.598  1.00  0.00    -0.308 A  
HETATM   15  C   UNL     1     -11.571  12.177  67.822  1.00  0.00    -0.342 A  
HETATM   16 CL   UNL     1     -10.939   9.547  67.782  1.00  0.00    -0.252 Cl 
HETATM   17 CL   UNL     1     -11.323  12.204  66.105  1.00  0.00    -0.392 Cl 
HETATM   18  C   UNL     1     -11.899  13.395  68.416  1.00  0.00    -0.401 A  
HETATM   19  C   UNL     1     -12.150  13.447  69.779  1.00  0.00    -0.374 A  
HETATM   20  C   UNL     1     -12.070  12.280  70.546  1.00  0.00    -0.371 A  
ENDBRANCH   7  13
TORSDOF 1
ENDMDL
MODEL       31
REMARK 921   NORMALIZED FREE ENERGY PREDICTED BY IDOCK:   -5.57 KCAL/MOL
REMARK 922        TOTAL FREE ENERGY PREDICTED BY IDOCK:   -6.17 KCAL/MOL
REMARK 923 INTER-LIGAND FREE ENERGY PREDICTED BY IDOCK:   -5.88 KCAL/MOL
REMARK 924 INTRA-LIGAND FREE ENERGY PREDICTED BY IDOCK:   -0.30 KCAL/MOL
REMARK 927      BINDING AFFINITY PREDICTED BY RF-SCORE:    0.00 PKD
ROOT
HETATM    1  N   UNL     1      -9.745  17.008  65.482  1.00  0.00    -0.486 NA 
HETATM    2  H2  UNL     1      -8.768  16.858  65.229  1.00  0.00     0.000 HD 
HETATM    3  C   UNL     1     -10.129  16.060  66.411  1.00  0.00    -0.300 A  
HETATM    4  H1  UNL     1     -10.306  17.085  64.633  1.00  0.00     0.000 HD 
HETATM    5  N   UNL     1      -9.396  15.959  67.521  1.00  0.00    -0.215 NA 
HETATM    6  C   UNL     1      -9.838  15.099  68.459  1.00  0.00    -0.220 A  
HETATM    7  C   UNL     1     -10.983  14.299  68.294  1.00  0.00    -0.247 A  
HETATM    8  N   UNL     1      -9.029  15.090  69.601  1.00  0.00    -0.453 NA 
HETATM    9  N   UNL     1     -11.196  15.287  66.166  1.00  0.00    -0.280 NA 
HETATM   10  H1  UNL     1      -9.364  14.440  70.311  1.00  0.00     0.000 HD 
HETATM   11  N   UNL     1     -11.613  14.383  67.107  1.00  0.00    -0.369 NA 
HETATM   12  H2  UNL     1      -8.924  16.030  69.984  1.00  0.00     0.000 HD 
ENDROOT
BRANCH   7  13
HETATM   13  C   UNL     1     -11.577  13.382  69.309  1.00  0.00    -0.365 A  
HETATM   14  C   UNL     1     -12.373  13.817  70.408  1.00  0.00    -0.353 A  
HETATM   15  C   UNL     1     -12.867  12.889  71.353  1.00  0.00    -0.283 A  
HETATM   16 CL   UNL     1     -12.726  15.504  70.674  1.00  0.00    -0.497 Cl 
HETATM   17 CL   UNL     1     -13.865  13.350  72.696  1.00  0.00    -0.586 Cl 
HETATM   18  C   UNL     1     -12.563  11.532  71.251  1.00  0.00    -0.452 A  
HETATM   19  C   UNL     1     -11.801  11.080  70.183  1.00  0.00    -0.441 A  
HETATM   20  C   UNL     1     -11.343  11.987  69.221  1.00  0.00    -0.330 A  
ENDBRANCH   7  13
TORSDOF 1
ENDMDL
MODEL       32
REMARK 921   NORMALIZED FREE ENERGY PREDICTED BY IDOCK:   -5.56 KCAL/MOL
REMARK 922        TOTAL FREE ENERGY PREDICTED BY IDOCK:   -6.16 KCAL/MOL
REMARK 923 INTER-LIGAND FREE ENERGY PREDICTED BY IDOCK:   -5.95 KCAL/MOL
REMARK 924 INTRA-LIGAND FREE ENERGY PREDICTED BY IDOCK:   -0.21 KCAL/MOL
REMARK 927      BINDING AFFINITY PREDICTED BY RF-SCORE:    0.00 PKD
ROOT
HETATM    1  N   UNL     1     -12.385   7.483  72.695  1.00  0.00    -0.534 NA 
HETATM    2  H2  UNL     1     -11.767   7.550  73.504  1.00  0.00     0.000 HD 
HETATM    3  C   UNL     1     -12.204   8.589  71.886  1.00  0.00    -0.352 A  
HETATM    4  H1  UNL     1     -13.334   7.285  73.011  1.00  0.00     0.000 HD 
HETATM    5  N   UNL     1     -10.963   8.849  71.474  1.00  0.00    -0.300 NA 
HETATM    6  C   UNL     1     -10.816   9.871  70.609  1.00  0.00    -0.330 A  
HETATM    7  C   UNL     1     -11.886  10.675  70.177  1.00  0.00    -0.337 A  
HETATM    8  N   UNL     1      -9.488  10.042  70.202  1.00  0.00    -0.396 NA 
HETATM    9  N   UNL     1     -13.258   9.349  71.559  1.00  0.00    -0.370 NA 
HETATM   10  H1  UNL     1      -9.378  10.816  69.547  1.00  0.00     0.000 HD 
HETATM   11  N   UNL     1     -13.093  10.415  70.715  1.00  0.00    -0.361 NA 
HETATM   12  H2  UNL     1      -9.108   9.177  69.817  1.00  0.00     0.000 HD 
ENDROOT
BRANCH   7  13
HETATM   13  C   UNL     1     -11.819  11.773  69.169  1.00  0.00    -0.389 A  
HETATM   14  C   UNL     1     -11.936  13.157  69.490  1.00  0.00    -0.294 A  
HETATM   15  C   UNL     1     -11.903  14.138  68.473  1.00  0.00    -0.355 A  
HETATM   16 CL   UNL     1     -12.181  13.701  71.128  1.00  0.00    -0.395 Cl 
HETATM   17 CL   UNL     1     -12.011  15.839  68.799  1.00  0.00    -0.331 Cl 
HETATM   18  C   UNL     1     -11.788  13.775  67.132  1.00  0.00    -0.441 A  
HETATM   19  C   UNL     1     -11.659  12.436  66.794  1.00  0.00    -0.444 A  
HETATM   20  C   UNL     1     -11.649  11.462  67.798  1.00  0.00    -0.325 A  
ENDBRANCH   7  13
TORSDOF 1
ENDMDL
MODEL       33
REMARK 921   NORMALIZED FREE ENERGY PREDICTED BY IDOCK:   -5.55 KCAL/MOL
REMARK 922        TOTAL FREE ENERGY PREDICTED BY IDOCK:   -6.15 KCAL/MOL
REMARK 923 INTER-LIGAND FREE ENERGY PREDICTED BY IDOCK:   -6.10 KCAL/MOL
REMARK 924 INTRA-LIGAND FREE ENERGY PREDICTED BY IDOCK:   -0.06 KCAL/MOL
REMARK 927      BINDING AFFINITY PREDICTED BY RF-SCORE:    0.00 PKD
ROOT
HETATM    1  N   UNL     1     -12.513   6.565  72.455  1.00  0.00    -0.538 NA 
HETATM    2  H2  UNL     1     -11.983   6.465  73.321  1.00  0.00     0.000 HD 
HETATM    3  C   UNL     1     -12.353   7.846  71.963  1.00  0.00    -0.308 A  
HETATM    4  H1  UNL     1     -13.468   6.237  72.604  1.00  0.00     0.000 HD 
HETATM    5  N   UNL     1     -11.105   8.275  71.769  1.00  0.00    -0.261 NA 
HETATM    6  C   UNL     1     -10.966   9.488  71.198  1.00  0.00    -0.368 A  
HETATM    7  C   UNL     1     -12.056  10.307  70.855  1.00  0.00    -0.368 A  
HETATM    8  N   UNL     1      -9.626   9.834  70.998  1.00  0.00    -0.298 NA 
HETATM    9  N   UNL     1     -13.433   8.599  71.712  1.00  0.00    -0.365 NA 
HETATM   10  H1  UNL     1      -9.521  10.753  70.566  1.00  0.00     0.000 HD 
HETATM   11  N   UNL     1     -13.281   9.849  71.175  1.00  0.00    -0.378 NA 
HETATM   12  H2  UNL     1      -9.137   9.118  70.461  1.00  0.00     0.000 HD 
ENDROOT
BRANCH   7  13
HETATM   13  C   UNL     1     -11.989  11.624  70.157  1.00  0.00    -0.441 A  
HETATM   14  C   UNL     1     -12.457  12.848  70.718  1.00  0.00    -0.286 A  
HETATM   15  C   UNL     1     -12.396  14.051  69.977  1.00  0.00    -0.337 A  
HETATM   16 CL   UNL     1     -13.173  12.915  72.307  1.00  0.00    -0.566 Cl 
HETATM   17 CL   UNL     1     -12.921  15.577  70.612  1.00  0.00    -0.484 Cl 
HETATM   18  C   UNL     1     -11.908  14.063  68.671  1.00  0.00    -0.396 A  
HETATM   19  C   UNL     1     -11.434  12.888  68.106  1.00  0.00    -0.354 A  
HETATM   20  C   UNL     1     -11.452  11.702  68.849  1.00  0.00    -0.349 A  
ENDBRANCH   7  13
TORSDOF 1
ENDMDL
MODEL       34
REMARK 921   NORMALIZED FREE ENERGY PREDICTED BY IDOCK:   -5.55 KCAL/MOL
REMARK 922        TOTAL FREE ENERGY PREDICTED BY IDOCK:   -6.15 KCAL/MOL
REMARK 923 INTER-LIGAND FREE ENERGY PREDICTED BY IDOCK:   -5.86 KCAL/MOL
REMARK 924 INTRA-LIGAND FREE ENERGY PREDICTED BY IDOCK:   -0.29 KCAL/MOL
REMARK 927      BINDING AFFINITY PREDICTED BY RF-SCORE:    0.00 PKD
ROOT
HETATM    1  N   UNL     1     -11.256  11.722  64.867  1.00  0.00    -0.294 NA 
HETATM    2  H2  UNL     1     -11.103  11.541  63.875  1.00  0.00     0.000 HD 
HETATM    3  C   UNL     1     -10.721  12.953  65.197  1.00  0.00    -0.305 A  
HETATM    4  H1  UNL     1     -10.944  10.916  65.410  1.00  0.00     0.000 HD 
HETATM    5  N   UNL     1     -11.128  14.007  64.488  1.00  0.00    -0.374 NA 
HETATM    6  C   UNL     1     -10.673  15.212  64.883  1.00  0.00    -0.398 A  
HETATM    7  C   UNL     1      -9.778  15.384  65.954  1.00  0.00    -0.357 A  
HETATM    8  N   UNL     1     -11.184  16.257  64.106  1.00  0.00    -1.283 NA 
HETATM    9  N   UNL     1      -9.826  13.041  66.191  1.00  0.00    -0.277 NA 
HETATM   10  H1  UNL     1     -10.839  17.170  64.406  1.00  0.00     0.000 HD 
HETATM   11  N   UNL     1      -9.334  14.265  66.557  1.00  0.00    -0.282 NA 
HETATM   12  H2  UNL     1     -12.204  16.237  64.088  1.00  0.00     0.000 HD 
ENDROOT
BRANCH   7  13
HETATM   13  C   UNL     1      -9.287  16.684  66.498  1.00  0.00    -0.290 A  
HETATM   14  C   UNL     1      -9.934  17.406  67.542  1.00  0.00    -0.298 A  
HETATM   15  C   UNL     1      -9.430  18.653  67.977  1.00  0.00    -0.315 A  
HETATM   16 CL   UNL     1     -11.397  16.823  68.292  1.00  0.00    -0.178 Cl 
HETATM   17 CL   UNL     1     -10.153  19.567  69.262  1.00  0.00    -0.413 Cl 
HETATM   18  C   UNL     1      -8.309  19.221  67.373  1.00  0.00    -0.317 A  
HETATM   19  C   UNL     1      -7.653  18.533  66.363  1.00  0.00    -0.287 A  
HETATM   20  C   UNL     1      -8.121  17.279  65.957  1.00  0.00    -0.187 A  
ENDBRANCH   7  13
TORSDOF 1
ENDMDL
MODEL       35
REMARK 921   NORMALIZED FREE ENERGY PREDICTED BY IDOCK:   -5.51 KCAL/MOL
REMARK 922        TOTAL FREE ENERGY PREDICTED BY IDOCK:   -6.11 KCAL/MOL
REMARK 923 INTER-LIGAND FREE ENERGY PREDICTED BY IDOCK:   -5.82 KCAL/MOL
REMARK 924 INTRA-LIGAND FREE ENERGY PREDICTED BY IDOCK:   -0.29 KCAL/MOL
REMARK 927      BINDING AFFINITY PREDICTED BY RF-SCORE:    0.00 PKD
ROOT
HETATM    1  N   UNL     1      -9.893  12.493  63.241  1.00  0.00    -0.574 NA 
HETATM    2  H2  UNL     1      -9.989  13.328  62.663  1.00  0.00     0.000 HD 
HETATM    3  C   UNL     1     -10.352  12.762  64.516  1.00  0.00    -0.349 A  
HETATM    4  H1  UNL     1      -8.944  12.128  63.153  1.00  0.00     0.000 HD 
HETATM    5  N   UNL     1     -11.592  13.240  64.631  1.00  0.00    -0.335 NA 
HETATM    6  C   UNL     1     -12.060  13.405  65.884  1.00  0.00    -0.439 A  
HETATM    7  C   UNL     1     -11.294  13.143  67.034  1.00  0.00    -0.312 A  
HETATM    8  N   UNL     1     -13.379  13.871  65.905  1.00  0.00    -0.475 NA 
HETATM    9  N   UNL     1      -9.550  12.546  65.568  1.00  0.00    -0.116 NA 
HETATM   10  H1  UNL     1     -13.733  13.996  66.853  1.00  0.00     0.000 HD 
HETATM   11  N   UNL     1     -10.018  12.761  66.836  1.00  0.00    -0.228 NA 
HETATM   12  H2  UNL     1     -13.992  13.263  65.361  1.00  0.00     0.000 HD 
ENDROOT
BRANCH   7  13
HETATM   13  C   UNL     1     -11.761  13.231  68.448  1.00  0.00    -0.389 A  
HETATM   14  C   UNL     1     -11.944  14.456  69.153  1.00  0.00    -0.322 A  
HETATM   15  C   UNL     1     -12.351  14.455  70.507  1.00  0.00    -0.345 A  
HETATM   16 CL   UNL     1     -11.624  15.999  68.408  1.00  0.00    -0.338 Cl 
HETATM   17 CL   UNL     1     -12.620  15.911  71.412  1.00  0.00    -0.493 Cl 
HETATM   18  C   UNL     1     -12.551  13.258  71.193  1.00  0.00    -0.412 A  
HETATM   19  C   UNL     1     -12.393  12.052  70.527  1.00  0.00    -0.369 A  
HETATM   20  C   UNL     1     -12.031  12.046  69.176  1.00  0.00    -0.326 A  
ENDBRANCH   7  13
TORSDOF 1
ENDMDL
MODEL       36
REMARK 921   NORMALIZED FREE ENERGY PREDICTED BY IDOCK:   -5.51 KCAL/MOL
REMARK 922        TOTAL FREE ENERGY PREDICTED BY IDOCK:   -6.11 KCAL/MOL
REMARK 923 INTER-LIGAND FREE ENERGY PREDICTED BY IDOCK:   -5.83 KCAL/MOL
REMARK 924 INTRA-LIGAND FREE ENERGY PREDICTED BY IDOCK:   -0.28 KCAL/MOL
REMARK 927      BINDING AFFINITY PREDICTED BY RF-SCORE:    0.00 PKD
ROOT
HETATM    1  N   UNL     1     -11.709  16.225  70.690  1.00  0.00    -0.516 NA 
HETATM    2  H2  UNL     1     -12.151  17.134  70.555  1.00  0.00     0.000 HD 
HETATM    3  C   UNL     1     -11.727  15.525  69.498  1.00  0.00    -0.365 A  
HETATM    4  H1  UNL     1     -12.117  15.768  71.506  1.00  0.00     0.000 HD 
HETATM    5  N   UNL     1     -11.195  16.121  68.431  1.00  0.00    -0.360 NA 
HETATM    6  C   UNL     1     -11.133  15.390  67.301  1.00  0.00    -0.302 A  
HETATM    7  C   UNL     1     -11.634  14.080  67.201  1.00  0.00    -0.372 A  
HETATM    8  N   UNL     1     -10.525  16.083  66.248  1.00  0.00    -0.315 NA 
HETATM    9  N   UNL     1     -12.275  14.302  69.457  1.00  0.00    -0.320 NA 
HETATM   10  H1  UNL     1     -10.477  15.529  65.393  1.00  0.00     0.000 HD 
HETATM   11  N   UNL     1     -12.247  13.583  68.292  1.00  0.00    -0.238 NA 
HETATM   12  H2  UNL     1      -9.601  16.424  66.518  1.00  0.00     0.000 HD 
ENDROOT
BRANCH   7  13
HETATM   13  C   UNL     1     -11.538  13.182  66.014  1.00  0.00    -0.393 A  
HETATM   14  C   UNL     1     -10.530  12.189  65.845  1.00  0.00    -0.254 A  
HETATM   15  C   UNL     1     -10.481  11.403  64.671  1.00  0.00    -0.315 A  
HETATM   16 CL   UNL     1      -9.285  11.934  67.039  1.00  0.00    -0.185 Cl 
HETATM   17 CL   UNL     1      -9.298  10.159  64.417  1.00  0.00    -0.319 Cl 
HETATM   18  C   UNL     1     -11.395  11.602  63.638  1.00  0.00    -0.485 A  
HETATM   19  C   UNL     1     -12.395  12.553  63.782  1.00  0.00    -0.595 A  
HETATM   20  C   UNL     1     -12.475  13.306  64.959  1.00  0.00    -0.498 A  
ENDBRANCH   7  13
TORSDOF 1
ENDMDL
MODEL       37
REMARK 921   NORMALIZED FREE ENERGY PREDICTED BY IDOCK:   -5.50 KCAL/MOL
REMARK 922        TOTAL FREE ENERGY PREDICTED BY IDOCK:   -6.10 KCAL/MOL
REMARK 923 INTER-LIGAND FREE ENERGY PREDICTED BY IDOCK:   -5.81 KCAL/MOL
REMARK 924 INTRA-LIGAND FREE ENERGY PREDICTED BY IDOCK:   -0.29 KCAL/MOL
REMARK 927      BINDING AFFINITY PREDICTED BY RF-SCORE:    0.00 PKD
ROOT
HETATM    1  N   UNL     1     -10.254  20.267  67.044  1.00  0.00    -0.416 NA 
HETATM    2  H2  UNL     1      -9.616  20.494  67.807  1.00  0.00     0.000 HD 
HETATM    3  C   UNL     1     -10.326  18.894  66.900  1.00  0.00    -0.406 A  
HETATM    4  H1  UNL     1     -10.003  20.811  66.219  1.00  0.00     0.000 HD 
HETATM    5  N   UNL     1     -10.654  18.182  67.978  1.00  0.00    -0.376 NA 
HETATM    6  C   UNL     1     -10.815  16.857  67.799  1.00  0.00    -0.281 A  
HETATM    7  C   UNL     1     -10.611  16.215  66.565  1.00  0.00    -0.268 A  
HETATM    8  N   UNL     1     -11.197  16.201  68.975  1.00  0.00    -0.338 NA 
HETATM    9  N   UNL     1     -10.061  18.339  65.709  1.00  0.00    -0.556 NA 
HETATM   10  H1  UNL     1     -11.319  15.197  68.839  1.00  0.00     0.000 HD 
HETATM   11  N   UNL     1     -10.182  16.985  65.547  1.00  0.00    -0.617 NA 
HETATM   12  H2  UNL     1     -12.036  16.622  69.374  1.00  0.00     0.000 HD 
ENDROOT
BRANCH   7  13
HETATM   13  C   UNL     1     -10.838  14.770  66.269  1.00  0.00    -0.322 A  
HETATM   14  C   UNL     1      -9.847  13.759  66.428  1.00  0.00    -0.298 A  
HETATM   15  C   UNL     1     -10.126  12.415  66.087  1.00  0.00    -0.248 A  
HETATM   16 CL   UNL     1      -8.239  14.130  66.990  1.00  0.00    -0.156 Cl 
HETATM   17 CL   UNL     1      -8.975  11.133  66.283  1.00  0.00    -0.193 Cl 
HETATM   18  C   UNL     1     -11.365  12.054  65.558  1.00  0.00    -0.381 A  
HETATM   19  C   UNL     1     -12.352  13.017  65.406  1.00  0.00    -0.538 A  
HETATM   20  C   UNL     1     -12.096  14.341  65.780  1.00  0.00    -0.414 A  
ENDBRANCH   7  13
TORSDOF 1
ENDMDL
MODEL       38
REMARK 921   NORMALIZED FREE ENERGY PREDICTED BY IDOCK:   -5.48 KCAL/MOL
REMARK 922        TOTAL FREE ENERGY PREDICTED BY IDOCK:   -6.08 KCAL/MOL
REMARK 923 INTER-LIGAND FREE ENERGY PREDICTED BY IDOCK:   -5.92 KCAL/MOL
REMARK 924 INTRA-LIGAND FREE ENERGY PREDICTED BY IDOCK:   -0.16 KCAL/MOL
REMARK 927      BINDING AFFINITY PREDICTED BY RF-SCORE:    0.00 PKD
ROOT
HETATM    1  N   UNL     1     -12.663   6.574  72.368  1.00  0.00    -0.524 NA 
HETATM    2  H2  UNL     1     -12.058   6.402  73.171  1.00  0.00     0.000 HD 
HETATM    3  C   UNL     1     -12.488   7.873  71.932  1.00  0.00    -0.321 A  
HETATM    4  H1  UNL     1     -13.614   6.279  72.592  1.00  0.00     0.000 HD 
HETATM    5  N   UNL     1     -11.245   8.258  71.640  1.00  0.00    -0.256 NA 
HETATM    6  C   UNL     1     -11.103   9.495  71.125  1.00  0.00    -0.379 A  
HETATM    7  C   UNL     1     -12.179  10.380  70.934  1.00  0.00    -0.383 A  
HETATM    8  N   UNL     1      -9.772   9.795  70.813  1.00  0.00    -0.320 NA 
HETATM    9  N   UNL     1     -13.550   8.685  71.829  1.00  0.00    -0.385 NA 
HETATM   10  H1  UNL     1      -9.665  10.732  70.423  1.00  0.00     0.000 HD 
HETATM   11  N   UNL     1     -13.389   9.957  71.346  1.00  0.00    -0.382 NA 
HETATM   12  H2  UNL     1      -9.372   9.090  70.193  1.00  0.00     0.000 HD 
ENDROOT
BRANCH   7  13
HETATM   13  C   UNL     1     -12.116  11.731  70.304  1.00  0.00    -0.426 A  
HETATM   14  C   UNL     1     -11.748  11.961  68.947  1.00  0.00    -0.323 A  
HETATM   15  C   UNL     1     -11.671  13.275  68.433  1.00  0.00    -0.354 A  
HETATM   16 CL   UNL     1     -11.324  10.651  67.877  1.00  0.00    -0.379 Cl 
HETATM   17 CL   UNL     1     -11.259  13.622  66.784  1.00  0.00    -0.316 Cl 
HETATM   18  C   UNL     1     -11.921  14.378  69.249  1.00  0.00    -0.362 A  
HETATM   19  C   UNL     1     -12.294  14.182  70.571  1.00  0.00    -0.434 A  
HETATM   20  C   UNL     1     -12.413  12.882  71.074  1.00  0.00    -0.374 A  
ENDBRANCH   7  13
TORSDOF 1
ENDMDL
MODEL       39
REMARK 921   NORMALIZED FREE ENERGY PREDICTED BY IDOCK:   -5.48 KCAL/MOL
REMARK 922        TOTAL FREE ENERGY PREDICTED BY IDOCK:   -6.07 KCAL/MOL
REMARK 923 INTER-LIGAND FREE ENERGY PREDICTED BY IDOCK:   -5.83 KCAL/MOL
REMARK 924 INTRA-LIGAND FREE ENERGY PREDICTED BY IDOCK:   -0.25 KCAL/MOL
REMARK 927      BINDING AFFINITY PREDICTED BY RF-SCORE:    0.00 PKD
ROOT
HETATM    1  N   UNL     1      -8.488  20.404  66.369  1.00  0.00    -0.547 NA 
HETATM    2  H2  UNL     1      -7.641  20.513  65.812  1.00  0.00     0.000 HD 
HETATM    3  C   UNL     1      -8.983  19.124  66.206  1.00  0.00    -0.309 A  
HETATM    4  H1  UNL     1      -9.122  21.179  66.176  1.00  0.00     0.000 HD 
HETATM    5  N   UNL     1      -8.153  18.111  66.458  1.00  0.00    -0.260 NA 
HETATM    6  C   UNL     1      -8.677  16.872  66.389  1.00  0.00    -0.286 A  
HETATM    7  C   UNL     1     -10.012  16.618  66.027  1.00  0.00    -0.324 A  
HETATM    8  N   UNL     1      -7.745  15.878  66.707  1.00  0.00    -0.232 NA 
HETATM    9  N   UNL     1     -10.249  18.951  65.801  1.00  0.00    -0.539 NA 
HETATM   10  H1  UNL     1      -8.142  14.940  66.655  1.00  0.00     0.000 HD 
HETATM   11  N   UNL     1     -10.760  17.686  65.689  1.00  0.00    -0.487 NA 
HETATM   12  H2  UNL     1      -7.324  16.048  67.621  1.00  0.00     0.000 HD 
ENDROOT
BRANCH   7  13
HETATM   13  C   UNL     1     -10.685  15.287  65.999  1.00  0.00    -0.324 A  
HETATM   14  C   UNL     1     -10.993  14.524  67.163  1.00  0.00    -0.304 A  
HETATM   15  C   UNL     1     -11.596  13.251  67.052  1.00  0.00    -0.359 A  
HETATM   16 CL   UNL     1     -10.595  15.091  68.763  1.00  0.00    -0.232 Cl 
HETATM   17 CL   UNL     1     -12.023  12.286  68.429  1.00  0.00    -0.347 Cl 
HETATM   18  C   UNL     1     -11.875  12.697  65.803  1.00  0.00    -0.497 A  
HETATM   19  C   UNL     1     -11.597  13.424  64.654  1.00  0.00    -0.386 A  
HETATM   20  C   UNL     1     -11.039  14.703  64.758  1.00  0.00    -0.394 A  
ENDBRANCH   7  13
TORSDOF 1
ENDMDL
MODEL       40
REMARK 921   NORMALIZED FREE ENERGY PREDICTED BY IDOCK:   -5.47 KCAL/MOL
REMARK 922        TOTAL FREE ENERGY PREDICTED BY IDOCK:   -6.07 KCAL/MOL
REMARK 923 INTER-LIGAND FREE ENERGY PREDICTED BY IDOCK:   -5.77 KCAL/MOL
REMARK 924 INTRA-LIGAND FREE ENERGY PREDICTED BY IDOCK:   -0.30 KCAL/MOL
REMARK 927      BINDING AFFINITY PREDICTED BY RF-SCORE:    0.00 PKD
ROOT
HETATM    1  N   UNL     1      -9.980  13.760  64.331  1.00  0.00    -0.728 NA 
HETATM    2  H2  UNL     1      -9.321  13.054  64.002  1.00  0.00     0.000 HD 
HETATM    3  C   UNL     1     -10.443  13.407  65.583  1.00  0.00    -0.290 A  
HETATM    4  H1  UNL     1     -10.676  13.936  63.606  1.00  0.00     0.000 HD 
HETATM    5  N   UNL     1      -9.533  13.178  66.530  1.00  0.00    -0.255 NA 
HETATM    6  C   UNL     1     -10.001  12.930  67.769  1.00  0.00    -0.230 A  
HETATM    7  C   UNL     1     -11.372  12.862  68.076  1.00  0.00    -0.292 A  
HETATM    8  N   UNL     1      -8.975  12.741  68.701  1.00  0.00    -0.395 NA 
HETATM    9  N   UNL     1     -11.763  13.302  65.795  1.00  0.00    -0.342 NA 
HETATM   10  H1  UNL     1      -9.329  12.554  69.639  1.00  0.00     0.000 HD 
HETATM   11  N   UNL     1     -12.229  13.005  67.048  1.00  0.00    -0.359 NA 
HETATM   12  H2  UNL     1      -8.331  13.533  68.703  1.00  0.00     0.000 HD 
ENDROOT
BRANCH   7  13
HETATM   13  C   UNL     1     -11.968  12.667  69.430  1.00  0.00    -0.318 A  
HETATM   14  C   UNL     1     -12.074  11.403  70.079  1.00  0.00    -0.340 A  
HETATM   15  C   UNL     1     -12.690  11.292  71.346  1.00  0.00    -0.396 A  
HETATM   16 CL   UNL     1     -11.508   9.935  69.326  1.00  0.00    -0.110 Cl 
HETATM   17 CL   UNL     1     -12.824   9.789  72.202  1.00  0.00    -0.467 Cl 
HETATM   18  C   UNL     1     -13.236  12.409  71.977  1.00  0.00    -0.514 A  
HETATM   19  C   UNL     1     -13.134  13.654  71.373  1.00  0.00    -0.396 A  
HETATM   20  C   UNL     1     -12.489  13.778  70.138  1.00  0.00    -0.332 A  
ENDBRANCH   7  13
TORSDOF 1
ENDMDL
MODEL       41
REMARK 921   NORMALIZED FREE ENERGY PREDICTED BY IDOCK:   -5.47 KCAL/MOL
REMARK 922        TOTAL FREE ENERGY PREDICTED BY IDOCK:   -6.06 KCAL/MOL
REMARK 923 INTER-LIGAND FREE ENERGY PREDICTED BY IDOCK:   -5.83 KCAL/MOL
REMARK 924 INTRA-LIGAND FREE ENERGY PREDICTED BY IDOCK:   -0.23 KCAL/MOL
REMARK 927      BINDING AFFINITY PREDICTED BY RF-SCORE:    0.00 PKD
ROOT
HETATM    1  N   UNL     1      -8.773  17.192  65.924  1.00  0.00    -0.537 NA 
HETATM    2  H2  UNL     1      -9.372  17.950  65.595  1.00  0.00     0.000 HD 
HETATM    3  C   UNL     1      -9.508  16.346  66.733  1.00  0.00    -0.247 A  
HETATM    4  H1  UNL     1      -7.916  17.584  66.314  1.00  0.00     0.000 HD 
HETATM    5  N   UNL     1     -10.629  15.834  66.224  1.00  0.00    -0.311 NA 
HETATM    6  C   UNL     1     -11.282  14.936  66.987  1.00  0.00    -0.344 A  
HETATM    7  C   UNL     1     -10.860  14.568  68.277  1.00  0.00    -0.241 A  
HETATM    8  N   UNL     1     -12.422  14.426  66.355  1.00  0.00    -0.466 NA 
HETATM    9  N   UNL     1      -9.081  16.082  67.976  1.00  0.00    -0.188 NA 
HETATM   10  H1  UNL     1     -12.916  13.745  66.933  1.00  0.00     0.000 HD 
HETATM   11  N   UNL     1      -9.776  15.203  68.762  1.00  0.00    -0.213 NA 
HETATM   12  H2  UNL     1     -12.190  14.033  65.442  1.00  0.00     0.000 HD 
ENDROOT
BRANCH   7  13
HETATM   13  C   UNL     1     -11.483  13.533  69.151  1.00  0.00    -0.345 A  
HETATM   14  C   UNL     1     -12.260  13.830  70.309  1.00  0.00    -0.359 A  
HETATM   15  C   UNL     1     -12.785  12.791  71.112  1.00  0.00    -0.263 A  
HETATM   16 CL   UNL     1     -12.552  15.470  70.821  1.00  0.00    -0.481 Cl 
HETATM   17 CL   UNL     1     -13.761  13.084  72.515  1.00  0.00    -0.624 Cl 
HETATM   18  C   UNL     1     -12.528  11.454  70.809  1.00  0.00    -0.460 A  
HETATM   19  C   UNL     1     -11.786  11.137  69.681  1.00  0.00    -0.419 A  
HETATM   20  C   UNL     1     -11.299  12.159  68.859  1.00  0.00    -0.335 A  
ENDBRANCH   7  13
TORSDOF 1
ENDMDL
MODEL       42
REMARK 921   NORMALIZED FREE ENERGY PREDICTED BY IDOCK:   -5.41 KCAL/MOL
REMARK 922        TOTAL FREE ENERGY PREDICTED BY IDOCK:   -6.00 KCAL/MOL
REMARK 923 INTER-LIGAND FREE ENERGY PREDICTED BY IDOCK:   -5.89 KCAL/MOL
REMARK 924 INTRA-LIGAND FREE ENERGY PREDICTED BY IDOCK:   -0.11 KCAL/MOL
REMARK 927      BINDING AFFINITY PREDICTED BY RF-SCORE:    0.00 PKD
ROOT
HETATM    1  N   UNL     1     -12.880  12.517  64.655  1.00  0.00    -0.807 NA 
HETATM    2  H2  UNL     1     -13.881  12.694  64.740  1.00  0.00     0.000 HD 
HETATM    3  C   UNL     1     -12.180  13.515  65.306  1.00  0.00    -0.441 A  
HETATM    4  H1  UNL     1     -12.649  12.346  63.676  1.00  0.00     0.000 HD 
HETATM    5  N   UNL     1     -12.482  13.739  66.585  1.00  0.00    -0.343 NA 
HETATM    6  C   UNL     1     -11.726  14.647  67.233  1.00  0.00    -0.385 A  
HETATM    7  C   UNL     1     -10.695  15.374  66.613  1.00  0.00    -0.309 A  
HETATM    8  N   UNL     1     -12.090  14.785  68.577  1.00  0.00    -0.578 NA 
HETATM    9  N   UNL     1     -11.249  14.213  64.640  1.00  0.00    -0.373 NA 
HETATM   10  H1  UNL     1     -11.518  15.473  69.067  1.00  0.00     0.000 HD 
HETATM   11  N   UNL     1     -10.516  15.166  65.295  1.00  0.00    -0.385 NA 
HETATM   12  H2  UNL     1     -12.074  13.885  69.056  1.00  0.00     0.000 HD 
ENDROOT
BRANCH   7  13
HETATM   13  C   UNL     1      -9.769  16.339  67.275  1.00  0.00    -0.237 A  
HETATM   14  C   UNL     1      -9.716  17.730  66.971  1.00  0.00    -0.290 A  
HETATM   15  C   UNL     1      -8.782  18.574  67.614  1.00  0.00    -0.267 A  
HETATM   16 CL   UNL     1     -10.750  18.445  65.763  1.00  0.00    -0.323 Cl 
HETATM   17 CL   UNL     1      -8.685  20.279  67.310  1.00  0.00    -0.425 Cl 
HETATM   18  C   UNL     1      -7.869  18.061  68.535  1.00  0.00    -0.310 A  
HETATM   19  C   UNL     1      -7.908  16.713  68.859  1.00  0.00    -0.240 A  
HETATM   20  C   UNL     1      -8.858  15.879  68.258  1.00  0.00    -0.179 A  
ENDBRANCH   7  13
TORSDOF 1
ENDMDL
MODEL       43
REMARK 921   NORMALIZED FREE ENERGY PREDICTED BY IDOCK:   -5.40 KCAL/MOL
REMARK 922        TOTAL FREE ENERGY PREDICTED BY IDOCK:   -6.00 KCAL/MOL
REMARK 923 INTER-LIGAND FREE ENERGY PREDICTED BY IDOCK:   -5.87 KCAL/MOL
REMARK 924 INTRA-LIGAND FREE ENERGY PREDICTED BY IDOCK:   -0.13 KCAL/MOL
REMARK 927      BINDING AFFINITY PREDICTED BY RF-SCORE:    0.00 PKD
ROOT
HETATM    1  N   UNL     1     -13.135  10.695  72.169  1.00  0.00    -0.546 NA 
HETATM    2  H2  UNL     1     -12.445  10.013  72.486  1.00  0.00     0.000 HD 
HETATM    3  C   UNL     1     -12.653  11.350  71.053  1.00  0.00    -0.386 A  
HETATM    4  H1  UNL     1     -13.429  11.270  72.959  1.00  0.00     0.000 HD 
HETATM    5  N   UNL     1     -12.268  10.599  70.021  1.00  0.00    -0.309 NA 
HETATM    6  C   UNL     1     -11.892  11.254  68.905  1.00  0.00    -0.345 A  
HETATM    7  C   UNL     1     -11.851  12.657  68.811  1.00  0.00    -0.300 A  
HETATM    8  N   UNL     1     -11.544  10.384  67.866  1.00  0.00    -0.693 NA 
HETATM    9  N   UNL     1     -12.583  12.689  71.050  1.00  0.00    -0.330 NA 
HETATM   10  H1  UNL     1     -11.260  10.881  67.021  1.00  0.00     0.000 HD 
HETATM   11  N   UNL     1     -12.157  13.346  69.927  1.00  0.00    -0.332 NA 
HETATM   12  H2  UNL     1     -12.299   9.727  67.669  1.00  0.00     0.000 HD 
ENDROOT
BRANCH   7  13
HETATM   13  C   UNL     1     -11.519  13.454  67.595  1.00  0.00    -0.353 A  
HETATM   14  C   UNL     1     -10.372  14.293  67.480  1.00  0.00    -0.248 A  
HETATM   15  C   UNL     1     -10.147  15.050  66.308  1.00  0.00    -0.282 A  
HETATM   16 CL   UNL     1      -9.231  14.470  68.787  1.00  0.00    -0.186 Cl 
HETATM   17 CL   UNL     1      -8.757  16.066  66.094  1.00  0.00    -0.371 Cl 
HETATM   18  C   UNL     1     -11.056  15.020  65.251  1.00  0.00    -0.391 A  
HETATM   19  C   UNL     1     -12.173  14.202  65.332  1.00  0.00    -0.441 A  
HETATM   20  C   UNL     1     -12.381  13.418  66.471  1.00  0.00    -0.354 A  
ENDBRANCH   7  13
TORSDOF 1
ENDMDL
MODEL       44
REMARK 921   NORMALIZED FREE ENERGY PREDICTED BY IDOCK:   -5.40 KCAL/MOL
REMARK 922        TOTAL FREE ENERGY PREDICTED BY IDOCK:   -5.99 KCAL/MOL
REMARK 923 INTER-LIGAND FREE ENERGY PREDICTED BY IDOCK:   -5.75 KCAL/MOL
REMARK 924 INTRA-LIGAND FREE ENERGY PREDICTED BY IDOCK:   -0.24 KCAL/MOL
REMARK 927      BINDING AFFINITY PREDICTED BY RF-SCORE:    0.00 PKD
ROOT
HETATM    1  N   UNL     1     -12.518  14.870  63.899  1.00  0.00    -1.056 NA 
HETATM    2  H2  UNL     1     -13.268  14.510  64.490  1.00  0.00     0.000 HD 
HETATM    3  C   UNL     1     -11.539  15.435  64.693  1.00  0.00    -0.311 A  
HETATM    4  H1  UNL     1     -12.918  15.453  63.164  1.00  0.00     0.000 HD 
HETATM    5  N   UNL     1     -11.016  14.673  65.655  1.00  0.00    -0.322 NA 
HETATM    6  C   UNL     1      -9.996  15.204  66.357  1.00  0.00    -0.272 A  
HETATM    7  C   UNL     1      -9.511  16.507  66.147  1.00  0.00    -0.315 A  
HETATM    8  N   UNL     1      -9.488  14.319  67.314  1.00  0.00    -0.213 NA 
HETATM    9  N   UNL     1     -11.163  16.703  64.479  1.00  0.00    -0.982 NA 
HETATM   10  H1  UNL     1      -8.715  14.721  67.846  1.00  0.00     0.000 HD 
HETATM   11  N   UNL     1     -10.156  17.250  65.227  1.00  0.00    -0.326 NA 
HETATM   12  H2  UNL     1      -9.218  13.432  66.888  1.00  0.00     0.000 HD 
ENDROOT
BRANCH   7  13
HETATM   13  C   UNL     1      -8.344  17.139  66.828  1.00  0.00    -0.266 A  
HETATM   14  C   UNL     1      -8.456  18.135  67.841  1.00  0.00    -0.254 A  
HETATM   15  C   UNL     1      -7.300  18.717  68.411  1.00  0.00    -0.287 A  
HETATM   16 CL   UNL     1     -10.005  18.723  68.382  1.00  0.00    -0.415 Cl 
HETATM   17 CL   UNL     1      -7.367  19.912  69.667  1.00  0.00    -0.143 Cl 
HETATM   18  C   UNL     1      -6.027  18.354  67.975  1.00  0.00    -0.177 A  
HETATM   19  C   UNL     1      -5.890  17.377  66.999  1.00  0.00    -0.186 A  
HETATM   20  C   UNL     1      -7.027  16.767  66.460  1.00  0.00    -0.224 A  
ENDBRANCH   7  13
TORSDOF 1
ENDMDL
MODEL       45
REMARK 921   NORMALIZED FREE ENERGY PREDICTED BY IDOCK:   -5.39 KCAL/MOL
REMARK 922        TOTAL FREE ENERGY PREDICTED BY IDOCK:   -5.99 KCAL/MOL
REMARK 923 INTER-LIGAND FREE ENERGY PREDICTED BY IDOCK:   -5.69 KCAL/MOL
REMARK 924 INTRA-LIGAND FREE ENERGY PREDICTED BY IDOCK:   -0.30 KCAL/MOL
REMARK 927      BINDING AFFINITY PREDICTED BY RF-SCORE:    0.00 PKD
ROOT
HETATM    1  N   UNL     1      -8.470  20.919  67.065  1.00  0.00    -0.563 NA 
HETATM    2  H2  UNL     1      -8.092  21.120  66.139  1.00  0.00     0.000 HD 
HETATM    3  C   UNL     1      -9.021  19.653  67.070  1.00  0.00    -0.316 A  
HETATM    4  H1  UNL     1      -9.069  21.691  67.360  1.00  0.00     0.000 HD 
HETATM    5  N   UNL     1      -8.240  18.644  66.684  1.00  0.00    -0.269 NA 
HETATM    6  C   UNL     1      -8.759  17.405  66.787  1.00  0.00    -0.255 A  
HETATM    7  C   UNL     1     -10.070  17.153  67.230  1.00  0.00    -0.294 A  
HETATM    8  N   UNL     1      -7.854  16.411  66.398  1.00  0.00    -0.295 NA 
HETATM    9  N   UNL     1     -10.297  19.487  67.448  1.00  0.00    -0.419 NA 
HETATM   10  H1  UNL     1      -8.248  15.473  66.476  1.00  0.00     0.000 HD 
HETATM   11  N   UNL     1     -10.832  18.228  67.506  1.00  0.00    -0.345 NA 
HETATM   12  H2  UNL     1      -6.980  16.487  66.918  1.00  0.00     0.000 HD 
ENDROOT
BRANCH   7  13
HETATM   13  C   UNL     1     -10.692  15.813  67.441  1.00  0.00    -0.317 A  
HETATM   14  C   UNL     1     -11.204  14.998  66.390  1.00  0.00    -0.310 A  
HETATM   15  C   UNL     1     -11.816  13.756  66.674  1.00  0.00    -0.412 A  
HETATM   16 CL   UNL     1     -11.152  15.509  64.724  1.00  0.00    -0.440 Cl 
HETATM   17 CL   UNL     1     -12.432  12.704  65.440  1.00  0.00    -0.511 Cl 
HETATM   18  C   UNL     1     -11.963  13.315  67.989  1.00  0.00    -0.351 A  
HETATM   19  C   UNL     1     -11.462  14.083  69.029  1.00  0.00    -0.337 A  
HETATM   20  C   UNL     1     -10.817  15.293  68.753  1.00  0.00    -0.254 A  
ENDBRANCH   7  13
TORSDOF 1
ENDMDL
MODEL       46
REMARK 921   NORMALIZED FREE ENERGY PREDICTED BY IDOCK:   -5.35 KCAL/MOL
REMARK 922        TOTAL FREE ENERGY PREDICTED BY IDOCK:   -5.94 KCAL/MOL
REMARK 923 INTER-LIGAND FREE ENERGY PREDICTED BY IDOCK:   -5.69 KCAL/MOL
REMARK 924 INTRA-LIGAND FREE ENERGY PREDICTED BY IDOCK:   -0.26 KCAL/MOL
REMARK 927      BINDING AFFINITY PREDICTED BY RF-SCORE:    0.00 PKD
ROOT
HETATM    1  N   UNL     1     -11.408   6.675  73.222  1.00  0.00    -0.470 NA 
HETATM    2  H2  UNL     1     -11.767   5.863  72.720  1.00  0.00     0.000 HD 
HETATM    3  C   UNL     1     -11.519   7.796  72.420  1.00  0.00    -0.363 A  
HETATM    4  H1  UNL     1     -10.485   6.460  73.600  1.00  0.00     0.000 HD 
HETATM    5  N   UNL     1     -12.725   8.078  71.927  1.00  0.00    -0.323 NA 
HETATM    6  C   UNL     1     -12.837   9.225  71.228  1.00  0.00    -0.288 A  
HETATM    7  C   UNL     1     -11.751  10.081  70.973  1.00  0.00    -0.392 A  
HETATM    8  N   UNL     1     -14.144   9.455  70.785  1.00  0.00    -0.378 NA 
HETATM    9  N   UNL     1     -10.431   8.538  72.167  1.00  0.00    -0.325 NA 
HETATM   10  H1  UNL     1     -14.228  10.324  70.256  1.00  0.00     0.000 HD 
HETATM   11  N   UNL     1     -10.546   9.678  71.417  1.00  0.00    -0.236 NA 
HETATM   12  H2  UNL     1     -14.804   9.433  71.562  1.00  0.00     0.000 HD 
ENDROOT
BRANCH   7  13
HETATM   13  C   UNL     1     -11.806  11.398  70.274  1.00  0.00    -0.438 A  
HETATM   14  C   UNL     1     -12.413  12.566  70.822  1.00  0.00    -0.268 A  
HETATM   15  C   UNL     1     -12.462  13.768  70.081  1.00  0.00    -0.267 A  
HETATM   16 CL   UNL     1     -13.169  12.556  72.393  1.00  0.00    -0.448 Cl 
HETATM   17 CL   UNL     1     -13.159  15.231  70.701  1.00  0.00    -0.432 Cl 
HETATM   18  C   UNL     1     -11.947  13.833  68.787  1.00  0.00    -0.400 A  
HETATM   19  C   UNL     1     -11.339  12.715  68.235  1.00  0.00    -0.337 A  
HETATM   20  C   UNL     1     -11.250  11.533  68.978  1.00  0.00    -0.324 A  
ENDBRANCH   7  13
TORSDOF 1
ENDMDL
MODEL       47
REMARK 921   NORMALIZED FREE ENERGY PREDICTED BY IDOCK:   -5.31 KCAL/MOL
REMARK 922        TOTAL FREE ENERGY PREDICTED BY IDOCK:   -5.90 KCAL/MOL
REMARK 923 INTER-LIGAND FREE ENERGY PREDICTED BY IDOCK:   -5.60 KCAL/MOL
REMARK 924 INTRA-LIGAND FREE ENERGY PREDICTED BY IDOCK:   -0.29 KCAL/MOL
REMARK 927      BINDING AFFINITY PREDICTED BY RF-SCORE:    0.00 PKD
ROOT
HETATM    1  N   UNL     1     -12.087  16.095  71.600  1.00  0.00    -0.607 NA 
HETATM    2  H2  UNL     1     -12.705  16.887  71.425  1.00  0.00     0.000 HD 
HETATM    3  C   UNL     1     -11.896  15.393  70.425  1.00  0.00    -0.335 A  
HETATM    4  H1  UNL     1     -12.427  15.572  72.407  1.00  0.00     0.000 HD 
HETATM    5  N   UNL     1     -11.452  16.076  69.370  1.00  0.00    -0.343 NA 
HETATM    6  C   UNL     1     -11.178  15.361  68.260  1.00  0.00    -0.323 A  
HETATM    7  C   UNL     1     -11.383  13.973  68.168  1.00  0.00    -0.292 A  
HETATM    8  N   UNL     1     -10.681  16.156  67.221  1.00  0.00    -0.304 NA 
HETATM    9  N   UNL     1     -12.167  14.080  70.386  1.00  0.00    -0.341 NA 
HETATM   10  H1  UNL     1     -10.474  15.614  66.382  1.00  0.00     0.000 HD 
HETATM   11  N   UNL     1     -11.929  13.370  69.240  1.00  0.00    -0.325 NA 
HETATM   12  H2  UNL     1      -9.866  16.689  67.525  1.00  0.00     0.000 HD 
ENDROOT
BRANCH   7  13
HETATM   13  C   UNL     1     -11.038  13.102  67.006  1.00  0.00    -0.305 A  
HETATM   14  C   UNL     1     -11.810  13.026  65.810  1.00  0.00    -0.404 A  
HETATM   15  C   UNL     1     -11.440  12.146  64.768  1.00  0.00    -0.322 A  
HETATM   16 CL   UNL     1     -13.265  13.964  65.596  1.00  0.00    -0.253 Cl 
HETATM   17 CL   UNL     1     -12.319  12.027  63.277  1.00  0.00    -0.629 Cl 
HETATM   18  C   UNL     1     -10.333  11.308  64.898  1.00  0.00    -0.362 A  
HETATM   19  C   UNL     1      -9.558  11.372  66.047  1.00  0.00    -0.247 A  
HETATM   20  C   UNL     1      -9.893  12.271  67.064  1.00  0.00    -0.211 A  
ENDBRANCH   7  13
TORSDOF 1
ENDMDL
MODEL       48
REMARK 921   NORMALIZED FREE ENERGY PREDICTED BY IDOCK:   -5.29 KCAL/MOL
REMARK 922        TOTAL FREE ENERGY PREDICTED BY IDOCK:   -5.88 KCAL/MOL
REMARK 923 INTER-LIGAND FREE ENERGY PREDICTED BY IDOCK:   -5.66 KCAL/MOL
REMARK 924 INTRA-LIGAND FREE ENERGY PREDICTED BY IDOCK:   -0.22 KCAL/MOL
REMARK 927      BINDING AFFINITY PREDICTED BY RF-SCORE:    0.00 PKD
ROOT
HETATM    1  N   UNL     1     -11.453   5.279  73.006  1.00  0.00    -0.438 NA 
HETATM    2  H2  UNL     1     -11.645   4.591  72.278  1.00  0.00     0.000 HD 
HETATM    3  C   UNL     1     -11.658   6.549  72.502  1.00  0.00    -0.208 A  
HETATM    4  H1  UNL     1     -10.545   5.083  73.426  1.00  0.00     0.000 HD 
HETATM    5  N   UNL     1     -12.845   6.806  71.952  1.00  0.00    -0.296 NA 
HETATM    6  C   UNL     1     -13.064   8.074  71.553  1.00  0.00    -0.296 A  
HETATM    7  C   UNL     1     -12.097   9.091  71.652  1.00  0.00    -0.352 A  
HETATM    8  N   UNL     1     -14.348   8.256  71.027  1.00  0.00    -0.657 NA 
HETATM    9  N   UNL     1     -10.673   7.456  72.574  1.00  0.00    -0.250 NA 
HETATM   10  H1  UNL     1     -14.513   9.216  70.726  1.00  0.00     0.000 HD 
HETATM   11  N   UNL     1     -10.888   8.732  72.125  1.00  0.00    -0.360 NA 
HETATM   12  H2  UNL     1     -15.062   7.950  71.689  1.00  0.00     0.000 HD 
ENDROOT
BRANCH   7  13
HETATM   13  C   UNL     1     -12.285  10.529  71.303  1.00  0.00    -0.472 A  
HETATM   14  C   UNL     1     -11.711  11.152  70.157  1.00  0.00    -0.353 A  
HETATM   15  C   UNL     1     -11.902  12.532  69.915  1.00  0.00    -0.303 A  
HETATM   16 CL   UNL     1     -10.708  10.268  69.038  1.00  0.00    -0.233 Cl 
HETATM   17 CL   UNL     1     -11.255  13.344  68.525  1.00  0.00    -0.295 Cl 
HETATM   18  C   UNL     1     -12.627  13.321  70.807  1.00  0.00    -0.357 A  
HETATM   19  C   UNL     1     -13.208  12.737  71.923  1.00  0.00    -0.511 A  
HETATM   20  C   UNL     1     -13.059  11.364  72.146  1.00  0.00    -0.276 A  
ENDBRANCH   7  13
TORSDOF 1
ENDMDL
MODEL       49
REMARK 921   NORMALIZED FREE ENERGY PREDICTED BY IDOCK:   -5.28 KCAL/MOL
REMARK 922        TOTAL FREE ENERGY PREDICTED BY IDOCK:   -5.86 KCAL/MOL
REMARK 923 INTER-LIGAND FREE ENERGY PREDICTED BY IDOCK:   -5.71 KCAL/MOL
REMARK 924 INTRA-LIGAND FREE ENERGY PREDICTED BY IDOCK:   -0.16 KCAL/MOL
REMARK 927      BINDING AFFINITY PREDICTED BY RF-SCORE:    0.00 PKD
ROOT
HETATM    1  N   UNL     1     -10.487  10.756  65.860  1.00  0.00    -0.234 NA 
HETATM    2  H2  UNL     1      -9.870  11.334  65.291  1.00  0.00     0.000 HD 
HETATM    3  C   UNL     1     -10.860  11.458  66.991  1.00  0.00    -0.282 A  
HETATM    4  H1  UNL     1     -10.060   9.839  65.998  1.00  0.00     0.000 HD 
HETATM    5  N   UNL     1     -11.418  12.655  66.811  1.00  0.00    -0.330 NA 
HETATM    6  C   UNL     1     -11.864  13.285  67.915  1.00  0.00    -0.349 A  
HETATM    7  C   UNL     1     -11.724  12.759  69.212  1.00  0.00    -0.319 A  
HETATM    8  N   UNL     1     -12.467  14.513  67.624  1.00  0.00    -0.514 NA 
HETATM    9  N   UNL     1     -10.644  10.925  68.202  1.00  0.00    -0.185 NA 
HETATM   10  H1  UNL     1     -12.805  14.989  68.461  1.00  0.00     0.000 HD 
HETATM   11  N   UNL     1     -11.060  11.592  69.322  1.00  0.00    -0.244 NA 
HETATM   12  H2  UNL     1     -13.214  14.402  66.938  1.00  0.00     0.000 HD 
ENDROOT
BRANCH   7  13
HETATM   13  C   UNL     1     -12.253  13.356  70.472  1.00  0.00    -0.425 A  
HETATM   14  C   UNL     1     -11.804  14.594  71.018  1.00  0.00    -0.322 A  
HETATM   15  C   UNL     1     -12.326  15.075  72.240  1.00  0.00    -0.353 A  
HETATM   16 CL   UNL     1     -10.560  15.540  70.244  1.00  0.00    -0.333 Cl 
HETATM   17 CL   UNL     1     -11.843  16.586  72.942  1.00  0.00    -0.556 Cl 
HETATM   18  C   UNL     1     -13.267  14.337  72.956  1.00  0.00    -0.500 A  
HETATM   19  C   UNL     1     -13.731  13.135  72.441  1.00  0.00    -0.640 A  
HETATM   20  C   UNL     1     -13.250  12.673  71.211  1.00  0.00    -0.119 A  
ENDBRANCH   7  13
TORSDOF 1
ENDMDL
MODEL       50
REMARK 921   NORMALIZED FREE ENERGY PREDICTED BY IDOCK:   -5.27 KCAL/MOL
REMARK 922        TOTAL FREE ENERGY PREDICTED BY IDOCK:   -5.86 KCAL/MOL
REMARK 923 INTER-LIGAND FREE ENERGY PREDICTED BY IDOCK:   -5.56 KCAL/MOL
REMARK 924 INTRA-LIGAND FREE ENERGY PREDICTED BY IDOCK:   -0.30 KCAL/MOL
REMARK 927      BINDING AFFINITY PREDICTED BY RF-SCORE:    0.00 PKD
ROOT
HETATM    1  N   UNL     1      -9.950  10.286  64.726  1.00  0.00    -0.341 NA 
HETATM    2  H2  UNL     1      -9.655   9.359  65.034  1.00  0.00     0.000 HD 
HETATM    3  C   UNL     1     -10.382  11.016  65.816  1.00  0.00    -0.257 A  
HETATM    4  H1  UNL     1     -10.594  10.192  63.940  1.00  0.00     0.000 HD 
HETATM    5  N   UNL     1      -9.541  11.139  66.843  1.00  0.00    -0.184 NA 
HETATM    6  C   UNL     1      -9.938  11.934  67.856  1.00  0.00    -0.191 A  
HETATM    7  C   UNL     1     -11.187  12.579  67.885  1.00  0.00    -0.264 A  
HETATM    8  N   UNL     1      -8.976  12.032  68.867  1.00  0.00    -0.379 NA 
HETATM    9  N   UNL     1     -11.609  11.557  65.805  1.00  0.00    -0.208 NA 
HETATM   10  H1  UNL     1      -9.277  12.635  69.633  1.00  0.00     0.000 HD 
HETATM   11  N   UNL     1     -12.022  12.326  66.860  1.00  0.00    -0.593 NA 
HETATM   12  H2  UNL     1      -8.078  12.338  68.490  1.00  0.00     0.000 HD 
ENDROOT
BRANCH   7  13
HETATM   13  C   UNL     1     -11.669  13.529  68.930  1.00  0.00    -0.379 A  
HETATM   14  C   UNL     1     -12.254  13.125  70.165  1.00  0.00    -0.290 A  
HETATM   15  C   UNL     1     -12.725  14.086  71.088  1.00  0.00    -0.364 A  
HETATM   16 CL   UNL     1     -12.470  11.443  70.571  1.00  0.00    -0.395 Cl 
HETATM   17 CL   UNL     1     -13.420  13.662  72.620  1.00  0.00    -0.652 Cl 
HETATM   18  C   UNL     1     -12.657  15.449  70.800  1.00  0.00    -0.497 A  
HETATM   19  C   UNL     1     -12.080  15.869  69.611  1.00  0.00    -0.216 A  
HETATM   20  C   UNL     1     -11.574  14.925  68.711  1.00  0.00    -0.348 A  
ENDBRANCH   7  13
TORSDOF 1
ENDMDL
MODEL       51
REMARK 921   NORMALIZED FREE ENERGY PREDICTED BY IDOCK:   -5.24 KCAL/MOL
REMARK 922        TOTAL FREE ENERGY PREDICTED BY IDOCK:   -5.82 KCAL/MOL
REMARK 923 INTER-LIGAND FREE ENERGY PREDICTED BY IDOCK:   -5.73 KCAL/MOL
REMARK 924 INTRA-LIGAND FREE ENERGY PREDICTED BY IDOCK:   -0.09 KCAL/MOL
REMARK 927      BINDING AFFINITY PREDICTED BY RF-SCORE:    0.00 PKD
ROOT
HETATM    1  N   UNL     1      -9.447  10.137  65.331  1.00  0.00    -0.217 NA 
HETATM    2  H2  UNL     1      -9.256   9.136  65.373  1.00  0.00     0.000 HD 
HETATM    3  C   UNL     1     -10.121  10.525  66.473  1.00  0.00    -0.225 A  
HETATM    4  H1  UNL     1      -9.880  10.361  64.434  1.00  0.00     0.000 HD 
HETATM    5  N   UNL     1      -9.556  10.232  67.645  1.00  0.00    -0.151 NA 
HETATM    6  C   UNL     1     -10.174  10.701  68.746  1.00  0.00    -0.190 A  
HETATM    7  C   UNL     1     -11.379  11.425  68.704  1.00  0.00    -0.265 A  
HETATM    8  N   UNL     1      -9.489  10.379  69.923  1.00  0.00    -0.406 NA 
HETATM    9  N   UNL     1     -11.296  11.160  66.365  1.00  0.00    -0.222 NA 
HETATM   10  H1  UNL     1      -9.957  10.735  70.757  1.00  0.00     0.000 HD 
HETATM   11  N   UNL     1     -11.941  11.594  67.492  1.00  0.00    -0.621 NA 
HETATM   12  H2  UNL     1      -8.520  10.697  69.882  1.00  0.00     0.000 HD 
ENDROOT
BRANCH   7  13
HETATM   13  C   UNL     1     -12.085  12.039  69.867  1.00  0.00    -0.334 A  
HETATM   14  C   UNL     1     -12.256  13.442  70.045  1.00  0.00    -0.298 A  
HETATM   15  C   UNL     1     -12.902  13.950  71.195  1.00  0.00    -0.351 A  
HETATM   16 CL   UNL     1     -11.634  14.596  68.894  1.00  0.00    -0.320 Cl 
HETATM   17 CL   UNL     1     -13.167  15.644  71.458  1.00  0.00    -0.565 Cl 
HETATM   18  C   UNL     1     -13.357  13.094  72.196  1.00  0.00    -0.621 A  
HETATM   19  C   UNL     1     -13.216  11.723  72.042  1.00  0.00    -0.460 A  
HETATM   20  C   UNL     1     -12.615  11.211  70.887  1.00  0.00    -0.483 A  
ENDBRANCH   7  13
TORSDOF 1
ENDMDL
MODEL       52
REMARK 921   NORMALIZED FREE ENERGY PREDICTED BY IDOCK:   -5.21 KCAL/MOL
REMARK 922        TOTAL FREE ENERGY PREDICTED BY IDOCK:   -5.79 KCAL/MOL
REMARK 923 INTER-LIGAND FREE ENERGY PREDICTED BY IDOCK:   -5.49 KCAL/MOL
REMARK 924 INTRA-LIGAND FREE ENERGY PREDICTED BY IDOCK:   -0.30 KCAL/MOL
REMARK 927      BINDING AFFINITY PREDICTED BY RF-SCORE:    0.00 PKD
ROOT
HETATM    1  N   UNL     1      -8.544  20.937  66.901  1.00  0.00    -0.554 NA 
HETATM    2  H2  UNL     1      -7.770  20.772  66.257  1.00  0.00     0.000 HD 
HETATM    3  C   UNL     1      -9.063  19.726  67.316  1.00  0.00    -0.326 A  
HETATM    4  H1  UNL     1      -9.193  21.606  66.485  1.00  0.00     0.000 HD 
HETATM    5  N   UNL     1      -8.215  18.851  67.859  1.00  0.00    -0.271 NA 
HETATM    6  C   UNL     1      -8.751  17.715  68.346  1.00  0.00    -0.284 A  
HETATM    7  C   UNL     1     -10.122  17.412  68.263  1.00  0.00    -0.339 A  
HETATM    8  N   UNL     1      -7.793  16.880  68.931  1.00  0.00    -0.248 NA 
HETATM    9  N   UNL     1     -10.370  19.475  67.153  1.00  0.00    -0.419 NA 
HETATM   10  H1  UNL     1      -8.199  16.020  69.300  1.00  0.00     0.000 HD 
HETATM   11  N   UNL     1     -10.898  18.298  67.611  1.00  0.00    -0.339 NA 
HETATM   12  H2  UNL     1      -7.264  17.374  69.649  1.00  0.00     0.000 HD 
ENDROOT
BRANCH   7  13
HETATM   13  C   UNL     1     -10.801  16.216  68.840  1.00  0.00    -0.305 A  
HETATM   14  C   UNL     1     -10.929  14.968  68.164  1.00  0.00    -0.279 A  
HETATM   15  C   UNL     1     -11.623  13.891  68.761  1.00  0.00    -0.335 A  
HETATM   16 CL   UNL     1     -10.292  14.725  66.559  1.00  0.00    -0.279 Cl 
HETATM   17 CL   UNL     1     -11.789  12.339  68.004  1.00  0.00    -0.407 Cl 
HETATM   18  C   UNL     1     -12.227  14.034  70.010  1.00  0.00    -0.414 A  
HETATM   19  C   UNL     1     -12.106  15.234  70.696  1.00  0.00    -0.399 A  
HETATM   20  C   UNL     1     -11.385  16.290  70.129  1.00  0.00    -0.292 A  
ENDBRANCH   7  13
TORSDOF 1
ENDMDL
MODEL       53
REMARK 921   NORMALIZED FREE ENERGY PREDICTED BY IDOCK:   -5.19 KCAL/MOL
REMARK 922        TOTAL FREE ENERGY PREDICTED BY IDOCK:   -5.77 KCAL/MOL
REMARK 923 INTER-LIGAND FREE ENERGY PREDICTED BY IDOCK:   -5.49 KCAL/MOL
REMARK 924 INTRA-LIGAND FREE ENERGY PREDICTED BY IDOCK:   -0.28 KCAL/MOL
REMARK 927      BINDING AFFINITY PREDICTED BY RF-SCORE:    0.00 PKD
ROOT
HETATM    1  N   UNL     1     -12.654  13.605  70.652  1.00  0.00    -0.319 NA 
HETATM    2  H2  UNL     1     -12.276  12.669  70.503  1.00  0.00     0.000 HD 
HETATM    3  C   UNL     1     -11.953  14.511  69.880  1.00  0.00    -0.328 A  
HETATM    4  H1  UNL     1     -12.712  13.791  71.654  1.00  0.00     0.000 HD 
HETATM    5  N   UNL     1     -11.876  14.269  68.571  1.00  0.00    -0.346 NA 
HETATM    6  C   UNL     1     -11.274  15.210  67.818  1.00  0.00    -0.323 A  
HETATM    7  C   UNL     1     -10.702  16.377  68.354  1.00  0.00    -0.327 A  
HETATM    8  N   UNL     1     -11.276  14.888  66.456  1.00  0.00    -0.343 NA 
HETATM    9  N   UNL     1     -11.379  15.574  70.462  1.00  0.00    -0.318 NA 
HETATM   10  H1  UNL     1     -10.820  15.601  65.886  1.00  0.00     0.000 HD 
HETATM   11  N   UNL     1     -10.729  16.503  69.695  1.00  0.00    -0.335 NA 
HETATM   12  H2  UNL     1     -12.224  14.703  66.124  1.00  0.00     0.000 HD 
ENDROOT
BRANCH   7  13
HETATM   13  C   UNL     1     -10.085  17.496  67.584  1.00  0.00    -0.328 A  
HETATM   14  C   UNL     1      -8.803  17.426  66.965  1.00  0.00    -0.234 A  
HETATM   15  C   UNL     1      -8.268  18.544  66.286  1.00  0.00    -0.225 A  
HETATM   16 CL   UNL     1      -7.816  15.992  67.060  1.00  0.00    -0.239 Cl 
HETATM   17 CL   UNL     1      -6.728  18.515  65.487  1.00  0.00    -0.300 Cl 
HETATM   18  C   UNL     1      -8.965  19.751  66.233  1.00  0.00    -0.431 A  
HETATM   19  C   UNL     1     -10.221  19.842  66.816  1.00  0.00    -0.603 A  
HETATM   20  C   UNL     1     -10.775  18.727  67.454  1.00  0.00    -0.487 A  
ENDBRANCH   7  13
TORSDOF 1
ENDMDL
MODEL       54
REMARK 921   NORMALIZED FREE ENERGY PREDICTED BY IDOCK:   -5.16 KCAL/MOL
REMARK 922        TOTAL FREE ENERGY PREDICTED BY IDOCK:   -5.74 KCAL/MOL
REMARK 923 INTER-LIGAND FREE ENERGY PREDICTED BY IDOCK:   -5.53 KCAL/MOL
REMARK 924 INTRA-LIGAND FREE ENERGY PREDICTED BY IDOCK:   -0.21 KCAL/MOL
REMARK 927      BINDING AFFINITY PREDICTED BY RF-SCORE:    0.00 PKD
ROOT
HETATM    1  N   UNL     1     -11.653  16.423  63.835  1.00  0.00    -1.602 NA 
HETATM    2  H2  UNL     1     -10.938  16.839  63.238  1.00  0.00     0.000 HD 
HETATM    3  C   UNL     1     -11.091  15.409  64.587  1.00  0.00    -0.347 A  
HETATM    4  H1  UNL     1     -12.471  16.189  63.271  1.00  0.00     0.000 HD 
HETATM    5  N   UNL     1     -10.022  15.714  65.324  1.00  0.00    -0.378 NA 
HETATM    6  C   UNL     1      -9.544  14.741  66.124  1.00  0.00    -0.309 A  
HETATM    7  C   UNL     1     -10.089  13.445  66.172  1.00  0.00    -0.302 A  
HETATM    8  N   UNL     1      -8.450  15.165  66.886  1.00  0.00    -0.234 NA 
HETATM    9  N   UNL     1     -11.623  14.179  64.542  1.00  0.00    -0.391 NA 
HETATM   10  H1  UNL     1      -8.089  14.428  67.493  1.00  0.00     0.000 HD 
HETATM   11  N   UNL     1     -11.102  13.184  65.325  1.00  0.00    -0.280 NA 
HETATM   12  H2  UNL     1      -8.678  16.003  67.422  1.00  0.00     0.000 HD 
ENDROOT
BRANCH   7  13
HETATM   13  C   UNL     1      -9.666  12.340  67.080  1.00  0.00    -0.203 A  
HETATM   14  C   UNL     1     -10.419  11.902  68.208  1.00  0.00    -0.205 A  
HETATM   15  C   UNL     1      -9.932  10.874  69.046  1.00  0.00    -0.191 A  
HETATM   16 CL   UNL     1     -11.937  12.644  68.640  1.00  0.00    -0.319 Cl 
HETATM   17 CL   UNL     1     -10.813  10.276  70.416  1.00  0.00    -0.352 Cl 
HETATM   18  C   UNL     1      -8.690  10.286  68.809  1.00  0.00    -0.144 A  
HETATM   19  C   UNL     1      -7.942  10.684  67.711  1.00  0.00    -0.110 A  
HETATM   20  C   UNL     1      -8.437  11.672  66.853  1.00  0.00    -0.168 A  
ENDBRANCH   7  13
TORSDOF 1
ENDMDL
MODEL       55
REMARK 921   NORMALIZED FREE ENERGY PREDICTED BY IDOCK:   -5.15 KCAL/MOL
REMARK 922        TOTAL FREE ENERGY PREDICTED BY IDOCK:   -5.73 KCAL/MOL
REMARK 923 INTER-LIGAND FREE ENERGY PREDICTED BY IDOCK:   -5.44 KCAL/MOL
REMARK 924 INTRA-LIGAND FREE ENERGY PREDICTED BY IDOCK:   -0.28 KCAL/MOL
REMARK 927      BINDING AFFINITY PREDICTED BY RF-SCORE:    0.00 PKD
ROOT
HETATM    1  N   UNL     1     -11.353  12.641  62.895  1.00  0.00    -0.578 NA 
HETATM    2  H2  UNL     1     -10.829  11.782  62.725  1.00  0.00     0.000 HD 
HETATM    3  C   UNL     1     -11.466  12.848  64.256  1.00  0.00    -0.377 A  
HETATM    4  H1  UNL     1     -12.216  12.624  62.351  1.00  0.00     0.000 HD 
HETATM    5  N   UNL     1     -10.339  12.870  64.968  1.00  0.00    -0.313 NA 
HETATM    6  C   UNL     1     -10.457  13.169  66.276  1.00  0.00    -0.285 A  
HETATM    7  C   UNL     1     -11.693  13.405  66.904  1.00  0.00    -0.389 A  
HETATM    8  N   UNL     1      -9.221  13.208  66.930  1.00  0.00    -0.232 NA 
HETATM    9  N   UNL     1     -12.680  13.007  64.803  1.00  0.00    -0.707 NA 
HETATM   10  H1  UNL     1      -9.311  13.434  67.921  1.00  0.00     0.000 HD 
HETATM   11  N   UNL     1     -12.794  13.265  66.142  1.00  0.00    -0.178 NA 
HETATM   12  H2  UNL     1      -8.578  13.849  66.463  1.00  0.00     0.000 HD 
ENDROOT
BRANCH   7  13
HETATM   13  C   UNL     1     -11.902  13.812  68.324  1.00  0.00    -0.413 A  
HETATM   14  C   UNL     1     -12.209  12.902  69.377  1.00  0.00    -0.091 A  
HETATM   15  C   UNL     1     -12.433  13.369  70.692  1.00  0.00    -0.311 A  
HETATM   16 CL   UNL     1     -12.378  11.190  69.090  1.00  0.00    -0.250 Cl 
HETATM   17 CL   UNL     1     -12.782  12.312  72.023  1.00  0.00    -0.214 Cl 
HETATM   18  C   UNL     1     -12.391  14.732  70.984  1.00  0.00    -0.397 A  
HETATM   19  C   UNL     1     -12.081  15.638  69.981  1.00  0.00    -0.379 A  
HETATM   20  C   UNL     1     -11.817  15.179  68.686  1.00  0.00    -0.329 A  
ENDBRANCH   7  13
TORSDOF 1
ENDMDL
MODEL       56
REMARK 921   NORMALIZED FREE ENERGY PREDICTED BY IDOCK:   -5.14 KCAL/MOL
REMARK 922        TOTAL FREE ENERGY PREDICTED BY IDOCK:   -5.72 KCAL/MOL
REMARK 923 INTER-LIGAND FREE ENERGY PREDICTED BY IDOCK:   -5.45 KCAL/MOL
REMARK 924 INTRA-LIGAND FREE ENERGY PREDICTED BY IDOCK:   -0.27 KCAL/MOL
REMARK 927      BINDING AFFINITY PREDICTED BY RF-SCORE:    0.00 PKD
ROOT
HETATM    1  N   UNL     1     -13.318  11.893  72.578  1.00  0.00    -0.456 NA 
HETATM    2  H2  UNL     1     -14.314  12.070  72.711  1.00  0.00     0.000 HD 
HETATM    3  C   UNL     1     -12.894  12.506  71.415  1.00  0.00    -0.260 A  
HETATM    4  H1  UNL     1     -13.136  10.894  72.674  1.00  0.00     0.000 HD 
HETATM    5  N   UNL     1     -13.132  13.812  71.290  1.00  0.00    -0.320 NA 
HETATM    6  C   UNL     1     -12.628  14.415  70.195  1.00  0.00    -0.286 A  
HETATM    7  C   UNL     1     -11.922  13.727  69.192  1.00  0.00    -0.361 A  
HETATM    8  N   UNL     1     -12.894  15.788  70.170  1.00  0.00    -0.639 NA 
HETATM    9  N   UNL     1     -12.279  11.780  70.470  1.00  0.00    -0.365 NA 
HETATM   10  H1  UNL     1     -12.511  16.244  69.342  1.00  0.00     0.000 HD 
HETATM   11  N   UNL     1     -11.810  12.393  69.339  1.00  0.00    -0.312 NA 
HETATM   12  H2  UNL     1     -12.565  16.241  71.023  1.00  0.00     0.000 HD 
ENDROOT
BRANCH   7  13
HETATM   13  C   UNL     1     -11.273  14.330  67.993  1.00  0.00    -0.300 A  
HETATM   14  C   UNL     1     -10.094  15.130  68.042  1.00  0.00    -0.222 A  
HETATM   15  C   UNL     1      -9.560  15.702  66.865  1.00  0.00    -0.230 A  
HETATM   16 CL   UNL     1      -9.292  15.488  69.548  1.00  0.00    -0.281 Cl 
HETATM   17 CL   UNL     1      -8.114  16.660  66.853  1.00  0.00    -0.224 Cl 
HETATM   18  C   UNL     1     -10.190  15.524  65.634  1.00  0.00    -0.403 A  
HETATM   19  C   UNL     1     -11.331  14.739  65.555  1.00  0.00    -0.343 A  
HETATM   20  C   UNL     1     -11.841  14.135  66.710  1.00  0.00    -0.449 A  
ENDBRANCH   7  13
TORSDOF 1
ENDMDL
MODEL       57
REMARK 921   NORMALIZED FREE ENERGY PREDICTED BY IDOCK:   -5.06 KCAL/MOL
REMARK 922        TOTAL FREE ENERGY PREDICTED BY IDOCK:   -5.63 KCAL/MOL
REMARK 923 INTER-LIGAND FREE ENERGY PREDICTED BY IDOCK:   -5.72 KCAL/MOL
REMARK 924 INTRA-LIGAND FREE ENERGY PREDICTED BY IDOCK:    0.09 KCAL/MOL
REMARK 927      BINDING AFFINITY PREDICTED BY RF-SCORE:    0.00 PKD
ROOT
HETATM    1  N   UNL     1     -13.311  10.453  72.232  1.00  0.00    -0.586 NA 
HETATM    2  H2  UNL     1     -14.330  10.439  72.283  1.00  0.00     0.000 HD 
HETATM    3  C   UNL     1     -12.908  11.494  71.417  1.00  0.00    -0.384 A  
HETATM    4  H1  UNL     1     -12.971   9.519  72.001  1.00  0.00     0.000 HD 
HETATM    5  N   UNL     1     -13.352  12.714  71.718  1.00  0.00    -0.387 NA 
HETATM    6  C   UNL     1     -12.874  13.731  70.974  1.00  0.00    -0.305 A  
HETATM    7  C   UNL     1     -11.987  13.548  69.898  1.00  0.00    -0.348 A  
HETATM    8  N   UNL     1     -13.365  14.974  71.387  1.00  0.00    -0.401 NA 
HETATM    9  N   UNL     1     -12.108  11.243  70.370  1.00  0.00    -0.360 NA 
HETATM   10  H1  UNL     1     -13.002  15.743  70.824  1.00  0.00     0.000 HD 
HETATM   11  N   UNL     1     -11.662  12.277  69.592  1.00  0.00    -0.317 NA 
HETATM   12  H2  UNL     1     -13.185  15.128  72.380  1.00  0.00     0.000 HD 
ENDROOT
BRANCH   7  13
HETATM   13  C   UNL     1     -11.357  14.622  69.076  1.00  0.00    -0.299 A  
HETATM   14  C   UNL     1     -11.426  14.681  67.654  1.00  0.00    -0.346 A  
HETATM   15  C   UNL     1     -10.768  15.710  66.942  1.00  0.00    -0.307 A  
HETATM   16 CL   UNL     1     -12.268  13.469  66.725  1.00  0.00    -0.422 Cl 
HETATM   17 CL   UNL     1     -10.836  15.855  65.215  1.00  0.00    -0.407 Cl 
HETATM   18  C   UNL     1     -10.010  16.671  67.611  1.00  0.00    -0.264 A  
HETATM   19  C   UNL     1      -9.938  16.644  68.996  1.00  0.00    -0.280 A  
HETATM   20  C   UNL     1     -10.621  15.653  69.709  1.00  0.00    -0.308 A  
ENDBRANCH   7  13
TORSDOF 1
ENDMDL
MODEL       58
REMARK 921   NORMALIZED FREE ENERGY PREDICTED BY IDOCK:   -5.03 KCAL/MOL
REMARK 922        TOTAL FREE ENERGY PREDICTED BY IDOCK:   -5.60 KCAL/MOL
REMARK 923 INTER-LIGAND FREE ENERGY PREDICTED BY IDOCK:   -5.34 KCAL/MOL
REMARK 924 INTRA-LIGAND FREE ENERGY PREDICTED BY IDOCK:   -0.26 KCAL/MOL
REMARK 927      BINDING AFFINITY PREDICTED BY RF-SCORE:    0.00 PKD
ROOT
HETATM    1  N   UNL     1     -13.531  11.479  72.093  1.00  0.00    -0.523 NA 
HETATM    2  H2  UNL     1     -13.831  11.500  73.068  1.00  0.00     0.000 HD 
HETATM    3  C   UNL     1     -12.918  10.269  71.827  1.00  0.00    -0.469 A  
HETATM    4  H1  UNL     1     -13.003  12.327  71.883  1.00  0.00     0.000 HD 
HETATM    5  N   UNL     1     -13.607   9.161  72.102  1.00  0.00    -0.444 NA 
HETATM    6  C   UNL     1     -13.037   7.993  71.748  1.00  0.00    -0.336 A  
HETATM    7  C   UNL     1     -11.762   7.905  71.161  1.00  0.00    -0.285 A  
HETATM    8  N   UNL     1     -13.849   6.891  72.039  1.00  0.00    -0.530 NA 
HETATM    9  N   UNL     1     -11.677  10.253  71.322  1.00  0.00    -0.337 NA 
HETATM   10  H1  UNL     1     -13.417   6.007  71.770  1.00  0.00     0.000 HD 
HETATM   11  N   UNL     1     -11.086   9.059  71.007  1.00  0.00    -0.266 NA 
HETATM   12  H2  UNL     1     -14.771   6.993  71.615  1.00  0.00     0.000 HD 
ENDROOT
BRANCH   7  13
HETATM   13  C   UNL     1     -11.095   6.662  70.675  1.00  0.00    -0.349 A  
HETATM   14  C   UNL     1     -10.565   5.655  71.532  1.00  0.00    -0.244 A  
HETATM   15  C   UNL     1      -9.909   4.523  70.997  1.00  0.00    -0.196 A  
HETATM   16 CL   UNL     1     -10.645   5.793  73.269  1.00  0.00    -0.259 Cl 
HETATM   17 CL   UNL     1      -9.268   3.248  71.984  1.00  0.00    -0.160 Cl 
HETATM   18  C   UNL     1      -9.738   4.380  69.620  1.00  0.00    -0.289 A  
HETATM   19  C   UNL     1     -10.256   5.339  68.763  1.00  0.00    -0.231 A  
HETATM   20  C   UNL     1     -10.943   6.441  69.284  1.00  0.00    -0.418 A  
ENDBRANCH   7  13
TORSDOF 1
ENDMDL
MODEL       59
REMARK 921   NORMALIZED FREE ENERGY PREDICTED BY IDOCK:   -5.01 KCAL/MOL
REMARK 922        TOTAL FREE ENERGY PREDICTED BY IDOCK:   -5.58 KCAL/MOL
REMARK 923 INTER-LIGAND FREE ENERGY PREDICTED BY IDOCK:   -5.41 KCAL/MOL
REMARK 924 INTRA-LIGAND FREE ENERGY PREDICTED BY IDOCK:   -0.17 KCAL/MOL
REMARK 927      BINDING AFFINITY PREDICTED BY RF-SCORE:    0.00 PKD
ROOT
HETATM    1  N   UNL     1     -14.248   8.863  73.266  1.00  0.00    -1.237 NA 
HETATM    2  H2  UNL     1     -13.771   8.269  73.945  1.00  0.00     0.000 HD 
HETATM    3  C   UNL     1     -13.353   9.250  72.287  1.00  0.00    -0.477 A  
HETATM    4  H1  UNL     1     -14.751   9.602  73.758  1.00  0.00     0.000 HD 
HETATM    5  N   UNL     1     -12.695   8.284  71.644  1.00  0.00    -0.320 NA 
HETATM    6  C   UNL     1     -11.899   8.670  70.628  1.00  0.00    -0.102 A  
HETATM    7  C   UNL     1     -11.712  10.016  70.264  1.00  0.00    -0.251 A  
HETATM    8  N   UNL     1     -11.283   7.588  69.990  1.00  0.00    -0.416 NA 
HETATM    9  N   UNL     1     -13.176  10.553  72.029  1.00  0.00    -0.449 NA 
HETATM   10  H1  UNL     1     -10.681   7.881  69.220  1.00  0.00     0.000 HD 
HETATM   11  N   UNL     1     -12.331  10.939  71.023  1.00  0.00    -0.377 NA 
HETATM   12  H2  UNL     1     -11.973   6.905  69.677  1.00  0.00     0.000 HD 
ENDROOT
BRANCH   7  13
HETATM   13  C   UNL     1     -10.910  10.518  69.110  1.00  0.00    -0.277 A  
HETATM   14  C   UNL     1      -9.495  10.390  69.007  1.00  0.00    -0.197 A  
HETATM   15  C   UNL     1      -8.800  10.928  67.900  1.00  0.00    -0.134 A  
HETATM   16 CL   UNL     1      -8.550   9.621  70.255  1.00  0.00    -0.244 Cl 
HETATM   17 CL   UNL     1      -7.083  10.781  67.701  1.00  0.00    -0.089 Cl 
HETATM   18  C   UNL     1      -9.478  11.625  66.900  1.00  0.00    -0.195 A  
HETATM   19  C   UNL     1     -10.857  11.753  66.969  1.00  0.00    -0.306 A  
HETATM   20  C   UNL     1     -11.556  11.186  68.041  1.00  0.00    -0.337 A  
ENDBRANCH   7  13
TORSDOF 1
ENDMDL
MODEL       60
REMARK 921   NORMALIZED FREE ENERGY PREDICTED BY IDOCK:   -5.00 KCAL/MOL
REMARK 922        TOTAL FREE ENERGY PREDICTED BY IDOCK:   -5.57 KCAL/MOL
REMARK 923 INTER-LIGAND FREE ENERGY PREDICTED BY IDOCK:   -5.35 KCAL/MOL
REMARK 924 INTRA-LIGAND FREE ENERGY PREDICTED BY IDOCK:   -0.22 KCAL/MOL
REMARK 927      BINDING AFFINITY PREDICTED BY RF-SCORE:    0.00 PKD
ROOT
HETATM    1  N   UNL     1     -10.622  20.156  65.707  1.00  0.00    -0.351 NA 
HETATM    2  H2  UNL     1     -11.574  20.363  65.405  1.00  0.00     0.000 HD 
HETATM    3  C   UNL     1     -10.515  18.810  66.001  1.00  0.00    -0.432 A  
HETATM    4  H1  UNL     1     -10.346  20.817  66.434  1.00  0.00     0.000 HD 
HETATM    5  N   UNL     1     -10.875  17.947  65.050  1.00  0.00    -0.646 NA 
HETATM    6  C   UNL     1     -10.674  16.641  65.315  1.00  0.00    -0.204 A  
HETATM    7  C   UNL     1     -10.159  16.172  66.536  1.00  0.00    -0.291 A  
HETATM    8  N   UNL     1     -11.044  15.816  64.247  1.00  0.00    -0.864 NA 
HETATM    9  N   UNL     1     -10.072  18.429  67.207  1.00  0.00    -0.335 NA 
HETATM   10  H1  UNL     1     -10.892  14.827  64.448  1.00  0.00     0.000 HD 
HETATM   11  N   UNL     1      -9.914  17.097  67.484  1.00  0.00    -0.271 NA 
HETATM   12  H2  UNL     1     -10.569  16.093  63.387  1.00  0.00     0.000 HD 
ENDROOT
BRANCH   7  13
HETATM   13  C   UNL     1      -9.840  14.756  66.878  1.00  0.00    -0.248 A  
HETATM   14  C   UNL     1     -10.822  13.739  67.058  1.00  0.00    -0.284 A  
HETATM   15  C   UNL     1     -10.444  12.426  67.422  1.00  0.00    -0.215 A  
HETATM   16 CL   UNL     1     -12.526  14.071  66.896  1.00  0.00    -0.316 Cl 
HETATM   17 CL   UNL     1     -11.586  11.137  67.627  1.00  0.00    -0.325 Cl 
HETATM   18  C   UNL     1      -9.105  12.104  67.645  1.00  0.00    -0.181 A  
HETATM   19  C   UNL     1      -8.128  13.071  67.464  1.00  0.00    -0.179 A  
HETATM   20  C   UNL     1      -8.492  14.361  67.063  1.00  0.00    -0.206 A  
ENDBRANCH   7  13
TORSDOF 1
ENDMDL
MODEL       61
REMARK 921   NORMALIZED FREE ENERGY PREDICTED BY IDOCK:   -4.97 KCAL/MOL
REMARK 922        TOTAL FREE ENERGY PREDICTED BY IDOCK:   -5.54 KCAL/MOL
REMARK 923 INTER-LIGAND FREE ENERGY PREDICTED BY IDOCK:   -5.25 KCAL/MOL
REMARK 924 INTRA-LIGAND FREE ENERGY PREDICTED BY IDOCK:   -0.28 KCAL/MOL
REMARK 927      BINDING AFFINITY PREDICTED BY RF-SCORE:    0.00 PKD
ROOT
HETATM    1  N   UNL     1     -10.411  19.456  66.511  1.00  0.00    -0.430 NA 
HETATM    2  H2  UNL     1     -11.197  19.795  65.958  1.00  0.00     0.000 HD 
HETATM    3  C   UNL     1     -10.512  18.086  66.661  1.00  0.00    -0.325 A  
HETATM    4  H1  UNL     1     -10.329  20.015  67.361  1.00  0.00     0.000 HD 
HETATM    5  N   UNL     1     -10.618  17.355  65.551  1.00  0.00    -0.598 NA 
HETATM    6  C   UNL     1     -10.618  16.017  65.708  1.00  0.00    -0.353 A  
HETATM    7  C   UNL     1     -10.557  15.388  66.964  1.00  0.00    -0.309 A  
HETATM    8  N   UNL     1     -10.693  15.336  64.488  1.00  0.00    -0.594 NA 
HETATM    9  N   UNL     1     -10.507  17.553  67.892  1.00  0.00    -0.371 NA 
HETATM   10  H1  UNL     1     -10.693  14.322  64.607  1.00  0.00     0.000 HD 
HETATM   11  N   UNL     1     -10.553  16.193  68.044  1.00  0.00    -0.293 NA 
HETATM   12  H2  UNL     1      -9.949  15.631  63.856  1.00  0.00     0.000 HD 
ENDROOT
BRANCH   7  13
HETATM   13  C   UNL     1     -10.479  13.920  67.217  1.00  0.00    -0.271 A  
HETATM   14  C   UNL     1      -9.259  13.208  67.409  1.00  0.00    -0.213 A  
HETATM   15  C   UNL     1      -9.264  11.808  67.604  1.00  0.00    -0.180 A  
HETATM   16 CL   UNL     1      -7.712  14.010  67.357  1.00  0.00    -0.193 Cl 
HETATM   17 CL   UNL     1      -7.818  10.888  67.872  1.00  0.00    -0.107 Cl 
HETATM   18  C   UNL     1     -10.457  11.086  67.580  1.00  0.00    -0.239 A  
HETATM   19  C   UNL     1     -11.659  11.756  67.409  1.00  0.00    -0.352 A  
HETATM   20  C   UNL     1     -11.666  13.147  67.258  1.00  0.00    -0.425 A  
ENDBRANCH   7  13
TORSDOF 1
ENDMDL
MODEL       62
REMARK 921   NORMALIZED FREE ENERGY PREDICTED BY IDOCK:   -4.97 KCAL/MOL
REMARK 922        TOTAL FREE ENERGY PREDICTED BY IDOCK:   -5.54 KCAL/MOL
REMARK 923 INTER-LIGAND FREE ENERGY PREDICTED BY IDOCK:   -5.24 KCAL/MOL
REMARK 924 INTRA-LIGAND FREE ENERGY PREDICTED BY IDOCK:   -0.30 KCAL/MOL
REMARK 927      BINDING AFFINITY PREDICTED BY RF-SCORE:    0.00 PKD
ROOT
HETATM    1  N   UNL     1     -13.023  12.271  63.848  1.00  0.00    -0.766 NA 
HETATM    2  H2  UNL     1     -13.959  12.663  63.748  1.00  0.00     0.000 HD 
HETATM    3  C   UNL     1     -12.262  13.100  64.650  1.00  0.00    -0.414 A  
HETATM    4  H1  UNL     1     -12.652  12.043  62.925  1.00  0.00     0.000 HD 
HETATM    5  N   UNL     1     -12.747  13.399  65.855  1.00  0.00    -0.374 NA 
HETATM    6  C   UNL     1     -11.951  14.127  66.662  1.00  0.00    -0.444 A  
HETATM    7  C   UNL     1     -10.688  14.606  66.271  1.00  0.00    -0.316 A  
HETATM    8  N   UNL     1     -12.526  14.356  67.917  1.00  0.00    -0.527 NA 
HETATM    9  N   UNL     1     -11.092  13.571  64.194  1.00  0.00    -0.338 NA 
HETATM   10  H1  UNL     1     -11.923  14.908  68.527  1.00  0.00     0.000 HD 
HETATM   11  N   UNL     1     -10.310  14.349  65.004  1.00  0.00    -0.424 NA 
HETATM   12  H2  UNL     1     -12.796  13.479  68.362  1.00  0.00     0.000 HD 
ENDROOT
BRANCH   7  13
HETATM   13  C   UNL     1      -9.719  15.353  67.125  1.00  0.00    -0.219 A  
HETATM   14  C   UNL     1      -8.868  14.739  68.089  1.00  0.00    -0.170 A  
HETATM   15  C   UNL     1      -8.005  15.519  68.891  1.00  0.00    -0.187 A  
HETATM   16 CL   UNL     1      -8.888  13.017  68.366  1.00  0.00    -0.162 Cl 
HETATM   17 CL   UNL     1      -6.923  14.832  70.060  1.00  0.00    -0.149 Cl 
HETATM   18  C   UNL     1      -7.989  16.909  68.781  1.00  0.00    -0.254 A  
HETATM   19  C   UNL     1      -8.798  17.532  67.842  1.00  0.00    -0.247 A  
HETATM   20  C   UNL     1      -9.624  16.762  67.016  1.00  0.00    -0.244 A  
ENDBRANCH   7  13
TORSDOF 1
ENDMDL
MODEL       63
REMARK 921   NORMALIZED FREE ENERGY PREDICTED BY IDOCK:   -4.95 KCAL/MOL
REMARK 922        TOTAL FREE ENERGY PREDICTED BY IDOCK:   -5.52 KCAL/MOL
REMARK 923 INTER-LIGAND FREE ENERGY PREDICTED BY IDOCK:   -5.24 KCAL/MOL
REMARK 924 INTRA-LIGAND FREE ENERGY PREDICTED BY IDOCK:   -0.28 KCAL/MOL
REMARK 927      BINDING AFFINITY PREDICTED BY RF-SCORE:    0.00 PKD
ROOT
HETATM    1  N   UNL     1     -12.505  13.847  63.082  1.00  0.00    -1.079 NA 
HETATM    2  H2  UNL     1     -12.463  14.823  63.379  1.00  0.00     0.000 HD 
HETATM    3  C   UNL     1     -11.816  13.062  63.987  1.00  0.00    -0.445 A  
HETATM    4  H1  UNL     1     -12.232  13.780  62.101  1.00  0.00     0.000 HD 
HETATM    5  N   UNL     1     -12.172  13.150  65.268  1.00  0.00    -0.428 NA 
HETATM    6  C   UNL     1     -11.558  12.309  66.124  1.00  0.00    -0.390 A  
HETATM    7  C   UNL     1     -10.556  11.405  65.730  1.00  0.00    -0.260 A  
HETATM    8  N   UNL     1     -12.024  12.446  67.436  1.00  0.00    -0.520 NA 
HETATM    9  N   UNL     1     -10.829  12.264  63.554  1.00  0.00    -0.454 NA 
HETATM   10  H1  UNL     1     -11.560  11.809  68.083  1.00  0.00     0.000 HD 
HETATM   11  N   UNL     1     -10.180  11.445  64.437  1.00  0.00    -0.283 NA 
HETATM   12  H2  UNL     1     -13.038  12.339  67.479  1.00  0.00     0.000 HD 
ENDROOT
BRANCH   7  13
HETATM   13  C   UNL     1      -9.884  10.394  66.597  1.00  0.00    -0.251 A  
HETATM   14  C   UNL     1      -8.908  10.715  67.585  1.00  0.00    -0.131 A  
HETATM   15  C   UNL     1      -8.285   9.697  68.341  1.00  0.00    -0.106 A  
HETATM   16 CL   UNL     1      -8.398  12.358  67.871  1.00  0.00    -0.154 Cl 
HETATM   17 CL   UNL     1      -7.113  10.022  69.578  1.00  0.00    -0.078 Cl 
HETATM   18  C   UNL     1      -8.585   8.354  68.116  1.00  0.00    -0.139 A  
HETATM   19  C   UNL     1      -9.540   8.014  67.170  1.00  0.00    -0.227 A  
HETATM   20  C   UNL     1     -10.192   9.020  66.447  1.00  0.00    -0.297 A  
ENDBRANCH   7  13
TORSDOF 1
ENDMDL
MODEL       64
REMARK 921   NORMALIZED FREE ENERGY PREDICTED BY IDOCK:   -4.93 KCAL/MOL
REMARK 922        TOTAL FREE ENERGY PREDICTED BY IDOCK:   -5.50 KCAL/MOL
REMARK 923 INTER-LIGAND FREE ENERGY PREDICTED BY IDOCK:   -5.27 KCAL/MOL
REMARK 924 INTRA-LIGAND FREE ENERGY PREDICTED BY IDOCK:   -0.23 KCAL/MOL
REMARK 927      BINDING AFFINITY PREDICTED BY RF-SCORE:    0.00 PKD
ROOT
HETATM    1  N   UNL     1     -13.133   8.768  73.074  1.00  0.00    -0.785 NA 
HETATM    2  H2  UNL     1     -12.606   8.998  73.917  1.00  0.00     0.000 HD 
HETATM    3  C   UNL     1     -12.563   9.405  71.989  1.00  0.00    -0.384 A  
HETATM    4  H1  UNL     1     -14.126   8.928  73.242  1.00  0.00     0.000 HD 
HETATM    5  N   UNL     1     -11.264   9.196  71.769  1.00  0.00    -0.375 NA 
HETATM    6  C   UNL     1     -10.745   9.744  70.653  1.00  0.00    -0.326 A  
HETATM    7  C   UNL     1     -11.492  10.540  69.767  1.00  0.00    -0.294 A  
HETATM    8  N   UNL     1      -9.390   9.438  70.488  1.00  0.00    -0.255 NA 
HETATM    9  N   UNL     1     -13.317  10.199  71.216  1.00  0.00    -0.348 NA 
HETATM   10  H1  UNL     1      -8.997   9.854  69.643  1.00  0.00     0.000 HD 
HETATM   11  N   UNL     1     -12.770  10.789  70.108  1.00  0.00    -0.250 NA 
HETATM   12  H2  UNL     1      -9.236   8.430  70.507  1.00  0.00     0.000 HD 
ENDROOT
BRANCH   7  13
HETATM   13  C   UNL     1     -11.012  11.120  68.479  1.00  0.00    -0.267 A  
HETATM   14  C   UNL     1     -10.672  10.344  67.333  1.00  0.00    -0.283 A  
HETATM   15  C   UNL     1     -10.185  10.964  66.160  1.00  0.00    -0.249 A  
HETATM   16 CL   UNL     1     -10.782   8.604  67.338  1.00  0.00    -0.290 Cl 
HETATM   17 CL   UNL     1      -9.781  10.080  64.723  1.00  0.00    -0.383 Cl 
HETATM   18  C   UNL     1      -9.997  12.345  66.106  1.00  0.00    -0.267 A  
HETATM   19  C   UNL     1     -10.333  13.125  67.202  1.00  0.00    -0.247 A  
HETATM   20  C   UNL     1     -10.854  12.522  68.352  1.00  0.00    -0.266 A  
ENDBRANCH   7  13
TORSDOF 1
ENDMDL
MODEL       65
REMARK 921   NORMALIZED FREE ENERGY PREDICTED BY IDOCK:   -4.91 KCAL/MOL
REMARK 922        TOTAL FREE ENERGY PREDICTED BY IDOCK:   -5.47 KCAL/MOL
REMARK 923 INTER-LIGAND FREE ENERGY PREDICTED BY IDOCK:   -5.33 KCAL/MOL
REMARK 924 INTRA-LIGAND FREE ENERGY PREDICTED BY IDOCK:   -0.14 KCAL/MOL
REMARK 927      BINDING AFFINITY PREDICTED BY RF-SCORE:    0.00 PKD
ROOT
HETATM    1  N   UNL     1     -13.935  13.649  72.692  1.00  0.00    -0.745 NA 
HETATM    2  H2  UNL     1     -13.713  13.279  73.616  1.00  0.00     0.000 HD 
HETATM    3  C   UNL     1     -13.173  12.997  71.741  1.00  0.00    -0.392 A  
HETATM    4  H1  UNL     1     -13.884  14.668  72.714  1.00  0.00     0.000 HD 
HETATM    5  N   UNL     1     -13.240  11.666  71.711  1.00  0.00    -0.421 NA 
HETATM    6  C   UNL     1     -12.568  11.050  70.719  1.00  0.00    -0.369 A  
HETATM    7  C   UNL     1     -11.788  11.740  69.773  1.00  0.00    -0.349 A  
HETATM    8  N   UNL     1     -12.728   9.661  70.745  1.00  0.00    -0.519 NA 
HETATM    9  N   UNL     1     -12.404  13.711  70.906  1.00  0.00    -0.366 NA 
HETATM   10  H1  UNL     1     -12.220   9.195  69.993  1.00  0.00     0.000 HD 
HETATM   11  N   UNL     1     -11.688  13.074  69.928  1.00  0.00    -0.289 NA 
HETATM   12  H2  UNL     1     -13.716   9.405  70.734  1.00  0.00     0.000 HD 
ENDROOT
BRANCH   7  13
HETATM   13  C   UNL     1     -11.078  11.142  68.605  1.00  0.00    -0.293 A  
HETATM   14  C   UNL     1      -9.994  10.223  68.717  1.00  0.00    -0.179 A  
HETATM   15  C   UNL     1      -9.343   9.730  67.563  1.00  0.00    -0.133 A  
HETATM   16 CL   UNL     1      -9.383   9.709  70.268  1.00  0.00    -0.299 Cl 
HETATM   17 CL   UNL     1      -8.038   8.589  67.630  1.00  0.00    -0.107 Cl 
HETATM   18  C   UNL     1      -9.725  10.155  66.291  1.00  0.00    -0.274 A  
HETATM   19  C   UNL     1     -10.785  11.038  66.153  1.00  0.00    -0.257 A  
HETATM   20  C   UNL     1     -11.461  11.497  67.289  1.00  0.00    -0.338 A  
ENDBRANCH   7  13
TORSDOF 1
ENDMDL
MODEL       66
REMARK 921   NORMALIZED FREE ENERGY PREDICTED BY IDOCK:   -4.90 KCAL/MOL
REMARK 922        TOTAL FREE ENERGY PREDICTED BY IDOCK:   -5.46 KCAL/MOL
REMARK 923 INTER-LIGAND FREE ENERGY PREDICTED BY IDOCK:   -5.29 KCAL/MOL
REMARK 924 INTRA-LIGAND FREE ENERGY PREDICTED BY IDOCK:   -0.18 KCAL/MOL
REMARK 927      BINDING AFFINITY PREDICTED BY RF-SCORE:    0.00 PKD
ROOT
HETATM    1  N   UNL     1      -7.458  11.325  65.718  1.00  0.00    -0.361 NA 
HETATM    2  H2  UNL     1      -7.391  12.231  65.256  1.00  0.00     0.000 HD 
HETATM    3  C   UNL     1      -8.418  11.384  66.710  1.00  0.00    -0.165 A  
HETATM    4  H1  UNL     1      -6.525  11.013  65.988  1.00  0.00     0.000 HD 
HETATM    5  N   UNL     1      -9.637  11.792  66.357  1.00  0.00    -0.212 NA 
HETATM    6  C   UNL     1     -10.586  11.752  67.313  1.00  0.00    -0.224 A  
HETATM    7  C   UNL     1     -10.330  11.353  68.637  1.00  0.00    -0.203 A  
HETATM    8  N   UNL     1     -11.839  12.159  66.841  1.00  0.00    -0.601 NA 
HETATM    9  N   UNL     1      -8.093  11.046  67.966  1.00  0.00    -0.116 NA 
HETATM   10  H1  UNL     1     -12.557  12.129  67.565  1.00  0.00     0.000 HD 
HETATM   11  N   UNL     1      -9.053  11.053  68.942  1.00  0.00    -0.158 NA 
HETATM   12  H2  UNL     1     -12.118  11.615  66.024  1.00  0.00     0.000 HD 
ENDROOT
BRANCH   7  13
HETATM   13  C   UNL     1     -11.336  11.213  69.730  1.00  0.00    -0.354 A  
HETATM   14  C   UNL     1     -12.051  12.306  70.301  1.00  0.00    -0.295 A  
HETATM   15  C   UNL     1     -12.959  12.097  71.363  1.00  0.00    -0.257 A  
HETATM   16 CL   UNL     1     -11.802  13.946  69.762  1.00  0.00    -0.367 Cl 
HETATM   17 CL   UNL     1     -13.882  13.379  72.082  1.00  0.00    -0.615 Cl 
HETATM   18  C   UNL     1     -13.154  10.825  71.899  1.00  0.00    -0.557 A  
HETATM   19  C   UNL     1     -12.480   9.742  71.354  1.00  0.00    -0.482 A  
HETATM   20  C   UNL     1     -11.611   9.934  70.275  1.00  0.00    -0.319 A  
ENDBRANCH   7  13
TORSDOF 1
ENDMDL
MODEL       67
REMARK 921   NORMALIZED FREE ENERGY PREDICTED BY IDOCK:   -4.89 KCAL/MOL
REMARK 922        TOTAL FREE ENERGY PREDICTED BY IDOCK:   -5.45 KCAL/MOL
REMARK 923 INTER-LIGAND FREE ENERGY PREDICTED BY IDOCK:   -5.20 KCAL/MOL
REMARK 924 INTRA-LIGAND FREE ENERGY PREDICTED BY IDOCK:   -0.25 KCAL/MOL
REMARK 927      BINDING AFFINITY PREDICTED BY RF-SCORE:    0.00 PKD
ROOT
HETATM    1  N   UNL     1      -8.264   9.725  70.768  1.00  0.00    -0.388 NA 
HETATM    2  H2  UNL     1      -8.568   8.781  71.006  1.00  0.00     0.000 HD 
HETATM    3  C   UNL     1      -8.798  10.086  69.546  1.00  0.00    -0.195 A  
HETATM    4  H1  UNL     1      -7.251   9.790  70.874  1.00  0.00     0.000 HD 
HETATM    5  N   UNL     1     -10.122  10.000  69.408  1.00  0.00    -0.205 NA 
HETATM    6  C   UNL     1     -10.637  10.447  68.246  1.00  0.00    -0.212 A  
HETATM    7  C   UNL     1      -9.847  10.940  67.192  1.00  0.00    -0.184 A  
HETATM    8  N   UNL     1     -12.033  10.354  68.209  1.00  0.00    -0.726 NA 
HETATM    9  N   UNL     1      -7.984  10.492  68.562  1.00  0.00    -0.111 NA 
HETATM   10  H1  UNL     1     -12.422  10.693  67.329  1.00  0.00     0.000 HD 
HETATM   11  N   UNL     1      -8.513  10.901  67.367  1.00  0.00    -0.120 NA 
HETATM   12  H2  UNL     1     -12.454  10.833  69.005  1.00  0.00     0.000 HD 
ENDROOT
BRANCH   7  13
HETATM   13  C   UNL     1     -10.343  11.519  65.910  1.00  0.00    -0.293 A  
HETATM   14  C   UNL     1     -11.031  12.763  65.809  1.00  0.00    -0.277 A  
HETATM   15  C   UNL     1     -11.506  13.226  64.561  1.00  0.00    -0.365 A  
HETATM   16 CL   UNL     1     -11.368  13.741  67.213  1.00  0.00    -0.326 Cl 
HETATM   17 CL   UNL     1     -12.324  14.743  64.367  1.00  0.00    -0.478 Cl 
HETATM   18  C   UNL     1     -11.343  12.463  63.406  1.00  0.00    -0.507 A  
HETATM   19  C   UNL     1     -10.665  11.254  63.473  1.00  0.00    -0.408 A  
HETATM   20  C   UNL     1     -10.155  10.810  64.698  1.00  0.00    -0.410 A  
ENDBRANCH   7  13
TORSDOF 1
ENDMDL
MODEL       68
REMARK 921   NORMALIZED FREE ENERGY PREDICTED BY IDOCK:   -4.81 KCAL/MOL
REMARK 922        TOTAL FREE ENERGY PREDICTED BY IDOCK:   -5.37 KCAL/MOL
REMARK 923 INTER-LIGAND FREE ENERGY PREDICTED BY IDOCK:   -5.06 KCAL/MOL
REMARK 924 INTRA-LIGAND FREE ENERGY PREDICTED BY IDOCK:   -0.30 KCAL/MOL
REMARK 927      BINDING AFFINITY PREDICTED BY RF-SCORE:    0.00 PKD
ROOT
HETATM    1  N   UNL     1     -10.578   8.101  67.838  1.00  0.00    -0.407 NA 
HETATM    2  H2  UNL     1      -9.656   7.872  68.211  1.00  0.00     0.000 HD 
HETATM    3  C   UNL     1     -10.575   9.402  67.373  1.00  0.00    -0.258 A  
HETATM    4  H1  UNL     1     -11.292   7.850  68.523  1.00  0.00     0.000 HD 
HETATM    5  N   UNL     1      -9.642   9.729  66.478  1.00  0.00    -0.182 NA 
HETATM    6  C   UNL     1      -9.711  10.972  65.962  1.00  0.00    -0.224 A  
HETATM    7  C   UNL     1     -10.674  11.917  66.356  1.00  0.00    -0.266 A  
HETATM    8  N   UNL     1      -8.719  11.210  65.005  1.00  0.00    -0.384 NA 
HETATM    9  N   UNL     1     -11.484  10.272  67.834  1.00  0.00    -0.314 NA 
HETATM   10  H1  UNL     1      -8.772  12.151  64.614  1.00  0.00     0.000 HD 
HETATM   11  N   UNL     1     -11.519  11.547  67.337  1.00  0.00    -0.481 NA 
HETATM   12  H2  UNL     1      -8.742  10.504  64.268  1.00  0.00     0.000 HD 
ENDROOT
BRANCH   7  13
HETATM   13  C   UNL     1     -10.863  13.282  65.783  1.00  0.00    -0.286 A  
HETATM   14  C   UNL     1     -10.091  14.419  66.160  1.00  0.00    -0.309 A  
HETATM   15  C   UNL     1     -10.357  15.689  65.601  1.00  0.00    -0.385 A  
HETATM   16 CL   UNL     1      -8.830  14.314  67.360  1.00  0.00    -0.197 Cl 
HETATM   17 CL   UNL     1      -9.436  17.106  65.995  1.00  0.00    -0.217 Cl 
HETATM   18  C   UNL     1     -11.400  15.867  64.692  1.00  0.00    -0.328 A  
HETATM   19  C   UNL     1     -12.158  14.775  64.298  1.00  0.00    -0.415 A  
HETATM   20  C   UNL     1     -11.874  13.507  64.816  1.00  0.00    -0.412 A  
ENDBRANCH   7  13
TORSDOF 1
ENDMDL
MODEL       69
REMARK 921   NORMALIZED FREE ENERGY PREDICTED BY IDOCK:   -4.80 KCAL/MOL
REMARK 922        TOTAL FREE ENERGY PREDICTED BY IDOCK:   -5.36 KCAL/MOL
REMARK 923 INTER-LIGAND FREE ENERGY PREDICTED BY IDOCK:   -5.06 KCAL/MOL
REMARK 924 INTRA-LIGAND FREE ENERGY PREDICTED BY IDOCK:   -0.30 KCAL/MOL
REMARK 927      BINDING AFFINITY PREDICTED BY RF-SCORE:    0.00 PKD
ROOT
HETATM    1  N   UNL     1      -8.155  18.193  65.886  1.00  0.00    -0.528 NA 
HETATM    2  H2  UNL     1      -7.511  17.569  65.399  1.00  0.00     0.000 HD 
HETATM    3  C   UNL     1      -8.836  17.483  66.856  1.00  0.00    -0.251 A  
HETATM    4  H1  UNL     1      -8.713  18.704  65.201  1.00  0.00     0.000 HD 
HETATM    5  N   UNL     1      -8.107  16.815  67.750  1.00  0.00    -0.176 NA 
HETATM    6  C   UNL     1      -8.783  16.208  68.746  1.00  0.00    -0.240 A  
HETATM    7  C   UNL     1     -10.185  16.218  68.844  1.00  0.00    -0.256 A  
HETATM    8  N   UNL     1      -7.934  15.568  69.655  1.00  0.00    -0.186 NA 
HETATM    9  N   UNL     1     -10.177  17.485  66.858  1.00  0.00    -0.319 NA 
HETATM   10  H1  UNL     1      -8.445  15.109  70.409  1.00  0.00     0.000 HD 
HETATM   11  N   UNL     1     -10.857  16.827  67.848  1.00  0.00    -0.339 NA 
HETATM   12  H2  UNL     1      -7.237  16.215  70.025  1.00  0.00     0.000 HD 
ENDROOT
BRANCH   7  13
HETATM   13  C   UNL     1     -11.001  15.635  69.949  1.00  0.00    -0.323 A  
HETATM   14  C   UNL     1     -11.431  14.277  69.992  1.00  0.00    -0.219 A  
HETATM   15  C   UNL     1     -12.237  13.809  71.055  1.00  0.00    -0.319 A  
HETATM   16 CL   UNL     1     -11.039  13.150  68.721  1.00  0.00    -0.292 Cl 
HETATM   17 CL   UNL     1     -12.770  12.163  71.181  1.00  0.00    -0.416 Cl 
HETATM   18  C   UNL     1     -12.656  14.671  72.068  1.00  0.00    -0.408 A  
HETATM   19  C   UNL     1     -12.240  15.994  72.058  1.00  0.00    -0.582 A  
HETATM   20  C   UNL     1     -11.408  16.454  71.031  1.00  0.00    -0.207 A  
ENDBRANCH   7  13
TORSDOF 1
ENDMDL
MODEL       70
REMARK 921   NORMALIZED FREE ENERGY PREDICTED BY IDOCK:   -4.78 KCAL/MOL
REMARK 922        TOTAL FREE ENERGY PREDICTED BY IDOCK:   -5.34 KCAL/MOL
REMARK 923 INTER-LIGAND FREE ENERGY PREDICTED BY IDOCK:   -5.12 KCAL/MOL
REMARK 924 INTRA-LIGAND FREE ENERGY PREDICTED BY IDOCK:   -0.22 KCAL/MOL
REMARK 927      BINDING AFFINITY PREDICTED BY RF-SCORE:    0.00 PKD
ROOT
HETATM    1  N   UNL     1      -9.755  17.501  65.765  1.00  0.00    -0.540 NA 
HETATM    2  H2  UNL     1     -10.545  18.027  65.392  1.00  0.00     0.000 HD 
HETATM    3  C   UNL     1     -10.222  16.469  66.556  1.00  0.00    -0.300 A  
HETATM    4  H1  UNL     1      -9.086  18.147  66.186  1.00  0.00     0.000 HD 
HETATM    5  N   UNL     1     -11.096  15.625  66.007  1.00  0.00    -0.206 NA 
HETATM    6  C   UNL     1     -11.468  14.569  66.758  1.00  0.00    -0.367 A  
HETATM    7  C   UNL     1     -11.017  14.361  68.073  1.00  0.00    -0.258 A  
HETATM    8  N   UNL     1     -12.354  13.720  66.085  1.00  0.00    -0.457 NA 
HETATM    9  N   UNL     1      -9.797  16.361  67.823  1.00  0.00    -0.236 NA 
HETATM   10  H1  UNL     1     -12.635  12.921  66.653  1.00  0.00     0.000 HD 
HETATM   11  N   UNL     1     -10.216  15.310  68.594  1.00  0.00    -0.217 NA 
HETATM   12  H2  UNL     1     -11.964  13.417  65.192  1.00  0.00     0.000 HD 
ENDROOT
BRANCH   7  13
HETATM   13  C   UNL     1     -11.323  13.186  68.939  1.00  0.00    -0.335 A  
HETATM   14  C   UNL     1     -10.866  11.862  68.677  1.00  0.00    -0.235 A  
HETATM   15  C   UNL     1     -11.232  10.791  69.524  1.00  0.00    -0.281 A  
HETATM   16 CL   UNL     1      -9.890  11.488  67.281  1.00  0.00    -0.203 Cl 
HETATM   17 CL   UNL     1     -10.687   9.163  69.277  1.00  0.00    -0.225 Cl 
HETATM   18  C   UNL     1     -12.073  10.999  70.617  1.00  0.00    -0.471 A  
HETATM   19  C   UNL     1     -12.521  12.280  70.902  1.00  0.00    -0.371 A  
HETATM   20  C   UNL     1     -12.129  13.351  70.093  1.00  0.00    -0.415 A  
ENDBRANCH   7  13
TORSDOF 1
ENDMDL
MODEL       71
REMARK 921   NORMALIZED FREE ENERGY PREDICTED BY IDOCK:   -4.77 KCAL/MOL
REMARK 922        TOTAL FREE ENERGY PREDICTED BY IDOCK:   -5.33 KCAL/MOL
REMARK 923 INTER-LIGAND FREE ENERGY PREDICTED BY IDOCK:   -5.61 KCAL/MOL
REMARK 924 INTRA-LIGAND FREE ENERGY PREDICTED BY IDOCK:    0.28 KCAL/MOL
REMARK 927      BINDING AFFINITY PREDICTED BY RF-SCORE:    0.00 PKD
ROOT
HETATM    1  N   UNL     1     -14.052  13.776  72.689  1.00  0.00    -0.711 NA 
HETATM    2  H2  UNL     1     -13.885  13.454  73.642  1.00  0.00     0.000 HD 
HETATM    3  C   UNL     1     -13.280  13.038  71.813  1.00  0.00    -0.392 A  
HETATM    4  H1  UNL     1     -13.958  14.792  72.654  1.00  0.00     0.000 HD 
HETATM    5  N   UNL     1     -13.402  11.711  71.859  1.00  0.00    -0.402 NA 
HETATM    6  C   UNL     1     -12.717  11.010  70.934  1.00  0.00    -0.358 A  
HETATM    7  C   UNL     1     -11.870  11.608  69.985  1.00  0.00    -0.355 A  
HETATM    8  N   UNL     1     -12.939   9.632  71.035  1.00  0.00    -0.511 NA 
HETATM    9  N   UNL     1     -12.447  13.668  70.973  1.00  0.00    -0.369 NA 
HETATM   10  H1  UNL     1     -12.420   9.102  70.335  1.00  0.00     0.000 HD 
HETATM   11  N   UNL     1     -11.719  12.944  70.066  1.00  0.00    -0.261 NA 
HETATM   12  H2  UNL     1     -13.935   9.416  70.995  1.00  0.00     0.000 HD 
ENDROOT
BRANCH   7  13
HETATM   13  C   UNL     1     -11.137  10.912  68.887  1.00  0.00    -0.307 A  
HETATM   14  C   UNL     1     -11.135  11.347  67.530  1.00  0.00    -0.281 A  
HETATM   15  C   UNL     1     -10.449  10.610  66.538  1.00  0.00    -0.224 A  
HETATM   16 CL   UNL     1     -12.016  12.762  67.018  1.00  0.00    -0.421 Cl 
HETATM   17 CL   UNL     1     -10.383  11.100  64.875  1.00  0.00    -0.355 Cl 
HETATM   18  C   UNL     1      -9.786   9.425  66.857  1.00  0.00    -0.261 A  
HETATM   19  C   UNL     1      -9.762   8.987  68.172  1.00  0.00    -0.172 A  
HETATM   20  C   UNL     1     -10.403   9.734  69.167  1.00  0.00    -0.225 A  
ENDBRANCH   7  13
TORSDOF 1
ENDMDL
MODEL       72
REMARK 921   NORMALIZED FREE ENERGY PREDICTED BY IDOCK:   -4.77 KCAL/MOL
REMARK 922        TOTAL FREE ENERGY PREDICTED BY IDOCK:   -5.32 KCAL/MOL
REMARK 923 INTER-LIGAND FREE ENERGY PREDICTED BY IDOCK:   -5.13 KCAL/MOL
REMARK 924 INTRA-LIGAND FREE ENERGY PREDICTED BY IDOCK:   -0.19 KCAL/MOL
REMARK 927      BINDING AFFINITY PREDICTED BY RF-SCORE:    0.00 PKD
ROOT
HETATM    1  N   UNL     1     -10.758   7.126  74.088  1.00  0.00    -0.541 NA 
HETATM    2  H2  UNL     1     -10.512   6.137  74.126  1.00  0.00     0.000 HD 
HETATM    3  C   UNL     1     -10.655   7.574  72.785  1.00  0.00    -0.313 A  
HETATM    4  H1  UNL     1     -10.234   7.634  74.800  1.00  0.00     0.000 HD 
HETATM    5  N   UNL     1     -11.340   6.911  71.853  1.00  0.00    -0.252 NA 
HETATM    6  C   UNL     1     -11.306   7.417  70.605  1.00  0.00    -0.281 A  
HETATM    7  C   UNL     1     -10.561   8.556  70.255  1.00  0.00    -0.226 A  
HETATM    8  N   UNL     1     -12.085   6.678  69.707  1.00  0.00    -0.545 NA 
HETATM    9  N   UNL     1      -9.879   8.632  72.508  1.00  0.00    -0.256 NA 
HETATM   10  H1  UNL     1     -12.059   7.062  68.762  1.00  0.00     0.000 HD 
HETATM   11  N   UNL     1      -9.814   9.113  71.228  1.00  0.00    -0.299 NA 
HETATM   12  H2  UNL     1     -13.045   6.588  70.041  1.00  0.00     0.000 HD 
ENDROOT
BRANCH   7  13
HETATM   13  C   UNL     1     -10.530   9.219  68.919  1.00  0.00    -0.235 A  
HETATM   14  C   UNL     1     -11.152  10.469  68.634  1.00  0.00    -0.267 A  
HETATM   15  C   UNL     1     -11.113  11.015  67.331  1.00  0.00    -0.305 A  
HETATM   16 CL   UNL     1     -12.032  11.354  69.852  1.00  0.00    -0.406 Cl 
HETATM   17 CL   UNL     1     -11.824  12.544  66.926  1.00  0.00    -0.447 Cl 
HETATM   18  C   UNL     1     -10.494  10.328  66.286  1.00  0.00    -0.214 A  
HETATM   19  C   UNL     1      -9.870   9.116  66.539  1.00  0.00    -0.333 A  
HETATM   20  C   UNL     1      -9.868   8.590  67.835  1.00  0.00    -0.208 A  
ENDBRANCH   7  13
TORSDOF 1
ENDMDL
MODEL       73
REMARK 921   NORMALIZED FREE ENERGY PREDICTED BY IDOCK:   -4.73 KCAL/MOL
REMARK 922        TOTAL FREE ENERGY PREDICTED BY IDOCK:   -5.28 KCAL/MOL
REMARK 923 INTER-LIGAND FREE ENERGY PREDICTED BY IDOCK:   -5.03 KCAL/MOL
REMARK 924 INTRA-LIGAND FREE ENERGY PREDICTED BY IDOCK:   -0.26 KCAL/MOL
REMARK 927      BINDING AFFINITY PREDICTED BY RF-SCORE:    0.00 PKD
ROOT
HETATM    1  N   UNL     1      -9.137   7.365  68.013  1.00  0.00    -0.131 NA 
HETATM    2  H2  UNL     1      -9.883   6.722  68.279  1.00  0.00     0.000 HD 
HETATM    3  C   UNL     1      -9.683   8.468  67.386  1.00  0.00    -0.170 A  
HETATM    4  H1  UNL     1      -8.412   6.852  67.511  1.00  0.00     0.000 HD 
HETATM    5  N   UNL     1     -10.630   9.138  68.042  1.00  0.00    -0.222 NA 
HETATM    6  C   UNL     1     -11.083  10.266  67.460  1.00  0.00    -0.232 A  
HETATM    7  C   UNL     1     -10.638  10.719  66.206  1.00  0.00    -0.192 A  
HETATM    8  N   UNL     1     -12.044  10.921  68.239  1.00  0.00    -0.810 NA 
HETATM    9  N   UNL     1      -9.256   8.813  66.162  1.00  0.00    -0.200 NA 
HETATM   10  H1  UNL     1     -12.387  11.775  67.798  1.00  0.00     0.000 HD 
HETATM   11  N   UNL     1      -9.755   9.935  65.559  1.00  0.00    -0.284 NA 
HETATM   12  H2  UNL     1     -11.690  11.108  69.178  1.00  0.00     0.000 HD 
ENDROOT
BRANCH   7  13
HETATM   13  C   UNL     1     -11.035  11.989  65.530  1.00  0.00    -0.345 A  
HETATM   14  C   UNL     1     -10.643  13.285  65.976  1.00  0.00    -0.286 A  
HETATM   15  C   UNL     1     -11.093  14.445  65.306  1.00  0.00    -0.342 A  
HETATM   16 CL   UNL     1      -9.646  13.506  67.389  1.00  0.00    -0.220 Cl 
HETATM   17 CL   UNL     1     -10.629  16.048  65.779  1.00  0.00    -0.365 Cl 
HETATM   18  C   UNL     1     -11.955  14.351  64.214  1.00  0.00    -0.433 A  
HETATM   19  C   UNL     1     -12.341  13.102  63.751  1.00  0.00    -0.459 A  
HETATM   20  C   UNL     1     -11.866  11.948  64.384  1.00  0.00    -0.336 A  
ENDBRANCH   7  13
TORSDOF 1
ENDMDL
MODEL       74
REMARK 921   NORMALIZED FREE ENERGY PREDICTED BY IDOCK:   -4.73 KCAL/MOL
REMARK 922        TOTAL FREE ENERGY PREDICTED BY IDOCK:   -5.28 KCAL/MOL
REMARK 923 INTER-LIGAND FREE ENERGY PREDICTED BY IDOCK:   -5.03 KCAL/MOL
REMARK 924 INTRA-LIGAND FREE ENERGY PREDICTED BY IDOCK:   -0.26 KCAL/MOL
REMARK 927      BINDING AFFINITY PREDICTED BY RF-SCORE:    0.00 PKD
ROOT
HETATM    1  N   UNL     1     -10.421  14.776  65.811  1.00  0.00    -0.314 NA 
HETATM    2  H2  UNL     1      -9.587  14.758  65.224  1.00  0.00     0.000 HD 
HETATM    3  C   UNL     1     -10.487  13.611  66.552  1.00  0.00    -0.281 A  
HETATM    4  H1  UNL     1     -11.232  15.013  65.240  1.00  0.00     0.000 HD 
HETATM    5  N   UNL     1      -9.427  13.302  67.299  1.00  0.00    -0.225 NA 
HETATM    6  C   UNL     1      -9.542  12.216  68.090  1.00  0.00    -0.208 A  
HETATM    7  C   UNL     1     -10.688  11.402  68.117  1.00  0.00    -0.202 A  
HETATM    8  N   UNL     1      -8.398  11.994  68.864  1.00  0.00    -0.365 NA 
HETATM    9  N   UNL     1     -11.586  12.847  66.488  1.00  0.00    -0.351 NA 
HETATM   10  H1  UNL     1      -8.486  11.172  69.462  1.00  0.00     0.000 HD 
HETATM   11  N   UNL     1     -11.677  11.720  67.261  1.00  0.00    -0.597 NA 
HETATM   12  H2  UNL     1      -8.157  12.822  69.409  1.00  0.00     0.000 HD 
ENDROOT
BRANCH   7  13
HETATM   13  C   UNL     1     -10.922  10.232  69.013  1.00  0.00    -0.274 A  
HETATM   14  C   UNL     1     -11.719  10.278  70.193  1.00  0.00    -0.284 A  
HETATM   15  C   UNL     1     -11.861   9.136  71.013  1.00  0.00    -0.292 A  
HETATM   16 CL   UNL     1     -12.506  11.745  70.711  1.00  0.00    -0.439 Cl 
HETATM   17 CL   UNL     1     -12.839   9.118  72.446  1.00  0.00    -0.459 Cl 
HETATM   18  C   UNL     1     -11.199   7.948  70.706  1.00  0.00    -0.274 A  
HETATM   19  C   UNL     1     -10.428   7.871  69.556  1.00  0.00    -0.226 A  
HETATM   20  C   UNL     1     -10.317   8.985  68.717  1.00  0.00    -0.236 A  
ENDBRANCH   7  13
TORSDOF 1
ENDMDL
MODEL       75
REMARK 921   NORMALIZED FREE ENERGY PREDICTED BY IDOCK:   -4.71 KCAL/MOL
REMARK 922        TOTAL FREE ENERGY PREDICTED BY IDOCK:   -5.26 KCAL/MOL
REMARK 923 INTER-LIGAND FREE ENERGY PREDICTED BY IDOCK:   -5.05 KCAL/MOL
REMARK 924 INTRA-LIGAND FREE ENERGY PREDICTED BY IDOCK:   -0.21 KCAL/MOL
REMARK 927      BINDING AFFINITY PREDICTED BY RF-SCORE:    0.00 PKD
ROOT
HETATM    1  N   UNL     1     -13.127  10.051  70.763  1.00  0.00    -0.574 NA 
HETATM    2  H2  UNL     1     -12.559   9.210  70.857  1.00  0.00     0.000 HD 
HETATM    3  C   UNL     1     -12.468  10.963  69.961  1.00  0.00    -0.263 A  
HETATM    4  H1  UNL     1     -13.419  10.367  71.689  1.00  0.00     0.000 HD 
HETATM    5  N   UNL     1     -12.087  10.551  68.752  1.00  0.00    -0.255 NA 
HETATM    6  C   UNL     1     -11.533  11.478  67.946  1.00  0.00    -0.301 A  
HETATM    7  C   UNL     1     -11.310  12.809  68.341  1.00  0.00    -0.295 A  
HETATM    8  N   UNL     1     -11.202  10.963  66.688  1.00  0.00    -0.211 NA 
HETATM    9  N   UNL     1     -12.234  12.201  70.421  1.00  0.00    -0.330 NA 
HETATM   10  H1  UNL     1     -10.783  11.665  66.077  1.00  0.00     0.000 HD 
HETATM   11  N   UNL     1     -11.629  13.124  69.611  1.00  0.00    -0.276 NA 
HETATM   12  H2  UNL     1     -12.011  10.527  66.245  1.00  0.00     0.000 HD 
ENDROOT
BRANCH   7  13
HETATM   13  C   UNL     1     -10.772  13.908  67.487  1.00  0.00    -0.271 A  
HETATM   14  C   UNL     1     -11.456  14.448  66.360  1.00  0.00    -0.360 A  
HETATM   15  C   UNL     1     -10.862  15.463  65.575  1.00  0.00    -0.374 A  
HETATM   16 CL   UNL     1     -13.017  13.852  65.861  1.00  0.00    -0.405 Cl 
HETATM   17 CL   UNL     1     -11.652  16.182  64.208  1.00  0.00    -0.294 Cl 
HETATM   18  C   UNL     1      -9.583  15.936  65.865  1.00  0.00    -0.378 A  
HETATM   19  C   UNL     1      -8.902  15.437  66.965  1.00  0.00    -0.252 A  
HETATM   20  C   UNL     1      -9.500  14.463  67.771  1.00  0.00    -0.211 A  
ENDBRANCH   7  13
TORSDOF 1
ENDMDL
MODEL       76
REMARK 921   NORMALIZED FREE ENERGY PREDICTED BY IDOCK:   -4.70 KCAL/MOL
REMARK 922        TOTAL FREE ENERGY PREDICTED BY IDOCK:   -5.25 KCAL/MOL
REMARK 923 INTER-LIGAND FREE ENERGY PREDICTED BY IDOCK:   -5.21 KCAL/MOL
REMARK 924 INTRA-LIGAND FREE ENERGY PREDICTED BY IDOCK:   -0.04 KCAL/MOL
REMARK 927      BINDING AFFINITY PREDICTED BY RF-SCORE:    0.00 PKD
ROOT
HETATM    1  N   UNL     1     -11.603   5.135  73.190  1.00  0.00    -0.496 NA 
HETATM    2  H2  UNL     1     -11.002   4.371  72.881  1.00  0.00     0.000 HD 
HETATM    3  C   UNL     1     -11.345   6.259  72.428  1.00  0.00    -0.292 A  
HETATM    4  H1  UNL     1     -11.534   5.231  74.203  1.00  0.00     0.000 HD 
HETATM    5  N   UNL     1     -11.434   6.134  71.104  1.00  0.00    -0.286 NA 
HETATM    6  C   UNL     1     -11.276   7.259  70.380  1.00  0.00    -0.276 A  
HETATM    7  C   UNL     1     -10.983   8.509  70.953  1.00  0.00    -0.251 A  
HETATM    8  N   UNL     1     -11.426   7.037  69.006  1.00  0.00    -0.490 NA 
HETATM    9  N   UNL     1     -11.012   7.407  73.034  1.00  0.00    -0.364 NA 
HETATM   10  H1  UNL     1     -11.306   7.889  68.458  1.00  0.00     0.000 HD 
HETATM   11  N   UNL     1     -10.808   8.536  72.287  1.00  0.00    -0.352 NA 
HETATM   12  H2  UNL     1     -12.321   6.592  68.802  1.00  0.00     0.000 HD 
ENDROOT
BRANCH   7  13
HETATM   13  C   UNL     1     -10.866   9.809  70.230  1.00  0.00    -0.356 A  
HETATM   14  C   UNL     1     -11.722  10.926  70.455  1.00  0.00    -0.350 A  
HETATM   15  C   UNL     1     -11.574  12.112  69.700  1.00  0.00    -0.291 A  
HETATM   16 CL   UNL     1     -13.020  10.868  71.618  1.00  0.00    -0.569 Cl 
HETATM   17 CL   UNL     1     -12.564  13.516  69.944  1.00  0.00    -0.169 Cl 
HETATM   18  C   UNL     1     -10.609  12.207  68.699  1.00  0.00    -0.248 A  
HETATM   19  C   UNL     1      -9.753  11.140  68.469  1.00  0.00    -0.196 A  
HETATM   20  C   UNL     1      -9.867   9.978  69.240  1.00  0.00    -0.227 A  
ENDBRANCH   7  13
TORSDOF 1
ENDMDL
MODEL       77
REMARK 921   NORMALIZED FREE ENERGY PREDICTED BY IDOCK:   -4.69 KCAL/MOL
REMARK 922        TOTAL FREE ENERGY PREDICTED BY IDOCK:   -5.24 KCAL/MOL
REMARK 923 INTER-LIGAND FREE ENERGY PREDICTED BY IDOCK:   -5.19 KCAL/MOL
REMARK 924 INTRA-LIGAND FREE ENERGY PREDICTED BY IDOCK:   -0.05 KCAL/MOL
REMARK 927      BINDING AFFINITY PREDICTED BY RF-SCORE:    0.00 PKD
ROOT
HETATM    1  N   UNL     1      -9.861  13.087  64.670  1.00  0.00    -0.583 NA 
HETATM    2  H2  UNL     1      -9.736  13.921  65.244  1.00  0.00     0.000 HD 
HETATM    3  C   UNL     1      -9.986  11.981  65.489  1.00  0.00    -0.241 A  
HETATM    4  H1  UNL     1      -9.136  13.059  63.953  1.00  0.00     0.000 HD 
HETATM    5  N   UNL     1     -10.933  12.017  66.426  1.00  0.00    -0.282 NA 
HETATM    6  C   UNL     1     -11.106  10.895  67.152  1.00  0.00    -0.240 A  
HETATM    7  C   UNL     1     -10.318   9.742  66.989  1.00  0.00    -0.239 A  
HETATM    8  N   UNL     1     -12.146  11.014  68.081  1.00  0.00    -0.780 NA 
HETATM    9  N   UNL     1      -9.162  10.936  65.320  1.00  0.00    -0.206 NA 
HETATM   10  H1  UNL     1     -12.277  10.164  68.630  1.00  0.00     0.000 HD 
HETATM   11  N   UNL     1      -9.316   9.817  66.093  1.00  0.00    -0.177 NA 
HETATM   12  H2  UNL     1     -13.014  11.296  67.626  1.00  0.00     0.000 HD 
ENDROOT
BRANCH   7  13
HETATM   13  C   UNL     1     -10.493   8.441  67.698  1.00  0.00    -0.307 A  
HETATM   14  C   UNL     1     -10.382   8.281  69.110  1.00  0.00    -0.217 A  
HETATM   15  C   UNL     1     -10.522   7.007  69.705  1.00  0.00    -0.223 A  
HETATM   16 CL   UNL     1     -10.014   9.625  70.159  1.00  0.00    -0.287 Cl 
HETATM   17 CL   UNL     1     -10.426   6.749  71.418  1.00  0.00    -0.234 Cl 
HETATM   18  C   UNL     1     -10.740   5.873  68.924  1.00  0.00    -0.370 A  
HETATM   19  C   UNL     1     -10.866   6.002  67.549  1.00  0.00    -0.393 A  
HETATM   20  C   UNL     1     -10.770   7.266  66.957  1.00  0.00    -0.406 A  
ENDBRANCH   7  13
TORSDOF 1
ENDMDL
MODEL       78
REMARK 921   NORMALIZED FREE ENERGY PREDICTED BY IDOCK:   -4.68 KCAL/MOL
REMARK 922        TOTAL FREE ENERGY PREDICTED BY IDOCK:   -5.23 KCAL/MOL
REMARK 923 INTER-LIGAND FREE ENERGY PREDICTED BY IDOCK:   -4.97 KCAL/MOL
REMARK 924 INTRA-LIGAND FREE ENERGY PREDICTED BY IDOCK:   -0.26 KCAL/MOL
REMARK 927      BINDING AFFINITY PREDICTED BY RF-SCORE:    0.00 PKD
ROOT
HETATM    1  N   UNL     1      -6.184  19.076  65.964  1.00  0.00    -0.182 NA 
HETATM    2  H2  UNL     1      -6.527  19.994  65.680  1.00  0.00     0.000 HD 
HETATM    3  C   UNL     1      -7.203  18.377  66.582  1.00  0.00    -0.214 A  
HETATM    4  H1  UNL     1      -5.311  19.186  66.481  1.00  0.00     0.000 HD 
HETATM    5  N   UNL     1      -8.343  18.233  65.907  1.00  0.00    -0.498 NA 
HETATM    6  C   UNL     1      -9.292  17.467  66.481  1.00  0.00    -0.265 A  
HETATM    7  C   UNL     1      -9.141  16.873  67.747  1.00  0.00    -0.229 A  
HETATM    8  N   UNL     1     -10.434  17.343  65.683  1.00  0.00    -0.601 NA 
HETATM    9  N   UNL     1      -7.015  17.886  67.816  1.00  0.00    -0.196 NA 
HETATM   10  H1  UNL     1     -11.152  16.762  66.118  1.00  0.00     0.000 HD 
HETATM   11  N   UNL     1      -8.002  17.147  68.411  1.00  0.00    -0.240 NA 
HETATM   12  H2  UNL     1     -10.196  16.997  64.753  1.00  0.00     0.000 HD 
ENDROOT
BRANCH   7  13
HETATM   13  C   UNL     1     -10.109  15.957  68.416  1.00  0.00    -0.223 A  
HETATM   14  C   UNL     1     -10.367  14.621  67.991  1.00  0.00    -0.235 A  
HETATM   15  C   UNL     1     -11.330  13.826  68.653  1.00  0.00    -0.287 A  
HETATM   16 CL   UNL     1      -9.558  13.925  66.612  1.00  0.00    -0.286 Cl 
HETATM   17 CL   UNL     1     -11.670  12.186  68.204  1.00  0.00    -0.395 Cl 
HETATM   18  C   UNL     1     -12.072  14.340  69.716  1.00  0.00    -0.401 A  
HETATM   19  C   UNL     1     -11.832  15.632  70.159  1.00  0.00    -0.381 A  
HETATM   20  C   UNL     1     -10.850  16.410  69.535  1.00  0.00    -0.338 A  
ENDBRANCH   7  13
TORSDOF 1
ENDMDL
MODEL       79
REMARK 921   NORMALIZED FREE ENERGY PREDICTED BY IDOCK:   -4.68 KCAL/MOL
REMARK 922        TOTAL FREE ENERGY PREDICTED BY IDOCK:   -5.23 KCAL/MOL
REMARK 923 INTER-LIGAND FREE ENERGY PREDICTED BY IDOCK:   -4.95 KCAL/MOL
REMARK 924 INTRA-LIGAND FREE ENERGY PREDICTED BY IDOCK:   -0.28 KCAL/MOL
REMARK 927      BINDING AFFINITY PREDICTED BY RF-SCORE:    0.00 PKD
ROOT
HETATM    1  N   UNL     1      -9.418   8.165  66.116  1.00  0.00    -0.372 NA 
HETATM    2  H2  UNL     1      -9.472   7.244  66.550  1.00  0.00     0.000 HD 
HETATM    3  C   UNL     1      -9.961   9.107  66.968  1.00  0.00    -0.230 A  
HETATM    4  H1  UNL     1      -9.798   8.116  65.170  1.00  0.00     0.000 HD 
HETATM    5  N   UNL     1      -9.465   9.171  68.204  1.00  0.00    -0.141 NA 
HETATM    6  C   UNL     1      -9.936  10.158  68.993  1.00  0.00    -0.208 A  
HETATM    7  C   UNL     1     -10.932  11.062  68.584  1.00  0.00    -0.224 A  
HETATM    8  N   UNL     1      -9.330  10.170  70.254  1.00  0.00    -0.343 NA 
HETATM    9  N   UNL     1     -10.952   9.900  66.535  1.00  0.00     0.104 NA 
HETATM   10  H1  UNL     1      -9.686  10.917  70.850  1.00  0.00     0.000 HD 
HETATM   11  N   UNL     1     -11.456  10.870  67.358  1.00  0.00    -0.489 NA 
HETATM   12  H2  UNL     1      -8.314  10.218  70.172  1.00  0.00     0.000 HD 
ENDROOT
BRANCH   7  13
HETATM   13  C   UNL     1     -11.452  12.220  69.367  1.00  0.00    -0.341 A  
HETATM   14  C   UNL     1     -12.328  12.099  70.485  1.00  0.00    -0.272 A  
HETATM   15  C   UNL     1     -12.811  13.248  71.151  1.00  0.00    -0.280 A  
HETATM   16 CL   UNL     1     -12.888  10.546  71.046  1.00  0.00    -0.476 Cl 
HETATM   17 CL   UNL     1     -13.854  13.167  72.535  1.00  0.00    -0.617 Cl 
HETATM   18  C   UNL     1     -12.469  14.526  70.712  1.00  0.00    -0.420 A  
HETATM   19  C   UNL     1     -11.608  14.673  69.635  1.00  0.00    -0.349 A  
HETATM   20  C   UNL     1     -11.092  13.540  68.996  1.00  0.00    -0.293 A  
ENDBRANCH   7  13
TORSDOF 1
ENDMDL
MODEL       80
REMARK 921   NORMALIZED FREE ENERGY PREDICTED BY IDOCK:   -4.67 KCAL/MOL
REMARK 922        TOTAL FREE ENERGY PREDICTED BY IDOCK:   -5.22 KCAL/MOL
REMARK 923 INTER-LIGAND FREE ENERGY PREDICTED BY IDOCK:   -4.94 KCAL/MOL
REMARK 924 INTRA-LIGAND FREE ENERGY PREDICTED BY IDOCK:   -0.28 KCAL/MOL
REMARK 927      BINDING AFFINITY PREDICTED BY RF-SCORE:    0.00 PKD
ROOT
HETATM    1  N   UNL     1     -10.502   7.483  66.563  1.00  0.00    -0.494 NA 
HETATM    2  H2  UNL     1      -9.623   6.977  66.458  1.00  0.00     0.000 HD 
HETATM    3  C   UNL     1     -10.265   8.841  66.471  1.00  0.00    -0.244 A  
HETATM    4  H1  UNL     1     -10.987   7.149  67.396  1.00  0.00     0.000 HD 
HETATM    5  N   UNL     1      -9.631   9.279  65.382  1.00  0.00    -0.231 NA 
HETATM    6  C   UNL     1      -9.492  10.614  65.261  1.00  0.00    -0.221 A  
HETATM    7  C   UNL     1      -9.938  11.526  66.233  1.00  0.00    -0.220 A  
HETATM    8  N   UNL     1      -8.852  10.979  64.072  1.00  0.00    -0.366 NA 
HETATM    9  N   UNL     1     -10.663   9.652  67.461  1.00  0.00    -0.281 NA 
HETATM   10  H1  UNL     1      -8.748  11.990  63.980  1.00  0.00     0.000 HD 
HETATM   11  N   UNL     1     -10.478  11.004  67.351  1.00  0.00    -0.206 NA 
HETATM   12  H2  UNL     1      -9.330  10.584  63.261  1.00  0.00     0.000 HD 
ENDROOT
BRANCH   7  13
HETATM   13  C   UNL     1      -9.889  13.015  66.140  1.00  0.00    -0.275 A  
HETATM   14  C   UNL     1     -10.738  13.789  65.297  1.00  0.00    -0.339 A  
HETATM   15  C   UNL     1     -10.603  15.195  65.233  1.00  0.00    -0.411 A  
HETATM   16 CL   UNL     1     -11.935  13.047  64.270  1.00  0.00    -0.434 Cl 
HETATM   17 CL   UNL     1     -11.623  16.197  64.251  1.00  0.00    -0.294 Cl 
HETATM   18  C   UNL     1      -9.617  15.853  65.967  1.00  0.00    -0.385 A  
HETATM   19  C   UNL     1      -8.786  15.124  66.806  1.00  0.00    -0.302 A  
HETATM   20  C   UNL     1      -8.941  13.738  66.906  1.00  0.00    -0.234 A  
ENDBRANCH   7  13
TORSDOF 1
ENDMDL
MODEL       81
REMARK 921   NORMALIZED FREE ENERGY PREDICTED BY IDOCK:   -4.66 KCAL/MOL
REMARK 922        TOTAL FREE ENERGY PREDICTED BY IDOCK:   -5.21 KCAL/MOL
REMARK 923 INTER-LIGAND FREE ENERGY PREDICTED BY IDOCK:   -4.95 KCAL/MOL
REMARK 924 INTRA-LIGAND FREE ENERGY PREDICTED BY IDOCK:   -0.27 KCAL/MOL
REMARK 927      BINDING AFFINITY PREDICTED BY RF-SCORE:    0.00 PKD
ROOT
HETATM    1  N   UNL     1     -11.109  13.357  64.867  1.00  0.00    -0.320 NA 
HETATM    2  H2  UNL     1     -10.944  12.968  63.938  1.00  0.00     0.000 HD 
HETATM    3  C   UNL     1     -11.002  12.353  65.810  1.00  0.00    -0.298 A  
HETATM    4  H1  UNL     1     -11.972  13.900  64.858  1.00  0.00     0.000 HD 
HETATM    5  N   UNL     1      -9.874  11.643  65.822  1.00  0.00    -0.231 NA 
HETATM    6  C   UNL     1      -9.744  10.733  66.808  1.00  0.00    -0.187 A  
HETATM    7  C   UNL     1     -10.745  10.485  67.765  1.00  0.00    -0.272 A  
HETATM    8  N   UNL     1      -8.515  10.067  66.763  1.00  0.00    -0.125 NA 
HETATM    9  N   UNL     1     -12.018  12.128  66.656  1.00  0.00    -0.629 NA 
HETATM   10  H1  UNL     1      -8.417   9.379  67.510  1.00  0.00     0.000 HD 
HETATM   11  N   UNL     1     -11.896  11.171  67.627  1.00  0.00    -0.603 NA 
HETATM   12  H2  UNL     1      -7.738  10.729  66.770  1.00  0.00     0.000 HD 
ENDROOT
BRANCH   7  13
HETATM   13  C   UNL     1     -10.650   9.553  68.925  1.00  0.00    -0.239 A  
HETATM   14  C   UNL     1     -10.678   8.133  68.811  1.00  0.00    -0.040 A  
HETATM   15  C   UNL     1     -10.624   7.315  69.963  1.00  0.00    -0.233 A  
HETATM   16 CL   UNL     1     -10.838   7.340  67.266  1.00  0.00    -0.376 Cl 
HETATM   17 CL   UNL     1     -10.626   5.582  69.890  1.00  0.00    -0.388 Cl 
HETATM   18  C   UNL     1     -10.574   7.877  71.238  1.00  0.00    -0.241 A  
HETATM   19  C   UNL     1     -10.532   9.257  71.376  1.00  0.00    -0.408 A  
HETATM   20  C   UNL     1     -10.543  10.071  70.239  1.00  0.00    -0.354 A  
ENDBRANCH   7  13
TORSDOF 1
ENDMDL
MODEL       82
REMARK 921   NORMALIZED FREE ENERGY PREDICTED BY IDOCK:   -4.66 KCAL/MOL
REMARK 922        TOTAL FREE ENERGY PREDICTED BY IDOCK:   -5.21 KCAL/MOL
REMARK 923 INTER-LIGAND FREE ENERGY PREDICTED BY IDOCK:   -5.08 KCAL/MOL
REMARK 924 INTRA-LIGAND FREE ENERGY PREDICTED BY IDOCK:   -0.14 KCAL/MOL
REMARK 927      BINDING AFFINITY PREDICTED BY RF-SCORE:    0.00 PKD
ROOT
HETATM    1  N   UNL     1      -9.093   8.785  71.714  1.00  0.00    -0.283 NA 
HETATM    2  H2  UNL     1      -9.553   7.875  71.752  1.00  0.00     0.000 HD 
HETATM    3  C   UNL     1      -9.566   9.495  70.628  1.00  0.00    -0.227 A  
HETATM    4  H1  UNL     1      -8.083   8.656  71.785  1.00  0.00     0.000 HD 
HETATM    5  N   UNL     1     -10.886   9.663  70.535  1.00  0.00    -0.284 NA 
HETATM    6  C   UNL     1     -11.325  10.438  69.524  1.00  0.00    -0.265 A  
HETATM    7  C   UNL     1     -10.470  11.018  68.570  1.00  0.00    -0.189 A  
HETATM    8  N   UNL     1     -12.716  10.589  69.532  1.00  0.00    -0.640 NA 
HETATM    9  N   UNL     1      -8.702   9.971  69.720  1.00  0.00    -0.198 NA 
HETATM   10  H1  UNL     1     -13.048  11.177  68.766  1.00  0.00     0.000 HD 
HETATM   11  N   UNL     1      -9.161  10.720  68.671  1.00  0.00    -0.177 NA 
HETATM   12  H2  UNL     1     -13.043  10.940  70.432  1.00  0.00     0.000 HD 
ENDROOT
BRANCH   7  13
HETATM   13  C   UNL     1     -10.869  11.944  67.470  1.00  0.00    -0.283 A  
HETATM   14  C   UNL     1     -10.770  11.625  66.085  1.00  0.00    -0.278 A  
HETATM   15  C   UNL     1     -11.130  12.571  65.099  1.00  0.00    -0.299 A  
HETATM   16 CL   UNL     1     -10.153  10.088  65.539  1.00  0.00    -0.359 Cl 
HETATM   17 CL   UNL     1     -11.061  12.236  63.398  1.00  0.00    -0.505 Cl 
HETATM   18  C   UNL     1     -11.559  13.849  65.457  1.00  0.00    -0.332 A  
HETATM   19  C   UNL     1     -11.677  14.181  66.798  1.00  0.00    -0.432 A  
HETATM   20  C   UNL     1     -11.362  13.235  67.780  1.00  0.00    -0.327 A  
ENDBRANCH   7  13
TORSDOF 1
ENDMDL
MODEL       83
REMARK 921   NORMALIZED FREE ENERGY PREDICTED BY IDOCK:   -4.63 KCAL/MOL
REMARK 922        TOTAL FREE ENERGY PREDICTED BY IDOCK:   -5.18 KCAL/MOL
REMARK 923 INTER-LIGAND FREE ENERGY PREDICTED BY IDOCK:   -4.88 KCAL/MOL
REMARK 924 INTRA-LIGAND FREE ENERGY PREDICTED BY IDOCK:   -0.30 KCAL/MOL
REMARK 927      BINDING AFFINITY PREDICTED BY RF-SCORE:    0.00 PKD
ROOT
HETATM    1  N   UNL     1     -11.183   5.177  73.846  1.00  0.00    -0.427 NA 
HETATM    2  H2  UNL     1     -10.719   4.343  73.487  1.00  0.00     0.000 HD 
HETATM    3  C   UNL     1     -11.049   6.207  72.934  1.00  0.00    -0.247 A  
HETATM    4  H1  UNL     1     -10.869   5.354  74.801  1.00  0.00     0.000 HD 
HETATM    5  N   UNL     1     -11.459   5.976  71.687  1.00  0.00    -0.265 NA 
HETATM    6  C   UNL     1     -11.412   7.018  70.834  1.00  0.00    -0.308 A  
HETATM    7  C   UNL     1     -10.918   8.285  71.192  1.00  0.00    -0.245 A  
HETATM    8  N   UNL     1     -11.898   6.692  69.563  1.00  0.00    -0.632 NA 
HETATM    9  N   UNL     1     -10.515   7.372  73.326  1.00  0.00    -0.347 NA 
HETATM   10  H1  UNL     1     -11.862   7.481  68.918  1.00  0.00     0.000 HD 
HETATM   11  N   UNL     1     -10.429   8.413  72.440  1.00  0.00    -0.331 NA 
HETATM   12  H2  UNL     1     -12.840   6.305  69.619  1.00  0.00     0.000 HD 
ENDROOT
BRANCH   7  13
HETATM   13  C   UNL     1     -10.901   9.504  70.333  1.00  0.00    -0.338 A  
HETATM   14  C   UNL     1      -9.830   9.847  69.457  1.00  0.00    -0.223 A  
HETATM   15  C   UNL     1      -9.868  11.042  68.703  1.00  0.00    -0.193 A  
HETATM   16 CL   UNL     1      -8.407   8.848  69.313  1.00  0.00    -0.117 Cl 
HETATM   17 CL   UNL     1      -8.612  11.502  67.598  1.00  0.00    -0.132 Cl 
HETATM   18  C   UNL     1     -10.937  11.929  68.823  1.00  0.00    -0.280 A  
HETATM   19  C   UNL     1     -11.999  11.614  69.658  1.00  0.00    -0.390 A  
HETATM   20  C   UNL     1     -11.987  10.413  70.375  1.00  0.00    -0.409 A  
ENDBRANCH   7  13
TORSDOF 1
ENDMDL
MODEL       84
REMARK 921   NORMALIZED FREE ENERGY PREDICTED BY IDOCK:   -4.62 KCAL/MOL
REMARK 922        TOTAL FREE ENERGY PREDICTED BY IDOCK:   -5.16 KCAL/MOL
REMARK 923 INTER-LIGAND FREE ENERGY PREDICTED BY IDOCK:   -4.91 KCAL/MOL
REMARK 924 INTRA-LIGAND FREE ENERGY PREDICTED BY IDOCK:   -0.25 KCAL/MOL
REMARK 927      BINDING AFFINITY PREDICTED BY RF-SCORE:    0.00 PKD
ROOT
HETATM    1  N   UNL     1     -11.218  16.120  64.112  1.00  0.00    -1.197 NA 
HETATM    2  H2  UNL     1     -12.087  16.087  63.579  1.00  0.00     0.000 HD 
HETATM    3  C   UNL     1     -11.112  14.982  64.888  1.00  0.00    -0.415 A  
HETATM    4  H1  UNL     1     -11.147  17.020  64.589  1.00  0.00     0.000 HD 
HETATM    5  N   UNL     1     -11.204  13.806  64.265  1.00  0.00    -0.350 NA 
HETATM    6  C   UNL     1     -11.002  12.708  65.019  1.00  0.00    -0.289 A  
HETATM    7  C   UNL     1     -10.751  12.756  66.401  1.00  0.00    -0.262 A  
HETATM    8  N   UNL     1     -11.080  11.526  64.273  1.00  0.00    -0.337 NA 
HETATM    9  N   UNL     1     -10.932  15.097  66.212  1.00  0.00    -0.340 NA 
HETATM   10  H1  UNL     1     -10.926  10.694  64.844  1.00  0.00     0.000 HD 
HETATM   11  N   UNL     1     -10.773  13.974  66.977  1.00  0.00    -0.283 NA 
HETATM   12  H2  UNL     1     -10.439  11.550  63.479  1.00  0.00     0.000 HD 
ENDROOT
BRANCH   7  13
HETATM   13  C   UNL     1     -10.446  11.596  67.288  1.00  0.00    -0.247 A  
HETATM   14  C   UNL     1      -9.232  10.851  67.236  1.00  0.00    -0.151 A  
HETATM   15  C   UNL     1      -9.033   9.737  68.083  1.00  0.00    -0.119 A  
HETATM   16 CL   UNL     1      -7.968  11.235  66.098  1.00  0.00    -0.094 Cl 
HETATM   17 CL   UNL     1      -7.569   8.806  68.090  1.00  0.00    -0.096 Cl 
HETATM   18  C   UNL     1     -10.030   9.321  68.965  1.00  0.00    -0.187 A  
HETATM   19  C   UNL     1     -11.215  10.037  69.045  1.00  0.00    -0.180 A  
HETATM   20  C   UNL     1     -11.403  11.166  68.240  1.00  0.00    -0.365 A  
ENDBRANCH   7  13
TORSDOF 1
ENDMDL
MODEL       85
REMARK 921   NORMALIZED FREE ENERGY PREDICTED BY IDOCK:   -4.61 KCAL/MOL
REMARK 922        TOTAL FREE ENERGY PREDICTED BY IDOCK:   -5.15 KCAL/MOL
REMARK 923 INTER-LIGAND FREE ENERGY PREDICTED BY IDOCK:   -5.07 KCAL/MOL
REMARK 924 INTRA-LIGAND FREE ENERGY PREDICTED BY IDOCK:   -0.09 KCAL/MOL
REMARK 927      BINDING AFFINITY PREDICTED BY RF-SCORE:    0.00 PKD
ROOT
HETATM    1  N   UNL     1     -10.485  16.706  66.770  1.00  0.00    -0.288 NA 
HETATM    2  H2  UNL     1     -11.359  17.111  66.433  1.00  0.00     0.000 HD 
HETATM    3  C   UNL     1     -10.741  15.474  67.341  1.00  0.00    -0.301 A  
HETATM    4  H1  UNL     1      -9.992  17.393  67.341  1.00  0.00     0.000 HD 
HETATM    5  N   UNL     1     -11.386  14.576  66.596  1.00  0.00    -0.347 NA 
HETATM    6  C   UNL     1     -11.542  13.349  67.130  1.00  0.00    -0.358 A  
HETATM    7  C   UNL     1     -11.103  13.009  68.422  1.00  0.00    -0.262 A  
HETATM    8  N   UNL     1     -12.192  12.466  66.262  1.00  0.00    -0.583 NA 
HETATM    9  N   UNL     1     -10.348  15.233  68.600  1.00  0.00    -0.227 NA 
HETATM   10  H1  UNL     1     -12.310  11.537  66.667  1.00  0.00     0.000 HD 
HETATM   11  N   UNL     1     -10.551  13.997  69.152  1.00  0.00    -0.180 NA 
HETATM   12  H2  UNL     1     -11.714  12.416  65.362  1.00  0.00     0.000 HD 
ENDROOT
BRANCH   7  13
HETATM   13  C   UNL     1     -11.171  11.660  69.055  1.00  0.00    -0.323 A  
HETATM   14  C   UNL     1     -11.925  11.368  70.230  1.00  0.00    -0.373 A  
HETATM   15  C   UNL     1     -11.908  10.072  70.794  1.00  0.00    -0.346 A  
HETATM   16 CL   UNL     1     -12.850  12.595  71.054  1.00  0.00    -0.314 Cl 
HETATM   17 CL   UNL     1     -12.824   9.645  72.203  1.00  0.00    -0.471 Cl 
HETATM   18  C   UNL     1     -11.130   9.059  70.235  1.00  0.00    -0.263 A  
HETATM   19  C   UNL     1     -10.398   9.313  69.085  1.00  0.00    -0.222 A  
HETATM   20  C   UNL     1     -10.443  10.581  68.497  1.00  0.00    -0.210 A  
ENDBRANCH   7  13
TORSDOF 1
ENDMDL
MODEL       86
REMARK 921   NORMALIZED FREE ENERGY PREDICTED BY IDOCK:   -4.60 KCAL/MOL
REMARK 922        TOTAL FREE ENERGY PREDICTED BY IDOCK:   -5.15 KCAL/MOL
REMARK 923 INTER-LIGAND FREE ENERGY PREDICTED BY IDOCK:   -4.98 KCAL/MOL
REMARK 924 INTRA-LIGAND FREE ENERGY PREDICTED BY IDOCK:   -0.17 KCAL/MOL
REMARK 927      BINDING AFFINITY PREDICTED BY RF-SCORE:    0.00 PKD
ROOT
HETATM    1  N   UNL     1      -7.444  11.483  66.054  1.00  0.00    -0.355 NA 
HETATM    2  H2  UNL     1      -7.527  12.437  65.702  1.00  0.00     0.000 HD 
HETATM    3  C   UNL     1      -8.388  11.274  67.041  1.00  0.00    -0.153 A  
HETATM    4  H1  UNL     1      -6.470  11.293  66.290  1.00  0.00     0.000 HD 
HETATM    5  N   UNL     1      -9.661  11.522  66.733  1.00  0.00    -0.196 NA 
HETATM    6  C   UNL     1     -10.579  11.222  67.673  1.00  0.00    -0.213 A  
HETATM    7  C   UNL     1     -10.245  10.716  68.942  1.00  0.00    -0.201 A  
HETATM    8  N   UNL     1     -11.886  11.478  67.245  1.00  0.00    -0.604 NA 
HETATM    9  N   UNL     1      -7.997  10.847  68.251  1.00  0.00    -0.115 NA 
HETATM   10  H1  UNL     1     -12.581  11.250  67.957  1.00  0.00     0.000 HD 
HETATM   11  N   UNL     1      -8.933  10.588  69.216  1.00  0.00    -0.166 NA 
HETATM   12  H2  UNL     1     -12.087  10.996  66.369  1.00  0.00     0.000 HD 
ENDROOT
BRANCH   7  13
HETATM   13  C   UNL     1     -11.201  10.292  70.006  1.00  0.00    -0.376 A  
HETATM   14  C   UNL     1     -11.412   8.937  70.394  1.00  0.00    -0.157 A  
HETATM   15  C   UNL     1     -12.366   8.610  71.384  1.00  0.00    -0.304 A  
HETATM   16 CL   UNL     1     -10.554   7.621  69.636  1.00  0.00    -0.242 Cl 
HETATM   17 CL   UNL     1     -12.649   6.985  71.922  1.00  0.00    -0.357 Cl 
HETATM   18  C   UNL     1     -13.146   9.600  71.981  1.00  0.00    -0.537 A  
HETATM   19  C   UNL     1     -12.952  10.928  71.631  1.00  0.00    -0.569 A  
HETATM   20  C   UNL     1     -11.980  11.263  70.682  1.00  0.00    -0.435 A  
ENDBRANCH   7  13
TORSDOF 1
ENDMDL
MODEL       87
REMARK 921   NORMALIZED FREE ENERGY PREDICTED BY IDOCK:   -4.58 KCAL/MOL
REMARK 922        TOTAL FREE ENERGY PREDICTED BY IDOCK:   -5.12 KCAL/MOL
REMARK 923 INTER-LIGAND FREE ENERGY PREDICTED BY IDOCK:   -4.96 KCAL/MOL
REMARK 924 INTRA-LIGAND FREE ENERGY PREDICTED BY IDOCK:   -0.17 KCAL/MOL
REMARK 927      BINDING AFFINITY PREDICTED BY RF-SCORE:    0.00 PKD
ROOT
HETATM    1  N   UNL     1     -13.180  11.297  71.710  1.00  0.00    -0.436 NA 
HETATM    2  H2  UNL     1     -13.499  11.421  72.671  1.00  0.00     0.000 HD 
HETATM    3  C   UNL     1     -12.568  10.065  71.585  1.00  0.00    -0.427 A  
HETATM    4  H1  UNL     1     -12.645  12.117  71.422  1.00  0.00     0.000 HD 
HETATM    5  N   UNL     1     -13.267   8.993  71.960  1.00  0.00    -0.395 NA 
HETATM    6  C   UNL     1     -12.695   7.793  71.742  1.00  0.00    -0.329 A  
HETATM    7  C   UNL     1     -11.410   7.640  71.192  1.00  0.00    -0.266 A  
HETATM    8  N   UNL     1     -13.517   6.730  72.131  1.00  0.00    -0.518 NA 
HETATM    9  N   UNL     1     -11.317   9.993  71.108  1.00  0.00    -0.359 NA 
HETATM   10  H1  UNL     1     -13.084   5.821  71.965  1.00  0.00     0.000 HD 
HETATM   11  N   UNL     1     -10.725   8.770  70.932  1.00  0.00    -0.214 NA 
HETATM   12  H2  UNL     1     -14.431   6.789  71.680  1.00  0.00     0.000 HD 
ENDROOT
BRANCH   7  13
HETATM   13  C   UNL     1     -10.739   6.352  70.853  1.00  0.00    -0.301 A  
HETATM   14  C   UNL     1     -10.499   5.904  69.521  1.00  0.00    -0.278 A  
HETATM   15  C   UNL     1      -9.893   4.651  69.279  1.00  0.00    -0.190 A  
HETATM   16 CL   UNL     1     -10.988   6.844  68.136  1.00  0.00    -0.242 Cl 
HETATM   17 CL   UNL     1      -9.548   4.061  67.685  1.00  0.00    -0.226 Cl 
HETATM   18  C   UNL     1      -9.544   3.809  70.335  1.00  0.00    -0.262 A  
HETATM   19  C   UNL     1      -9.754   4.226  71.641  1.00  0.00    -0.243 A  
HETATM   20  C   UNL     1     -10.315   5.483  71.889  1.00  0.00    -0.270 A  
ENDBRANCH   7  13
TORSDOF 1
ENDMDL
MODEL       88
REMARK 921   NORMALIZED FREE ENERGY PREDICTED BY IDOCK:   -4.57 KCAL/MOL
REMARK 922        TOTAL FREE ENERGY PREDICTED BY IDOCK:   -5.12 KCAL/MOL
REMARK 923 INTER-LIGAND FREE ENERGY PREDICTED BY IDOCK:   -4.84 KCAL/MOL
REMARK 924 INTRA-LIGAND FREE ENERGY PREDICTED BY IDOCK:   -0.27 KCAL/MOL
REMARK 927      BINDING AFFINITY PREDICTED BY RF-SCORE:    0.00 PKD
ROOT
HETATM    1  N   UNL     1      -8.870  11.289  64.482  1.00  0.00    -0.379 NA 
HETATM    2  H2  UNL     1      -7.850  11.280  64.479  1.00  0.00     0.000 HD 
HETATM    3  C   UNL     1      -9.327  11.024  65.759  1.00  0.00    -0.211 A  
HETATM    4  H1  UNL     1      -9.215  10.695  63.728  1.00  0.00     0.000 HD 
HETATM    5  N   UNL     1      -8.875  11.800  66.744  1.00  0.00    -0.187 NA 
HETATM    6  C   UNL     1      -9.404  11.592  67.966  1.00  0.00    -0.178 A  
HETATM    7  C   UNL     1     -10.350  10.587  68.236  1.00  0.00    -0.168 A  
HETATM    8  N   UNL     1      -8.900  12.478  68.925  1.00  0.00    -0.358 NA 
HETATM    9  N   UNL     1     -10.184  10.012  65.958  1.00  0.00    -0.237 NA 
HETATM   10  H1  UNL     1      -9.300  12.320  69.850  1.00  0.00     0.000 HD 
HETATM   11  N   UNL     1     -10.682   9.779  67.212  1.00  0.00    -0.255 NA 
HETATM   12  H2  UNL     1      -9.024  13.447  68.631  1.00  0.00     0.000 HD 
ENDROOT
BRANCH   7  13
HETATM   13  C   UNL     1     -11.034  10.341  69.539  1.00  0.00    -0.300 A  
HETATM   14  C   UNL     1     -10.650   9.326  70.462  1.00  0.00    -0.252 A  
HETATM   15  C   UNL     1     -11.374   9.128  71.659  1.00  0.00    -0.376 A  
HETATM   16 CL   UNL     1      -9.316   8.250  70.139  1.00  0.00    -0.158 Cl 
HETATM   17 CL   UNL     1     -10.941   7.930  72.837  1.00  0.00    -0.461 Cl 
HETATM   18  C   UNL     1     -12.499   9.898  71.951  1.00  0.00    -0.435 A  
HETATM   19  C   UNL     1     -12.887  10.902  71.076  1.00  0.00    -0.472 A  
HETATM   20  C   UNL     1     -12.150  11.132  69.909  1.00  0.00    -0.418 A  
ENDBRANCH   7  13
TORSDOF 1
ENDMDL
MODEL       89
REMARK 921   NORMALIZED FREE ENERGY PREDICTED BY IDOCK:   -4.56 KCAL/MOL
REMARK 922        TOTAL FREE ENERGY PREDICTED BY IDOCK:   -5.10 KCAL/MOL
REMARK 923 INTER-LIGAND FREE ENERGY PREDICTED BY IDOCK:   -4.94 KCAL/MOL
REMARK 924 INTRA-LIGAND FREE ENERGY PREDICTED BY IDOCK:   -0.16 KCAL/MOL
REMARK 927      BINDING AFFINITY PREDICTED BY RF-SCORE:    0.00 PKD
ROOT
HETATM    1  N   UNL     1     -12.149  14.315  66.328  1.00  0.00    -0.424 NA 
HETATM    2  H2  UNL     1     -11.507  14.644  65.608  1.00  0.00     0.000 HD 
HETATM    3  C   UNL     1     -11.570  13.266  67.015  1.00  0.00    -0.359 A  
HETATM    4  H1  UNL     1     -13.068  14.153  65.914  1.00  0.00     0.000 HD 
HETATM    5  N   UNL     1     -10.370  13.477  67.556  1.00  0.00    -0.236 NA 
HETATM    6  C   UNL     1      -9.861  12.478  68.304  1.00  0.00    -0.227 A  
HETATM    7  C   UNL     1     -10.512  11.245  68.488  1.00  0.00    -0.197 A  
HETATM    8  N   UNL     1      -8.620  12.805  68.861  1.00  0.00    -0.342 NA 
HETATM    9  N   UNL     1     -12.218  12.095  67.104  1.00  0.00    -0.401 NA 
HETATM   10  H1  UNL     1      -8.236  12.049  69.427  1.00  0.00     0.000 HD 
HETATM   11  N   UNL     1     -11.672  11.069  67.828  1.00  0.00    -0.600 NA 
HETATM   12  H2  UNL     1      -8.675  13.673  69.395  1.00  0.00     0.000 HD 
ENDROOT
BRANCH   7  13
HETATM   13  C   UNL     1     -10.052  10.122  69.356  1.00  0.00    -0.250 A  
HETATM   14  C   UNL     1     -10.696   9.735  70.567  1.00  0.00    -0.317 A  
HETATM   15  C   UNL     1     -10.177   8.685  71.357  1.00  0.00    -0.254 A  
HETATM   16 CL   UNL     1     -12.110  10.566  71.160  1.00  0.00    -0.470 Cl 
HETATM   17 CL   UNL     1     -10.929   8.147  72.825  1.00  0.00    -0.441 Cl 
HETATM   18  C   UNL     1      -9.006   8.024  70.988  1.00  0.00    -0.160 A  
HETATM   19  C   UNL     1      -8.366   8.372  69.807  1.00  0.00    -0.125 A  
HETATM   20  C   UNL     1      -8.898   9.382  68.999  1.00  0.00    -0.141 A  
ENDBRANCH   7  13
TORSDOF 1
ENDMDL
MODEL       90
REMARK 921   NORMALIZED FREE ENERGY PREDICTED BY IDOCK:   -4.55 KCAL/MOL
REMARK 922        TOTAL FREE ENERGY PREDICTED BY IDOCK:   -5.09 KCAL/MOL
REMARK 923 INTER-LIGAND FREE ENERGY PREDICTED BY IDOCK:   -5.21 KCAL/MOL
REMARK 924 INTRA-LIGAND FREE ENERGY PREDICTED BY IDOCK:    0.12 KCAL/MOL
REMARK 927      BINDING AFFINITY PREDICTED BY RF-SCORE:    0.00 PKD
ROOT
HETATM    1  N   UNL     1     -13.276   9.107  72.317  1.00  0.00    -0.439 NA 
HETATM    2  H2  UNL     1     -12.518   8.630  72.807  1.00  0.00     0.000 HD 
HETATM    3  C   UNL     1     -12.793  10.268  71.744  1.00  0.00    -0.460 A  
HETATM    4  H1  UNL     1     -14.080   9.191  72.939  1.00  0.00     0.000 HD 
HETATM    5  N   UNL     1     -11.742  10.158  70.931  1.00  0.00    -0.350 NA 
HETATM    6  C   UNL     1     -11.344  11.283  70.305  1.00  0.00    -0.089 A  
HETATM    7  C   UNL     1     -11.951  12.534  70.509  1.00  0.00    -0.189 A  
HETATM    8  N   UNL     1     -10.263  11.062  69.445  1.00  0.00    -0.418 NA 
HETATM    9  N   UNL     1     -13.381  11.439  72.027  1.00  0.00    -0.413 NA 
HETATM   10  H1  UNL     1      -9.962  11.913  68.971  1.00  0.00     0.000 HD 
HETATM   11  N   UNL     1     -12.941  12.585  71.420  1.00  0.00    -0.320 NA 
HETATM   12  H2  UNL     1     -10.472  10.322  68.774  1.00  0.00     0.000 HD 
ENDROOT
BRANCH   7  13
HETATM   13  C   UNL     1     -11.619  13.806  69.802  1.00  0.00    -0.324 A  
HETATM   14  C   UNL     1     -11.621  13.954  68.385  1.00  0.00    -0.332 A  
HETATM   15  C   UNL     1     -11.254  15.182  67.788  1.00  0.00    -0.323 A  
HETATM   16 CL   UNL     1     -12.015  12.627  67.324  1.00  0.00    -0.395 Cl 
HETATM   17 CL   UNL     1     -11.264  15.436  66.072  1.00  0.00    -0.234 Cl 
HETATM   18  C   UNL     1     -10.852  16.265  68.568  1.00  0.00    -0.330 A  
HETATM   19  C   UNL     1     -10.854  16.152  69.950  1.00  0.00    -0.355 A  
HETATM   20  C   UNL     1     -11.256  14.953  70.550  1.00  0.00    -0.243 A  
ENDBRANCH   7  13
TORSDOF 1
ENDMDL
MODEL       91
REMARK 921   NORMALIZED FREE ENERGY PREDICTED BY IDOCK:   -4.53 KCAL/MOL
REMARK 922        TOTAL FREE ENERGY PREDICTED BY IDOCK:   -5.07 KCAL/MOL
REMARK 923 INTER-LIGAND FREE ENERGY PREDICTED BY IDOCK:   -4.87 KCAL/MOL
REMARK 924 INTRA-LIGAND FREE ENERGY PREDICTED BY IDOCK:   -0.20 KCAL/MOL
REMARK 927      BINDING AFFINITY PREDICTED BY RF-SCORE:    0.00 PKD
ROOT
HETATM    1  N   UNL     1      -7.865   7.256  64.513  1.00  0.00    -0.119 NA 
HETATM    2  H2  UNL     1      -6.848   7.331  64.492  1.00  0.00     0.000 HD 
HETATM    3  C   UNL     1      -8.417   8.522  64.544  1.00  0.00    -0.090 A  
HETATM    4  H1  UNL     1      -8.142   6.607  65.249  1.00  0.00     0.000 HD 
HETATM    5  N   UNL     1      -8.056   9.371  63.581  1.00  0.00    -0.144 NA 
HETATM    6  C   UNL     1      -8.675  10.568  63.568  1.00  0.00    -0.185 A  
HETATM    7  C   UNL     1      -9.624  10.955  64.531  1.00  0.00    -0.264 A  
HETATM    8  N   UNL     1      -8.260  11.373  62.502  1.00  0.00    -0.586 NA 
HETATM    9  N   UNL     1      -9.272   8.848  65.524  1.00  0.00    -0.208 NA 
HETATM   10  H1  UNL     1      -8.730  12.279  62.493  1.00  0.00     0.000 HD 
HETATM   11  N   UNL     1      -9.862  10.083  65.530  1.00  0.00    -0.288 NA 
HETATM   12  H2  UNL     1      -8.376  10.891  61.611  1.00  0.00     0.000 HD 
ENDROOT
BRANCH   7  13
HETATM   13  C   UNL     1     -10.404  12.226  64.545  1.00  0.00    -0.339 A  
HETATM   14  C   UNL     1     -10.197  13.279  65.483  1.00  0.00    -0.290 A  
HETATM   15  C   UNL     1     -11.005  14.438  65.457  1.00  0.00    -0.329 A  
HETATM   16 CL   UNL     1      -8.986  13.168  66.733  1.00  0.00    -0.213 Cl 
HETATM   17 CL   UNL     1     -10.786  15.766  66.551  1.00  0.00    -0.308 Cl 
HETATM   18  C   UNL     1     -12.044  14.565  64.536  1.00  0.00    -0.501 A  
HETATM   19  C   UNL     1     -12.259  13.562  63.603  1.00  0.00    -0.438 A  
HETATM   20  C   UNL     1     -11.436  12.430  63.596  1.00  0.00    -0.568 A  
ENDBRANCH   7  13
TORSDOF 1
ENDMDL
MODEL       92
REMARK 921   NORMALIZED FREE ENERGY PREDICTED BY IDOCK:   -4.53 KCAL/MOL
REMARK 922        TOTAL FREE ENERGY PREDICTED BY IDOCK:   -5.07 KCAL/MOL
REMARK 923 INTER-LIGAND FREE ENERGY PREDICTED BY IDOCK:   -4.97 KCAL/MOL
REMARK 924 INTRA-LIGAND FREE ENERGY PREDICTED BY IDOCK:   -0.10 KCAL/MOL
REMARK 927      BINDING AFFINITY PREDICTED BY RF-SCORE:    0.00 PKD
ROOT
HETATM    1  N   UNL     1     -10.190  11.526  62.918  1.00  0.00    -0.646 NA 
HETATM    2  H2  UNL     1     -10.044  12.535  62.923  1.00  0.00     0.000 HD 
HETATM    3  C   UNL     1     -10.110  11.044  64.210  1.00  0.00    -0.339 A  
HETATM    4  H1  UNL     1      -9.578  11.099  62.221  1.00  0.00     0.000 HD 
HETATM    5  N   UNL     1     -10.909  11.602  65.121  1.00  0.00    -0.295 NA 
HETATM    6  C   UNL     1     -10.890  11.057  66.353  1.00  0.00    -0.191 A  
HETATM    7  C   UNL     1     -10.051   9.987  66.711  1.00  0.00    -0.226 A  
HETATM    8  N   UNL     1     -11.788  11.681  67.227  1.00  0.00    -0.626 NA 
HETATM    9  N   UNL     1      -9.245  10.061  64.498  1.00  0.00    -0.243 NA 
HETATM   10  H1  UNL     1     -11.773  11.269  68.160  1.00  0.00     0.000 HD 
HETATM   11  N   UNL     1      -9.201   9.544  65.765  1.00  0.00    -0.194 NA 
HETATM   12  H2  UNL     1     -12.732  11.686  66.842  1.00  0.00     0.000 HD 
ENDROOT
BRANCH   7  13
HETATM   13  C   UNL     1     -10.024   9.284  68.026  1.00  0.00    -0.216 A  
HETATM   14  C   UNL     1     -10.402   7.922  68.210  1.00  0.00    -0.197 A  
HETATM   15  C   UNL     1     -10.388   7.337  69.496  1.00  0.00    -0.225 A  
HETATM   16 CL   UNL     1     -10.951   6.935  66.881  1.00  0.00    -0.421 Cl 
HETATM   17 CL   UNL     1     -10.809   5.678  69.783  1.00  0.00    -0.409 Cl 
HETATM   18  C   UNL     1     -10.035   8.085  70.619  1.00  0.00    -0.198 A  
HETATM   19  C   UNL     1      -9.650   9.408  70.466  1.00  0.00    -0.330 A  
HETATM   20  C   UNL     1      -9.621   9.982  69.191  1.00  0.00    -0.217 A  
ENDBRANCH   7  13
TORSDOF 1
ENDMDL
MODEL       93
REMARK 921   NORMALIZED FREE ENERGY PREDICTED BY IDOCK:   -4.53 KCAL/MOL
REMARK 922        TOTAL FREE ENERGY PREDICTED BY IDOCK:   -5.07 KCAL/MOL
REMARK 923 INTER-LIGAND FREE ENERGY PREDICTED BY IDOCK:   -4.95 KCAL/MOL
REMARK 924 INTRA-LIGAND FREE ENERGY PREDICTED BY IDOCK:   -0.12 KCAL/MOL
REMARK 927      BINDING AFFINITY PREDICTED BY RF-SCORE:    0.00 PKD
ROOT
HETATM    1  N   UNL     1     -10.589  11.263  67.797  1.00  0.00    -0.192 NA 
HETATM    2  H2  UNL     1     -11.496  10.890  67.519  1.00  0.00     0.000 HD 
HETATM    3  C   UNL     1     -10.621  12.643  67.735  1.00  0.00    -0.220 A  
HETATM    4  H1  UNL     1      -9.853  10.788  67.274  1.00  0.00     0.000 HD 
HETATM    5  N   UNL     1     -11.582  13.264  68.418  1.00  0.00    -0.314 NA 
HETATM    6  C   UNL     1     -11.543  14.611  68.426  1.00  0.00    -0.323 A  
HETATM    7  C   UNL     1     -10.580  15.358  67.724  1.00  0.00    -0.274 A  
HETATM    8  N   UNL     1     -12.565  15.171  69.199  1.00  0.00    -0.496 NA 
HETATM    9  N   UNL     1      -9.708  13.293  66.998  1.00  0.00    -0.232 NA 
HETATM   10  H1  UNL     1     -12.534  16.191  69.205  1.00  0.00     0.000 HD 
HETATM   11  N   UNL     1      -9.703  14.662  66.976  1.00  0.00    -0.237 NA 
HETATM   12  H2  UNL     1     -12.555  14.798  70.148  1.00  0.00     0.000 HD 
ENDROOT
BRANCH   7  13
HETATM   13  C   UNL     1     -10.424  16.841  67.742  1.00  0.00    -0.335 A  
HETATM   14  C   UNL     1     -10.608  17.676  66.601  1.00  0.00    -0.211 A  
HETATM   15  C   UNL     1     -10.402  19.071  66.687  1.00  0.00    -0.428 A  
HETATM   16 CL   UNL     1     -11.036  17.019  65.044  1.00  0.00    -0.109 Cl 
HETATM   17 CL   UNL     1     -10.638  20.145  65.345  1.00  0.00    -0.328 Cl 
HETATM   18  C   UNL     1      -9.984  19.660  67.880  1.00  0.00    -0.527 A  
HETATM   19  C   UNL     1      -9.810  18.873  69.009  1.00  0.00    -0.379 A  
HETATM   20  C   UNL     1     -10.053  17.497  68.941  1.00  0.00    -0.346 A  
ENDBRANCH   7  13
TORSDOF 1
ENDMDL
MODEL       94
REMARK 921   NORMALIZED FREE ENERGY PREDICTED BY IDOCK:   -4.51 KCAL/MOL
REMARK 922        TOTAL FREE ENERGY PREDICTED BY IDOCK:   -5.05 KCAL/MOL
REMARK 923 INTER-LIGAND FREE ENERGY PREDICTED BY IDOCK:   -4.81 KCAL/MOL
REMARK 924 INTRA-LIGAND FREE ENERGY PREDICTED BY IDOCK:   -0.23 KCAL/MOL
REMARK 927      BINDING AFFINITY PREDICTED BY RF-SCORE:    0.00 PKD
ROOT
HETATM    1  N   UNL     1     -12.937  14.573  69.884  1.00  0.00    -0.480 NA 
HETATM    2  H2  UNL     1     -13.019  13.611  69.557  1.00  0.00     0.000 HD 
HETATM    3  C   UNL     1     -11.816  15.154  69.323  1.00  0.00    -0.320 A  
HETATM    4  H1  UNL     1     -13.014  14.593  70.901  1.00  0.00     0.000 HD 
HETATM    5  N   UNL     1     -11.714  15.129  67.994  1.00  0.00    -0.333 NA 
HETATM    6  C   UNL     1     -10.666  15.784  67.457  1.00  0.00    -0.317 A  
HETATM    7  C   UNL     1      -9.685  16.431  68.228  1.00  0.00    -0.224 A  
HETATM    8  N   UNL     1     -10.665  15.736  66.058  1.00  0.00    -0.323 NA 
HETATM    9  N   UNL     1     -10.886  15.703  70.118  1.00  0.00    -0.319 NA 
HETATM   10  H1  UNL     1      -9.872  16.232  65.652  1.00  0.00     0.000 HD 
HETATM   11  N   UNL     1      -9.801  16.327  69.565  1.00  0.00    -0.206 NA 
HETATM   12  H2  UNL     1     -11.548  16.081  65.678  1.00  0.00     0.000 HD 
ENDROOT
BRANCH   7  13
HETATM   13  C   UNL     1      -8.540  17.236  67.710  1.00  0.00    -0.225 A  
HETATM   14  C   UNL     1      -8.495  18.660  67.726  1.00  0.00    -0.275 A  
HETATM   15  C   UNL     1      -7.391  19.354  67.180  1.00  0.00    -0.212 A  
HETATM   16 CL   UNL     1      -9.810  19.612  68.363  1.00  0.00    -0.501 Cl 
HETATM   17 CL   UNL     1      -7.261  21.083  67.194  1.00  0.00    -0.397 Cl 
HETATM   18  C   UNL     1      -6.336  18.663  66.584  1.00  0.00    -0.203 A  
HETATM   19  C   UNL     1      -6.349  17.276  66.567  1.00  0.00    -0.263 A  
HETATM   20  C   UNL     1      -7.418  16.582  67.143  1.00  0.00    -0.217 A  
ENDBRANCH   7  13
TORSDOF 1
ENDMDL
MODEL       95
REMARK 921   NORMALIZED FREE ENERGY PREDICTED BY IDOCK:   -4.49 KCAL/MOL
REMARK 922        TOTAL FREE ENERGY PREDICTED BY IDOCK:   -5.03 KCAL/MOL
REMARK 923 INTER-LIGAND FREE ENERGY PREDICTED BY IDOCK:   -4.74 KCAL/MOL
REMARK 924 INTRA-LIGAND FREE ENERGY PREDICTED BY IDOCK:   -0.30 KCAL/MOL
REMARK 927      BINDING AFFINITY PREDICTED BY RF-SCORE:    0.00 PKD
ROOT
HETATM    1  N   UNL     1     -12.035  12.382  67.484  1.00  0.00    -0.506 NA 
HETATM    2  H2  UNL     1     -12.569  11.972  66.718  1.00  0.00     0.000 HD 
HETATM    3  C   UNL     1     -11.692  11.392  68.385  1.00  0.00    -0.303 A  
HETATM    4  H1  UNL     1     -12.534  13.194  67.848  1.00  0.00     0.000 HD 
HETATM    5  N   UNL     1     -11.040  10.331  67.909  1.00  0.00    -0.297 NA 
HETATM    6  C   UNL     1     -10.627   9.421  68.813  1.00  0.00    -0.208 A  
HETATM    7  C   UNL     1     -10.893   9.528  70.190  1.00  0.00    -0.258 A  
HETATM    8  N   UNL     1      -9.920   8.366  68.227  1.00  0.00    -0.181 NA 
HETATM    9  N   UNL     1     -12.027  11.527  69.676  1.00  0.00    -0.332 NA 
HETATM   10  H1  UNL     1      -9.608   7.677  68.912  1.00  0.00     0.000 HD 
HETATM   11  N   UNL     1     -11.643  10.575  70.582  1.00  0.00    -0.339 NA 
HETATM   12  H2  UNL     1      -9.138   8.712  67.671  1.00  0.00     0.000 HD 
ENDROOT
BRANCH   7  13
HETATM   13  C   UNL     1     -10.410   8.606  71.260  1.00  0.00    -0.308 A  
HETATM   14  C   UNL     1     -11.110   7.438  71.680  1.00  0.00    -0.236 A  
HETATM   15  C   UNL     1     -10.608   6.635  72.730  1.00  0.00    -0.232 A  
HETATM   16 CL   UNL     1     -12.633   6.974  70.969  1.00  0.00    -0.392 Cl 
HETATM   17 CL   UNL     1     -11.395   5.187  73.270  1.00  0.00    -0.384 Cl 
HETATM   18  C   UNL     1      -9.436   6.984  73.400  1.00  0.00    -0.210 A  
HETATM   19  C   UNL     1      -8.728   8.109  73.001  1.00  0.00    -0.309 A  
HETATM   20  C   UNL     1      -9.197   8.885  71.936  1.00  0.00    -0.240 A  
ENDBRANCH   7  13
TORSDOF 1
ENDMDL
MODEL       96
REMARK 921   NORMALIZED FREE ENERGY PREDICTED BY IDOCK:   -4.49 KCAL/MOL
REMARK 922        TOTAL FREE ENERGY PREDICTED BY IDOCK:   -5.03 KCAL/MOL
REMARK 923 INTER-LIGAND FREE ENERGY PREDICTED BY IDOCK:   -4.89 KCAL/MOL
REMARK 924 INTRA-LIGAND FREE ENERGY PREDICTED BY IDOCK:   -0.14 KCAL/MOL
REMARK 927      BINDING AFFINITY PREDICTED BY RF-SCORE:    0.00 PKD
ROOT
HETATM    1  N   UNL     1     -14.372   8.845  72.896  1.00  0.00    -1.124 NA 
HETATM    2  H2  UNL     1     -14.258   8.088  73.570  1.00  0.00     0.000 HD 
HETATM    3  C   UNL     1     -13.252   8.916  72.091  1.00  0.00    -0.429 A  
HETATM    4  H1  UNL     1     -14.651   9.695  73.387  1.00  0.00     0.000 HD 
HETATM    5  N   UNL     1     -12.888   7.805  71.450  1.00  0.00    -0.321 NA 
HETATM    6  C   UNL     1     -11.852   7.915  70.594  1.00  0.00    -0.102 A  
HETATM    7  C   UNL     1     -11.138   9.110  70.397  1.00  0.00    -0.253 A  
HETATM    8  N   UNL     1     -11.569   6.711  69.940  1.00  0.00    -0.592 NA 
HETATM    9  N   UNL     1     -12.580  10.072  71.993  1.00  0.00    -0.347 NA 
HETATM   10  H1  UNL     1     -10.785   6.794  69.293  1.00  0.00     0.000 HD 
HETATM   11  N   UNL     1     -11.500  10.163  71.155  1.00  0.00    -0.350 NA 
HETATM   12  H2  UNL     1     -12.397   6.345  69.469  1.00  0.00     0.000 HD 
ENDROOT
BRANCH   7  13
HETATM   13  C   UNL     1     -10.033   9.331  69.420  1.00  0.00    -0.184 A  
HETATM   14  C   UNL     1     -10.139  10.170  68.273  1.00  0.00    -0.156 A  
HETATM   15  C   UNL     1      -9.060  10.297  67.369  1.00  0.00    -0.138 A  
HETATM   16 CL   UNL     1     -11.610  11.028  67.897  1.00  0.00    -0.347 Cl 
HETATM   17 CL   UNL     1      -9.114  11.323  65.971  1.00  0.00    -0.215 Cl 
HETATM   18  C   UNL     1      -7.878   9.582  67.561  1.00  0.00    -0.102 A  
HETATM   19  C   UNL     1      -7.743   8.769  68.677  1.00  0.00    -0.098 A  
HETATM   20  C   UNL     1      -8.792   8.671  69.598  1.00  0.00    -0.137 A  
ENDBRANCH   7  13
TORSDOF 1
ENDMDL
MODEL       97
REMARK 921   NORMALIZED FREE ENERGY PREDICTED BY IDOCK:   -4.48 KCAL/MOL
REMARK 922        TOTAL FREE ENERGY PREDICTED BY IDOCK:   -5.02 KCAL/MOL
REMARK 923 INTER-LIGAND FREE ENERGY PREDICTED BY IDOCK:   -4.90 KCAL/MOL
REMARK 924 INTRA-LIGAND FREE ENERGY PREDICTED BY IDOCK:   -0.12 KCAL/MOL
REMARK 927      BINDING AFFINITY PREDICTED BY RF-SCORE:    0.00 PKD
ROOT
HETATM    1  N   UNL     1     -10.356  19.450  66.409  1.00  0.00    -0.444 NA 
HETATM    2  H2  UNL     1      -9.476  19.911  66.641  1.00  0.00     0.000 HD 
HETATM    3  C   UNL     1     -10.229  18.090  66.614  1.00  0.00    -0.373 A  
HETATM    4  H1  UNL     1     -10.666  19.758  65.487  1.00  0.00     0.000 HD 
HETATM    5  N   UNL     1      -9.824  17.688  67.819  1.00  0.00    -0.282 NA 
HETATM    6  C   UNL     1      -9.798  16.358  68.034  1.00  0.00    -0.238 A  
HETATM    7  C   UNL     1     -10.130  15.411  67.049  1.00  0.00    -0.249 A  
HETATM    8  N   UNL     1      -9.399  16.034  69.335  1.00  0.00    -0.247 NA 
HETATM    9  N   UNL     1     -10.505  17.241  65.613  1.00  0.00    -0.590 NA 
HETATM   10  H1  UNL     1      -9.381  15.027  69.498  1.00  0.00     0.000 HD 
HETATM   11  N   UNL     1     -10.432  15.891  65.827  1.00  0.00    -0.351 NA 
HETATM   12  H2  UNL     1      -9.982  16.507  70.027  1.00  0.00     0.000 HD 
ENDROOT
BRANCH   7  13
HETATM   13  C   UNL     1     -10.198  13.932  67.228  1.00  0.00    -0.249 A  
HETATM   14  C   UNL     1     -11.094  13.278  68.123  1.00  0.00    -0.259 A  
HETATM   15  C   UNL     1     -11.070  11.872  68.268  1.00  0.00    -0.239 A  
HETATM   16 CL   UNL     1     -12.213  14.172  69.117  1.00  0.00    -0.347 Cl 
HETATM   17 CL   UNL     1     -12.152  11.013  69.317  1.00  0.00    -0.404 Cl 
HETATM   18  C   UNL     1     -10.150  11.095  67.564  1.00  0.00    -0.210 A  
HETATM   19  C   UNL     1      -9.276  11.705  66.677  1.00  0.00    -0.196 A  
HETATM   20  C   UNL     1      -9.322  13.092  66.497  1.00  0.00    -0.222 A  
ENDBRANCH   7  13
TORSDOF 1
ENDMDL
MODEL       98
REMARK 921   NORMALIZED FREE ENERGY PREDICTED BY IDOCK:   -4.47 KCAL/MOL
REMARK 922        TOTAL FREE ENERGY PREDICTED BY IDOCK:   -5.01 KCAL/MOL
REMARK 923 INTER-LIGAND FREE ENERGY PREDICTED BY IDOCK:   -4.74 KCAL/MOL
REMARK 924 INTRA-LIGAND FREE ENERGY PREDICTED BY IDOCK:   -0.27 KCAL/MOL
REMARK 927      BINDING AFFINITY PREDICTED BY RF-SCORE:    0.00 PKD
ROOT
HETATM    1  N   UNL     1     -10.966  15.846  64.438  1.00  0.00    -0.893 NA 
HETATM    2  H2  UNL     1     -11.865  15.704  63.978  1.00  0.00     0.000 HD 
HETATM    3  C   UNL     1     -10.714  14.787  65.289  1.00  0.00    -0.390 A  
HETATM    4  H1  UNL     1     -10.935  16.784  64.837  1.00  0.00     0.000 HD 
HETATM    5  N   UNL     1     -10.754  13.560  64.768  1.00  0.00    -0.377 NA 
HETATM    6  C   UNL     1     -10.411  12.546  65.586  1.00  0.00    -0.273 A  
HETATM    7  C   UNL     1     -10.068  12.728  66.937  1.00  0.00    -0.232 A  
HETATM    8  N   UNL     1     -10.445  11.304  64.942  1.00  0.00    -0.302 NA 
HETATM    9  N   UNL     1     -10.451  15.025  66.582  1.00  0.00    -0.278 NA 
HETATM   10  H1  UNL     1     -10.185  10.537  65.561  1.00  0.00     0.000 HD 
HETATM   11  N   UNL     1     -10.148  13.983  67.418  1.00  0.00    -0.242 NA 
HETATM   12  H2  UNL     1      -9.866  11.311  64.102  1.00  0.00     0.000 HD 
ENDROOT
BRANCH   7  13
HETATM   13  C   UNL     1      -9.608  11.671  67.885  1.00  0.00    -0.180 A  
HETATM   14  C   UNL     1     -10.445  11.056  68.861  1.00  0.00    -0.204 A  
HETATM   15  C   UNL     1      -9.925  10.090  69.751  1.00  0.00    -0.241 A  
HETATM   16 CL   UNL     1     -12.121  11.501  69.042  1.00  0.00    -0.358 Cl 
HETATM   17 CL   UNL     1     -10.896   9.284  70.941  1.00  0.00    -0.334 Cl 
HETATM   18  C   UNL     1      -8.576   9.739  69.718  1.00  0.00    -0.215 A  
HETATM   19  C   UNL     1      -7.742  10.312  68.769  1.00  0.00    -0.096 A  
HETATM   20  C   UNL     1      -8.259  11.239  67.857  1.00  0.00    -0.123 A  
ENDBRANCH   7  13
TORSDOF 1
ENDMDL
MODEL       99
REMARK 921   NORMALIZED FREE ENERGY PREDICTED BY IDOCK:   -4.46 KCAL/MOL
REMARK 922        TOTAL FREE ENERGY PREDICTED BY IDOCK:   -5.00 KCAL/MOL
REMARK 923 INTER-LIGAND FREE ENERGY PREDICTED BY IDOCK:   -4.74 KCAL/MOL
REMARK 924 INTRA-LIGAND FREE ENERGY PREDICTED BY IDOCK:   -0.26 KCAL/MOL
REMARK 927      BINDING AFFINITY PREDICTED BY RF-SCORE:    0.00 PKD
ROOT
HETATM    1  N   UNL     1     -10.347  18.130  66.013  1.00  0.00    -0.553 NA 
HETATM    2  H2  UNL     1     -11.295  18.230  65.651  1.00  0.00     0.000 HD 
HETATM    3  C   UNL     1     -10.098  16.799  66.287  1.00  0.00    -0.326 A  
HETATM    4  H1  UNL     1     -10.203  18.798  66.771  1.00  0.00     0.000 HD 
HETATM    5  N   UNL     1     -10.287  15.925  65.298  1.00  0.00    -0.493 NA 
HETATM    6  C   UNL     1      -9.948  14.646  65.550  1.00  0.00    -0.352 A  
HETATM    7  C   UNL     1      -9.461  14.208  66.795  1.00  0.00    -0.279 A  
HETATM    8  N   UNL     1     -10.143  13.812  64.443  1.00  0.00    -0.752 NA 
HETATM    9  N   UNL     1      -9.693  16.440  67.513  1.00  0.00    -0.229 NA 
HETATM   10  H1  UNL     1      -9.886  12.844  64.635  1.00  0.00     0.000 HD 
HETATM   11  N   UNL     1      -9.393  15.129  67.775  1.00  0.00    -0.188 NA 
HETATM   12  H2  UNL     1      -9.650  14.168  63.624  1.00  0.00     0.000 HD 
ENDROOT
BRANCH   7  13
HETATM   13  C   UNL     1      -8.997  12.831  67.130  1.00  0.00    -0.214 A  
HETATM   14  C   UNL     1      -9.864  11.709  67.267  1.00  0.00    -0.187 A  
HETATM   15  C   UNL     1      -9.352  10.441  67.628  1.00  0.00    -0.148 A  
HETATM   16 CL   UNL     1     -11.589  11.851  67.057  1.00  0.00    -0.389 Cl 
HETATM   17 CL   UNL     1     -10.349   9.030  67.783  1.00  0.00    -0.287 Cl 
HETATM   18  C   UNL     1      -7.994  10.266  67.888  1.00  0.00    -0.102 A  
HETATM   19  C   UNL     1      -7.126  11.339  67.749  1.00  0.00    -0.087 A  
HETATM   20  C   UNL     1      -7.619  12.586  67.352  1.00  0.00    -0.156 A  
ENDBRANCH   7  13
TORSDOF 1
ENDMDL
MODEL      100
REMARK 921   NORMALIZED FREE ENERGY PREDICTED BY IDOCK:   -4.43 KCAL/MOL
REMARK 922        TOTAL FREE ENERGY PREDICTED BY IDOCK:   -4.96 KCAL/MOL
REMARK 923 INTER-LIGAND FREE ENERGY PREDICTED BY IDOCK:   -4.70 KCAL/MOL
REMARK 924 INTRA-LIGAND FREE ENERGY PREDICTED BY IDOCK:   -0.26 KCAL/MOL
REMARK 927      BINDING AFFINITY PREDICTED BY RF-SCORE:    0.00 PKD
ROOT
HETATM    1  N   UNL     1     -13.515  11.706  62.883  1.00  0.00    -0.182 NA 
HETATM    2  H2  UNL     1     -13.530  10.702  62.701  1.00  0.00     0.000 HD 
HETATM    3  C   UNL     1     -12.512  11.993  63.789  1.00  0.00    -0.485 A  
HETATM    4  H1  UNL     1     -14.457  12.023  63.112  1.00  0.00     0.000 HD 
HETATM    5  N   UNL     1     -11.281  11.579  63.491  1.00  0.00    -0.387 NA 
HETATM    6  C   UNL     1     -10.298  11.950  64.335  1.00  0.00    -0.299 A  
HETATM    7  C   UNL     1     -10.529  12.695  65.505  1.00  0.00    -0.281 A  
HETATM    8  N   UNL     1      -9.039  11.503  63.920  1.00  0.00    -0.430 NA 
HETATM    9  N   UNL     1     -12.809  12.656  64.916  1.00  0.00    -0.842 NA 
HETATM   10  H1  UNL     1      -8.296  11.785  64.559  1.00  0.00     0.000 HD 
HETATM   11  N   UNL     1     -11.811  12.989  65.792  1.00  0.00    -0.382 NA 
HETATM   12  H2  UNL     1      -8.838  11.807  62.966  1.00  0.00     0.000 HD 
ENDROOT
BRANCH   7  13
HETATM   13  C   UNL     1      -9.492  13.205  66.449  1.00  0.00    -0.226 A  
HETATM   14  C   UNL     1      -8.749  12.378  67.340  1.00  0.00    -0.183 A  
HETATM   15  C   UNL     1      -7.811  12.941  68.235  1.00  0.00    -0.142 A  
HETATM   16 CL   UNL     1      -8.997  10.653  67.413  1.00  0.00    -0.136 Cl 
HETATM   17 CL   UNL     1      -6.854  11.988  69.324  1.00  0.00    -0.094 Cl 
HETATM   18  C   UNL     1      -7.613  14.321  68.289  1.00  0.00    -0.130 A  
HETATM   19  C   UNL     1      -8.313  15.147  67.423  1.00  0.00    -0.206 A  
HETATM   20  C   UNL     1      -9.213  14.593  66.506  1.00  0.00    -0.294 A  
ENDBRANCH   7  13
TORSDOF 1
ENDMDL
MODEL      101
REMARK 921   NORMALIZED FREE ENERGY PREDICTED BY IDOCK:   -4.41 KCAL/MOL
REMARK 922        TOTAL FREE ENERGY PREDICTED BY IDOCK:   -4.94 KCAL/MOL
REMARK 923 INTER-LIGAND FREE ENERGY PREDICTED BY IDOCK:   -4.74 KCAL/MOL
REMARK 924 INTRA-LIGAND FREE ENERGY PREDICTED BY IDOCK:   -0.20 KCAL/MOL
REMARK 927      BINDING AFFINITY PREDICTED BY RF-SCORE:    0.00 PKD
ROOT
HETATM    1  N   UNL     1     -10.824   7.852  67.845  1.00  0.00    -0.479 NA 
HETATM    2  H2  UNL     1     -11.764   7.654  68.189  1.00  0.00     0.000 HD 
HETATM    3  C   UNL     1     -10.715   9.199  67.557  1.00  0.00    -0.185 A  
HETATM    4  H1  UNL     1     -10.591   7.194  67.100  1.00  0.00     0.000 HD 
HETATM    5  N   UNL     1     -11.020  10.059  68.530  1.00  0.00    -0.228 NA 
HETATM    6  C   UNL     1     -10.817  11.364  68.266  1.00  0.00    -0.209 A  
HETATM    7  C   UNL     1     -10.353  11.837  67.026  1.00  0.00    -0.214 A  
HETATM    8  N   UNL     1     -11.126  12.185  69.357  1.00  0.00    -0.435 NA 
HETATM    9  N   UNL     1     -10.324   9.586  66.335  1.00  0.00    -0.214 NA 
HETATM   10  H1  UNL     1     -10.972  13.173  69.157  1.00  0.00     0.000 HD 
HETATM   11  N   UNL     1     -10.163  10.917  66.061  1.00  0.00    -0.247 NA 
HETATM   12  H2  UNL     1     -10.616  11.895  70.191  1.00  0.00     0.000 HD 
ENDROOT
BRANCH   7  13
HETATM   13  C   UNL     1     -10.033  13.253  66.681  1.00  0.00    -0.272 A  
HETATM   14  C   UNL     1     -10.811  14.052  65.793  1.00  0.00    -0.291 A  
HETATM   15  C   UNL     1     -10.421  15.375  65.483  1.00  0.00    -0.380 A  
HETATM   16 CL   UNL     1     -12.237  13.427  65.008  1.00  0.00    -0.430 Cl 
HETATM   17 CL   UNL     1     -11.338  16.408  64.435  1.00  0.00    -0.279 Cl 
HETATM   18  C   UNL     1      -9.250  15.918  66.012  1.00  0.00    -0.372 A  
HETATM   19  C   UNL     1      -8.482  15.166  66.889  1.00  0.00    -0.278 A  
HETATM   20  C   UNL     1      -8.885  13.871  67.233  1.00  0.00    -0.227 A  
ENDBRANCH   7  13
TORSDOF 1
ENDMDL
MODEL      102
REMARK 921   NORMALIZED FREE ENERGY PREDICTED BY IDOCK:   -4.41 KCAL/MOL
REMARK 922        TOTAL FREE ENERGY PREDICTED BY IDOCK:   -4.94 KCAL/MOL
REMARK 923 INTER-LIGAND FREE ENERGY PREDICTED BY IDOCK:   -4.66 KCAL/MOL
REMARK 924 INTRA-LIGAND FREE ENERGY PREDICTED BY IDOCK:   -0.28 KCAL/MOL
REMARK 927      BINDING AFFINITY PREDICTED BY RF-SCORE:    0.00 PKD
ROOT
HETATM    1  N   UNL     1     -11.817  11.928  67.391  1.00  0.00    -0.611 NA 
HETATM    2  H2  UNL     1     -12.098  12.829  67.777  1.00  0.00     0.000 HD 
HETATM    3  C   UNL     1     -11.459  11.078  68.420  1.00  0.00    -0.308 A  
HETATM    4  H1  UNL     1     -11.133  12.077  66.648  1.00  0.00     0.000 HD 
HETATM    5  N   UNL     1     -12.352  10.883  69.390  1.00  0.00    -0.358 NA 
HETATM    6  C   UNL     1     -12.029   9.979  70.336  1.00  0.00    -0.236 A  
HETATM    7  C   UNL     1     -10.802   9.292  70.357  1.00  0.00    -0.254 A  
HETATM    8  N   UNL     1     -13.041   9.814  71.287  1.00  0.00    -0.392 NA 
HETATM    9  N   UNL     1     -10.249  10.500  68.411  1.00  0.00    -0.165 NA 
HETATM   10  H1  UNL     1     -12.796   9.129  72.002  1.00  0.00     0.000 HD 
HETATM   11  N   UNL     1      -9.911   9.616  69.401  1.00  0.00    -0.182 NA 
HETATM   12  H2  UNL     1     -13.928   9.578  70.841  1.00  0.00     0.000 HD 
ENDROOT
BRANCH   7  13
HETATM   13  C   UNL     1     -10.399   8.228  71.321  1.00  0.00    -0.256 A  
HETATM   14  C   UNL     1     -10.537   6.831  71.071  1.00  0.00    -0.222 A  
HETATM   15  C   UNL     1     -10.169   5.883  72.053  1.00  0.00    -0.197 A  
HETATM   16 CL   UNL     1     -11.211   6.229  69.580  1.00  0.00    -0.478 Cl 
HETATM   17 CL   UNL     1     -10.284   4.170  71.800  1.00  0.00    -0.204 Cl 
HETATM   18  C   UNL     1      -9.694   6.290  73.299  1.00  0.00    -0.168 A  
HETATM   19  C   UNL     1      -9.538   7.643  73.563  1.00  0.00    -0.348 A  
HETATM   20  C   UNL     1      -9.860   8.586  72.582  1.00  0.00    -0.281 A  
ENDBRANCH   7  13
TORSDOF 1
ENDMDL
MODEL      103
REMARK 921   NORMALIZED FREE ENERGY PREDICTED BY IDOCK:   -4.40 KCAL/MOL
REMARK 922        TOTAL FREE ENERGY PREDICTED BY IDOCK:   -4.94 KCAL/MOL
REMARK 923 INTER-LIGAND FREE ENERGY PREDICTED BY IDOCK:   -4.69 KCAL/MOL
REMARK 924 INTRA-LIGAND FREE ENERGY PREDICTED BY IDOCK:   -0.25 KCAL/MOL
REMARK 927      BINDING AFFINITY PREDICTED BY RF-SCORE:    0.00 PKD
ROOT
HETATM    1  N   UNL     1      -8.605   4.151  70.809  1.00  0.00    -0.074 NA 
HETATM    2  H2  UNL     1      -8.008   4.048  69.988  1.00  0.00     0.000 HD 
HETATM    3  C   UNL     1      -9.253   5.371  70.754  1.00  0.00    -0.149 A  
HETATM    4  H1  UNL     1      -8.064   3.946  71.649  1.00  0.00     0.000 HD 
HETATM    5  N   UNL     1      -9.960   5.639  69.656  1.00  0.00    -0.185 NA 
HETATM    6  C   UNL     1     -10.665   6.787  69.658  1.00  0.00    -0.251 A  
HETATM    7  C   UNL     1     -10.643   7.703  70.724  1.00  0.00    -0.221 A  
HETATM    8  N   UNL     1     -11.404   6.963  68.483  1.00  0.00    -0.527 NA 
HETATM    9  N   UNL     1      -9.144   6.225  71.781  1.00  0.00    -0.144 NA 
HETATM   10  H1  UNL     1     -11.938   7.833  68.485  1.00  0.00     0.000 HD 
HETATM   11  N   UNL     1      -9.827   7.411  71.755  1.00  0.00    -0.167 NA 
HETATM   12  H2  UNL     1     -12.010   6.161  68.307  1.00  0.00     0.000 HD 
ENDROOT
BRANCH   7  13
HETATM   13  C   UNL     1     -11.447   8.955  70.834  1.00  0.00    -0.339 A  
HETATM   14  C   UNL     1     -11.221  10.119  70.044  1.00  0.00    -0.299 A  
HETATM   15  C   UNL     1     -12.001  11.283  70.235  1.00  0.00    -0.379 A  
HETATM   16 CL   UNL     1      -9.949  10.187  68.854  1.00  0.00    -0.190 Cl 
HETATM   17 CL   UNL     1     -11.796  12.722  69.287  1.00  0.00    -0.362 Cl 
HETATM   18  C   UNL     1     -12.986  11.331  71.221  1.00  0.00    -0.427 A  
HETATM   19  C   UNL     1     -13.235  10.207  71.995  1.00  0.00    -0.534 A  
HETATM   20  C   UNL     1     -12.496   9.038  71.783  1.00  0.00    -0.438 A  
ENDBRANCH   7  13
TORSDOF 1
ENDMDL
MODEL      104
REMARK 921   NORMALIZED FREE ENERGY PREDICTED BY IDOCK:   -4.39 KCAL/MOL
REMARK 922        TOTAL FREE ENERGY PREDICTED BY IDOCK:   -4.93 KCAL/MOL
REMARK 923 INTER-LIGAND FREE ENERGY PREDICTED BY IDOCK:   -4.72 KCAL/MOL
REMARK 924 INTRA-LIGAND FREE ENERGY PREDICTED BY IDOCK:   -0.21 KCAL/MOL
REMARK 927      BINDING AFFINITY PREDICTED BY RF-SCORE:    0.00 PKD
ROOT
HETATM    1  N   UNL     1      -7.790  19.027  68.948  1.00  0.00    -0.326 NA 
HETATM    2  H2  UNL     1      -7.129  19.438  68.289  1.00  0.00     0.000 HD 
HETATM    3  C   UNL     1      -8.339  17.885  68.395  1.00  0.00    -0.304 A  
HETATM    4  H1  UNL     1      -8.437  19.747  69.272  1.00  0.00     0.000 HD 
HETATM    5  N   UNL     1      -7.494  16.945  67.971  1.00  0.00    -0.169 NA 
HETATM    6  C   UNL     1      -8.043  15.798  67.524  1.00  0.00    -0.159 A  
HETATM    7  C   UNL     1      -9.432  15.586  67.450  1.00  0.00    -0.211 A  
HETATM    8  N   UNL     1      -7.081  14.859  67.139  1.00  0.00    -0.325 NA 
HETATM    9  N   UNL     1      -9.671  17.771  68.299  1.00  0.00    -0.304 NA 
HETATM   10  H1  UNL     1      -7.497  13.991  66.801  1.00  0.00     0.000 HD 
HETATM   11  N   UNL     1     -10.220  16.620  67.801  1.00  0.00    -0.282 NA 
HETATM   12  H2  UNL     1      -6.420  14.679  67.895  1.00  0.00     0.000 HD 
ENDROOT
BRANCH   7  13
HETATM   13  C   UNL     1     -10.115  14.325  67.039  1.00  0.00    -0.260 A  
HETATM   14  C   UNL     1     -10.823  14.166  65.812  1.00  0.00    -0.297 A  
HETATM   15  C   UNL     1     -11.480  12.951  65.511  1.00  0.00    -0.326 A  
HETATM   16 CL   UNL     1     -10.963  15.466  64.658  1.00  0.00    -0.388 Cl 
HETATM   17 CL   UNL     1     -12.334  12.684  64.025  1.00  0.00    -0.515 Cl 
HETATM   18  C   UNL     1     -11.478  11.893  66.418  1.00  0.00    -0.371 A  
HETATM   19  C   UNL     1     -10.784  12.016  67.613  1.00  0.00    -0.252 A  
HETATM   20  C   UNL     1     -10.097  13.201  67.900  1.00  0.00    -0.232 A  
ENDBRANCH   7  13
TORSDOF 1
ENDMDL
MODEL      105
REMARK 921   NORMALIZED FREE ENERGY PREDICTED BY IDOCK:   -4.37 KCAL/MOL
REMARK 922        TOTAL FREE ENERGY PREDICTED BY IDOCK:   -4.90 KCAL/MOL
REMARK 923 INTER-LIGAND FREE ENERGY PREDICTED BY IDOCK:   -4.65 KCAL/MOL
REMARK 924 INTRA-LIGAND FREE ENERGY PREDICTED BY IDOCK:   -0.26 KCAL/MOL
REMARK 927      BINDING AFFINITY PREDICTED BY RF-SCORE:    0.00 PKD
ROOT
HETATM    1  N   UNL     1      -8.034  10.533  64.209  1.00  0.00    -0.335 NA 
HETATM    2  H2  UNL     1      -8.623  10.363  63.394  1.00  0.00     0.000 HD 
HETATM    3  C   UNL     1      -8.804  10.460  65.354  1.00  0.00    -0.179 A  
HETATM    4  H1  UNL     1      -7.492  11.386  64.063  1.00  0.00     0.000 HD 
HETATM    5  N   UNL     1      -9.512   9.347  65.545  1.00  0.00    -0.261 NA 
HETATM    6  C   UNL     1     -10.180   9.250  66.711  1.00  0.00    -0.255 A  
HETATM    7  C   UNL     1     -10.192  10.269  67.680  1.00  0.00    -0.205 A  
HETATM    8  N   UNL     1     -10.860   8.033  66.838  1.00  0.00    -0.414 NA 
HETATM    9  N   UNL     1      -8.817  11.492  66.210  1.00  0.00    -0.196 NA 
HETATM   10  H1  UNL     1     -11.365   7.960  67.722  1.00  0.00     0.000 HD 
HETATM   11  N   UNL     1      -9.536  11.404  67.372  1.00  0.00    -0.173 NA 
HETATM   12  H2  UNL     1     -10.226   7.244  66.711  1.00  0.00     0.000 HD 
ENDROOT
BRANCH   7  13
HETATM   13  C   UNL     1     -10.843  10.209  69.021  1.00  0.00    -0.257 A  
HETATM   14  C   UNL     1     -10.383   9.394  70.095  1.00  0.00    -0.233 A  
HETATM   15  C   UNL     1     -11.078   9.360  71.325  1.00  0.00    -0.376 A  
HETATM   16 CL   UNL     1      -8.986   8.363  69.931  1.00  0.00    -0.140 Cl 
HETATM   17 CL   UNL     1     -10.554   8.413  72.681  1.00  0.00    -0.375 Cl 
HETATM   18  C   UNL     1     -12.248  10.098  71.506  1.00  0.00    -0.473 A  
HETATM   19  C   UNL     1     -12.710  10.910  70.481  1.00  0.00    -0.363 A  
HETATM   20  C   UNL     1     -12.004  10.980  69.276  1.00  0.00    -0.410 A  
ENDBRANCH   7  13
TORSDOF 1
ENDMDL
MODEL      106
REMARK 921   NORMALIZED FREE ENERGY PREDICTED BY IDOCK:   -4.35 KCAL/MOL
REMARK 922        TOTAL FREE ENERGY PREDICTED BY IDOCK:   -4.88 KCAL/MOL
REMARK 923 INTER-LIGAND FREE ENERGY PREDICTED BY IDOCK:   -4.59 KCAL/MOL
REMARK 924 INTRA-LIGAND FREE ENERGY PREDICTED BY IDOCK:   -0.29 KCAL/MOL
REMARK 927      BINDING AFFINITY PREDICTED BY RF-SCORE:    0.00 PKD
ROOT
HETATM    1  N   UNL     1      -9.625   8.789  65.670  1.00  0.00    -0.458 NA 
HETATM    2  H2  UNL     1      -9.422   7.991  66.272  1.00  0.00     0.000 HD 
HETATM    3  C   UNL     1      -9.987   9.871  66.449  1.00  0.00    -0.244 A  
HETATM    4  H1  UNL     1     -10.274   8.502  64.937  1.00  0.00     0.000 HD 
HETATM    5  N   UNL     1      -9.139  10.246  67.408  1.00  0.00    -0.138 NA 
HETATM    6  C   UNL     1      -9.459  11.360  68.094  1.00  0.00    -0.181 A  
HETATM    7  C   UNL     1     -10.640  12.090  67.871  1.00  0.00    -0.202 A  
HETATM    8  N   UNL     1      -8.494  11.696  69.049  1.00  0.00    -0.369 NA 
HETATM    9  N   UNL     1     -11.156  10.488  66.223  1.00  0.00     0.099 NA 
HETATM   10  H1  UNL     1      -8.736  12.540  69.569  1.00  0.00     0.000 HD 
HETATM   11  N   UNL     1     -11.495  11.593  66.956  1.00  0.00    -0.490 NA 
HETATM   12  H2  UNL     1      -7.570  11.779  68.624  1.00  0.00     0.000 HD 
ENDROOT
BRANCH   7  13
HETATM   13  C   UNL     1     -11.030  13.368  68.534  1.00  0.00    -0.292 A  
HETATM   14  C   UNL     1     -10.728  14.661  68.015  1.00  0.00    -0.246 A  
HETATM   15  C   UNL     1     -11.096  15.827  68.723  1.00  0.00    -0.321 A  
HETATM   16 CL   UNL     1      -9.847  14.867  66.524  1.00  0.00    -0.265 Cl 
HETATM   17 CL   UNL     1     -10.784  17.428  68.132  1.00  0.00    -0.373 Cl 
HETATM   18  C   UNL     1     -11.734  15.742  69.960  1.00  0.00    -0.362 A  
HETATM   19  C   UNL     1     -12.052  14.497  70.482  1.00  0.00    -0.395 A  
HETATM   20  C   UNL     1     -11.728  13.339  69.767  1.00  0.00    -0.354 A  
ENDBRANCH   7  13
TORSDOF 1
ENDMDL
MODEL      107
REMARK 921   NORMALIZED FREE ENERGY PREDICTED BY IDOCK:   -4.34 KCAL/MOL
REMARK 922        TOTAL FREE ENERGY PREDICTED BY IDOCK:   -4.87 KCAL/MOL
REMARK 923 INTER-LIGAND FREE ENERGY PREDICTED BY IDOCK:   -4.66 KCAL/MOL
REMARK 924 INTRA-LIGAND FREE ENERGY PREDICTED BY IDOCK:   -0.21 KCAL/MOL
REMARK 927      BINDING AFFINITY PREDICTED BY RF-SCORE:    0.00 PKD
ROOT
HETATM    1  N   UNL     1      -6.175  18.908  66.232  1.00  0.00    -0.178 NA 
HETATM    2  H2  UNL     1      -6.457  19.888  66.253  1.00  0.00     0.000 HD 
HETATM    3  C   UNL     1      -7.237  18.115  66.622  1.00  0.00    -0.214 A  
HETATM    4  H1  UNL     1      -5.297  18.798  66.742  1.00  0.00     0.000 HD 
HETATM    5  N   UNL     1      -8.384  18.259  65.956  1.00  0.00    -0.507 NA 
HETATM    6  C   UNL     1      -9.380  17.413  66.283  1.00  0.00    -0.217 A  
HETATM    7  C   UNL     1      -9.270  16.447  67.298  1.00  0.00    -0.215 A  
HETATM    8  N   UNL     1     -10.527  17.612  65.506  1.00  0.00    -0.638 NA 
HETATM    9  N   UNL     1      -7.084  17.255  67.639  1.00  0.00    -0.161 NA 
HETATM   10  H1  UNL     1     -11.281  16.971  65.753  1.00  0.00     0.000 HD 
HETATM   11  N   UNL     1      -8.117  16.430  67.994  1.00  0.00    -0.155 NA 
HETATM   12  H2  UNL     1     -10.310  17.558  64.510  1.00  0.00     0.000 HD 
ENDROOT
BRANCH   7  13
HETATM   13  C   UNL     1     -10.296  15.429  67.669  1.00  0.00    -0.262 A  
HETATM   14  C   UNL     1     -11.058  15.467  68.873  1.00  0.00    -0.275 A  
HETATM   15  C   UNL     1     -11.984  14.442  69.173  1.00  0.00    -0.322 A  
HETATM   16 CL   UNL     1     -10.848  16.735  70.052  1.00  0.00    -0.192 Cl 
HETATM   17 CL   UNL     1     -12.963  14.444  70.605  1.00  0.00    -0.395 Cl 
HETATM   18  C   UNL     1     -12.151  13.355  68.315  1.00  0.00    -0.271 A  
HETATM   19  C   UNL     1     -11.432  13.301  67.131  1.00  0.00    -0.380 A  
HETATM   20  C   UNL     1     -10.544  14.332  66.807  1.00  0.00    -0.278 A  
ENDBRANCH   7  13
TORSDOF 1
ENDMDL
MODEL      108
REMARK 921   NORMALIZED FREE ENERGY PREDICTED BY IDOCK:   -4.33 KCAL/MOL
REMARK 922        TOTAL FREE ENERGY PREDICTED BY IDOCK:   -4.86 KCAL/MOL
REMARK 923 INTER-LIGAND FREE ENERGY PREDICTED BY IDOCK:   -4.56 KCAL/MOL
REMARK 924 INTRA-LIGAND FREE ENERGY PREDICTED BY IDOCK:   -0.30 KCAL/MOL
REMARK 927      BINDING AFFINITY PREDICTED BY RF-SCORE:    0.00 PKD
ROOT
HETATM    1  N   UNL     1      -7.798   4.379  69.165  1.00  0.00    -0.062 NA 
HETATM    2  H2  UNL     1      -7.106   4.910  68.637  1.00  0.00     0.000 HD 
HETATM    3  C   UNL     1      -8.805   5.229  69.584  1.00  0.00    -0.107 A  
HETATM    4  H1  UNL     1      -7.326   3.825  69.880  1.00  0.00     0.000 HD 
HETATM    5  N   UNL     1      -9.422   5.954  68.651  1.00  0.00    -0.120 NA 
HETATM    6  C   UNL     1     -10.464   6.703  69.060  1.00  0.00    -0.214 A  
HETATM    7  C   UNL     1     -10.879   6.779  70.402  1.00  0.00    -0.262 A  
HETATM    8  N   UNL     1     -11.071   7.396  68.007  1.00  0.00    -0.478 NA 
HETATM    9  N   UNL     1      -9.112   5.298  70.887  1.00  0.00    -0.136 NA 
HETATM   10  H1  UNL     1     -11.860   7.963  68.318  1.00  0.00     0.000 HD 
HETATM   11  N   UNL     1     -10.144   6.097  71.301  1.00  0.00    -0.185 NA 
HETATM   12  H2  UNL     1     -11.348   6.759  67.260  1.00  0.00     0.000 HD 
ENDROOT
BRANCH   7  13
HETATM   13  C   UNL     1     -12.062   7.524  70.923  1.00  0.00    -0.254 A  
HETATM   14  C   UNL     1     -12.081   8.930  71.151  1.00  0.00    -0.277 A  
HETATM   15  C   UNL     1     -13.228   9.559  71.686  1.00  0.00    -0.406 A  
HETATM   16 CL   UNL     1     -10.685   9.929  70.840  1.00  0.00    -0.367 Cl 
HETATM   17 CL   UNL     1     -13.326  11.269  71.960  1.00  0.00    -0.513 Cl 
HETATM   18  C   UNL     1     -14.356   8.815  72.032  1.00  0.00    -0.466 A  
HETATM   19  C   UNL     1     -14.369   7.446  71.807  1.00  0.00    -0.586 A  
HETATM   20  C   UNL     1     -13.252   6.824  71.239  1.00  0.00    -0.125 A  
ENDBRANCH   7  13
TORSDOF 1
ENDMDL
MODEL      109
REMARK 921   NORMALIZED FREE ENERGY PREDICTED BY IDOCK:   -4.28 KCAL/MOL
REMARK 922        TOTAL FREE ENERGY PREDICTED BY IDOCK:   -4.81 KCAL/MOL
REMARK 923 INTER-LIGAND FREE ENERGY PREDICTED BY IDOCK:   -4.52 KCAL/MOL
REMARK 924 INTRA-LIGAND FREE ENERGY PREDICTED BY IDOCK:   -0.29 KCAL/MOL
REMARK 927      BINDING AFFINITY PREDICTED BY RF-SCORE:    0.00 PKD
ROOT
HETATM    1  N   UNL     1      -8.632   2.925  71.701  1.00  0.00    -0.067 NA 
HETATM    2  H2  UNL     1      -7.839   3.025  71.067  1.00  0.00     0.000 HD 
HETATM    3  C   UNL     1      -9.418   4.059  71.638  1.00  0.00    -0.149 A  
HETATM    4  H1  UNL     1      -8.294   2.640  72.622  1.00  0.00     0.000 HD 
HETATM    5  N   UNL     1      -9.858   4.431  70.436  1.00  0.00    -0.217 NA 
HETATM    6  C   UNL     1     -10.702   5.482  70.401  1.00  0.00    -0.251 A  
HETATM    7  C   UNL     1     -11.083   6.202  71.547  1.00  0.00    -0.286 A  
HETATM    8  N   UNL     1     -11.141   5.772  69.105  1.00  0.00    -0.259 NA 
HETATM    9  N   UNL     1      -9.696   4.736  72.761  1.00  0.00    -0.136 NA 
HETATM   10  H1  UNL     1     -11.780   6.568  69.079  1.00  0.00     0.000 HD 
HETATM   11  N   UNL     1     -10.517   5.830  72.711  1.00  0.00    -0.199 NA 
HETATM   12  H2  UNL     1     -11.559   4.952  68.666  1.00  0.00     0.000 HD 
ENDROOT
BRANCH   7  13
HETATM   13  C   UNL     1     -12.064   7.325  71.602  1.00  0.00    -0.359 A  
HETATM   14  C   UNL     1     -11.709   8.700  71.485  1.00  0.00    -0.305 A  
HETATM   15  C   UNL     1     -12.693   9.710  71.588  1.00  0.00    -0.407 A  
HETATM   16 CL   UNL     1     -10.055   9.205  71.268  1.00  0.00    -0.379 Cl 
HETATM   17 CL   UNL     1     -12.332  11.399  71.426  1.00  0.00    -0.337 Cl 
HETATM   18  C   UNL     1     -14.026   9.387  71.838  1.00  0.00    -0.302 A  
HETATM   19  C   UNL     1     -14.401   8.056  71.943  1.00  0.00    -0.559 A  
HETATM   20  C   UNL     1     -13.440   7.049  71.800  1.00  0.00    -0.307 A  
ENDBRANCH   7  13
TORSDOF 1
ENDMDL
MODEL      110
REMARK 921   NORMALIZED FREE ENERGY PREDICTED BY IDOCK:   -4.27 KCAL/MOL
REMARK 922        TOTAL FREE ENERGY PREDICTED BY IDOCK:   -4.79 KCAL/MOL
REMARK 923 INTER-LIGAND FREE ENERGY PREDICTED BY IDOCK:   -4.51 KCAL/MOL
REMARK 924 INTRA-LIGAND FREE ENERGY PREDICTED BY IDOCK:   -0.28 KCAL/MOL
REMARK 927      BINDING AFFINITY PREDICTED BY RF-SCORE:    0.00 PKD
ROOT
HETATM    1  N   UNL     1     -12.150  14.911  67.968  1.00  0.00    -0.557 NA 
HETATM    2  H2  UNL     1     -11.485  15.659  67.770  1.00  0.00     0.000 HD 
HETATM    3  C   UNL     1     -11.561  13.690  67.705  1.00  0.00    -0.338 A  
HETATM    4  H1  UNL     1     -13.035  15.114  67.502  1.00  0.00     0.000 HD 
HETATM    5  N   UNL     1     -10.405  13.425  68.315  1.00  0.00    -0.244 NA 
HETATM    6  C   UNL     1      -9.892  12.193  68.125  1.00  0.00    -0.207 A  
HETATM    7  C   UNL     1     -10.491  11.228  67.297  1.00  0.00    -0.214 A  
HETATM    8  N   UNL     1      -8.702  11.995  68.834  1.00  0.00    -0.365 NA 
HETATM    9  N   UNL     1     -12.155  12.836  66.859  1.00  0.00    -0.468 NA 
HETATM   10  H1  UNL     1      -8.313  11.062  68.690  1.00  0.00     0.000 HD 
HETATM   11  N   UNL     1     -11.602  11.604  66.636  1.00  0.00    -0.506 NA 
HETATM   12  H2  UNL     1      -8.828  12.191  69.827  1.00  0.00     0.000 HD 
ENDROOT
BRANCH   7  13
HETATM   13  C   UNL     1     -10.027   9.824  67.094  1.00  0.00    -0.252 A  
HETATM   14  C   UNL     1      -9.233   9.399  65.990  1.00  0.00    -0.200 A  
HETATM   15  C   UNL     1      -8.867   8.042  65.845  1.00  0.00    -0.153 A  
HETATM   16 CL   UNL     1      -8.725  10.509  64.744  1.00  0.00    -0.194 Cl 
HETATM   17 CL   UNL     1      -7.878   7.466  64.541  1.00  0.00    -0.126 Cl 
HETATM   18  C   UNL     1      -9.300   7.082  66.759  1.00  0.00    -0.191 A  
HETATM   19  C   UNL     1     -10.063   7.471  67.850  1.00  0.00    -0.226 A  
HETATM   20  C   UNL     1     -10.394   8.819  68.023  1.00  0.00    -0.273 A  
ENDBRANCH   7  13
TORSDOF 1
ENDMDL
MODEL      111
REMARK 921   NORMALIZED FREE ENERGY PREDICTED BY IDOCK:   -4.23 KCAL/MOL
REMARK 922        TOTAL FREE ENERGY PREDICTED BY IDOCK:   -4.75 KCAL/MOL
REMARK 923 INTER-LIGAND FREE ENERGY PREDICTED BY IDOCK:   -4.63 KCAL/MOL
REMARK 924 INTRA-LIGAND FREE ENERGY PREDICTED BY IDOCK:   -0.13 KCAL/MOL
REMARK 927      BINDING AFFINITY PREDICTED BY RF-SCORE:    0.00 PKD
ROOT
HETATM    1  N   UNL     1      -9.293   3.409  69.560  1.00  0.00    -0.163 NA 
HETATM    2  H2  UNL     1      -8.788   3.174  68.705  1.00  0.00     0.000 HD 
HETATM    3  C   UNL     1      -9.610   4.754  69.549  1.00  0.00    -0.179 A  
HETATM    4  H1  UNL     1      -8.776   3.057  70.366  1.00  0.00     0.000 HD 
HETATM    5  N   UNL     1     -10.286   5.215  68.496  1.00  0.00    -0.144 NA 
HETATM    6  C   UNL     1     -10.673   6.505  68.545  1.00  0.00    -0.273 A  
HETATM    7  C   UNL     1     -10.358   7.364  69.613  1.00  0.00    -0.223 A  
HETATM    8  N   UNL     1     -11.407   6.886  67.417  1.00  0.00    -0.687 NA 
HETATM    9  N   UNL     1      -9.229   5.532  70.572  1.00  0.00    -0.146 NA 
HETATM   10  H1  UNL     1     -11.700   7.863  67.455  1.00  0.00     0.000 HD 
HETATM   11  N   UNL     1      -9.587   6.854  70.592  1.00  0.00    -0.169 NA 
HETATM   12  H2  UNL     1     -12.207   6.268  67.274  1.00  0.00     0.000 HD 
ENDROOT
BRANCH   7  13
HETATM   13  C   UNL     1     -10.809   8.777  69.776  1.00  0.00    -0.196 A  
HETATM   14  C   UNL     1     -11.717   9.212  70.783  1.00  0.00    -0.256 A  
HETATM   15  C   UNL     1     -12.129  10.563  70.849  1.00  0.00    -0.383 A  
HETATM   16 CL   UNL     1     -12.406   8.103  71.940  1.00  0.00    -0.345 Cl 
HETATM   17 CL   UNL     1     -13.209  11.162  72.067  1.00  0.00    -0.552 Cl 
HETATM   18  C   UNL     1     -11.682  11.493  69.911  1.00  0.00    -0.420 A  
HETATM   19  C   UNL     1     -10.786  11.099  68.928  1.00  0.00    -0.261 A  
HETATM   20  C   UNL     1     -10.342   9.773  68.883  1.00  0.00    -0.225 A  
ENDBRANCH   7  13
TORSDOF 1
ENDMDL
MODEL      112
REMARK 921   NORMALIZED FREE ENERGY PREDICTED BY IDOCK:   -4.23 KCAL/MOL
REMARK 922        TOTAL FREE ENERGY PREDICTED BY IDOCK:   -4.75 KCAL/MOL
REMARK 923 INTER-LIGAND FREE ENERGY PREDICTED BY IDOCK:   -4.46 KCAL/MOL
REMARK 924 INTRA-LIGAND FREE ENERGY PREDICTED BY IDOCK:   -0.29 KCAL/MOL
REMARK 927      BINDING AFFINITY PREDICTED BY RF-SCORE:    0.00 PKD
ROOT
HETATM    1  N   UNL     1     -10.323  14.227  67.763  1.00  0.00    -0.237 NA 
HETATM    2  H2  UNL     1      -9.601  14.428  67.071  1.00  0.00     0.000 HD 
HETATM    3  C   UNL     1     -10.398  12.863  67.966  1.00  0.00    -0.227 A  
HETATM    4  H1  UNL     1     -11.184  14.710  67.504  1.00  0.00     0.000 HD 
HETATM    5  N   UNL     1      -9.274  12.232  68.304  1.00  0.00    -0.199 NA 
HETATM    6  C   UNL     1      -9.382  10.920  68.593  1.00  0.00    -0.187 A  
HETATM    7  C   UNL     1     -10.592  10.209  68.507  1.00  0.00    -0.216 A  
HETATM    8  N   UNL     1      -8.161  10.354  68.975  1.00  0.00    -0.128 NA 
HETATM    9  N   UNL     1     -11.572  12.234  67.810  1.00  0.00    -0.335 NA 
HETATM   10  H1  UNL     1      -8.243   9.361  69.194  1.00  0.00     0.000 HD 
HETATM   11  N   UNL     1     -11.664  10.891  68.061  1.00  0.00    -0.569 NA 
HETATM   12  H2  UNL     1      -7.745  10.868  69.752  1.00  0.00     0.000 HD 
ENDROOT
BRANCH   7  13
HETATM   13  C   UNL     1     -10.809   8.780  68.878  1.00  0.00    -0.040 A  
HETATM   14  C   UNL     1     -11.212   8.346  70.174  1.00  0.00    -0.136 A  
HETATM   15  C   UNL     1     -11.357   6.969  70.460  1.00  0.00    -0.312 A  
HETATM   16 CL   UNL     1     -11.488   9.473  71.475  1.00  0.00    -0.461 Cl 
HETATM   17 CL   UNL     1     -11.872   6.376  72.007  1.00  0.00    -0.374 Cl 
HETATM   18  C   UNL     1     -11.079   6.004  69.493  1.00  0.00    -0.468 A  
HETATM   19  C   UNL     1     -10.698   6.400  68.220  1.00  0.00    -0.351 A  
HETATM   20  C   UNL     1     -10.593   7.762  67.917  1.00  0.00    -0.221 A  
ENDBRANCH   7  13
TORSDOF 1
ENDMDL
MODEL      113
REMARK 921   NORMALIZED FREE ENERGY PREDICTED BY IDOCK:   -4.22 KCAL/MOL
REMARK 922        TOTAL FREE ENERGY PREDICTED BY IDOCK:   -4.75 KCAL/MOL
REMARK 923 INTER-LIGAND FREE ENERGY PREDICTED BY IDOCK:   -4.54 KCAL/MOL
REMARK 924 INTRA-LIGAND FREE ENERGY PREDICTED BY IDOCK:   -0.21 KCAL/MOL
REMARK 927      BINDING AFFINITY PREDICTED BY RF-SCORE:    0.00 PKD
ROOT
HETATM    1  N   UNL     1      -7.759  10.442  64.352  1.00  0.00    -0.304 NA 
HETATM    2  H2  UNL     1      -8.417  10.465  63.573  1.00  0.00     0.000 HD 
HETATM    3  C   UNL     1      -8.447  10.210  65.528  1.00  0.00    -0.153 A  
HETATM    4  H1  UNL     1      -7.161  11.268  64.315  1.00  0.00     0.000 HD 
HETATM    5  N   UNL     1      -9.228   9.130  65.576  1.00  0.00    -0.228 NA 
HETATM    6  C   UNL     1      -9.815   8.864  66.760  1.00  0.00    -0.241 A  
HETATM    7  C   UNL     1      -9.673   9.684  67.893  1.00  0.00    -0.146 A  
HETATM    8  N   UNL     1     -10.581   7.693  66.725  1.00  0.00    -0.478 NA 
HETATM    9  N   UNL     1      -8.314  11.064  66.552  1.00  0.00    -0.158 NA 
HETATM   10  H1  UNL     1     -11.026   7.492  67.621  1.00  0.00     0.000 HD 
HETATM   11  N   UNL     1      -8.951  10.810  67.737  1.00  0.00    -0.136 NA 
HETATM   12  H2  UNL     1     -10.025   6.900  66.404  1.00  0.00     0.000 HD 
ENDROOT
BRANCH   7  13
HETATM   13  C   UNL     1     -10.228   9.421  69.252  1.00  0.00    -0.209 A  
HETATM   14  C   UNL     1     -11.302  10.158  69.831  1.00  0.00    -0.275 A  
HETATM   15  C   UNL     1     -11.746   9.876  71.143  1.00  0.00    -0.396 A  
HETATM   16 CL   UNL     1     -12.077  11.470  68.982  1.00  0.00    -0.358 Cl 
HETATM   17 CL   UNL     1     -13.065  10.715  71.894  1.00  0.00    -0.592 Cl 
HETATM   18  C   UNL     1     -11.125   8.893  71.913  1.00  0.00    -0.442 A  
HETATM   19  C   UNL     1     -10.086   8.152  71.369  1.00  0.00    -0.248 A  
HETATM   20  C   UNL     1      -9.669   8.398  70.056  1.00  0.00    -0.176 A  
ENDBRANCH   7  13
TORSDOF 1
ENDMDL
MODEL      114
REMARK 921   NORMALIZED FREE ENERGY PREDICTED BY IDOCK:   -4.21 KCAL/MOL
REMARK 922        TOTAL FREE ENERGY PREDICTED BY IDOCK:   -4.73 KCAL/MOL
REMARK 923 INTER-LIGAND FREE ENERGY PREDICTED BY IDOCK:   -4.52 KCAL/MOL
REMARK 924 INTRA-LIGAND FREE ENERGY PREDICTED BY IDOCK:   -0.21 KCAL/MOL
REMARK 927      BINDING AFFINITY PREDICTED BY RF-SCORE:    0.00 PKD
ROOT
HETATM    1  N   UNL     1      -8.346   6.751  66.088  1.00  0.00    -0.124 NA 
HETATM    2  H2  UNL     1      -7.333   6.825  66.188  1.00  0.00     0.000 HD 
HETATM    3  C   UNL     1      -8.897   8.018  66.061  1.00  0.00    -0.162 A  
HETATM    4  H1  UNL     1      -8.708   6.098  66.783  1.00  0.00     0.000 HD 
HETATM    5  N   UNL     1      -8.424   8.871  65.152  1.00  0.00    -0.164 NA 
HETATM    6  C   UNL     1      -9.037  10.069  65.073  1.00  0.00    -0.211 A  
HETATM    7  C   UNL     1     -10.093  10.451  65.919  1.00  0.00    -0.261 A  
HETATM    8  N   UNL     1      -8.499  10.880  64.068  1.00  0.00    -0.373 NA 
HETATM    9  N   UNL     1      -9.861   8.339  66.935  1.00  0.00    -0.222 NA 
HETATM   10  H1  UNL     1      -8.964  11.786  64.008  1.00  0.00     0.000 HD 
HETATM   11  N   UNL     1     -10.448   9.574  66.877  1.00  0.00    -0.230 NA 
HETATM   12  H2  UNL     1      -8.508  10.402  63.166  1.00  0.00     0.000 HD 
ENDROOT
BRANCH   7  13
HETATM   13  C   UNL     1     -10.869  11.723  65.847  1.00  0.00    -0.339 A  
HETATM   14  C   UNL     1     -10.762  12.777  66.800  1.00  0.00    -0.260 A  
HETATM   15  C   UNL     1     -11.562  13.937  66.687  1.00  0.00    -0.374 A  
HETATM   16 CL   UNL     1      -9.691  12.668  68.172  1.00  0.00    -0.216 Cl 
HETATM   17 CL   UNL     1     -11.458  15.267  67.795  1.00  0.00    -0.334 Cl 
HETATM   18  C   UNL     1     -12.496  14.064  65.660  1.00  0.00    -0.531 A  
HETATM   19  C   UNL     1     -12.612  13.059  64.711  1.00  0.00    -0.460 A  
HETATM   20  C   UNL     1     -11.794  11.927  64.793  1.00  0.00    -0.259 A  
ENDBRANCH   7  13
TORSDOF 1
ENDMDL
MODEL      115
REMARK 921   NORMALIZED FREE ENERGY PREDICTED BY IDOCK:   -4.20 KCAL/MOL
REMARK 922        TOTAL FREE ENERGY PREDICTED BY IDOCK:   -4.73 KCAL/MOL
REMARK 923 INTER-LIGAND FREE ENERGY PREDICTED BY IDOCK:   -4.95 KCAL/MOL
REMARK 924 INTRA-LIGAND FREE ENERGY PREDICTED BY IDOCK:    0.22 KCAL/MOL
REMARK 927      BINDING AFFINITY PREDICTED BY RF-SCORE:    0.00 PKD
ROOT
HETATM    1  N   UNL     1     -12.957  12.810  72.033  1.00  0.00    -0.314 NA 
HETATM    2  H2  UNL     1     -12.359  12.348  72.719  1.00  0.00     0.000 HD 
HETATM    3  C   UNL     1     -12.454  12.590  70.764  1.00  0.00    -0.268 A  
HETATM    4  H1  UNL     1     -13.108  13.779  72.314  1.00  0.00     0.000 HD 
HETATM    5  N   UNL     1     -12.256  11.323  70.397  1.00  0.00    -0.351 NA 
HETATM    6  C   UNL     1     -11.859  11.120  69.125  1.00  0.00    -0.350 A  
HETATM    7  C   UNL     1     -11.611  12.166  68.219  1.00  0.00    -0.325 A  
HETATM    8  N   UNL     1     -11.716   9.762  68.820  1.00  0.00    -0.273 NA 
HETATM    9  N   UNL     1     -12.182  13.634  69.969  1.00  0.00    -0.338 NA 
HETATM   10  H1  UNL     1     -11.416   9.608  67.857  1.00  0.00     0.000 HD 
HETATM   11  N   UNL     1     -11.735  13.420  68.693  1.00  0.00    -0.328 NA 
HETATM   12  H2  UNL     1     -12.574   9.248  69.024  1.00  0.00     0.000 HD 
ENDROOT
BRANCH   7  13
HETATM   13  C   UNL     1     -11.241  12.022  66.780  1.00  0.00    -0.376 A  
HETATM   14  C   UNL     1     -11.903  12.700  65.716  1.00  0.00    -0.444 A  
HETATM   15  C   UNL     1     -11.521  12.481  64.373  1.00  0.00    -0.349 A  
HETATM   16 CL   UNL     1     -13.242  13.779  66.007  1.00  0.00     0.095 Cl 
HETATM   17 CL   UNL     1     -12.266  13.296  63.035  1.00  0.00    -0.285 Cl 
HETATM   18  C   UNL     1     -10.510  11.574  64.055  1.00  0.00    -0.424 A  
HETATM   19  C   UNL     1      -9.841  10.911  65.073  1.00  0.00    -0.336 A  
HETATM   20  C   UNL     1     -10.185  11.155  66.407  1.00  0.00    -0.279 A  
ENDBRANCH   7  13
TORSDOF 1
ENDMDL
MODEL      116
REMARK 921   NORMALIZED FREE ENERGY PREDICTED BY IDOCK:   -4.20 KCAL/MOL
REMARK 922        TOTAL FREE ENERGY PREDICTED BY IDOCK:   -4.72 KCAL/MOL
REMARK 923 INTER-LIGAND FREE ENERGY PREDICTED BY IDOCK:   -4.45 KCAL/MOL
REMARK 924 INTRA-LIGAND FREE ENERGY PREDICTED BY IDOCK:   -0.27 KCAL/MOL
REMARK 927      BINDING AFFINITY PREDICTED BY RF-SCORE:    0.00 PKD
ROOT
HETATM    1  N   UNL     1      -8.107   7.549  70.493  1.00  0.00    -0.105 NA 
HETATM    2  H2  UNL     1      -7.858   7.886  71.423  1.00  0.00     0.000 HD 
HETATM    3  C   UNL     1      -8.778   8.545  69.808  1.00  0.00    -0.132 A  
HETATM    4  H1  UNL     1      -8.570   6.644  70.574  1.00  0.00     0.000 HD 
HETATM    5  N   UNL     1      -8.173   9.728  69.702  1.00  0.00    -0.140 NA 
HETATM    6  C   UNL     1      -8.795  10.658  68.950  1.00  0.00    -0.157 A  
HETATM    7  C   UNL     1     -10.040  10.443  68.333  1.00  0.00    -0.163 A  
HETATM    8  N   UNL     1      -8.069  11.850  68.865  1.00  0.00    -0.350 NA 
HETATM    9  N   UNL     1      -9.990   8.293  69.294  1.00  0.00    -0.187 NA 
HETATM   10  H1  UNL     1      -8.540  12.554  68.295  1.00  0.00     0.000 HD 
HETATM   11  N   UNL     1     -10.636   9.258  68.569  1.00  0.00    -0.206 NA 
HETATM   12  H2  UNL     1      -7.121  11.679  68.528  1.00  0.00     0.000 HD 
ENDROOT
BRANCH   7  13
HETATM   13  C   UNL     1     -10.756  11.389  67.429  1.00  0.00    -0.274 A  
HETATM   14  C   UNL     1     -10.725  11.311  66.006  1.00  0.00    -0.242 A  
HETATM   15  C   UNL     1     -11.397  12.271  65.216  1.00  0.00    -0.338 A  
HETATM   16 CL   UNL     1      -9.819  10.074  65.176  1.00  0.00    -0.388 Cl 
HETATM   17 CL   UNL     1     -11.422  12.215  63.482  1.00  0.00    -0.530 Cl 
HETATM   18  C   UNL     1     -12.079  13.334  65.807  1.00  0.00    -0.491 A  
HETATM   19  C   UNL     1     -12.136  13.426  67.190  1.00  0.00    -0.367 A  
HETATM   20  C   UNL     1     -11.509  12.456  67.979  1.00  0.00    -0.377 A  
ENDBRANCH   7  13
TORSDOF 1
ENDMDL
MODEL      117
REMARK 921   NORMALIZED FREE ENERGY PREDICTED BY IDOCK:   -4.19 KCAL/MOL
REMARK 922        TOTAL FREE ENERGY PREDICTED BY IDOCK:   -4.71 KCAL/MOL
REMARK 923 INTER-LIGAND FREE ENERGY PREDICTED BY IDOCK:   -4.41 KCAL/MOL
REMARK 924 INTRA-LIGAND FREE ENERGY PREDICTED BY IDOCK:   -0.30 KCAL/MOL
REMARK 927      BINDING AFFINITY PREDICTED BY RF-SCORE:    0.00 PKD
ROOT
HETATM    1  N   UNL     1     -11.086   8.485  70.596  1.00  0.00    -0.251 NA 
HETATM    2  H2  UNL     1     -10.289   8.291  71.203  1.00  0.00     0.000 HD 
HETATM    3  C   UNL     1     -10.946   9.742  70.041  1.00  0.00    -0.277 A  
HETATM    4  H1  UNL     1     -11.951   8.291  71.101  1.00  0.00     0.000 HD 
HETATM    5  N   UNL     1      -9.815   9.997  69.380  1.00  0.00    -0.211 NA 
HETATM    6  C   UNL     1      -9.734  11.192  68.763  1.00  0.00    -0.185 A  
HETATM    7  C   UNL     1     -10.748  12.164  68.828  1.00  0.00    -0.219 A  
HETATM    8  N   UNL     1      -8.532  11.352  68.065  1.00  0.00    -0.139 NA 
HETATM    9  N   UNL     1     -11.926  10.645  70.189  1.00  0.00    -0.308 NA 
HETATM   10  H1  UNL     1      -8.470  12.257  67.597  1.00  0.00     0.000 HD 
HETATM   11  N   UNL     1     -11.815  11.874  69.596  1.00  0.00    -0.328 NA 
HETATM   12  H2  UNL     1      -8.385  10.587  67.406  1.00  0.00     0.000 HD 
ENDROOT
BRANCH   7  13
HETATM   13  C   UNL     1     -10.765  13.474  68.115  1.00  0.00    -0.265 A  
HETATM   14  C   UNL     1     -11.113  13.631  66.742  1.00  0.00    -0.307 A  
HETATM   15  C   UNL     1     -11.067  14.903  66.127  1.00  0.00    -0.335 A  
HETATM   16 CL   UNL     1     -11.553  12.269  65.747  1.00  0.00    -0.428 Cl 
HETATM   17 CL   UNL     1     -11.505  15.165  64.469  1.00  0.00    -0.354 Cl 
HETATM   18  C   UNL     1     -10.650  16.027  66.838  1.00  0.00    -0.300 A  
HETATM   19  C   UNL     1     -10.319  15.905  68.179  1.00  0.00    -0.256 A  
HETATM   20  C   UNL     1     -10.402  14.657  68.806  1.00  0.00    -0.248 A  
ENDBRANCH   7  13
TORSDOF 1
ENDMDL
MODEL      118
REMARK 921   NORMALIZED FREE ENERGY PREDICTED BY IDOCK:   -4.16 KCAL/MOL
REMARK 922        TOTAL FREE ENERGY PREDICTED BY IDOCK:   -4.68 KCAL/MOL
REMARK 923 INTER-LIGAND FREE ENERGY PREDICTED BY IDOCK:   -4.38 KCAL/MOL
REMARK 924 INTRA-LIGAND FREE ENERGY PREDICTED BY IDOCK:   -0.30 KCAL/MOL
REMARK 927      BINDING AFFINITY PREDICTED BY RF-SCORE:    0.00 PKD
ROOT
HETATM    1  N   UNL     1     -12.084  14.225  66.573  1.00  0.00    -0.441 NA 
HETATM    2  H2  UNL     1     -11.485  14.533  65.807  1.00  0.00     0.000 HD 
HETATM    3  C   UNL     1     -11.488  13.162  67.224  1.00  0.00    -0.331 A  
HETATM    4  H1  UNL     1     -13.034  14.088  66.226  1.00  0.00     0.000 HD 
HETATM    5  N   UNL     1     -10.247  13.341  67.678  1.00  0.00    -0.225 NA 
HETATM    6  C   UNL     1      -9.716  12.331  68.394  1.00  0.00    -0.191 A  
HETATM    7  C   UNL     1     -10.386  11.118  68.631  1.00  0.00    -0.203 A  
HETATM    8  N   UNL     1      -8.430  12.625  68.861  1.00  0.00    -0.341 NA 
HETATM    9  N   UNL     1     -12.161  12.011  67.365  1.00  0.00    -0.520 NA 
HETATM   10  H1  UNL     1      -8.028  11.860  69.403  1.00  0.00     0.000 HD 
HETATM   11  N   UNL     1     -11.595  10.973  68.055  1.00  0.00    -0.522 NA 
HETATM   12  H2  UNL     1      -8.422  13.496  69.393  1.00  0.00     0.000 HD 
ENDROOT
BRANCH   7  13
HETATM   13  C   UNL     1      -9.899   9.985  69.471  1.00  0.00    -0.249 A  
HETATM   14  C   UNL     1      -8.938   9.027  69.036  1.00  0.00    -0.140 A  
HETATM   15  C   UNL     1      -8.556   7.956  69.877  1.00  0.00    -0.139 A  
HETATM   16 CL   UNL     1      -8.235   9.091  67.442  1.00  0.00    -0.108 Cl 
HETATM   17 CL   UNL     1      -7.371   6.774  69.419  1.00  0.00    -0.089 Cl 
HETATM   18  C   UNL     1      -9.132   7.795  71.136  1.00  0.00    -0.152 A  
HETATM   19  C   UNL     1     -10.060   8.721  71.589  1.00  0.00    -0.390 A  
HETATM   20  C   UNL     1     -10.412   9.806  70.779  1.00  0.00    -0.339 A  
ENDBRANCH   7  13
TORSDOF 1
ENDMDL
MODEL      119
REMARK 921   NORMALIZED FREE ENERGY PREDICTED BY IDOCK:   -4.14 KCAL/MOL
REMARK 922        TOTAL FREE ENERGY PREDICTED BY IDOCK:   -4.66 KCAL/MOL
REMARK 923 INTER-LIGAND FREE ENERGY PREDICTED BY IDOCK:   -4.38 KCAL/MOL
REMARK 924 INTRA-LIGAND FREE ENERGY PREDICTED BY IDOCK:   -0.28 KCAL/MOL
REMARK 927      BINDING AFFINITY PREDICTED BY RF-SCORE:    0.00 PKD
ROOT
HETATM    1  N   UNL     1      -7.856   6.351  66.446  1.00  0.00    -0.102 NA 
HETATM    2  H2  UNL     1      -7.046   6.403  67.064  1.00  0.00     0.000 HD 
HETATM    3  C   UNL     1      -8.519   7.563  66.455  1.00  0.00    -0.131 A  
HETATM    4  H1  UNL     1      -8.400   5.518  66.670  1.00  0.00     0.000 HD 
HETATM    5  N   UNL     1      -7.807   8.652  66.162  1.00  0.00    -0.096 NA 
HETATM    6  C   UNL     1      -8.487   9.813  66.080  1.00  0.00    -0.124 A  
HETATM    7  C   UNL     1      -9.867   9.917  66.331  1.00  0.00    -0.227 A  
HETATM    8  N   UNL     1      -7.666  10.890  65.729  1.00  0.00    -0.325 NA 
HETATM    9  N   UNL     1      -9.824   7.601  66.761  1.00  0.00    -0.225 NA 
HETATM   10  H1  UNL     1      -8.181  11.768  65.667  1.00  0.00     0.000 HD 
HETATM   11  N   UNL     1     -10.497   8.793  66.720  1.00  0.00    -0.255 NA 
HETATM   12  H2  UNL     1      -7.160  10.699  64.864  1.00  0.00     0.000 HD 
ENDROOT
BRANCH   7  13
HETATM   13  C   UNL     1     -10.702  11.145  66.191  1.00  0.00    -0.285 A  
HETATM   14  C   UNL     1     -11.073  11.719  64.940  1.00  0.00    -0.285 A  
HETATM   15  C   UNL     1     -11.834  12.909  64.889  1.00  0.00    -0.366 A  
HETATM   16 CL   UNL     1     -10.563  11.022  63.425  1.00  0.00    -0.348 Cl 
HETATM   17 CL   UNL     1     -12.341  13.641  63.401  1.00  0.00    -0.359 Cl 
HETATM   18  C   UNL     1     -12.213  13.566  66.059  1.00  0.00    -0.493 A  
HETATM   19  C   UNL     1     -11.877  13.022  67.290  1.00  0.00    -0.419 A  
HETATM   20  C   UNL     1     -11.160  11.822  67.348  1.00  0.00    -0.338 A  
ENDBRANCH   7  13
TORSDOF 1
ENDMDL
MODEL      120
REMARK 921   NORMALIZED FREE ENERGY PREDICTED BY IDOCK:   -4.13 KCAL/MOL
REMARK 922        TOTAL FREE ENERGY PREDICTED BY IDOCK:   -4.65 KCAL/MOL
REMARK 923 INTER-LIGAND FREE ENERGY PREDICTED BY IDOCK:   -4.35 KCAL/MOL
REMARK 924 INTRA-LIGAND FREE ENERGY PREDICTED BY IDOCK:   -0.30 KCAL/MOL
REMARK 927      BINDING AFFINITY PREDICTED BY RF-SCORE:    0.00 PKD
ROOT
HETATM    1  N   UNL     1      -7.364   7.477  66.709  1.00  0.00    -0.090 NA 
HETATM    2  H2  UNL     1      -6.753   6.865  67.251  1.00  0.00     0.000 HD 
HETATM    3  C   UNL     1      -8.260   8.099  67.557  1.00  0.00    -0.123 A  
HETATM    4  H1  UNL     1      -7.750   6.958  65.920  1.00  0.00     0.000 HD 
HETATM    5  N   UNL     1      -7.755   8.778  68.589  1.00  0.00    -0.097 NA 
HETATM    6  C   UNL     1      -8.634   9.459  69.350  1.00  0.00    -0.148 A  
HETATM    7  C   UNL     1     -10.022   9.441  69.128  1.00  0.00    -0.182 A  
HETATM    8  N   UNL     1      -8.010  10.170  70.381  1.00  0.00    -0.429 NA 
HETATM    9  N   UNL     1      -9.575   7.994  67.323  1.00  0.00    -0.153 NA 
HETATM   10  H1  UNL     1      -8.676  10.686  70.957  1.00  0.00     0.000 HD 
HETATM   11  N   UNL     1     -10.465   8.652  68.130  1.00  0.00    -0.211 NA 
HETATM   12  H2  UNL     1      -7.286  10.788  70.014  1.00  0.00     0.000 HD 
ENDROOT
BRANCH   7  13
HETATM   13  C   UNL     1     -11.050  10.222  69.876  1.00  0.00    -0.362 A  
HETATM   14  C   UNL     1     -11.301  11.610  69.672  1.00  0.00    -0.236 A  
HETATM   15  C   UNL     1     -12.265  12.290  70.451  1.00  0.00    -0.288 A  
HETATM   16 CL   UNL     1     -10.402  12.543  68.505  1.00  0.00    -0.239 Cl 
HETATM   17 CL   UNL     1     -12.638  13.970  70.233  1.00  0.00    -0.387 Cl 
HETATM   18  C   UNL     1     -12.969  11.629  71.456  1.00  0.00    -0.463 A  
HETATM   19  C   UNL     1     -12.754  10.275  71.667  1.00  0.00    -0.561 A  
HETATM   20  C   UNL     1     -11.831   9.585  70.872  1.00  0.00    -0.385 A  
ENDBRANCH   7  13
TORSDOF 1
ENDMDL
MODEL      121
REMARK 921   NORMALIZED FREE ENERGY PREDICTED BY IDOCK:   -4.13 KCAL/MOL
REMARK 922        TOTAL FREE ENERGY PREDICTED BY IDOCK:   -4.65 KCAL/MOL
REMARK 923 INTER-LIGAND FREE ENERGY PREDICTED BY IDOCK:   -4.40 KCAL/MOL
REMARK 924 INTRA-LIGAND FREE ENERGY PREDICTED BY IDOCK:   -0.25 KCAL/MOL
REMARK 927      BINDING AFFINITY PREDICTED BY RF-SCORE:    0.00 PKD
ROOT
HETATM    1  N   UNL     1     -10.915  12.428  63.218  1.00  0.00    -0.658 NA 
HETATM    2  H2  UNL     1     -10.673  13.379  63.499  1.00  0.00     0.000 HD 
HETATM    3  C   UNL     1     -10.648  11.559  64.258  1.00  0.00    -0.347 A  
HETATM    4  H1  UNL     1     -10.486  12.223  62.315  1.00  0.00     0.000 HD 
HETATM    5  N   UNL     1     -11.209  11.827  65.438  1.00  0.00    -0.285 NA 
HETATM    6  C   UNL     1     -11.019  10.920  66.416  1.00  0.00    -0.088 A  
HETATM    7  C   UNL     1     -10.237   9.763  66.253  1.00  0.00    -0.212 A  
HETATM    8  N   UNL     1     -11.676  11.267  67.602  1.00  0.00    -0.605 NA 
HETATM    9  N   UNL     1      -9.845  10.506  64.052  1.00  0.00    -0.322 NA 
HETATM   10  H1  UNL     1     -11.532  10.579  68.342  1.00  0.00     0.000 HD 
HETATM   11  N   UNL     1      -9.621   9.613  65.065  1.00  0.00    -0.266 NA 
HETATM   12  H2  UNL     1     -12.670  11.426  67.438  1.00  0.00     0.000 HD 
ENDROOT
BRANCH   7  13
HETATM   13  C   UNL     1     -10.038   8.678  67.258  1.00  0.00    -0.310 A  
HETATM   14  C   UNL     1      -9.276   8.829  68.452  1.00  0.00    -0.137 A  
HETATM   15  C   UNL     1      -9.100   7.741  69.337  1.00  0.00    -0.146 A  
HETATM   16 CL   UNL     1      -8.483  10.330  68.852  1.00  0.00    -0.129 Cl 
HETATM   17 CL   UNL     1      -8.209   7.866  70.821  1.00  0.00    -0.108 Cl 
HETATM   18  C   UNL     1      -9.639   6.488  69.047  1.00  0.00    -0.135 A  
HETATM   19  C   UNL     1     -10.396   6.318  67.898  1.00  0.00    -0.239 A  
HETATM   20  C   UNL     1     -10.610   7.401  67.038  1.00  0.00    -0.414 A  
ENDBRANCH   7  13
TORSDOF 1
ENDMDL
MODEL      122
REMARK 921   NORMALIZED FREE ENERGY PREDICTED BY IDOCK:   -4.12 KCAL/MOL
REMARK 922        TOTAL FREE ENERGY PREDICTED BY IDOCK:   -4.63 KCAL/MOL
REMARK 923 INTER-LIGAND FREE ENERGY PREDICTED BY IDOCK:   -4.34 KCAL/MOL
REMARK 924 INTRA-LIGAND FREE ENERGY PREDICTED BY IDOCK:   -0.29 KCAL/MOL
REMARK 927      BINDING AFFINITY PREDICTED BY RF-SCORE:    0.00 PKD
ROOT
HETATM    1  N   UNL     1      -6.638   9.671  67.900  1.00  0.00    -0.061 NA 
HETATM    2  H2  UNL     1      -6.017   8.873  68.034  1.00  0.00     0.000 HD 
HETATM    3  C   UNL     1      -7.798   9.477  68.624  1.00  0.00    -0.084 A  
HETATM    4  H1  UNL     1      -6.736   9.860  66.902  1.00  0.00     0.000 HD 
HETATM    5  N   UNL     1      -7.671   9.231  69.929  1.00  0.00    -0.088 NA 
HETATM    6  C   UNL     1      -8.812   9.140  70.639  1.00  0.00    -0.232 A  
HETATM    7  C   UNL     1     -10.090   9.248  70.063  1.00  0.00    -0.212 A  
HETATM    8  N   UNL     1      -8.578   8.920  72.001  1.00  0.00    -0.375 NA 
HETATM    9  N   UNL     1      -8.985   9.534  68.002  1.00  0.00    -0.124 NA 
HETATM   10  H1  UNL     1      -9.442   8.852  72.539  1.00  0.00     0.000 HD 
HETATM   11  N   UNL     1     -10.139   9.396  68.725  1.00  0.00    -0.186 NA 
HETATM   12  H2  UNL     1      -7.960   9.634  72.388  1.00  0.00     0.000 HD 
ENDROOT
BRANCH   7  13
HETATM   13  C   UNL     1     -11.394   9.233  70.788  1.00  0.00    -0.349 A  
HETATM   14  C   UNL     1     -12.175   8.060  70.998  1.00  0.00    -0.185 A  
HETATM   15  C   UNL     1     -13.422   8.132  71.661  1.00  0.00    -0.332 A  
HETATM   16 CL   UNL     1     -11.667   6.500  70.406  1.00  0.00    -0.466 Cl 
HETATM   17 CL   UNL     1     -14.407   6.739  71.974  1.00  0.00    -0.339 Cl 
HETATM   18  C   UNL     1     -13.931   9.356  72.095  1.00  0.00    -0.359 A  
HETATM   19  C   UNL     1     -13.185  10.511  71.915  1.00  0.00    -0.526 A  
HETATM   20  C   UNL     1     -11.931  10.440  71.298  1.00  0.00    -0.425 A  
ENDBRANCH   7  13
TORSDOF 1
ENDMDL
MODEL      123
REMARK 921   NORMALIZED FREE ENERGY PREDICTED BY IDOCK:   -4.11 KCAL/MOL
REMARK 922        TOTAL FREE ENERGY PREDICTED BY IDOCK:   -4.63 KCAL/MOL
REMARK 923 INTER-LIGAND FREE ENERGY PREDICTED BY IDOCK:   -4.39 KCAL/MOL
REMARK 924 INTRA-LIGAND FREE ENERGY PREDICTED BY IDOCK:   -0.24 KCAL/MOL
REMARK 927      BINDING AFFINITY PREDICTED BY RF-SCORE:    0.00 PKD
ROOT
HETATM    1  N   UNL     1      -6.887   7.645  68.576  1.00  0.00    -0.064 NA 
HETATM    2  H2  UNL     1      -6.314   8.130  69.267  1.00  0.00     0.000 HD 
HETATM    3  C   UNL     1      -7.666   8.564  67.899  1.00  0.00    -0.103 A  
HETATM    4  H1  UNL     1      -7.367   6.864  69.022  1.00  0.00     0.000 HD 
HETATM    5  N   UNL     1      -7.038   9.586  67.316  1.00  0.00    -0.085 NA 
HETATM    6  C   UNL     1      -7.799  10.419  66.579  1.00  0.00    -0.124 A  
HETATM    7  C   UNL     1      -9.192  10.278  66.447  1.00  0.00    -0.158 A  
HETATM    8  N   UNL     1      -7.049  11.435  65.975  1.00  0.00    -0.367 NA 
HETATM    9  N   UNL     1      -8.996   8.404  67.861  1.00  0.00    -0.137 NA 
HETATM   10  H1  UNL     1      -7.626  12.065  65.417  1.00  0.00     0.000 HD 
HETATM   11  N   UNL     1      -9.767   9.281  67.147  1.00  0.00    -0.161 NA 
HETATM   12  H2  UNL     1      -6.286  11.047  65.420  1.00  0.00     0.000 HD 
ENDROOT
BRANCH   7  13
HETATM   13  C   UNL     1     -10.090  11.110  65.595  1.00  0.00    -0.304 A  
HETATM   14  C   UNL     1     -10.977  12.103  66.105  1.00  0.00    -0.298 A  
HETATM   15  C   UNL     1     -11.828  12.823  65.236  1.00  0.00    -0.403 A  
HETATM   16 CL   UNL     1     -11.097  12.436  67.812  1.00  0.00    -0.271 Cl 
HETATM   17 CL   UNL     1     -12.908  14.064  65.788  1.00  0.00    -0.509 Cl 
HETATM   18  C   UNL     1     -11.844  12.558  63.868  1.00  0.00    -0.544 A  
HETATM   19  C   UNL     1     -10.982  11.606  63.344  1.00  0.00    -0.442 A  
HETATM   20  C   UNL     1     -10.107  10.919  64.192  1.00  0.00    -0.416 A  
ENDBRANCH   7  13
TORSDOF 1
ENDMDL
MODEL      124
REMARK 921   NORMALIZED FREE ENERGY PREDICTED BY IDOCK:   -4.08 KCAL/MOL
REMARK 922        TOTAL FREE ENERGY PREDICTED BY IDOCK:   -4.60 KCAL/MOL
REMARK 923 INTER-LIGAND FREE ENERGY PREDICTED BY IDOCK:   -4.30 KCAL/MOL
REMARK 924 INTRA-LIGAND FREE ENERGY PREDICTED BY IDOCK:   -0.30 KCAL/MOL
REMARK 927      BINDING AFFINITY PREDICTED BY RF-SCORE:    0.00 PKD
ROOT
HETATM    1  N   UNL     1      -7.719   4.873  68.834  1.00  0.00    -0.072 NA 
HETATM    2  H2  UNL     1      -7.857   4.029  68.276  1.00  0.00     0.000 HD 
HETATM    3  C   UNL     1      -8.248   5.958  68.163  1.00  0.00    -0.109 A  
HETATM    4  H1  UNL     1      -6.742   4.932  69.122  1.00  0.00     0.000 HD 
HETATM    5  N   UNL     1      -9.525   5.881  67.786  1.00  0.00    -0.113 NA 
HETATM    6  C   UNL     1     -10.054   6.984  67.220  1.00  0.00    -0.204 A  
HETATM    7  C   UNL     1      -9.316   8.156  66.979  1.00  0.00    -0.155 A  
HETATM    8  N   UNL     1     -11.405   6.822  66.895  1.00  0.00    -0.792 NA 
HETATM    9  N   UNL     1      -7.473   7.023  67.912  1.00  0.00    -0.097 NA 
HETATM   10  H1  UNL     1     -11.805   7.657  66.466  1.00  0.00     0.000 HD 
HETATM   11  N   UNL     1      -8.007   8.123  67.295  1.00  0.00    -0.112 NA 
HETATM   12  H2  UNL     1     -11.946   6.532  67.710  1.00  0.00     0.000 HD 
ENDROOT
BRANCH   7  13
HETATM   13  C   UNL     1      -9.844   9.438  66.427  1.00  0.00    -0.337 A  
HETATM   14  C   UNL     1     -10.577  10.393  67.190  1.00  0.00    -0.261 A  
HETATM   15  C   UNL     1     -11.080  11.567  66.585  1.00  0.00    -0.295 A  
HETATM   16 CL   UNL     1     -10.936  10.138  68.877  1.00  0.00    -0.257 Cl 
HETATM   17 CL   UNL     1     -11.954  12.781  67.463  1.00  0.00    -0.398 Cl 
HETATM   18  C   UNL     1     -10.900  11.803  65.222  1.00  0.00    -0.343 A  
HETATM   19  C   UNL     1     -10.179  10.896  64.459  1.00  0.00    -0.422 A  
HETATM   20  C   UNL     1      -9.642   9.753  65.061  1.00  0.00    -0.333 A  
ENDBRANCH   7  13
TORSDOF 1
ENDMDL
MODEL      125
REMARK 921   NORMALIZED FREE ENERGY PREDICTED BY IDOCK:   -4.08 KCAL/MOL
REMARK 922        TOTAL FREE ENERGY PREDICTED BY IDOCK:   -4.60 KCAL/MOL
REMARK 923 INTER-LIGAND FREE ENERGY PREDICTED BY IDOCK:   -4.34 KCAL/MOL
REMARK 924 INTRA-LIGAND FREE ENERGY PREDICTED BY IDOCK:   -0.26 KCAL/MOL
REMARK 927      BINDING AFFINITY PREDICTED BY RF-SCORE:    0.00 PKD
ROOT
HETATM    1  N   UNL     1      -7.704   4.550  68.465  1.00  0.00    -0.075 NA 
HETATM    2  H2  UNL     1      -7.367   3.806  69.075  1.00  0.00     0.000 HD 
HETATM    3  C   UNL     1      -8.735   5.225  69.091  1.00  0.00    -0.100 A  
HETATM    4  H1  UNL     1      -7.890   4.169  67.537  1.00  0.00     0.000 HD 
HETATM    5  N   UNL     1      -8.492   5.723  70.304  1.00  0.00    -0.126 NA 
HETATM    6  C   UNL     1      -9.473   6.460  70.860  1.00  0.00    -0.175 A  
HETATM    7  C   UNL     1     -10.719   6.676  70.245  1.00  0.00    -0.246 A  
HETATM    8  N   UNL     1      -9.113   6.973  72.111  1.00  0.00    -0.131 NA 
HETATM    9  N   UNL     1      -9.919   5.344  68.474  1.00  0.00    -0.153 NA 
HETATM   10  H1  UNL     1      -9.856   7.531  72.532  1.00  0.00     0.000 HD 
HETATM   11  N   UNL     1     -10.927   6.057  69.067  1.00  0.00    -0.344 NA 
HETATM   12  H2  UNL     1      -8.243   7.502  72.055  1.00  0.00     0.000 HD 
ENDROOT
BRANCH   7  13
HETATM   13  C   UNL     1     -11.825   7.536  70.759  1.00  0.00    -0.254 A  
HETATM   14  C   UNL     1     -11.771   8.959  70.809  1.00  0.00    -0.230 A  
HETATM   15  C   UNL     1     -12.844   9.703  71.348  1.00  0.00    -0.379 A  
HETATM   16 CL   UNL     1     -10.369   9.843  70.265  1.00  0.00    -0.334 Cl 
HETATM   17 CL   UNL     1     -12.853  11.437  71.411  1.00  0.00    -0.525 Cl 
HETATM   18  C   UNL     1     -13.966   9.063  71.873  1.00  0.00    -0.445 A  
HETATM   19  C   UNL     1     -14.050   7.679  71.825  1.00  0.00    -0.510 A  
HETATM   20  C   UNL     1     -13.010   6.938  71.255  1.00  0.00    -0.309 A  
ENDBRANCH   7  13
TORSDOF 1
ENDMDL
MODEL      126
REMARK 921   NORMALIZED FREE ENERGY PREDICTED BY IDOCK:   -4.06 KCAL/MOL
REMARK 922        TOTAL FREE ENERGY PREDICTED BY IDOCK:   -4.57 KCAL/MOL
REMARK 923 INTER-LIGAND FREE ENERGY PREDICTED BY IDOCK:   -5.39 KCAL/MOL
REMARK 924 INTRA-LIGAND FREE ENERGY PREDICTED BY IDOCK:    0.82 KCAL/MOL
REMARK 927      BINDING AFFINITY PREDICTED BY RF-SCORE:    0.00 PKD
ROOT
HETATM    1  N   UNL     1     -10.471  18.764  65.519  1.00  0.00    -0.523 NA 
HETATM    2  H2  UNL     1      -9.682  19.281  65.907  1.00  0.00     0.000 HD 
HETATM    3  C   UNL     1     -10.532  17.514  66.104  1.00  0.00    -0.288 A  
HETATM    4  H1  UNL     1     -10.432  18.802  64.500  1.00  0.00     0.000 HD 
HETATM    5  N   UNL     1     -10.583  17.464  67.436  1.00  0.00    -0.337 NA 
HETATM    6  C   UNL     1     -10.741  16.244  67.988  1.00  0.00    -0.331 A  
HETATM    7  C   UNL     1     -10.805  15.059  67.234  1.00  0.00    -0.310 A  
HETATM    8  N   UNL     1     -10.823  16.296  69.383  1.00  0.00    -0.309 NA 
HETATM    9  N   UNL     1     -10.530  16.419  65.330  1.00  0.00    -0.627 NA 
HETATM   10  H1  UNL     1     -10.943  15.373  69.801  1.00  0.00     0.000 HD 
HETATM   11  N   UNL     1     -10.645  15.181  65.902  1.00  0.00    -0.320 NA 
HETATM   12  H2  UNL     1     -11.561  16.934  69.684  1.00  0.00     0.000 HD 
ENDROOT
BRANCH   7  13
HETATM   13  C   UNL     1     -11.051  13.686  67.761  1.00  0.00    -0.293 A  
HETATM   14  C   UNL     1     -10.666  12.492  67.085  1.00  0.00    -0.237 A  
HETATM   15  C   UNL     1     -10.970  11.224  67.631  1.00  0.00    -0.259 A  
HETATM   16 CL   UNL     1      -9.860  12.532  65.539  1.00  0.00    -0.233 Cl 
HETATM   17 CL   UNL     1     -10.505   9.734  66.873  1.00  0.00    -0.297 Cl 
HETATM   18  C   UNL     1     -11.681  11.111  68.825  1.00  0.00    -0.394 A  
HETATM   19  C   UNL     1     -12.055  12.257  69.510  1.00  0.00    -0.260 A  
HETATM   20  C   UNL     1     -11.721  13.515  68.997  1.00  0.00    -0.370 A  
ENDBRANCH   7  13
TORSDOF 1
ENDMDL
MODEL      127
REMARK 921   NORMALIZED FREE ENERGY PREDICTED BY IDOCK:   -4.01 KCAL/MOL
REMARK 922        TOTAL FREE ENERGY PREDICTED BY IDOCK:   -4.53 KCAL/MOL
REMARK 923 INTER-LIGAND FREE ENERGY PREDICTED BY IDOCK:   -4.36 KCAL/MOL
REMARK 924 INTRA-LIGAND FREE ENERGY PREDICTED BY IDOCK:   -0.17 KCAL/MOL
REMARK 927      BINDING AFFINITY PREDICTED BY RF-SCORE:    0.00 PKD
ROOT
HETATM    1  N   UNL     1     -11.069  15.080  64.243  1.00  0.00    -0.621 NA 
HETATM    2  H2  UNL     1     -12.059  15.040  64.000  1.00  0.00     0.000 HD 
HETATM    3  C   UNL     1     -10.606  13.804  64.500  1.00  0.00    -0.386 A  
HETATM    4  H1  UNL     1     -10.927  15.784  64.969  1.00  0.00     0.000 HD 
HETATM    5  N   UNL     1     -10.791  12.884  63.553  1.00  0.00    -0.253 NA 
HETATM    6  C   UNL     1     -10.250  11.671  63.776  1.00  0.00    -0.389 A  
HETATM    7  C   UNL     1      -9.560  11.340  64.956  1.00  0.00    -0.233 A  
HETATM    8  N   UNL     1     -10.462  10.786  62.713  1.00  0.00    -0.741 NA 
HETATM    9  N   UNL     1     -10.009  13.539  65.671  1.00  0.00    -0.268 NA 
HETATM   10  H1  UNL     1     -10.051   9.868  62.882  1.00  0.00     0.000 HD 
HETATM   11  N   UNL     1      -9.501  12.290  65.909  1.00  0.00    -0.200 NA 
HETATM   12  H2  UNL     1     -10.126  11.182  61.834  1.00  0.00     0.000 HD 
ENDROOT
BRANCH   7  13
HETATM   13  C   UNL     1      -8.871  10.049  65.248  1.00  0.00    -0.205 A  
HETATM   14  C   UNL     1      -9.306   9.120  66.237  1.00  0.00    -0.216 A  
HETATM   15  C   UNL     1      -8.576   7.935  66.484  1.00  0.00    -0.142 A  
HETATM   16 CL   UNL     1     -10.711   9.422  67.225  1.00  0.00    -0.314 Cl 
HETATM   17 CL   UNL     1      -9.066   6.751  67.653  1.00  0.00    -0.118 Cl 
HETATM   18  C   UNL     1      -7.399   7.662  65.788  1.00  0.00    -0.070 A  
HETATM   19  C   UNL     1      -6.961   8.542  64.810  1.00  0.00    -0.073 A  
HETATM   20  C   UNL     1      -7.701   9.697  64.532  1.00  0.00    -0.131 A  
ENDBRANCH   7  13
TORSDOF 1
ENDMDL
MODEL      128
REMARK 921   NORMALIZED FREE ENERGY PREDICTED BY IDOCK:   -4.00 KCAL/MOL
REMARK 922        TOTAL FREE ENERGY PREDICTED BY IDOCK:   -4.51 KCAL/MOL
REMARK 923 INTER-LIGAND FREE ENERGY PREDICTED BY IDOCK:   -4.36 KCAL/MOL
REMARK 924 INTRA-LIGAND FREE ENERGY PREDICTED BY IDOCK:   -0.15 KCAL/MOL
REMARK 927      BINDING AFFINITY PREDICTED BY RF-SCORE:    0.00 PKD
ROOT
HETATM    1  N   UNL     1     -12.481  16.215  71.942  1.00  0.00    -0.558 NA 
HETATM    2  H2  UNL     1     -12.969  17.037  71.587  1.00  0.00     0.000 HD 
HETATM    3  C   UNL     1     -12.034  15.452  70.880  1.00  0.00    -0.359 A  
HETATM    4  H1  UNL     1     -13.063  15.751  72.639  1.00  0.00     0.000 HD 
HETATM    5  N   UNL     1     -11.273  16.059  69.968  1.00  0.00    -0.340 NA 
HETATM    6  C   UNL     1     -10.766  15.281  68.992  1.00  0.00    -0.244 A  
HETATM    7  C   UNL     1     -11.041  13.907  68.880  1.00  0.00    -0.266 A  
HETATM    8  N   UNL     1      -9.951  15.996  68.108  1.00  0.00    -0.225 NA 
HETATM    9  N   UNL     1     -12.382  14.160  70.800  1.00  0.00    -0.346 NA 
HETATM   10  H1  UNL     1      -9.566  15.407  67.369  1.00  0.00     0.000 HD 
HETATM   11  N   UNL     1     -11.898  13.387  69.779  1.00  0.00    -0.320 NA 
HETATM   12  H2  UNL     1      -9.209  16.488  68.608  1.00  0.00     0.000 HD 
ENDROOT
BRANCH   7  13
HETATM   13  C   UNL     1     -10.463  12.966  67.877  1.00  0.00    -0.231 A  
HETATM   14  C   UNL     1      -9.076  12.651  67.786  1.00  0.00    -0.192 A  
HETATM   15  C   UNL     1      -8.598  11.780  66.780  1.00  0.00    -0.185 A  
HETATM   16 CL   UNL     1      -7.902  13.361  68.862  1.00  0.00     0.005 Cl 
HETATM   17 CL   UNL     1      -6.928  11.334  66.633  1.00  0.00    -0.142 Cl 
HETATM   18  C   UNL     1      -9.466  11.235  65.835  1.00  0.00    -0.247 A  
HETATM   19  C   UNL     1     -10.823  11.514  65.909  1.00  0.00    -0.316 A  
HETATM   20  C   UNL     1     -11.308  12.342  66.927  1.00  0.00    -0.392 A  
ENDBRANCH   7  13
TORSDOF 1
ENDMDL
MODEL      129
REMARK 921   NORMALIZED FREE ENERGY PREDICTED BY IDOCK:   -3.99 KCAL/MOL
REMARK 922        TOTAL FREE ENERGY PREDICTED BY IDOCK:   -4.50 KCAL/MOL
REMARK 923 INTER-LIGAND FREE ENERGY PREDICTED BY IDOCK:   -4.25 KCAL/MOL
REMARK 924 INTRA-LIGAND FREE ENERGY PREDICTED BY IDOCK:   -0.26 KCAL/MOL
REMARK 927      BINDING AFFINITY PREDICTED BY RF-SCORE:    0.00 PKD
ROOT
HETATM    1  N   UNL     1      -7.285   6.645  64.977  1.00  0.00    -0.070 NA 
HETATM    2  H2  UNL     1      -7.737   6.588  64.064  1.00  0.00     0.000 HD 
HETATM    3  C   UNL     1      -8.134   7.265  65.872  1.00  0.00    -0.125 A  
HETATM    4  H1  UNL     1      -6.351   7.041  64.867  1.00  0.00     0.000 HD 
HETATM    5  N   UNL     1      -9.355   6.748  66.016  1.00  0.00    -0.054 NA 
HETATM    6  C   UNL     1     -10.138   7.304  66.962  1.00  0.00    -0.246 A  
HETATM    7  C   UNL     1      -9.740   8.402  67.744  1.00  0.00    -0.162 A  
HETATM    8  N   UNL     1     -11.381   6.671  67.067  1.00  0.00    -0.795 NA 
HETATM    9  N   UNL     1      -7.713   8.346  66.544  1.00  0.00    -0.088 NA 
HETATM   10  H1  UNL     1     -11.973   7.092  67.783  1.00  0.00     0.000 HD 
HETATM   11  N   UNL     1      -8.532   8.933  67.472  1.00  0.00    -0.116 NA 
HETATM   12  H2  UNL     1     -11.271   5.669  67.223  1.00  0.00     0.000 HD 
ENDROOT
BRANCH   7  13
HETATM   13  C   UNL     1     -10.515   9.025  68.857  1.00  0.00    -0.231 A  
HETATM   14  C   UNL     1     -10.746   8.398  70.115  1.00  0.00    -0.236 A  
HETATM   15  C   UNL     1     -11.526   9.037  71.107  1.00  0.00    -0.308 A  
HETATM   16 CL   UNL     1     -10.134   6.805  70.473  1.00  0.00    -0.197 Cl 
HETATM   17 CL   UNL     1     -11.821   8.342  72.668  1.00  0.00    -0.444 Cl 
HETATM   18  C   UNL     1     -12.113  10.278  70.865  1.00  0.00    -0.468 A  
HETATM   19  C   UNL     1     -11.893  10.916  69.653  1.00  0.00    -0.416 A  
HETATM   20  C   UNL     1     -11.088  10.309  68.684  1.00  0.00    -0.290 A  
ENDBRANCH   7  13
TORSDOF 1
ENDMDL
MODEL      130
REMARK 921   NORMALIZED FREE ENERGY PREDICTED BY IDOCK:   -3.97 KCAL/MOL
REMARK 922        TOTAL FREE ENERGY PREDICTED BY IDOCK:   -4.48 KCAL/MOL
REMARK 923 INTER-LIGAND FREE ENERGY PREDICTED BY IDOCK:   -4.29 KCAL/MOL
REMARK 924 INTRA-LIGAND FREE ENERGY PREDICTED BY IDOCK:   -0.19 KCAL/MOL
REMARK 927      BINDING AFFINITY PREDICTED BY RF-SCORE:    0.00 PKD
ROOT
HETATM    1  N   UNL     1      -5.971  11.557  69.092  1.00  0.00    -0.052 NA 
HETATM    2  H2  UNL     1      -6.155  12.558  69.022  1.00  0.00     0.000 HD 
HETATM    3  C   UNL     1      -7.120  10.906  69.497  1.00  0.00    -0.123 A  
HETATM    4  H1  UNL     1      -5.127  11.407  69.645  1.00  0.00     0.000 HD 
HETATM    5  N   UNL     1      -8.223  11.103  68.774  1.00  0.00    -0.147 NA 
HETATM    6  C   UNL     1      -9.309  10.387  69.124  1.00  0.00    -0.199 A  
HETATM    7  C   UNL     1      -9.331   9.503  70.217  1.00  0.00    -0.259 A  
HETATM    8  N   UNL     1     -10.403  10.630  68.285  1.00  0.00    -0.169 NA 
HETATM    9  N   UNL     1      -7.088  10.123  70.585  1.00  0.00    -0.321 NA 
HETATM   10  H1  UNL     1     -11.225  10.088  68.550  1.00  0.00     0.000 HD 
HETATM   11  N   UNL     1      -8.210   9.434  70.960  1.00  0.00    -0.308 NA 
HETATM   12  H2  UNL     1     -10.158  10.473  67.307  1.00  0.00     0.000 HD 
ENDROOT
BRANCH   7  13
HETATM   13  C   UNL     1     -10.465   8.623  70.623  1.00  0.00    -0.243 A  
HETATM   14  C   UNL     1     -11.707   9.106  71.127  1.00  0.00    -0.313 A  
HETATM   15  C   UNL     1     -12.721   8.207  71.529  1.00  0.00    -0.308 A  
HETATM   16 CL   UNL     1     -12.017  10.811  71.324  1.00  0.00    -0.359 Cl 
HETATM   17 CL   UNL     1     -14.265   8.730  72.123  1.00  0.00    -0.507 Cl 
HETATM   18  C   UNL     1     -12.518   6.829  71.474  1.00  0.00    -0.390 A  
HETATM   19  C   UNL     1     -11.323   6.332  70.975  1.00  0.00    -0.378 A  
HETATM   20  C   UNL     1     -10.332   7.216  70.535  1.00  0.00    -0.215 A  
ENDBRANCH   7  13
TORSDOF 1
ENDMDL
MODEL      131
REMARK 921   NORMALIZED FREE ENERGY PREDICTED BY IDOCK:   -3.89 KCAL/MOL
REMARK 922        TOTAL FREE ENERGY PREDICTED BY IDOCK:   -4.40 KCAL/MOL
REMARK 923 INTER-LIGAND FREE ENERGY PREDICTED BY IDOCK:   -4.13 KCAL/MOL
REMARK 924 INTRA-LIGAND FREE ENERGY PREDICTED BY IDOCK:   -0.27 KCAL/MOL
REMARK 927      BINDING AFFINITY PREDICTED BY RF-SCORE:    0.00 PKD
ROOT
HETATM    1  N   UNL     1      -8.384  14.106  67.029  1.00  0.00    -0.364 NA 
HETATM    2  H2  UNL     1      -8.772  14.879  67.571  1.00  0.00     0.000 HD 
HETATM    3  C   UNL     1      -8.856  12.910  67.533  1.00  0.00    -0.192 A  
HETATM    4  H1  UNL     1      -7.372  14.218  66.959  1.00  0.00     0.000 HD 
HETATM    5  N   UNL     1     -10.178  12.764  67.625  1.00  0.00    -0.216 NA 
HETATM    6  C   UNL     1     -10.625  11.557  68.026  1.00  0.00    -0.190 A  
HETATM    7  C   UNL     1      -9.771  10.498  68.382  1.00  0.00    -0.159 A  
HETATM    8  N   UNL     1     -12.022  11.487  68.055  1.00  0.00    -0.627 NA 
HETATM    9  N   UNL     1      -7.986  11.961  67.911  1.00  0.00    -0.135 NA 
HETATM   10  H1  UNL     1     -12.360  10.573  68.358  1.00  0.00     0.000 HD 
HETATM   11  N   UNL     1      -8.449  10.754  68.360  1.00  0.00    -0.130 NA 
HETATM   12  H2  UNL     1     -12.421  11.745  67.152  1.00  0.00     0.000 HD 
ENDROOT
BRANCH   7  13
HETATM   13  C   UNL     1     -10.185   9.117  68.764  1.00  0.00    -0.228 A  
HETATM   14  C   UNL     1     -10.179   8.007  67.869  1.00  0.00    -0.212 A  
HETATM   15  C   UNL     1     -10.624   6.735  68.294  1.00  0.00    -0.230 A  
HETATM   16 CL   UNL     1      -9.681   8.172  66.206  1.00  0.00    -0.265 Cl 
HETATM   17 CL   UNL     1     -10.615   5.339  67.265  1.00  0.00    -0.240 Cl 
HETATM   18  C   UNL     1     -11.110   6.543  69.587  1.00  0.00    -0.435 A  
HETATM   19  C   UNL     1     -11.115   7.602  70.482  1.00  0.00    -0.267 A  
HETATM   20  C   UNL     1     -10.636   8.854  70.081  1.00  0.00    -0.243 A  
ENDBRANCH   7  13
TORSDOF 1
ENDMDL
MODEL      132
REMARK 921   NORMALIZED FREE ENERGY PREDICTED BY IDOCK:   -3.87 KCAL/MOL
REMARK 922        TOTAL FREE ENERGY PREDICTED BY IDOCK:   -4.38 KCAL/MOL
REMARK 923 INTER-LIGAND FREE ENERGY PREDICTED BY IDOCK:   -4.08 KCAL/MOL
REMARK 924 INTRA-LIGAND FREE ENERGY PREDICTED BY IDOCK:   -0.30 KCAL/MOL
REMARK 927      BINDING AFFINITY PREDICTED BY RF-SCORE:    0.00 PKD
ROOT
HETATM    1  N   UNL     1      -6.977   6.239  68.060  1.00  0.00    -0.077 NA 
HETATM    2  H2  UNL     1      -6.501   5.667  68.758  1.00  0.00     0.000 HD 
HETATM    3  C   UNL     1      -7.939   7.013  68.680  1.00  0.00    -0.120 A  
HETATM    4  H1  UNL     1      -7.280   5.646  67.287  1.00  0.00     0.000 HD 
HETATM    5  N   UNL     1      -7.543   7.788  69.690  1.00  0.00    -0.090 NA 
HETATM    6  C   UNL     1      -8.471   8.608  70.220  1.00  0.00    -0.132 A  
HETATM    7  C   UNL     1      -9.809   8.640  69.788  1.00  0.00    -0.183 A  
HETATM    8  N   UNL     1      -7.955   9.409  71.245  1.00  0.00    -0.301 NA 
HETATM    9  N   UNL     1      -9.210   6.953  68.257  1.00  0.00    -0.125 NA 
HETATM   10  H1  UNL     1      -8.658  10.030  71.646  1.00  0.00     0.000 HD 
HETATM   11  N   UNL     1     -10.157   7.758  68.832  1.00  0.00    -0.190 NA 
HETATM   12  H2  UNL     1      -7.140   9.933  70.926  1.00  0.00     0.000 HD 
ENDROOT
BRANCH   7  13
HETATM   13  C   UNL     1     -10.874   9.567  70.270  1.00  0.00    -0.319 A  
HETATM   14  C   UNL     1     -11.046  10.900  69.797  1.00  0.00    -0.262 A  
HETATM   15  C   UNL     1     -12.055  11.732  70.333  1.00  0.00    -0.352 A  
HETATM   16 CL   UNL     1      -9.995  11.585  68.586  1.00  0.00    -0.217 Cl 
HETATM   17 CL   UNL     1     -12.335  13.352  69.780  1.00  0.00    -0.275 Cl 
HETATM   18  C   UNL     1     -12.884  11.280  71.359  1.00  0.00    -0.515 A  
HETATM   19  C   UNL     1     -12.748   9.982  71.829  1.00  0.00    -0.526 A  
HETATM   20  C   UNL     1     -11.779   9.139  71.274  1.00  0.00    -0.396 A  
ENDBRANCH   7  13
TORSDOF 1
ENDMDL
MODEL      133
REMARK 921   NORMALIZED FREE ENERGY PREDICTED BY IDOCK:   -3.85 KCAL/MOL
REMARK 922        TOTAL FREE ENERGY PREDICTED BY IDOCK:   -4.35 KCAL/MOL
REMARK 923 INTER-LIGAND FREE ENERGY PREDICTED BY IDOCK:   -4.05 KCAL/MOL
REMARK 924 INTRA-LIGAND FREE ENERGY PREDICTED BY IDOCK:   -0.30 KCAL/MOL
REMARK 927      BINDING AFFINITY PREDICTED BY RF-SCORE:    0.00 PKD
ROOT
HETATM    1  N   UNL     1      -7.634  13.006  67.299  1.00  0.00    -0.320 NA 
HETATM    2  H2  UNL     1      -8.096  13.839  67.666  1.00  0.00     0.000 HD 
HETATM    3  C   UNL     1      -8.240  11.878  67.819  1.00  0.00    -0.148 A  
HETATM    4  H1  UNL     1      -6.625  13.096  67.425  1.00  0.00     0.000 HD 
HETATM    5  N   UNL     1      -9.558  11.761  67.654  1.00  0.00    -0.180 NA 
HETATM    6  C   UNL     1     -10.119  10.612  68.080  1.00  0.00    -0.157 A  
HETATM    7  C   UNL     1      -9.392   9.588  68.711  1.00  0.00    -0.146 A  
HETATM    8  N   UNL     1     -11.494  10.564  67.830  1.00  0.00    -0.633 NA 
HETATM    9  N   UNL     1      -7.498  10.966  68.463  1.00  0.00    -0.096 NA 
HETATM   10  H1  UNL     1     -11.919   9.694  68.152  1.00  0.00     0.000 HD 
HETATM   11  N   UNL     1      -8.084   9.822  68.933  1.00  0.00    -0.096 NA 
HETATM   12  H2  UNL     1     -11.694  10.727  66.843  1.00  0.00     0.000 HD 
ENDROOT
BRANCH   7  13
HETATM   13  C   UNL     1      -9.922   8.262  69.143  1.00  0.00    -0.196 A  
HETATM   14  C   UNL     1     -10.700   8.060  70.320  1.00  0.00    -0.239 A  
HETATM   15  C   UNL     1     -11.134   6.764  70.685  1.00  0.00    -0.291 A  
HETATM   16 CL   UNL     1     -11.106   9.376  71.389  1.00  0.00    -0.431 Cl 
HETATM   17 CL   UNL     1     -12.107   6.455  72.087  1.00  0.00    -0.354 Cl 
HETATM   18  C   UNL     1     -10.783   5.651  69.921  1.00  0.00    -0.399 A  
HETATM   19  C   UNL     1     -10.038   5.822  68.764  1.00  0.00    -0.231 A  
HETATM   20  C   UNL     1      -9.642   7.106  68.374  1.00  0.00    -0.137 A  
ENDBRANCH   7  13
TORSDOF 1
ENDMDL
MODEL      134
REMARK 921   NORMALIZED FREE ENERGY PREDICTED BY IDOCK:   -3.84 KCAL/MOL
REMARK 922        TOTAL FREE ENERGY PREDICTED BY IDOCK:   -4.34 KCAL/MOL
REMARK 923 INTER-LIGAND FREE ENERGY PREDICTED BY IDOCK:   -4.04 KCAL/MOL
REMARK 924 INTRA-LIGAND FREE ENERGY PREDICTED BY IDOCK:   -0.30 KCAL/MOL
REMARK 927      BINDING AFFINITY PREDICTED BY RF-SCORE:    0.00 PKD
ROOT
HETATM    1  N   UNL     1      -7.107   6.031  65.380  1.00  0.00    -0.063 NA 
HETATM    2  H2  UNL     1      -7.299   6.539  64.516  1.00  0.00     0.000 HD 
HETATM    3  C   UNL     1      -7.930   6.503  66.383  1.00  0.00    -0.110 A  
HETATM    4  H1  UNL     1      -6.102   6.034  65.558  1.00  0.00     0.000 HD 
HETATM    5  N   UNL     1      -9.243   6.499  66.151  1.00  0.00    -0.134 NA 
HETATM    6  C   UNL     1     -10.038   6.871  67.173  1.00  0.00    -0.209 A  
HETATM    7  C   UNL     1      -9.543   7.293  68.420  1.00  0.00    -0.139 A  
HETATM    8  N   UNL     1     -11.397   6.798  66.848  1.00  0.00    -0.792 NA 
HETATM    9  N   UNL     1      -7.391   6.947  67.528  1.00  0.00    -0.093 NA 
HETATM   10  H1  UNL     1     -11.998   7.079  67.623  1.00  0.00     0.000 HD 
HETATM   11  N   UNL     1      -8.205   7.367  68.546  1.00  0.00    -0.124 NA 
HETATM   12  H2  UNL     1     -11.644   5.867  66.511  1.00  0.00     0.000 HD 
ENDROOT
BRANCH   7  13
HETATM   13  C   UNL     1     -10.354   7.649  69.620  1.00  0.00    -0.213 A  
HETATM   14  C   UNL     1     -10.906   8.942  69.855  1.00  0.00    -0.211 A  
HETATM   15  C   UNL     1     -11.630   9.214  71.038  1.00  0.00    -0.306 A  
HETATM   16 CL   UNL     1     -10.669  10.257  68.735  1.00  0.00    -0.228 Cl 
HETATM   17 CL   UNL     1     -12.351  10.756  71.371  1.00  0.00    -0.456 Cl 
HETATM   18  C   UNL     1     -11.795   8.234  72.017  1.00  0.00    -0.408 A  
HETATM   19  C   UNL     1     -11.280   6.963  71.808  1.00  0.00    -0.284 A  
HETATM   20  C   UNL     1     -10.598   6.676  70.620  1.00  0.00    -0.268 A  
ENDBRANCH   7  13
TORSDOF 1
ENDMDL
MODEL      135
REMARK 921   NORMALIZED FREE ENERGY PREDICTED BY IDOCK:   -3.82 KCAL/MOL
REMARK 922        TOTAL FREE ENERGY PREDICTED BY IDOCK:   -4.32 KCAL/MOL
REMARK 923 INTER-LIGAND FREE ENERGY PREDICTED BY IDOCK:   -4.06 KCAL/MOL
REMARK 924 INTRA-LIGAND FREE ENERGY PREDICTED BY IDOCK:   -0.27 KCAL/MOL
REMARK 927      BINDING AFFINITY PREDICTED BY RF-SCORE:    0.00 PKD
ROOT
HETATM    1  N   UNL     1      -9.792   8.130  66.797  1.00  0.00    -0.236 NA 
HETATM    2  H2  UNL     1     -10.709   7.740  67.014  1.00  0.00     0.000 HD 
HETATM    3  C   UNL     1      -9.898   9.501  66.662  1.00  0.00    -0.231 A  
HETATM    4  H1  UNL     1      -9.380   7.614  66.019  1.00  0.00     0.000 HD 
HETATM    5  N   UNL     1     -10.436  10.176  67.678  1.00  0.00    -0.226 NA 
HETATM    6  C   UNL     1     -10.444  11.520  67.573  1.00  0.00    -0.199 A  
HETATM    7  C   UNL     1      -9.961  12.207  66.446  1.00  0.00    -0.225 A  
HETATM    8  N   UNL     1     -10.990  12.141  68.701  1.00  0.00    -0.233 NA 
HETATM    9  N   UNL     1      -9.472  10.091  65.535  1.00  0.00    -0.216 NA 
HETATM   10  H1  UNL     1     -10.996  13.158  68.622  1.00  0.00     0.000 HD 
HETATM   11  N   UNL     1      -9.525  11.454  65.419  1.00  0.00    -0.224 NA 
HETATM   12  H2  UNL     1     -10.514  11.842  69.553  1.00  0.00     0.000 HD 
ENDROOT
BRANCH   7  13
HETATM   13  C   UNL     1      -9.867  13.688  66.284  1.00  0.00    -0.310 A  
HETATM   14  C   UNL     1      -8.936  14.508  66.985  1.00  0.00    -0.240 A  
HETATM   15  C   UNL     1      -8.935  15.911  66.808  1.00  0.00    -0.251 A  
HETATM   16 CL   UNL     1      -7.800  13.839  68.126  1.00  0.00    -0.136 Cl 
HETATM   17 CL   UNL     1      -7.810  16.962  67.607  1.00  0.00    -0.180 Cl 
HETATM   18  C   UNL     1      -9.864  16.527  65.970  1.00  0.00    -0.348 A  
HETATM   19  C   UNL     1     -10.773  15.750  65.267  1.00  0.00    -0.446 A  
HETATM   20  C   UNL     1     -10.752  14.358  65.405  1.00  0.00    -0.359 A  
ENDBRANCH   7  13
TORSDOF 1
ENDMDL
MODEL      136
REMARK 921   NORMALIZED FREE ENERGY PREDICTED BY IDOCK:   -3.82 KCAL/MOL
REMARK 922        TOTAL FREE ENERGY PREDICTED BY IDOCK:   -4.32 KCAL/MOL
REMARK 923 INTER-LIGAND FREE ENERGY PREDICTED BY IDOCK:   -4.04 KCAL/MOL
REMARK 924 INTRA-LIGAND FREE ENERGY PREDICTED BY IDOCK:   -0.28 KCAL/MOL
REMARK 927      BINDING AFFINITY PREDICTED BY RF-SCORE:    0.00 PKD
ROOT
HETATM    1  N   UNL     1     -12.824  14.961  70.219  1.00  0.00    -0.581 NA 
HETATM    2  H2  UNL     1     -13.749  15.178  69.848  1.00  0.00     0.000 HD 
HETATM    3  C   UNL     1     -12.173  14.101  69.355  1.00  0.00    -0.287 A  
HETATM    4  H1  UNL     1     -12.910  14.669  71.193  1.00  0.00     0.000 HD 
HETATM    5  N   UNL     1     -12.061  14.482  68.082  1.00  0.00    -0.255 NA 
HETATM    6  C   UNL     1     -11.340  13.680  67.274  1.00  0.00    -0.323 A  
HETATM    7  C   UNL     1     -10.762  12.472  67.703  1.00  0.00    -0.218 A  
HETATM    8  N   UNL     1     -11.245  14.181  65.971  1.00  0.00    -0.314 NA 
HETATM    9  N   UNL     1     -11.697  12.935  69.815  1.00  0.00    -0.303 NA 
HETATM   10  H1  UNL     1     -10.699  13.573  65.359  1.00  0.00     0.000 HD 
HETATM   11  N   UNL     1     -11.005  12.104  68.975  1.00  0.00    -0.226 NA 
HETATM   12  H2  UNL     1     -10.874  15.132  65.969  1.00  0.00     0.000 HD 
ENDROOT
BRANCH   7  13
HETATM   13  C   UNL     1      -9.894  11.569  66.893  1.00  0.00    -0.220 A  
HETATM   14  C   UNL     1      -8.470  11.634  66.879  1.00  0.00    -0.168 A  
HETATM   15  C   UNL     1      -7.717  10.769  66.053  1.00  0.00    -0.139 A  
HETATM   16 CL   UNL     1      -7.596  12.810  67.825  1.00  0.00    -0.126 Cl 
HETATM   17 CL   UNL     1      -5.982  10.778  66.012  1.00  0.00    -0.127 Cl 
HETATM   18  C   UNL     1      -8.348   9.855  65.211  1.00  0.00    -0.153 A  
HETATM   19  C   UNL     1      -9.731   9.762  65.215  1.00  0.00    -0.371 A  
HETATM   20  C   UNL     1     -10.482  10.586  66.060  1.00  0.00    -0.226 A  
ENDBRANCH   7  13
TORSDOF 1
ENDMDL
MODEL      137
REMARK 921   NORMALIZED FREE ENERGY PREDICTED BY IDOCK:   -3.78 KCAL/MOL
REMARK 922        TOTAL FREE ENERGY PREDICTED BY IDOCK:   -4.28 KCAL/MOL
REMARK 923 INTER-LIGAND FREE ENERGY PREDICTED BY IDOCK:   -4.10 KCAL/MOL
REMARK 924 INTRA-LIGAND FREE ENERGY PREDICTED BY IDOCK:   -0.18 KCAL/MOL
REMARK 927      BINDING AFFINITY PREDICTED BY RF-SCORE:    0.00 PKD
ROOT
HETATM    1  N   UNL     1     -12.139  11.152  68.171  1.00  0.00    -0.737 NA 
HETATM    2  H2  UNL     1     -12.628  10.576  67.486  1.00  0.00     0.000 HD 
HETATM    3  C   UNL     1     -11.637  10.345  69.174  1.00  0.00    -0.164 A  
HETATM    4  H1  UNL     1     -12.739  11.928  68.451  1.00  0.00     0.000 HD 
HETATM    5  N   UNL     1     -10.852   9.331  68.808  1.00  0.00    -0.145 NA 
HETATM    6  C   UNL     1     -10.293   8.612  69.802  1.00  0.00    -0.212 A  
HETATM    7  C   UNL     1     -10.537   8.860  71.164  1.00  0.00    -0.265 A  
HETATM    8  N   UNL     1      -9.457   7.598  69.323  1.00  0.00    -0.158 NA 
HETATM    9  N   UNL     1     -11.956  10.600  70.451  1.00  0.00    -0.315 NA 
HETATM   10  H1  UNL     1      -9.033   7.054  70.075  1.00  0.00     0.000 HD 
HETATM   11  N   UNL     1     -11.419   9.836  71.452  1.00  0.00    -0.380 NA 
HETATM   12  H2  UNL     1      -8.745   7.974  68.696  1.00  0.00     0.000 HD 
ENDROOT
BRANCH   7  13
HETATM   13  C   UNL     1      -9.903   8.161  72.320  1.00  0.00    -0.329 A  
HETATM   14  C   UNL     1      -8.511   8.220  72.620  1.00  0.00    -0.183 A  
HETATM   15  C   UNL     1      -7.977   7.496  73.711  1.00  0.00    -0.137 A  
HETATM   16 CL   UNL     1      -7.397   9.131  71.635  1.00  0.00     0.013 Cl 
HETATM   17 CL   UNL     1      -6.299   7.548  74.147  1.00  0.00    -0.076 Cl 
HETATM   18  C   UNL     1      -8.793   6.684  74.498  1.00  0.00    -0.200 A  
HETATM   19  C   UNL     1     -10.153   6.619  74.235  1.00  0.00    -0.378 A  
HETATM   20  C   UNL     1     -10.695   7.366  73.183  1.00  0.00    -0.436 A  
ENDBRANCH   7  13
TORSDOF 1
ENDMDL
MODEL      138
REMARK 921   NORMALIZED FREE ENERGY PREDICTED BY IDOCK:   -3.78 KCAL/MOL
REMARK 922        TOTAL FREE ENERGY PREDICTED BY IDOCK:   -4.27 KCAL/MOL
REMARK 923 INTER-LIGAND FREE ENERGY PREDICTED BY IDOCK:   -4.01 KCAL/MOL
REMARK 924 INTRA-LIGAND FREE ENERGY PREDICTED BY IDOCK:   -0.26 KCAL/MOL
REMARK 927      BINDING AFFINITY PREDICTED BY RF-SCORE:    0.00 PKD
ROOT
HETATM    1  N   UNL     1     -12.128  11.862  68.549  1.00  0.00    -0.410 NA 
HETATM    2  H2  UNL     1     -12.073  12.658  69.185  1.00  0.00     0.000 HD 
HETATM    3  C   UNL     1     -11.675  10.727  69.193  1.00  0.00    -0.296 A  
HETATM    4  H1  UNL     1     -11.685  12.106  67.663  1.00  0.00     0.000 HD 
HETATM    5  N   UNL     1     -12.255  10.408  70.351  1.00  0.00    -0.302 NA 
HETATM    6  C   UNL     1     -11.871   9.248  70.918  1.00  0.00    -0.282 A  
HETATM    7  C   UNL     1     -10.880   8.413  70.372  1.00  0.00    -0.235 A  
HETATM    8  N   UNL     1     -12.560   8.979  72.106  1.00  0.00    -0.383 NA 
HETATM    9  N   UNL     1     -10.685  10.007  68.647  1.00  0.00    -0.217 NA 
HETATM   10  H1  UNL     1     -12.269   8.100  72.535  1.00  0.00     0.000 HD 
HETATM   11  N   UNL     1     -10.269   8.852  69.254  1.00  0.00    -0.204 NA 
HETATM   12  H2  UNL     1     -13.569   8.999  71.957  1.00  0.00     0.000 HD 
ENDROOT
BRANCH   7  13
HETATM   13  C   UNL     1     -10.452   7.084  70.897  1.00  0.00    -0.233 A  
HETATM   14  C   UNL     1      -9.695   6.905  72.091  1.00  0.00    -0.148 A  
HETATM   15  C   UNL     1      -9.292   5.614  72.503  1.00  0.00    -0.142 A  
HETATM   16 CL   UNL     1      -9.184   8.258  73.065  1.00  0.00    -0.333 Cl 
HETATM   17 CL   UNL     1      -8.396   5.325  73.959  1.00  0.00    -0.113 Cl 
HETATM   18  C   UNL     1      -9.597   4.491  71.735  1.00  0.00    -0.220 A  
HETATM   19  C   UNL     1     -10.344   4.636  70.575  1.00  0.00    -0.109 A  
HETATM   20  C   UNL     1     -10.782   5.905  70.184  1.00  0.00    -0.389 A  
ENDBRANCH   7  13
TORSDOF 1
ENDMDL
MODEL      139
REMARK 921   NORMALIZED FREE ENERGY PREDICTED BY IDOCK:   -3.76 KCAL/MOL
REMARK 922        TOTAL FREE ENERGY PREDICTED BY IDOCK:   -4.26 KCAL/MOL
REMARK 923 INTER-LIGAND FREE ENERGY PREDICTED BY IDOCK:   -3.96 KCAL/MOL
REMARK 924 INTRA-LIGAND FREE ENERGY PREDICTED BY IDOCK:   -0.30 KCAL/MOL
REMARK 927      BINDING AFFINITY PREDICTED BY RF-SCORE:    0.00 PKD
ROOT
HETATM    1  N   UNL     1      -8.773   4.552  66.861  1.00  0.00    -0.111 NA 
HETATM    2  H2  UNL     1      -8.445   4.058  67.692  1.00  0.00     0.000 HD 
HETATM    3  C   UNL     1      -9.246   5.798  67.224  1.00  0.00    -0.110 A  
HETATM    4  H1  UNL     1      -9.404   3.947  66.335  1.00  0.00     0.000 HD 
HETATM    5  N   UNL     1      -8.421   6.589  67.912  1.00  0.00    -0.119 NA 
HETATM    6  C   UNL     1      -8.860   7.836  68.174  1.00  0.00    -0.125 A  
HETATM    7  C   UNL     1     -10.134   8.299  67.800  1.00  0.00    -0.206 A  
HETATM    8  N   UNL     1      -7.913   8.602  68.863  1.00  0.00    -0.111 NA 
HETATM    9  N   UNL     1     -10.493   6.157  66.887  1.00  0.00    -0.248 NA 
HETATM   10  H1  UNL     1      -8.246   9.546  69.061  1.00  0.00     0.000 HD 
HETATM   11  N   UNL     1     -10.947   7.410  67.198  1.00  0.00    -0.265 NA 
HETATM   12  H2  UNL     1      -7.024   8.624  68.363  1.00  0.00     0.000 HD 
ENDROOT
BRANCH   7  13
HETATM   13  C   UNL     1     -10.664   9.680  67.988  1.00  0.00    -0.284 A  
HETATM   14  C   UNL     1     -11.215  10.164  69.210  1.00  0.00    -0.196 A  
HETATM   15  C   UNL     1     -11.735  11.475  69.299  1.00  0.00    -0.330 A  
HETATM   16 CL   UNL     1     -11.325   9.155  70.629  1.00  0.00    -0.310 Cl 
HETATM   17 CL   UNL     1     -12.392  12.133  70.763  1.00  0.00    -0.449 Cl 
HETATM   18  C   UNL     1     -11.753  12.314  68.185  1.00  0.00    -0.408 A  
HETATM   19  C   UNL     1     -11.211  11.873  66.987  1.00  0.00    -0.379 A  
HETATM   20  C   UNL     1     -10.656  10.592  66.903  1.00  0.00    -0.311 A  
ENDBRANCH   7  13
TORSDOF 1
ENDMDL
MODEL      140
REMARK 921   NORMALIZED FREE ENERGY PREDICTED BY IDOCK:   -3.73 KCAL/MOL
REMARK 922        TOTAL FREE ENERGY PREDICTED BY IDOCK:   -4.23 KCAL/MOL
REMARK 923 INTER-LIGAND FREE ENERGY PREDICTED BY IDOCK:   -3.98 KCAL/MOL
REMARK 924 INTRA-LIGAND FREE ENERGY PREDICTED BY IDOCK:   -0.25 KCAL/MOL
REMARK 927      BINDING AFFINITY PREDICTED BY RF-SCORE:    0.00 PKD
ROOT
HETATM    1  N   UNL     1      -7.634   6.088  66.748  1.00  0.00    -0.094 NA 
HETATM    2  H2  UNL     1      -7.115   5.384  67.274  1.00  0.00     0.000 HD 
HETATM    3  C   UNL     1      -8.453   6.793  67.609  1.00  0.00    -0.122 A  
HETATM    4  H1  UNL     1      -8.074   5.649  65.938  1.00  0.00     0.000 HD 
HETATM    5  N   UNL     1      -7.879   7.366  68.667  1.00  0.00    -0.119 NA 
HETATM    6  C   UNL     1      -8.672   8.130  69.444  1.00  0.00    -0.143 A  
HETATM    7  C   UNL     1     -10.048   8.299  69.209  1.00  0.00    -0.199 A  
HETATM    8  N   UNL     1      -7.975   8.720  70.504  1.00  0.00    -0.100 NA 
HETATM    9  N   UNL     1      -9.768   6.867  67.360  1.00  0.00    -0.133 NA 
HETATM   10  H1  UNL     1      -8.576   9.298  71.092  1.00  0.00     0.000 HD 
HETATM   11  N   UNL     1     -10.575   7.608  68.181  1.00  0.00    -0.169 NA 
HETATM   12  H2  UNL     1      -7.172   9.250  70.165  1.00  0.00     0.000 HD 
ENDROOT
BRANCH   7  13
HETATM   13  C   UNL     1     -10.975   9.182  69.975  1.00  0.00    -0.240 A  
HETATM   14  C   UNL     1     -11.931   8.706  70.918  1.00  0.00    -0.191 A  
HETATM   15  C   UNL     1     -12.805   9.602  71.576  1.00  0.00    -0.392 A  
HETATM   16 CL   UNL     1     -12.111   7.006  71.264  1.00  0.00    -0.380 Cl 
HETATM   17 CL   UNL     1     -13.970   9.091  72.755  1.00  0.00    -0.383 Cl 
HETATM   18  C   UNL     1     -12.773  10.967  71.294  1.00  0.00    -0.537 A  
HETATM   19  C   UNL     1     -11.843  11.459  70.389  1.00  0.00    -0.428 A  
HETATM   20  C   UNL     1     -10.948  10.583  69.766  1.00  0.00    -0.350 A  
ENDBRANCH   7  13
TORSDOF 1
ENDMDL
MODEL      141
REMARK 921   NORMALIZED FREE ENERGY PREDICTED BY IDOCK:   -3.72 KCAL/MOL
REMARK 922        TOTAL FREE ENERGY PREDICTED BY IDOCK:   -4.22 KCAL/MOL
REMARK 923 INTER-LIGAND FREE ENERGY PREDICTED BY IDOCK:   -3.94 KCAL/MOL
REMARK 924 INTRA-LIGAND FREE ENERGY PREDICTED BY IDOCK:   -0.28 KCAL/MOL
REMARK 927      BINDING AFFINITY PREDICTED BY RF-SCORE:    0.00 PKD
ROOT
HETATM    1  N   UNL     1      -9.119   7.272  68.056  1.00  0.00    -0.134 NA 
HETATM    2  H2  UNL     1      -8.852   7.013  69.005  1.00  0.00     0.000 HD 
HETATM    3  C   UNL     1      -9.560   8.581  68.043  1.00  0.00    -0.149 A  
HETATM    4  H1  UNL     1      -9.748   6.562  67.677  1.00  0.00     0.000 HD 
HETATM    5  N   UNL     1      -8.739   9.508  68.538  1.00  0.00    -0.123 NA 
HETATM    6  C   UNL     1      -9.141  10.789  68.430  1.00  0.00    -0.164 A  
HETATM    7  C   UNL     1     -10.377  11.165  67.873  1.00  0.00    -0.185 A  
HETATM    8  N   UNL     1      -8.200  11.690  68.940  1.00  0.00    -0.349 NA 
HETATM    9  N   UNL     1     -10.775   8.866  67.551  1.00  0.00    -0.222 NA 
HETATM   10  H1  UNL     1      -8.505  12.660  68.857  1.00  0.00     0.000 HD 
HETATM   11  N   UNL     1     -11.195  10.167  67.487  1.00  0.00    -0.243 NA 
HETATM   12  H2  UNL     1      -7.287  11.553  68.503  1.00  0.00     0.000 HD 
ENDROOT
BRANCH   7  13
HETATM   13  C   UNL     1     -10.861  12.559  67.652  1.00  0.00    -0.255 A  
HETATM   14  C   UNL     1     -10.727  13.263  66.420  1.00  0.00    -0.285 A  
HETATM   15  C   UNL     1     -11.176  14.598  66.300  1.00  0.00    -0.340 A  
HETATM   16 CL   UNL     1      -9.959  12.542  65.030  1.00  0.00    -0.237 Cl 
HETATM   17 CL   UNL     1     -11.069  15.500  64.822  1.00  0.00    -0.440 Cl 
HETATM   18  C   UNL     1     -11.731  15.267  67.390  1.00  0.00    -0.120 A  
HETATM   19  C   UNL     1     -11.885  14.601  68.597  1.00  0.00    -0.346 A  
HETATM   20  C   UNL     1     -11.481  13.266  68.711  1.00  0.00    -0.346 A  
ENDBRANCH   7  13
TORSDOF 1
ENDMDL
MODEL      142
REMARK 921   NORMALIZED FREE ENERGY PREDICTED BY IDOCK:   -3.72 KCAL/MOL
REMARK 922        TOTAL FREE ENERGY PREDICTED BY IDOCK:   -4.21 KCAL/MOL
REMARK 923 INTER-LIGAND FREE ENERGY PREDICTED BY IDOCK:   -3.99 KCAL/MOL
REMARK 924 INTRA-LIGAND FREE ENERGY PREDICTED BY IDOCK:   -0.22 KCAL/MOL
REMARK 927      BINDING AFFINITY PREDICTED BY RF-SCORE:    0.00 PKD
ROOT
HETATM    1  N   UNL     1      -9.737   9.491  65.125  1.00  0.00    -0.448 NA 
HETATM    2  H2  UNL     1     -10.573   9.344  64.559  1.00  0.00     0.000 HD 
HETATM    3  C   UNL     1     -10.032   9.244  66.452  1.00  0.00    -0.286 A  
HETATM    4  H1  UNL     1      -9.329  10.398  64.898  1.00  0.00     0.000 HD 
HETATM    5  N   UNL     1     -10.565   8.058  66.750  1.00  0.00    -0.270 NA 
HETATM    6  C   UNL     1     -10.757   7.794  68.057  1.00  0.00    -0.066 A  
HETATM    7  C   UNL     1     -10.467   8.715  69.080  1.00  0.00    -0.199 A  
HETATM    8  N   UNL     1     -11.281   6.515  68.273  1.00  0.00    -0.548 NA 
HETATM    9  N   UNL     1      -9.786  10.187  67.372  1.00  0.00    -0.157 NA 
HETATM   10  H1  UNL     1     -11.427   6.316  69.263  1.00  0.00     0.000 HD 
HETATM   11  N   UNL     1     -10.027   9.928  68.694  1.00  0.00    -0.159 NA 
HETATM   12  H2  UNL     1     -10.698   5.801  67.836  1.00  0.00     0.000 HD 
ENDROOT
BRANCH   7  13
HETATM   13  C   UNL     1     -10.582   8.474  70.547  1.00  0.00    -0.238 A  
HETATM   14  C   UNL     1      -9.468   8.262  71.410  1.00  0.00    -0.175 A  
HETATM   15  C   UNL     1      -9.660   7.999  72.786  1.00  0.00    -0.277 A  
HETATM   16 CL   UNL     1      -7.830   8.259  70.810  1.00  0.00    -0.086 Cl 
HETATM   17 CL   UNL     1      -8.346   7.761  73.893  1.00  0.00    -0.249 Cl 
HETATM   18  C   UNL     1     -10.943   7.909  73.324  1.00  0.00    -0.146 A  
HETATM   19  C   UNL     1     -12.044   8.124  72.510  1.00  0.00    -0.377 A  
HETATM   20  C   UNL     1     -11.861   8.426  71.156  1.00  0.00    -0.314 A  
ENDBRANCH   7  13
TORSDOF 1
ENDMDL
MODEL      143
REMARK 921   NORMALIZED FREE ENERGY PREDICTED BY IDOCK:   -3.71 KCAL/MOL
REMARK 922        TOTAL FREE ENERGY PREDICTED BY IDOCK:   -4.20 KCAL/MOL
REMARK 923 INTER-LIGAND FREE ENERGY PREDICTED BY IDOCK:   -3.95 KCAL/MOL
REMARK 924 INTRA-LIGAND FREE ENERGY PREDICTED BY IDOCK:   -0.25 KCAL/MOL
REMARK 927      BINDING AFFINITY PREDICTED BY RF-SCORE:    0.00 PKD
ROOT
HETATM    1  N   UNL     1      -9.185   4.408  67.960  1.00  0.00    -0.128 NA 
HETATM    2  H2  UNL     1      -9.138   4.082  68.926  1.00  0.00     0.000 HD 
HETATM    3  C   UNL     1      -9.587   5.730  67.941  1.00  0.00    -0.115 A  
HETATM    4  H1  UNL     1      -9.729   3.745  67.406  1.00  0.00     0.000 HD 
HETATM    5  N   UNL     1      -8.877   6.595  68.665  1.00  0.00    -0.123 NA 
HETATM    6  C   UNL     1      -9.220   7.894  68.560  1.00  0.00    -0.138 A  
HETATM    7  C   UNL     1     -10.295   8.345  67.774  1.00  0.00    -0.235 A  
HETATM    8  N   UNL     1      -8.397   8.728  69.323  1.00  0.00    -0.119 NA 
HETATM    9  N   UNL     1     -10.658   6.086  67.217  1.00  0.00    -0.259 NA 
HETATM   10  H1  UNL     1      -8.657   9.712  69.243  1.00  0.00     0.000 HD 
HETATM   11  N   UNL     1     -11.028   7.402  67.152  1.00  0.00    -0.265 NA 
HETATM   12  H2  UNL     1      -7.414   8.588  69.089  1.00  0.00     0.000 HD 
ENDROOT
BRANCH   7  13
HETATM   13  C   UNL     1     -10.692   9.766  67.548  1.00  0.00    -0.327 A  
HETATM   14  C   UNL     1     -10.381  10.502  66.369  1.00  0.00    -0.221 A  
HETATM   15  C   UNL     1     -10.757  11.859  66.245  1.00  0.00    -0.271 A  
HETATM   16 CL   UNL     1      -9.480   9.793  65.055  1.00  0.00    -0.331 Cl 
HETATM   17 CL   UNL     1     -10.434  12.803  64.825  1.00  0.00    -0.335 Cl 
HETATM   18  C   UNL     1     -11.412  12.518  67.285  1.00  0.00    -0.416 A  
HETATM   19  C   UNL     1     -11.739  11.820  68.439  1.00  0.00    -0.389 A  
HETATM   20  C   UNL     1     -11.407  10.466  68.551  1.00  0.00    -0.283 A  
ENDBRANCH   7  13
TORSDOF 1
ENDMDL
MODEL      144
REMARK 921   NORMALIZED FREE ENERGY PREDICTED BY IDOCK:   -3.69 KCAL/MOL
REMARK 922        TOTAL FREE ENERGY PREDICTED BY IDOCK:   -4.18 KCAL/MOL
REMARK 923 INTER-LIGAND FREE ENERGY PREDICTED BY IDOCK:   -3.90 KCAL/MOL
REMARK 924 INTRA-LIGAND FREE ENERGY PREDICTED BY IDOCK:   -0.28 KCAL/MOL
REMARK 927      BINDING AFFINITY PREDICTED BY RF-SCORE:    0.00 PKD
ROOT
HETATM    1  N   UNL     1      -7.881   3.409  68.439  1.00  0.00    -0.059 NA 
HETATM    2  H2  UNL     1      -7.815   2.819  67.610  1.00  0.00     0.000 HD 
HETATM    3  C   UNL     1      -8.345   4.659  68.077  1.00  0.00    -0.098 A  
HETATM    4  H1  UNL     1      -7.001   3.368  68.955  1.00  0.00     0.000 HD 
HETATM    5  N   UNL     1      -9.495   4.713  67.404  1.00  0.00    -0.144 NA 
HETATM    6  C   UNL     1      -9.984   5.941  67.143  1.00  0.00    -0.159 A  
HETATM    7  C   UNL     1      -9.321   7.127  67.505  1.00  0.00    -0.124 A  
HETATM    8  N   UNL     1     -11.209   5.897  66.470  1.00  0.00    -0.741 NA 
HETATM    9  N   UNL     1      -7.635   5.749  68.401  1.00  0.00    -0.088 NA 
HETATM   10  H1  UNL     1     -11.579   6.827  66.272  1.00  0.00     0.000 HD 
HETATM   11  N   UNL     1      -8.117   6.992  68.092  1.00  0.00    -0.118 NA 
HETATM   12  H2  UNL     1     -11.889   5.332  66.980  1.00  0.00     0.000 HD 
ENDROOT
BRANCH   7  13
HETATM   13  C   UNL     1      -9.828   8.518  67.318  1.00  0.00    -0.259 A  
HETATM   14  C   UNL     1     -10.534   9.250  68.317  1.00  0.00    -0.215 A  
HETATM   15  C   UNL     1     -11.020  10.550  68.051  1.00  0.00    -0.290 A  
HETATM   16 CL   UNL     1     -10.882   8.564  69.882  1.00  0.00    -0.230 Cl 
HETATM   17 CL   UNL     1     -11.860  11.504  69.231  1.00  0.00    -0.388 Cl 
HETATM   18  C   UNL     1     -10.848  11.135  66.796  1.00  0.00    -0.322 A  
HETATM   19  C   UNL     1     -10.153  10.450  65.811  1.00  0.00    -0.329 A  
HETATM   20  C   UNL     1      -9.633   9.179  66.081  1.00  0.00    -0.333 A  
ENDBRANCH   7  13
TORSDOF 1
ENDMDL
MODEL      145
REMARK 921   NORMALIZED FREE ENERGY PREDICTED BY IDOCK:   -3.68 KCAL/MOL
REMARK 922        TOTAL FREE ENERGY PREDICTED BY IDOCK:   -4.17 KCAL/MOL
REMARK 923 INTER-LIGAND FREE ENERGY PREDICTED BY IDOCK:   -3.92 KCAL/MOL
REMARK 924 INTRA-LIGAND FREE ENERGY PREDICTED BY IDOCK:   -0.25 KCAL/MOL
REMARK 927      BINDING AFFINITY PREDICTED BY RF-SCORE:    0.00 PKD
ROOT
HETATM    1  N   UNL     1     -10.954   6.155  71.921  1.00  0.00    -0.251 NA 
HETATM    2  H2  UNL     1     -11.433   6.741  72.605  1.00  0.00     0.000 HD 
HETATM    3  C   UNL     1     -10.755   6.875  70.758  1.00  0.00    -0.233 A  
HETATM    4  H1  UNL     1     -11.442   5.262  71.840  1.00  0.00     0.000 HD 
HETATM    5  N   UNL     1     -10.118   8.042  70.864  1.00  0.00    -0.190 NA 
HETATM    6  C   UNL     1      -9.846   8.686  69.712  1.00  0.00    -0.183 A  
HETATM    7  C   UNL     1     -10.238   8.207  68.449  1.00  0.00    -0.209 A  
HETATM    8  N   UNL     1      -9.143   9.878  69.919  1.00  0.00    -0.291 NA 
HETATM    9  N   UNL     1     -11.207   6.390  69.593  1.00  0.00    -0.395 NA 
HETATM   10  H1  UNL     1      -8.936  10.365  69.047  1.00  0.00     0.000 HD 
HETATM   11  N   UNL     1     -10.965   7.074  68.432  1.00  0.00    -0.126 NA 
HETATM   12  H2  UNL     1      -8.292   9.713  70.458  1.00  0.00     0.000 HD 
ENDROOT
BRANCH   7  13
HETATM   13  C   UNL     1      -9.913   8.820  67.129  1.00  0.00    -0.295 A  
HETATM   14  C   UNL     1     -10.480  10.038  66.655  1.00  0.00    -0.174 A  
HETATM   15  C   UNL     1     -10.152  10.536  65.373  1.00  0.00    -0.291 A  
HETATM   16 CL   UNL     1     -11.638  10.939  67.597  1.00  0.00    -0.281 Cl 
HETATM   17 CL   UNL     1     -10.784  12.026  64.748  1.00  0.00    -0.335 Cl 
HETATM   18  C   UNL     1      -9.293   9.831  64.530  1.00  0.00    -0.298 A  
HETATM   19  C   UNL     1      -8.717   8.649  64.972  1.00  0.00    -0.154 A  
HETATM   20  C   UNL     1      -9.004   8.173  66.256  1.00  0.00    -0.215 A  
ENDBRANCH   7  13
TORSDOF 1
ENDMDL
MODEL      146
REMARK 921   NORMALIZED FREE ENERGY PREDICTED BY IDOCK:   -3.68 KCAL/MOL
REMARK 922        TOTAL FREE ENERGY PREDICTED BY IDOCK:   -4.17 KCAL/MOL
REMARK 923 INTER-LIGAND FREE ENERGY PREDICTED BY IDOCK:   -3.87 KCAL/MOL
REMARK 924 INTRA-LIGAND FREE ENERGY PREDICTED BY IDOCK:   -0.29 KCAL/MOL
REMARK 927      BINDING AFFINITY PREDICTED BY RF-SCORE:    0.00 PKD
ROOT
HETATM    1  N   UNL     1      -7.675   8.096  69.005  1.00  0.00    -0.098 NA 
HETATM    2  H2  UNL     1      -6.665   8.021  69.133  1.00  0.00     0.000 HD 
HETATM    3  C   UNL     1      -7.977   9.323  68.446  1.00  0.00    -0.102 A  
HETATM    4  H1  UNL     1      -8.145   7.849  69.876  1.00  0.00     0.000 HD 
HETATM    5  N   UNL     1      -7.362   9.645  67.308  1.00  0.00    -0.087 NA 
HETATM    6  C   UNL     1      -7.739  10.801  66.726  1.00  0.00    -0.136 A  
HETATM    7  C   UNL     1      -8.693  11.670  67.283  1.00  0.00    -0.159 A  
HETATM    8  N   UNL     1      -7.069  11.035  65.519  1.00  0.00    -0.367 NA 
HETATM    9  N   UNL     1      -8.853  10.132  69.060  1.00  0.00    -0.155 NA 
HETATM   10  H1  UNL     1      -7.355  11.909  65.078  1.00  0.00     0.000 HD 
HETATM   11  N   UNL     1      -9.196  11.325  68.484  1.00  0.00    -0.181 NA 
HETATM   12  H2  UNL     1      -7.179  10.247  64.880  1.00  0.00     0.000 HD 
ENDROOT
BRANCH   7  13
HETATM   13  C   UNL     1      -9.216  12.924  66.668  1.00  0.00    -0.222 A  
HETATM   14  C   UNL     1     -10.306  12.968  65.750  1.00  0.00    -0.286 A  
HETATM   15  C   UNL     1     -10.718  14.193  65.178  1.00  0.00    -0.388 A  
HETATM   16 CL   UNL     1     -11.141  11.522  65.249  1.00  0.00    -0.299 Cl 
HETATM   17 CL   UNL     1     -12.054  14.319  64.078  1.00  0.00    -0.432 Cl 
HETATM   18  C   UNL     1     -10.048  15.381  65.471  1.00  0.00    -0.405 A  
HETATM   19  C   UNL     1      -8.993  15.368  66.371  1.00  0.00    -0.351 A  
HETATM   20  C   UNL     1      -8.607  14.166  66.973  1.00  0.00    -0.204 A  
ENDBRANCH   7  13
TORSDOF 1
ENDMDL
MODEL      147
REMARK 921   NORMALIZED FREE ENERGY PREDICTED BY IDOCK:   -3.66 KCAL/MOL
REMARK 922        TOTAL FREE ENERGY PREDICTED BY IDOCK:   -4.15 KCAL/MOL
REMARK 923 INTER-LIGAND FREE ENERGY PREDICTED BY IDOCK:   -3.98 KCAL/MOL
REMARK 924 INTRA-LIGAND FREE ENERGY PREDICTED BY IDOCK:   -0.17 KCAL/MOL
REMARK 927      BINDING AFFINITY PREDICTED BY RF-SCORE:    0.00 PKD
ROOT
HETATM    1  N   UNL     1      -9.510  19.227  67.777  1.00  0.00    -0.308 NA 
HETATM    2  H2  UNL     1      -9.080  19.578  68.632  1.00  0.00     0.000 HD 
HETATM    3  C   UNL     1      -9.304  17.863  67.685  1.00  0.00    -0.258 A  
HETATM    4  H1  UNL     1      -9.209  19.799  66.987  1.00  0.00     0.000 HD 
HETATM    5  N   UNL     1      -9.698  17.115  68.717  1.00  0.00    -0.273 NA 
HETATM    6  C   UNL     1      -9.580  15.780  68.573  1.00  0.00    -0.204 A  
HETATM    7  C   UNL     1      -9.032  15.174  67.429  1.00  0.00    -0.183 A  
HETATM    8  N   UNL     1     -10.053  15.079  69.687  1.00  0.00    -0.401 NA 
HETATM    9  N   UNL     1      -8.722  17.353  66.591  1.00  0.00    -0.248 NA 
HETATM   10  H1  UNL     1      -9.964  14.068  69.578  1.00  0.00     0.000 HD 
HETATM   11  N   UNL     1      -8.565  15.999  66.472  1.00  0.00    -0.280 NA 
HETATM   12  H2  UNL     1     -11.015  15.341  69.905  1.00  0.00     0.000 HD 
ENDROOT
BRANCH   7  13
HETATM   13  C   UNL     1      -8.935  13.709  67.163  1.00  0.00    -0.235 A  
HETATM   14  C   UNL     1      -9.720  13.021  66.192  1.00  0.00    -0.251 A  
HETATM   15  C   UNL     1      -9.600  11.623  66.027  1.00  0.00    -0.228 A  
HETATM   16 CL   UNL     1     -10.898  13.851  65.210  1.00  0.00    -0.316 Cl 
HETATM   17 CL   UNL     1     -10.504  10.731  64.845  1.00  0.00    -0.364 Cl 
HETATM   18  C   UNL     1      -8.735  10.879  66.829  1.00  0.00    -0.147 A  
HETATM   19  C   UNL     1      -7.950  11.526  67.772  1.00  0.00    -0.128 A  
HETATM   20  C   UNL     1      -8.033  12.915  67.913  1.00  0.00    -0.156 A  
ENDBRANCH   7  13
TORSDOF 1
ENDMDL
MODEL      148
REMARK 921   NORMALIZED FREE ENERGY PREDICTED BY IDOCK:   -3.65 KCAL/MOL
REMARK 922        TOTAL FREE ENERGY PREDICTED BY IDOCK:   -4.14 KCAL/MOL
REMARK 923 INTER-LIGAND FREE ENERGY PREDICTED BY IDOCK:   -3.88 KCAL/MOL
REMARK 924 INTRA-LIGAND FREE ENERGY PREDICTED BY IDOCK:   -0.25 KCAL/MOL
REMARK 927      BINDING AFFINITY PREDICTED BY RF-SCORE:    0.00 PKD
ROOT
HETATM    1  N   UNL     1     -13.597   9.551  70.885  1.00  0.00    -0.573 NA 
HETATM    2  H2  UNL     1     -14.353   9.581  71.570  1.00  0.00     0.000 HD 
HETATM    3  C   UNL     1     -12.509   8.898  71.431  1.00  0.00    -0.304 A  
HETATM    4  H1  UNL     1     -13.442  10.488  70.512  1.00  0.00     0.000 HD 
HETATM    5  N   UNL     1     -12.712   7.674  71.919  1.00  0.00    -0.310 NA 
HETATM    6  C   UNL     1     -11.623   7.012  72.360  1.00  0.00    -0.245 A  
HETATM    7  C   UNL     1     -10.332   7.568  72.363  1.00  0.00    -0.228 A  
HETATM    8  N   UNL     1     -11.928   5.724  72.815  1.00  0.00    -0.539 NA 
HETATM    9  N   UNL     1     -11.315   9.508  71.458  1.00  0.00    -0.390 NA 
HETATM   10  H1  UNL     1     -11.104   5.224  73.148  1.00  0.00     0.000 HD 
HETATM   11  N   UNL     1     -10.223   8.845  71.949  1.00  0.00    -0.343 NA 
HETATM   12  H2  UNL     1     -12.419   5.188  72.099  1.00  0.00     0.000 HD 
ENDROOT
BRANCH   7  13
HETATM   13  C   UNL     1      -9.071   6.879  72.763  1.00  0.00    -0.151 A  
HETATM   14  C   UNL     1      -8.464   5.830  72.013  1.00  0.00    -0.126 A  
HETATM   15  C   UNL     1      -7.289   5.197  72.479  1.00  0.00    -0.094 A  
HETATM   16 CL   UNL     1      -9.161   5.242  70.527  1.00  0.00    -0.176 Cl 
HETATM   17 CL   UNL     1      -6.484   3.937  71.600  1.00  0.00    -0.015 Cl 
HETATM   18  C   UNL     1      -6.715   5.560  73.697  1.00  0.00    -0.079 A  
HETATM   19  C   UNL     1      -7.279   6.586  74.441  1.00  0.00    -0.095 A  
HETATM   20  C   UNL     1      -8.418   7.246  73.965  1.00  0.00    -0.214 A  
ENDBRANCH   7  13
TORSDOF 1
ENDMDL
MODEL      149
REMARK 921   NORMALIZED FREE ENERGY PREDICTED BY IDOCK:   -3.62 KCAL/MOL
REMARK 922        TOTAL FREE ENERGY PREDICTED BY IDOCK:   -4.11 KCAL/MOL
REMARK 923 INTER-LIGAND FREE ENERGY PREDICTED BY IDOCK:   -3.82 KCAL/MOL
REMARK 924 INTRA-LIGAND FREE ENERGY PREDICTED BY IDOCK:   -0.30 KCAL/MOL
REMARK 927      BINDING AFFINITY PREDICTED BY RF-SCORE:    0.00 PKD
ROOT
HETATM    1  N   UNL     1     -11.839  16.444  69.579  1.00  0.00    -0.201 NA 
HETATM    2  H2  UNL     1     -11.314  17.262  69.270  1.00  0.00     0.000 HD 
HETATM    3  C   UNL     1     -11.452  15.343  68.839  1.00  0.00    -0.342 A  
HETATM    4  H1  UNL     1     -12.834  16.668  69.599  1.00  0.00     0.000 HD 
HETATM    5  N   UNL     1     -10.152  15.050  68.813  1.00  0.00    -0.224 NA 
HETATM    6  C   UNL     1      -9.801  13.920  68.167  1.00  0.00    -0.240 A  
HETATM    7  C   UNL     1     -10.725  13.093  67.504  1.00  0.00    -0.238 A  
HETATM    8  N   UNL     1      -8.425  13.675  68.227  1.00  0.00    -0.166 NA 
HETATM    9  N   UNL     1     -12.377  14.630  68.180  1.00  0.00    -0.044 NA 
HETATM   10  H1  UNL     1      -8.160  12.820  67.738  1.00  0.00     0.000 HD 
HETATM   11  N   UNL     1     -12.006  13.509  67.489  1.00  0.00    -0.362 NA 
HETATM   12  H2  UNL     1      -8.095  13.664  69.192  1.00  0.00     0.000 HD 
ENDROOT
BRANCH   7  13
HETATM   13  C   UNL     1     -10.429  11.794  66.833  1.00  0.00    -0.256 A  
HETATM   14  C   UNL     1     -10.025  11.675  65.471  1.00  0.00    -0.242 A  
HETATM   15  C   UNL     1      -9.801  10.404  64.894  1.00  0.00    -0.334 A  
HETATM   16 CL   UNL     1      -9.843  13.071  64.442  1.00  0.00    -0.107 Cl 
HETATM   17 CL   UNL     1      -9.281  10.191  63.253  1.00  0.00    -0.296 Cl 
HETATM   18  C   UNL     1     -10.001   9.238  65.632  1.00  0.00    -0.130 A  
HETATM   19  C   UNL     1     -10.381   9.326  66.963  1.00  0.00    -0.325 A  
HETATM   20  C   UNL     1     -10.564  10.582  67.553  1.00  0.00    -0.306 A  
ENDBRANCH   7  13
TORSDOF 1
ENDMDL
MODEL      150
REMARK 921   NORMALIZED FREE ENERGY PREDICTED BY IDOCK:   -3.61 KCAL/MOL
REMARK 922        TOTAL FREE ENERGY PREDICTED BY IDOCK:   -4.09 KCAL/MOL
REMARK 923 INTER-LIGAND FREE ENERGY PREDICTED BY IDOCK:   -3.80 KCAL/MOL
REMARK 924 INTRA-LIGAND FREE ENERGY PREDICTED BY IDOCK:   -0.29 KCAL/MOL
REMARK 927      BINDING AFFINITY PREDICTED BY RF-SCORE:    0.00 PKD
ROOT
HETATM    1  N   UNL     1      -9.795   6.059  73.093  1.00  0.00    -0.166 NA 
HETATM    2  H2  UNL     1      -9.654   6.552  73.975  1.00  0.00     0.000 HD 
HETATM    3  C   UNL     1      -9.992   6.977  72.080  1.00  0.00    -0.165 A  
HETATM    4  H1  UNL     1     -10.509   5.340  73.218  1.00  0.00     0.000 HD 
HETATM    5  N   UNL     1      -9.060   7.917  71.917  1.00  0.00    -0.137 NA 
HETATM    6  C   UNL     1      -9.216   8.745  70.866  1.00  0.00    -0.212 A  
HETATM    7  C   UNL     1     -10.316   8.682  69.992  1.00  0.00    -0.207 A  
HETATM    8  N   UNL     1      -8.172   9.669  70.753  1.00  0.00    -0.364 NA 
HETATM    9  N   UNL     1     -11.093   6.898  71.319  1.00  0.00    -0.250 NA 
HETATM   10  H1  UNL     1      -8.290  10.296  69.957  1.00  0.00     0.000 HD 
HETATM   11  N   UNL     1     -11.267   7.773  70.281  1.00  0.00    -0.243 NA 
HETATM   12  H2  UNL     1      -7.267   9.198  70.718  1.00  0.00     0.000 HD 
ENDROOT
BRANCH   7  13
HETATM   13  C   UNL     1     -10.524   9.511  68.769  1.00  0.00    -0.243 A  
HETATM   14  C   UNL     1     -10.039   9.159  67.476  1.00  0.00    -0.228 A  
HETATM   15  C   UNL     1     -10.242  10.017  66.371  1.00  0.00    -0.221 A  
HETATM   16 CL   UNL     1      -9.129   7.696  67.204  1.00  0.00    -0.136 Cl 
HETATM   17 CL   UNL     1      -9.702   9.635  64.767  1.00  0.00    -0.227 Cl 
HETATM   18  C   UNL     1     -10.892  11.241  66.526  1.00  0.00    -0.319 A  
HETATM   19  C   UNL     1     -11.387  11.601  67.770  1.00  0.00    -0.356 A  
HETATM   20  C   UNL     1     -11.226  10.738  68.860  1.00  0.00    -0.328 A  
ENDBRANCH   7  13
TORSDOF 1
ENDMDL
MODEL      151
REMARK 921   NORMALIZED FREE ENERGY PREDICTED BY IDOCK:   -3.59 KCAL/MOL
REMARK 922        TOTAL FREE ENERGY PREDICTED BY IDOCK:   -4.07 KCAL/MOL
REMARK 923 INTER-LIGAND FREE ENERGY PREDICTED BY IDOCK:   -3.83 KCAL/MOL
REMARK 924 INTRA-LIGAND FREE ENERGY PREDICTED BY IDOCK:   -0.25 KCAL/MOL
REMARK 927      BINDING AFFINITY PREDICTED BY RF-SCORE:    0.00 PKD
ROOT
HETATM    1  N   UNL     1      -9.441  16.016  66.114  1.00  0.00    -0.309 NA 
HETATM    2  H2  UNL     1      -8.653  16.136  65.478  1.00  0.00     0.000 HD 
HETATM    3  C   UNL     1      -9.534  14.688  66.485  1.00  0.00    -0.297 A  
HETATM    4  H1  UNL     1     -10.272  16.447  65.708  1.00  0.00     0.000 HD 
HETATM    5  N   UNL     1      -8.448  14.124  67.016  1.00  0.00    -0.192 NA 
HETATM    6  C   UNL     1      -8.581  12.860  67.462  1.00  0.00    -0.188 A  
HETATM    7  C   UNL     1      -9.774  12.124  67.347  1.00  0.00    -0.179 A  
HETATM    8  N   UNL     1      -7.404  12.368  68.036  1.00  0.00    -0.097 NA 
HETATM    9  N   UNL     1     -10.683  14.025  66.295  1.00  0.00    -0.286 NA 
HETATM   10  H1  UNL     1      -7.506  11.411  68.374  1.00  0.00     0.000 HD 
HETATM   11  N   UNL     1     -10.796  12.726  66.709  1.00  0.00    -0.260 NA 
HETATM   12  H2  UNL     1      -7.072  12.986  68.778  1.00  0.00     0.000 HD 
ENDROOT
BRANCH   7  13
HETATM   13  C   UNL     1     -10.024  10.753  67.879  1.00  0.00    -0.196 A  
HETATM   14  C   UNL     1     -10.076   9.581  67.069  1.00  0.00    -0.234 A  
HETATM   15  C   UNL     1     -10.359   8.320  67.641  1.00  0.00    -0.248 A  
HETATM   16 CL   UNL     1      -9.854   9.651  65.340  1.00  0.00    -0.380 Cl 
HETATM   17 CL   UNL     1     -10.408   6.854  66.716  1.00  0.00    -0.305 Cl 
HETATM   18  C   UNL     1     -10.624   8.197  69.004  1.00  0.00    -0.167 A  
HETATM   19  C   UNL     1     -10.566   9.319  69.818  1.00  0.00    -0.244 A  
HETATM   20  C   UNL     1     -10.246  10.563  69.265  1.00  0.00    -0.245 A  
ENDBRANCH   7  13
TORSDOF 1
ENDMDL
MODEL      152
REMARK 921   NORMALIZED FREE ENERGY PREDICTED BY IDOCK:   -3.55 KCAL/MOL
REMARK 922        TOTAL FREE ENERGY PREDICTED BY IDOCK:   -4.04 KCAL/MOL
REMARK 923 INTER-LIGAND FREE ENERGY PREDICTED BY IDOCK:   -3.75 KCAL/MOL
REMARK 924 INTRA-LIGAND FREE ENERGY PREDICTED BY IDOCK:   -0.29 KCAL/MOL
REMARK 927      BINDING AFFINITY PREDICTED BY RF-SCORE:    0.00 PKD
ROOT
HETATM    1  N   UNL     1     -11.371   6.131  71.297  1.00  0.00    -0.291 NA 
HETATM    2  H2  UNL     1     -10.889   5.309  70.932  1.00  0.00     0.000 HD 
HETATM    3  C   UNL     1     -10.877   7.264  70.680  1.00  0.00    -0.242 A  
HETATM    4  H1  UNL     1     -11.353   6.108  72.317  1.00  0.00     0.000 HD 
HETATM    5  N   UNL     1     -10.901   7.294  69.347  1.00  0.00    -0.221 NA 
HETATM    6  C   UNL     1     -10.507   8.442  68.763  1.00  0.00    -0.178 A  
HETATM    7  C   UNL     1     -10.044   9.556  69.486  1.00  0.00    -0.206 A  
HETATM    8  N   UNL     1     -10.603   8.393  67.368  1.00  0.00    -0.426 NA 
HETATM    9  N   UNL     1     -10.395   8.268  71.426  1.00  0.00    -0.204 NA 
HETATM   10  H1  UNL     1     -10.305   9.263  66.925  1.00  0.00     0.000 HD 
HETATM   11  N   UNL     1      -9.954   9.414  70.822  1.00  0.00    -0.284 NA 
HETATM   12  H2  UNL     1     -11.545   8.135  67.073  1.00  0.00     0.000 HD 
ENDROOT
BRANCH   7  13
HETATM   13  C   UNL     1      -9.661  10.882  68.921  1.00  0.00    -0.198 A  
HETATM   14  C   UNL     1     -10.569  11.967  68.747  1.00  0.00    -0.209 A  
HETATM   15  C   UNL     1     -10.140  13.182  68.166  1.00  0.00    -0.237 A  
HETATM   16 CL   UNL     1     -12.252  11.834  69.186  1.00  0.00    -0.254 Cl 
HETATM   17 CL   UNL     1     -11.186  14.549  67.955  1.00  0.00    -0.294 Cl 
HETATM   18  C   UNL     1      -8.828  13.337  67.720  1.00  0.00    -0.197 A  
HETATM   19  C   UNL     1      -7.920  12.302  67.889  1.00  0.00    -0.152 A  
HETATM   20  C   UNL     1      -8.328  11.112  68.501  1.00  0.00    -0.154 A  
ENDBRANCH   7  13
TORSDOF 1
ENDMDL
MODEL      153
REMARK 921   NORMALIZED FREE ENERGY PREDICTED BY IDOCK:   -3.55 KCAL/MOL
REMARK 922        TOTAL FREE ENERGY PREDICTED BY IDOCK:   -4.04 KCAL/MOL
REMARK 923 INTER-LIGAND FREE ENERGY PREDICTED BY IDOCK:   -3.75 KCAL/MOL
REMARK 924 INTRA-LIGAND FREE ENERGY PREDICTED BY IDOCK:   -0.28 KCAL/MOL
REMARK 927      BINDING AFFINITY PREDICTED BY RF-SCORE:    0.00 PKD
ROOT
HETATM    1  N   UNL     1     -11.161   6.558  67.473  1.00  0.00    -0.679 NA 
HETATM    2  H2  UNL     1     -12.095   6.440  67.866  1.00  0.00     0.000 HD 
HETATM    3  C   UNL     1     -10.748   7.863  67.656  1.00  0.00    -0.145 A  
HETATM    4  H1  UNL     1     -11.145   6.191  66.521  1.00  0.00     0.000 HD 
HETATM    5  N   UNL     1     -10.768   8.343  68.900  1.00  0.00    -0.131 NA 
HETATM    6  C   UNL     1     -10.272   9.583  69.077  1.00  0.00    -0.200 A  
HETATM    7  C   UNL     1      -9.792  10.378  68.022  1.00  0.00    -0.150 A  
HETATM    8  N   UNL     1     -10.299   9.984  70.417  1.00  0.00    -0.388 NA 
HETATM    9  N   UNL     1     -10.358   8.589  66.598  1.00  0.00    -0.284 NA 
HETATM   10  H1  UNL     1      -9.922  10.923  70.551  1.00  0.00     0.000 HD 
HETATM   11  N   UNL     1      -9.897   9.865  66.781  1.00  0.00    -0.190 NA 
HETATM   12  H2  UNL     1      -9.819   9.308  71.012  1.00  0.00     0.000 HD 
ENDROOT
BRANCH   7  13
HETATM   13  C   UNL     1      -9.162  11.725  68.143  1.00  0.00    -0.186 A  
HETATM   14  C   UNL     1      -9.866  12.953  67.972  1.00  0.00    -0.223 A  
HETATM   15  C   UNL     1      -9.190  14.191  68.062  1.00  0.00    -0.195 A  
HETATM   16 CL   UNL     1     -11.567  12.989  67.589  1.00  0.00    -0.377 Cl 
HETATM   17 CL   UNL     1      -9.993  15.719  67.893  1.00  0.00    -0.225 Cl 
HETATM   18  C   UNL     1      -7.815  14.240  68.289  1.00  0.00    -0.141 A  
HETATM   19  C   UNL     1      -7.108  13.061  68.473  1.00  0.00    -0.105 A  
HETATM   20  C   UNL     1      -7.778  11.833  68.426  1.00  0.00    -0.131 A  
ENDBRANCH   7  13
TORSDOF 1
ENDMDL
MODEL      154
REMARK 921   NORMALIZED FREE ENERGY PREDICTED BY IDOCK:   -3.53 KCAL/MOL
REMARK 922        TOTAL FREE ENERGY PREDICTED BY IDOCK:   -4.01 KCAL/MOL
REMARK 923 INTER-LIGAND FREE ENERGY PREDICTED BY IDOCK:   -3.71 KCAL/MOL
REMARK 924 INTRA-LIGAND FREE ENERGY PREDICTED BY IDOCK:   -0.30 KCAL/MOL
REMARK 927      BINDING AFFINITY PREDICTED BY RF-SCORE:    0.00 PKD
ROOT
HETATM    1  N   UNL     1     -10.681   7.065  66.717  1.00  0.00    -0.522 NA 
HETATM    2  H2  UNL     1      -9.874   6.473  66.910  1.00  0.00     0.000 HD 
HETATM    3  C   UNL     1     -10.284   8.388  66.689  1.00  0.00    -0.265 A  
HETATM    4  H1  UNL     1     -11.441   6.818  67.352  1.00  0.00     0.000 HD 
HETATM    5  N   UNL     1      -9.291   8.711  65.860  1.00  0.00    -0.216 NA 
HETATM    6  C   UNL     1      -8.980  10.019  65.772  1.00  0.00    -0.157 A  
HETATM    7  C   UNL     1      -9.616  11.015  66.533  1.00  0.00    -0.195 A  
HETATM    8  N   UNL     1      -7.956  10.264  64.850  1.00  0.00    -0.153 NA 
HETATM    9  N   UNL     1     -10.892   9.279  67.485  1.00  0.00    -0.202 NA 
HETATM   10  H1  UNL     1      -7.721  11.255  64.784  1.00  0.00     0.000 HD 
HETATM   11  N   UNL     1     -10.539  10.600  67.422  1.00  0.00    -0.238 NA 
HETATM   12  H2  UNL     1      -8.186   9.879  63.934  1.00  0.00     0.000 HD 
ENDROOT
BRANCH   7  13
HETATM   13  C   UNL     1      -9.381  12.486  66.441  1.00  0.00    -0.209 A  
HETATM   14  C   UNL     1      -8.330  13.169  67.118  1.00  0.00    -0.140 A  
HETATM   15  C   UNL     1      -8.197  14.573  67.013  1.00  0.00    -0.135 A  
HETATM   16 CL   UNL     1      -7.199  12.327  68.144  1.00  0.00    -0.092 Cl 
HETATM   17 CL   UNL     1      -6.923  15.460  67.787  1.00  0.00    -0.163 Cl 
HETATM   18  C   UNL     1      -9.109  15.324  66.273  1.00  0.00    -0.337 A  
HETATM   19  C   UNL     1     -10.134  14.683  65.594  1.00  0.00    -0.389 A  
HETATM   20  C   UNL     1     -10.247  13.290  65.659  1.00  0.00    -0.295 A  
ENDBRANCH   7  13
TORSDOF 1
ENDMDL
MODEL      155
REMARK 921   NORMALIZED FREE ENERGY PREDICTED BY IDOCK:   -3.52 KCAL/MOL
REMARK 922        TOTAL FREE ENERGY PREDICTED BY IDOCK:   -4.00 KCAL/MOL
REMARK 923 INTER-LIGAND FREE ENERGY PREDICTED BY IDOCK:   -3.70 KCAL/MOL
REMARK 924 INTRA-LIGAND FREE ENERGY PREDICTED BY IDOCK:   -0.30 KCAL/MOL
REMARK 927      BINDING AFFINITY PREDICTED BY RF-SCORE:    0.00 PKD
ROOT
HETATM    1  N   UNL     1     -10.624   2.742  74.351  1.00  0.00    -0.159 NA 
HETATM    2  H2  UNL     1      -9.997   2.837  75.150  1.00  0.00     0.000 HD 
HETATM    3  C   UNL     1     -10.565   3.888  73.582  1.00  0.00    -0.207 A  
HETATM    4  H1  UNL     1     -11.544   2.444  74.676  1.00  0.00     0.000 HD 
HETATM    5  N   UNL     1      -9.363   4.278  73.157  1.00  0.00    -0.113 NA 
HETATM    6  C   UNL     1      -9.332   5.341  72.329  1.00  0.00    -0.142 A  
HETATM    7  C   UNL     1     -10.481   6.056  71.948  1.00  0.00    -0.218 A  
HETATM    8  N   UNL     1      -8.035   5.651  71.905  1.00  0.00    -0.110 NA 
HETATM    9  N   UNL     1     -11.693   4.558  73.304  1.00  0.00    -0.189 NA 
HETATM   10  H1  UNL     1      -8.011   6.455  71.278  1.00  0.00     0.000 HD 
HETATM   11  N   UNL     1     -11.646   5.664  72.498  1.00  0.00    -0.290 NA 
HETATM   12  H2  UNL     1      -7.584   4.840  71.479  1.00  0.00     0.000 HD 
ENDROOT
BRANCH   7  13
HETATM   13  C   UNL     1     -10.539   7.192  70.983  1.00  0.00    -0.239 A  
HETATM   14  C   UNL     1     -10.499   7.037  69.567  1.00  0.00    -0.220 A  
HETATM   15  C   UNL     1     -10.518   8.166  68.717  1.00  0.00    -0.174 A  
HETATM   16 CL   UNL     1     -10.369   5.467  68.819  1.00  0.00    -0.275 Cl 
HETATM   17 CL   UNL     1     -10.501   8.046  66.986  1.00  0.00    -0.410 Cl 
HETATM   18  C   UNL     1     -10.543   9.457  69.243  1.00  0.00    -0.239 A  
HETATM   19  C   UNL     1     -10.596   9.636  70.617  1.00  0.00    -0.386 A  
HETATM   20  C   UNL     1     -10.620   8.522  71.463  1.00  0.00    -0.333 A  
ENDBRANCH   7  13
TORSDOF 1
ENDMDL
MODEL      156
REMARK 921   NORMALIZED FREE ENERGY PREDICTED BY IDOCK:   -3.51 KCAL/MOL
REMARK 922        TOTAL FREE ENERGY PREDICTED BY IDOCK:   -3.99 KCAL/MOL
REMARK 923 INTER-LIGAND FREE ENERGY PREDICTED BY IDOCK:   -3.71 KCAL/MOL
REMARK 924 INTRA-LIGAND FREE ENERGY PREDICTED BY IDOCK:   -0.28 KCAL/MOL
REMARK 927      BINDING AFFINITY PREDICTED BY RF-SCORE:    0.00 PKD
ROOT
HETATM    1  N   UNL     1      -6.476   5.891  66.123  1.00  0.00    -0.045 NA 
HETATM    2  H2  UNL     1      -6.759   5.323  65.324  1.00  0.00     0.000 HD 
HETATM    3  C   UNL     1      -7.401   6.899  66.319  1.00  0.00    -0.076 A  
HETATM    4  H1  UNL     1      -5.500   6.166  66.014  1.00  0.00     0.000 HD 
HETATM    5  N   UNL     1      -8.677   6.539  66.461  1.00  0.00    -0.129 NA 
HETATM    6  C   UNL     1      -9.552   7.522  66.749  1.00  0.00    -0.206 A  
HETATM    7  C   UNL     1      -9.184   8.875  66.854  1.00  0.00    -0.147 A  
HETATM    8  N   UNL     1     -10.856   7.045  66.919  1.00  0.00    -0.519 NA 
HETATM    9  N   UNL     1      -6.992   8.175  66.350  1.00  0.00    -0.066 NA 
HETATM   10  H1  UNL     1     -11.519   7.790  67.136  1.00  0.00     0.000 HD 
HETATM   11  N   UNL     1      -7.896   9.173  66.597  1.00  0.00    -0.100 NA 
HETATM   12  H2  UNL     1     -10.888   6.307  67.623  1.00  0.00     0.000 HD 
ENDROOT
BRANCH   7  13
HETATM   13  C   UNL     1     -10.075  10.009  67.239  1.00  0.00    -0.259 A  
HETATM   14  C   UNL     1     -10.536  10.245  68.566  1.00  0.00    -0.192 A  
HETATM   15  C   UNL     1     -11.412  11.318  68.846  1.00  0.00    -0.297 A  
HETATM   16 CL   UNL     1     -10.094   9.199  69.890  1.00  0.00    -0.203 Cl 
HETATM   17 CL   UNL     1     -11.986  11.677  70.443  1.00  0.00    -0.457 Cl 
HETATM   18  C   UNL     1     -11.871  12.151  67.826  1.00  0.00    -0.327 A  
HETATM   19  C   UNL     1     -11.427  11.952  66.527  1.00  0.00    -0.381 A  
HETATM   20  C   UNL     1     -10.527  10.917  66.250  1.00  0.00    -0.304 A  
ENDBRANCH   7  13
TORSDOF 1
ENDMDL
MODEL      157
REMARK 921   NORMALIZED FREE ENERGY PREDICTED BY IDOCK:   -3.47 KCAL/MOL
REMARK 922        TOTAL FREE ENERGY PREDICTED BY IDOCK:   -3.95 KCAL/MOL
REMARK 923 INTER-LIGAND FREE ENERGY PREDICTED BY IDOCK:   -4.46 KCAL/MOL
REMARK 924 INTRA-LIGAND FREE ENERGY PREDICTED BY IDOCK:    0.51 KCAL/MOL
REMARK 927      BINDING AFFINITY PREDICTED BY RF-SCORE:    0.00 PKD
ROOT
HETATM    1  N   UNL     1     -11.237   8.550  71.959  1.00  0.00    -0.324 NA 
HETATM    2  H2  UNL     1     -10.423   8.688  72.557  1.00  0.00     0.000 HD 
HETATM    3  C   UNL     1     -11.024   9.171  70.743  1.00  0.00    -0.270 A  
HETATM    4  H1  UNL     1     -12.081   8.805  72.473  1.00  0.00     0.000 HD 
HETATM    5  N   UNL     1      -9.922   8.839  70.072  1.00  0.00    -0.182 NA 
HETATM    6  C   UNL     1      -9.776   9.379  68.846  1.00  0.00    -0.164 A  
HETATM    7  C   UNL     1     -10.695  10.286  68.289  1.00  0.00    -0.237 A  
HETATM    8  N   UNL     1      -8.613   8.942  68.203  1.00  0.00    -0.129 NA 
HETATM    9  N   UNL     1     -11.911  10.073  70.296  1.00  0.00    -0.241 NA 
HETATM   10  H1  UNL     1      -8.503   9.351  67.275  1.00  0.00     0.000 HD 
HETATM   11  N   UNL     1     -11.732  10.651  69.068  1.00  0.00    -0.264 NA 
HETATM   12  H2  UNL     1      -8.576   7.923  68.162  1.00  0.00     0.000 HD 
ENDROOT
BRANCH   7  13
HETATM   13  C   UNL     1     -10.645  10.869  66.917  1.00  0.00    -0.312 A  
HETATM   14  C   UNL     1     -11.037  12.202  66.602  1.00  0.00    -0.306 A  
HETATM   15  C   UNL     1     -10.999  12.670  65.269  1.00  0.00    -0.286 A  
HETATM   16 CL   UNL     1     -11.632  13.296  67.823  1.00  0.00    -0.355 Cl 
HETATM   17 CL   UNL     1     -11.435  14.289  64.824  1.00  0.00    -0.375 Cl 
HETATM   18  C   UNL     1     -10.609  11.830  64.227  1.00  0.00    -0.386 A  
HETATM   19  C   UNL     1     -10.209  10.531  64.507  1.00  0.00    -0.355 A  
HETATM   20  C   UNL     1     -10.204  10.075  65.830  1.00  0.00    -0.270 A  
ENDBRANCH   7  13
TORSDOF 1
ENDMDL
MODEL      158
REMARK 921   NORMALIZED FREE ENERGY PREDICTED BY IDOCK:   -3.45 KCAL/MOL
REMARK 922        TOTAL FREE ENERGY PREDICTED BY IDOCK:   -3.93 KCAL/MOL
REMARK 923 INTER-LIGAND FREE ENERGY PREDICTED BY IDOCK:   -3.66 KCAL/MOL
REMARK 924 INTRA-LIGAND FREE ENERGY PREDICTED BY IDOCK:   -0.27 KCAL/MOL
REMARK 927      BINDING AFFINITY PREDICTED BY RF-SCORE:    0.00 PKD
ROOT
HETATM    1  N   UNL     1     -10.153   4.983  65.487  1.00  0.00    -0.396 NA 
HETATM    2  H2  UNL     1     -10.161   5.907  65.054  1.00  0.00     0.000 HD 
HETATM    3  C   UNL     1     -10.008   5.118  66.855  1.00  0.00    -0.201 A  
HETATM    4  H1  UNL     1      -9.480   4.388  65.002  1.00  0.00     0.000 HD 
HETATM    5  N   UNL     1     -10.887   5.895  67.489  1.00  0.00    -0.279 NA 
HETATM    6  C   UNL     1     -10.793   5.940  68.832  1.00  0.00    -0.303 A  
HETATM    7  C   UNL     1      -9.804   5.253  69.559  1.00  0.00    -0.200 A  
HETATM    8  N   UNL     1     -11.778   6.747  69.411  1.00  0.00    -0.631 NA 
HETATM    9  N   UNL     1      -9.007   4.483  67.480  1.00  0.00    -0.111 NA 
HETATM   10  H1  UNL     1     -11.707   6.780  70.428  1.00  0.00     0.000 HD 
HETATM   11  N   UNL     1      -8.891   4.570  68.842  1.00  0.00    -0.096 NA 
HETATM   12  H2  UNL     1     -12.711   6.456  69.117  1.00  0.00     0.000 HD 
ENDROOT
BRANCH   7  13
HETATM   13  C   UNL     1      -9.678   5.192  71.044  1.00  0.00    -0.245 A  
HETATM   14  C   UNL     1      -9.240   6.282  71.852  1.00  0.00    -0.146 A  
HETATM   15  C   UNL     1      -9.107   6.134  73.252  1.00  0.00    -0.129 A  
HETATM   16 CL   UNL     1      -8.797   7.819  71.158  1.00  0.00    -0.138 Cl 
HETATM   17 CL   UNL     1      -8.609   7.428  74.294  1.00  0.00    -0.243 Cl 
HETATM   18  C   UNL     1      -9.369   4.912  73.870  1.00  0.00    -0.124 A  
HETATM   19  C   UNL     1      -9.809   3.840  73.109  1.00  0.00    -0.180 A  
HETATM   20  C   UNL     1      -9.983   3.990  71.729  1.00  0.00    -0.240 A  
ENDBRANCH   7  13
TORSDOF 1
ENDMDL
MODEL      159
REMARK 921   NORMALIZED FREE ENERGY PREDICTED BY IDOCK:   -3.44 KCAL/MOL
REMARK 922        TOTAL FREE ENERGY PREDICTED BY IDOCK:   -3.92 KCAL/MOL
REMARK 923 INTER-LIGAND FREE ENERGY PREDICTED BY IDOCK:   -3.62 KCAL/MOL
REMARK 924 INTRA-LIGAND FREE ENERGY PREDICTED BY IDOCK:   -0.30 KCAL/MOL
REMARK 927      BINDING AFFINITY PREDICTED BY RF-SCORE:    0.00 PKD
ROOT
HETATM    1  N   UNL     1      -7.417   7.622  64.844  1.00  0.00    -0.085 NA 
HETATM    2  H2  UNL     1      -6.974   8.016  64.014  1.00  0.00     0.000 HD 
HETATM    3  C   UNL     1      -8.087   8.620  65.524  1.00  0.00    -0.114 A  
HETATM    4  H1  UNL     1      -6.731   7.077  65.368  1.00  0.00     0.000 HD 
HETATM    5  N   UNL     1      -8.983   9.332  64.840  1.00  0.00    -0.200 NA 
HETATM    6  C   UNL     1      -9.697  10.236  65.539  1.00  0.00    -0.265 A  
HETATM    7  C   UNL     1      -9.502  10.477  66.911  1.00  0.00    -0.165 A  
HETATM    8  N   UNL     1     -10.637  10.904  64.747  1.00  0.00    -0.292 NA 
HETATM    9  N   UNL     1      -7.812   8.839  66.818  1.00  0.00    -0.097 NA 
HETATM   10  H1  UNL     1     -11.178  11.588  65.277  1.00  0.00     0.000 HD 
HETATM   11  N   UNL     1      -8.510   9.792  67.511  1.00  0.00    -0.121 NA 
HETATM   12  H2  UNL     1     -11.250  10.243  64.269  1.00  0.00     0.000 HD 
ENDROOT
BRANCH   7  13
HETATM   13  C   UNL     1     -10.297  11.404  67.769  1.00  0.00    -0.206 A  
HETATM   14  C   UNL     1     -10.103  12.815  67.811  1.00  0.00    -0.224 A  
HETATM   15  C   UNL     1     -10.869  13.623  68.682  1.00  0.00    -0.263 A  
HETATM   16 CL   UNL     1      -8.884  13.602  66.844  1.00  0.00    -0.228 Cl 
HETATM   17 CL   UNL     1     -10.703  15.348  68.760  1.00  0.00    -0.232 Cl 
HETATM   18  C   UNL     1     -11.809  13.056  69.542  1.00  0.00    -0.385 A  
HETATM   19  C   UNL     1     -12.028  11.687  69.511  1.00  0.00    -0.383 A  
HETATM   20  C   UNL     1     -11.302  10.886  68.622  1.00  0.00    -0.360 A  
ENDBRANCH   7  13
TORSDOF 1
ENDMDL
MODEL      160
REMARK 921   NORMALIZED FREE ENERGY PREDICTED BY IDOCK:   -3.43 KCAL/MOL
REMARK 922        TOTAL FREE ENERGY PREDICTED BY IDOCK:   -3.90 KCAL/MOL
REMARK 923 INTER-LIGAND FREE ENERGY PREDICTED BY IDOCK:   -3.65 KCAL/MOL
REMARK 924 INTRA-LIGAND FREE ENERGY PREDICTED BY IDOCK:   -0.25 KCAL/MOL
REMARK 927      BINDING AFFINITY PREDICTED BY RF-SCORE:    0.00 PKD
ROOT
HETATM    1  N   UNL     1      -9.736  12.051  63.898  1.00  0.00    -0.535 NA 
HETATM    2  H2  UNL     1      -9.152  12.866  63.709  1.00  0.00     0.000 HD 
HETATM    3  C   UNL     1      -9.462  11.574  65.165  1.00  0.00    -0.168 A  
HETATM    4  H1  UNL     1      -9.657  11.392  63.123  1.00  0.00     0.000 HD 
HETATM    5  N   UNL     1      -9.565  12.435  66.178  1.00  0.00    -0.246 NA 
HETATM    6  C   UNL     1      -9.390  11.933  67.416  1.00  0.00    -0.176 A  
HETATM    7  C   UNL     1      -9.069  10.587  67.664  1.00  0.00    -0.142 A  
HETATM    8  N   UNL     1      -9.556  12.901  68.414  1.00  0.00    -0.320 NA 
HETATM    9  N   UNL     1      -9.103  10.293  65.327  1.00  0.00    -0.177 NA 
HETATM   10  H1  UNL     1      -9.424  12.520  69.351  1.00  0.00     0.000 HD 
HETATM   11  N   UNL     1      -8.883   9.802  66.586  1.00  0.00    -0.137 NA 
HETATM   12  H2  UNL     1     -10.461  13.364  68.330  1.00  0.00     0.000 HD 
ENDROOT
BRANCH   7  13
HETATM   13  C   UNL     1      -8.932   9.940  69.002  1.00  0.00    -0.160 A  
HETATM   14  C   UNL     1     -10.024   9.700  69.886  1.00  0.00    -0.241 A  
HETATM   15  C   UNL     1      -9.808   9.118  71.156  1.00  0.00    -0.301 A  
HETATM   16 CL   UNL     1     -11.655  10.159  69.475  1.00  0.00    -0.221 Cl 
HETATM   17 CL   UNL     1     -11.096   8.774  72.267  1.00  0.00    -0.403 Cl 
HETATM   18  C   UNL     1      -8.522   8.796  71.586  1.00  0.00    -0.209 A  
HETATM   19  C   UNL     1      -7.444   9.007  70.740  1.00  0.00    -0.121 A  
HETATM   20  C   UNL     1      -7.654   9.543  69.465  1.00  0.00    -0.096 A  
ENDBRANCH   7  13
TORSDOF 1
ENDMDL
MODEL      161
REMARK 921   NORMALIZED FREE ENERGY PREDICTED BY IDOCK:   -3.40 KCAL/MOL
REMARK 922        TOTAL FREE ENERGY PREDICTED BY IDOCK:   -3.88 KCAL/MOL
REMARK 923 INTER-LIGAND FREE ENERGY PREDICTED BY IDOCK:   -3.61 KCAL/MOL
REMARK 924 INTRA-LIGAND FREE ENERGY PREDICTED BY IDOCK:   -0.27 KCAL/MOL
REMARK 927      BINDING AFFINITY PREDICTED BY RF-SCORE:    0.00 PKD
ROOT
HETATM    1  N   UNL     1      -5.765  10.411  69.395  1.00  0.00    -0.037 NA 
HETATM    2  H2  UNL     1      -4.896   9.999  69.734  1.00  0.00     0.000 HD 
HETATM    3  C   UNL     1      -6.837   9.682  69.872  1.00  0.00    -0.075 A  
HETATM    4  H1  UNL     1      -5.703  10.547  68.386  1.00  0.00     0.000 HD 
HETATM    5  N   UNL     1      -6.917   9.504  71.191  1.00  0.00    -0.308 NA 
HETATM    6  C   UNL     1      -8.017   8.875  71.649  1.00  0.00    -0.021 A  
HETATM    7  C   UNL     1      -9.027   8.376  70.806  1.00  0.00    -0.155 A  
HETATM    8  N   UNL     1      -8.032   8.771  73.044  1.00  0.00    -0.383 NA 
HETATM    9  N   UNL     1      -7.734   9.182  69.010  1.00  0.00    -0.077 NA 
HETATM   10  H1  UNL     1      -8.866   8.294  73.390  1.00  0.00     0.000 HD 
HETATM   11  N   UNL     1      -8.826   8.504  69.481  1.00  0.00    -0.139 NA 
HETATM   12  H2  UNL     1      -7.924   9.686  73.482  1.00  0.00     0.000 HD 
ENDROOT
BRANCH   7  13
HETATM   13  C   UNL     1     -10.304   7.736  71.237  1.00  0.00    -0.222 A  
HETATM   14  C   UNL     1     -11.554   8.418  71.304  1.00  0.00    -0.283 A  
HETATM   15  C   UNL     1     -12.714   7.753  71.761  1.00  0.00    -0.329 A  
HETATM   16 CL   UNL     1     -11.703  10.104  70.885  1.00  0.00    -0.435 Cl 
HETATM   17 CL   UNL     1     -14.270   8.516  71.839  1.00  0.00    -0.512 Cl 
HETATM   18  C   UNL     1     -12.658   6.426  72.186  1.00  0.00    -0.104 A  
HETATM   19  C   UNL     1     -11.457   5.736  72.119  1.00  0.00    -0.295 A  
HETATM   20  C   UNL     1     -10.313   6.375  71.628  1.00  0.00    -0.235 A  
ENDBRANCH   7  13
TORSDOF 1
ENDMDL
MODEL      162
REMARK 921   NORMALIZED FREE ENERGY PREDICTED BY IDOCK:   -3.40 KCAL/MOL
REMARK 922        TOTAL FREE ENERGY PREDICTED BY IDOCK:   -3.87 KCAL/MOL
REMARK 923 INTER-LIGAND FREE ENERGY PREDICTED BY IDOCK:   -3.57 KCAL/MOL
REMARK 924 INTRA-LIGAND FREE ENERGY PREDICTED BY IDOCK:   -0.30 KCAL/MOL
REMARK 927      BINDING AFFINITY PREDICTED BY RF-SCORE:    0.00 PKD
ROOT
HETATM    1  N   UNL     1      -9.765   9.375  65.553  1.00  0.00    -0.407 NA 
HETATM    2  H2  UNL     1      -9.015   9.148  64.900  1.00  0.00     0.000 HD 
HETATM    3  C   UNL     1      -9.703   8.521  66.637  1.00  0.00    -0.249 A  
HETATM    4  H1  UNL     1     -10.650   9.426  65.047  1.00  0.00     0.000 HD 
HETATM    5  N   UNL     1      -8.546   8.455  67.298  1.00  0.00    -0.123 NA 
HETATM    6  C   UNL     1      -8.530   7.693  68.409  1.00  0.00    -0.125 A  
HETATM    7  C   UNL     1      -9.641   6.955  68.855  1.00  0.00    -0.139 A  
HETATM    8  N   UNL     1      -7.289   7.716  69.055  1.00  0.00    -0.084 NA 
HETATM    9  N   UNL     1     -10.781   7.799  66.975  1.00  0.00    -0.326 NA 
HETATM   10  H1  UNL     1      -7.277   7.140  69.897  1.00  0.00     0.000 HD 
HETATM   11  N   UNL     1     -10.741   6.993  68.080  1.00  0.00    -0.208 NA 
HETATM   12  H2  UNL     1      -7.000   8.673  69.261  1.00  0.00     0.000 HD 
ENDROOT
BRANCH   7  13
HETATM   13  C   UNL     1      -9.725   6.150  70.108  1.00  0.00    -0.194 A  
HETATM   14  C   UNL     1      -9.915   6.711  71.404  1.00  0.00    -0.183 A  
HETATM   15  C   UNL     1      -9.944   5.885  72.551  1.00  0.00    -0.177 A  
HETATM   16 CL   UNL     1     -10.062   8.432  71.646  1.00  0.00    -0.282 Cl 
HETATM   17 CL   UNL     1     -10.200   6.502  74.152  1.00  0.00    -0.365 Cl 
HETATM   18  C   UNL     1      -9.756   4.508  72.445  1.00  0.00    -0.210 A  
HETATM   19  C   UNL     1      -9.583   3.934  71.194  1.00  0.00    -0.244 A  
HETATM   20  C   UNL     1      -9.595   4.741  70.051  1.00  0.00    -0.260 A  
ENDBRANCH   7  13
TORSDOF 1
ENDMDL
MODEL      163
REMARK 921   NORMALIZED FREE ENERGY PREDICTED BY IDOCK:   -3.39 KCAL/MOL
REMARK 922        TOTAL FREE ENERGY PREDICTED BY IDOCK:   -3.87 KCAL/MOL
REMARK 923 INTER-LIGAND FREE ENERGY PREDICTED BY IDOCK:   -3.58 KCAL/MOL
REMARK 924 INTRA-LIGAND FREE ENERGY PREDICTED BY IDOCK:   -0.29 KCAL/MOL
REMARK 927      BINDING AFFINITY PREDICTED BY RF-SCORE:    0.00 PKD
ROOT
HETATM    1  N   UNL     1      -6.130  11.836  68.532  1.00  0.00    -0.049 NA 
HETATM    2  H2  UNL     1      -6.563  12.734  68.314  1.00  0.00     0.000 HD 
HETATM    3  C   UNL     1      -7.042  11.037  69.194  1.00  0.00    -0.116 A  
HETATM    4  H1  UNL     1      -5.231  11.996  68.986  1.00  0.00     0.000 HD 
HETATM    5  N   UNL     1      -8.218  10.829  68.601  1.00  0.00    -0.131 NA 
HETATM    6  C   UNL     1      -9.058   9.970  69.211  1.00  0.00    -0.200 A  
HETATM    7  C   UNL     1      -8.764   9.343  70.435  1.00  0.00    -0.240 A  
HETATM    8  N   UNL     1     -10.246   9.785  68.497  1.00  0.00    -0.179 NA 
HETATM    9  N   UNL     1      -6.722  10.516  70.388  1.00  0.00    -0.290 NA 
HETATM   10  H1  UNL     1     -10.882   9.135  68.959  1.00  0.00     0.000 HD 
HETATM   11  N   UNL     1      -7.600   9.681  71.023  1.00  0.00    -0.307 NA 
HETATM   12  H2  UNL     1     -10.057   9.494  67.537  1.00  0.00     0.000 HD 
ENDROOT
BRANCH   7  13
HETATM   13  C   UNL     1      -9.604   8.329  71.135  1.00  0.00    -0.206 A  
HETATM   14  C   UNL     1      -9.480   6.922  70.945  1.00  0.00    -0.157 A  
HETATM   15  C   UNL     1     -10.342   6.024  71.616  1.00  0.00    -0.214 A  
HETATM   16 CL   UNL     1      -8.310   6.245  69.844  1.00  0.00    -0.127 Cl 
HETATM   17 CL   UNL     1     -10.225   4.302  71.450  1.00  0.00    -0.180 Cl 
HETATM   18  C   UNL     1     -11.354   6.494  72.453  1.00  0.00    -0.314 A  
HETATM   19  C   UNL     1     -11.488   7.858  72.666  1.00  0.00    -0.454 A  
HETATM   20  C   UNL     1     -10.611   8.750  72.039  1.00  0.00    -0.414 A  
ENDBRANCH   7  13
TORSDOF 1
ENDMDL
MODEL      164
REMARK 921   NORMALIZED FREE ENERGY PREDICTED BY IDOCK:   -3.34 KCAL/MOL
REMARK 922        TOTAL FREE ENERGY PREDICTED BY IDOCK:   -3.82 KCAL/MOL
REMARK 923 INTER-LIGAND FREE ENERGY PREDICTED BY IDOCK:   -3.54 KCAL/MOL
REMARK 924 INTRA-LIGAND FREE ENERGY PREDICTED BY IDOCK:   -0.27 KCAL/MOL
REMARK 927      BINDING AFFINITY PREDICTED BY RF-SCORE:    0.00 PKD
ROOT
HETATM    1  N   UNL     1      -7.561   5.481  65.130  1.00  0.00    -0.077 NA 
HETATM    2  H2  UNL     1      -8.014   5.278  64.238  1.00  0.00     0.000 HD 
HETATM    3  C   UNL     1      -8.255   6.483  65.779  1.00  0.00    -0.135 A  
HETATM    4  H1  UNL     1      -6.563   5.626  64.977  1.00  0.00     0.000 HD 
HETATM    5  N   UNL     1      -9.560   6.293  65.979  1.00  0.00    -0.015 NA 
HETATM    6  C   UNL     1     -10.203   7.234  66.698  1.00  0.00    -0.162 A  
HETATM    7  C   UNL     1      -9.575   8.392  67.189  1.00  0.00    -0.179 A  
HETATM    8  N   UNL     1     -11.555   6.930  66.889  1.00  0.00    -0.449 NA 
HETATM    9  N   UNL     1      -7.608   7.591  66.169  1.00  0.00    -0.086 NA 
HETATM   10  H1  UNL     1     -12.042   7.642  67.434  1.00  0.00     0.000 HD 
HETATM   11  N   UNL     1      -8.280   8.563  66.860  1.00  0.00    -0.105 NA 
HETATM   12  H2  UNL     1     -11.669   6.006  67.308  1.00  0.00     0.000 HD 
ENDROOT
BRANCH   7  13
HETATM   13  C   UNL     1     -10.196   9.440  68.051  1.00  0.00    -0.248 A  
HETATM   14  C   UNL     1     -10.677  10.690  67.564  1.00  0.00    -0.272 A  
HETATM   15  C   UNL     1     -11.217  11.650  68.451  1.00  0.00    -0.249 A  
HETATM   16 CL   UNL     1     -10.573  11.120  65.877  1.00  0.00    -0.311 Cl 
HETATM   17 CL   UNL     1     -11.845  13.177  67.920  1.00  0.00    -0.393 Cl 
HETATM   18  C   UNL     1     -11.262  11.410  69.824  1.00  0.00    -0.266 A  
HETATM   19  C   UNL     1     -10.813  10.196  70.322  1.00  0.00    -0.370 A  
HETATM   20  C   UNL     1     -10.316   9.225  69.446  1.00  0.00    -0.223 A  
ENDBRANCH   7  13
TORSDOF 1
ENDMDL
MODEL      165
REMARK 921   NORMALIZED FREE ENERGY PREDICTED BY IDOCK:   -3.34 KCAL/MOL
REMARK 922        TOTAL FREE ENERGY PREDICTED BY IDOCK:   -3.81 KCAL/MOL
REMARK 923 INTER-LIGAND FREE ENERGY PREDICTED BY IDOCK:   -3.52 KCAL/MOL
REMARK 924 INTRA-LIGAND FREE ENERGY PREDICTED BY IDOCK:   -0.30 KCAL/MOL
REMARK 927      BINDING AFFINITY PREDICTED BY RF-SCORE:    0.00 PKD
ROOT
HETATM    1  N   UNL     1     -13.157  10.862  71.784  1.00  0.00    -0.480 NA 
HETATM    2  H2  UNL     1     -12.943  11.076  72.758  1.00  0.00     0.000 HD 
HETATM    3  C   UNL     1     -12.112  10.148  71.230  1.00  0.00    -0.394 A  
HETATM    4  H1  UNL     1     -13.446  11.716  71.306  1.00  0.00     0.000 HD 
HETATM    5  N   UNL     1     -11.734   9.033  71.855  1.00  0.00    -0.367 NA 
HETATM    6  C   UNL     1     -10.780   8.297  71.251  1.00  0.00    -0.227 A  
HETATM    7  C   UNL     1     -10.159   8.678  70.048  1.00  0.00    -0.189 A  
HETATM    8  N   UNL     1     -10.478   7.128  71.959  1.00  0.00    -0.206 NA 
HETATM    9  N   UNL     1     -11.523  10.597  70.113  1.00  0.00    -0.306 NA 
HETATM   10  H1  UNL     1      -9.756   6.571  71.501  1.00  0.00     0.000 HD 
HETATM   11  N   UNL     1     -10.522   9.866  69.530  1.00  0.00    -0.224 NA 
HETATM   12  H2  UNL     1     -11.318   6.574  72.127  1.00  0.00     0.000 HD 
ENDROOT
BRANCH   7  13
HETATM   13  C   UNL     1      -9.153   7.887  69.282  1.00  0.00    -0.148 A  
HETATM   14  C   UNL     1      -9.486   6.868  68.343  1.00  0.00    -0.128 A  
HETATM   15  C   UNL     1      -8.474   6.133  67.685  1.00  0.00    -0.108 A  
HETATM   16 CL   UNL     1     -11.142   6.439  68.005  1.00  0.00    -0.396 Cl 
HETATM   17 CL   UNL     1      -8.812   4.901  66.512  1.00  0.00    -0.112 Cl 
HETATM   18  C   UNL     1      -7.127   6.365  67.962  1.00  0.00    -0.082 A  
HETATM   19  C   UNL     1      -6.774   7.361  68.861  1.00  0.00    -0.049 A  
HETATM   20  C   UNL     1      -7.770   8.120  69.485  1.00  0.00    -0.102 A  
ENDBRANCH   7  13
TORSDOF 1
ENDMDL
MODEL      166
REMARK 921   NORMALIZED FREE ENERGY PREDICTED BY IDOCK:   -3.34 KCAL/MOL
REMARK 922        TOTAL FREE ENERGY PREDICTED BY IDOCK:   -3.81 KCAL/MOL
REMARK 923 INTER-LIGAND FREE ENERGY PREDICTED BY IDOCK:   -3.53 KCAL/MOL
REMARK 924 INTRA-LIGAND FREE ENERGY PREDICTED BY IDOCK:   -0.28 KCAL/MOL
REMARK 927      BINDING AFFINITY PREDICTED BY RF-SCORE:    0.00 PKD
ROOT
HETATM    1  N   UNL     1     -10.063   9.056  68.880  1.00  0.00    -0.190 NA 
HETATM    2  H2  UNL     1      -9.706   8.839  69.811  1.00  0.00     0.000 HD 
HETATM    3  C   UNL     1      -9.988  10.419  68.667  1.00  0.00    -0.177 A  
HETATM    4  H1  UNL     1     -10.974   8.613  68.755  1.00  0.00     0.000 HD 
HETATM    5  N   UNL     1      -8.798  10.999  68.831  1.00  0.00    -0.148 NA 
HETATM    6  C   UNL     1      -8.719  12.309  68.526  1.00  0.00    -0.071 A  
HETATM    7  C   UNL     1      -9.822  13.069  68.099  1.00  0.00    -0.228 A  
HETATM    8  N   UNL     1      -7.426  12.819  68.691  1.00  0.00    -0.175 NA 
HETATM    9  N   UNL     1     -11.091  11.097  68.319  1.00  0.00    -0.229 NA 
HETATM   10  H1  UNL     1      -7.366  13.811  68.460  1.00  0.00     0.000 HD 
HETATM   11  N   UNL     1     -11.010  12.438  68.055  1.00  0.00    -0.214 NA 
HETATM   12  H2  UNL     1      -6.746  12.276  68.158  1.00  0.00     0.000 HD 
ENDROOT
BRANCH   7  13
HETATM   13  C   UNL     1      -9.801  14.499  67.674  1.00  0.00    -0.223 A  
HETATM   14  C   UNL     1     -10.148  15.589  68.525  1.00  0.00    -0.211 A  
HETATM   15  C   UNL     1     -10.143  16.915  68.036  1.00  0.00    -0.293 A  
HETATM   16 CL   UNL     1     -10.646  15.340  70.177  1.00  0.00    -0.300 Cl 
HETATM   17 CL   UNL     1     -10.527  18.287  69.027  1.00  0.00    -0.112 Cl 
HETATM   18  C   UNL     1      -9.831  17.186  66.705  1.00  0.00    -0.295 A  
HETATM   19  C   UNL     1      -9.477  16.146  65.859  1.00  0.00    -0.337 A  
HETATM   20  C   UNL     1      -9.438  14.835  66.346  1.00  0.00    -0.328 A  
ENDBRANCH   7  13
TORSDOF 1
ENDMDL
MODEL      167
REMARK 921   NORMALIZED FREE ENERGY PREDICTED BY IDOCK:   -3.34 KCAL/MOL
REMARK 922        TOTAL FREE ENERGY PREDICTED BY IDOCK:   -3.81 KCAL/MOL
REMARK 923 INTER-LIGAND FREE ENERGY PREDICTED BY IDOCK:   -3.52 KCAL/MOL
REMARK 924 INTRA-LIGAND FREE ENERGY PREDICTED BY IDOCK:   -0.29 KCAL/MOL
REMARK 927      BINDING AFFINITY PREDICTED BY RF-SCORE:    0.00 PKD
ROOT
HETATM    1  N   UNL     1      -8.195   2.223  67.808  1.00  0.00    -0.063 NA 
HETATM    2  H2  UNL     1      -8.073   1.689  66.947  1.00  0.00     0.000 HD 
HETATM    3  C   UNL     1      -8.515   3.530  67.495  1.00  0.00    -0.096 A  
HETATM    4  H1  UNL     1      -7.390   2.072  68.417  1.00  0.00     0.000 HD 
HETATM    5  N   UNL     1      -9.566   3.729  66.699  1.00  0.00    -0.199 NA 
HETATM    6  C   UNL     1      -9.925   5.009  66.482  1.00  0.00    -0.224 A  
HETATM    7  C   UNL     1      -9.224   6.107  67.011  1.00  0.00    -0.123 A  
HETATM    8  N   UNL     1     -11.059   5.116  65.669  1.00  0.00    -0.785 NA 
HETATM    9  N   UNL     1      -7.769   4.530  67.985  1.00  0.00    -0.080 NA 
HETATM   10  H1  UNL     1     -11.331   6.086  65.505  1.00  0.00     0.000 HD 
HETATM   11  N   UNL     1      -8.114   5.829  67.722  1.00  0.00    -0.102 NA 
HETATM   12  H2  UNL     1     -11.837   4.577  66.051  1.00  0.00     0.000 HD 
ENDROOT
BRANCH   7  13
HETATM   13  C   UNL     1      -9.597   7.545  66.879  1.00  0.00    -0.242 A  
HETATM   14  C   UNL     1      -9.137   8.394  65.831  1.00  0.00    -0.171 A  
HETATM   15  C   UNL     1      -9.503   9.759  65.796  1.00  0.00    -0.240 A  
HETATM   16 CL   UNL     1      -8.065   7.815  64.584  1.00  0.00    -0.143 Cl 
HETATM   17 CL   UNL     1      -9.002  10.839  64.534  1.00  0.00    -0.199 Cl 
HETATM   18  C   UNL     1     -10.296  10.314  66.801  1.00  0.00    -0.288 A  
HETATM   19  C   UNL     1     -10.768   9.506  67.824  1.00  0.00    -0.302 A  
HETATM   20  C   UNL     1     -10.444   8.145  67.843  1.00  0.00    -0.259 A  
ENDBRANCH   7  13
TORSDOF 1
ENDMDL
MODEL      168
REMARK 921   NORMALIZED FREE ENERGY PREDICTED BY IDOCK:   -3.33 KCAL/MOL
REMARK 922        TOTAL FREE ENERGY PREDICTED BY IDOCK:   -3.80 KCAL/MOL
REMARK 923 INTER-LIGAND FREE ENERGY PREDICTED BY IDOCK:   -3.52 KCAL/MOL
REMARK 924 INTRA-LIGAND FREE ENERGY PREDICTED BY IDOCK:   -0.28 KCAL/MOL
REMARK 927      BINDING AFFINITY PREDICTED BY RF-SCORE:    0.00 PKD
ROOT
HETATM    1  N   UNL     1      -6.707   8.616  74.265  1.00  0.00    -0.263 NA 
HETATM    2  H2  UNL     1      -7.132   8.197  75.093  1.00  0.00     0.000 HD 
HETATM    3  C   UNL     1      -7.439   8.268  73.147  1.00  0.00    -0.105 A  
HETATM    4  H1  UNL     1      -5.708   8.407  74.255  1.00  0.00     0.000 HD 
HETATM    5  N   UNL     1      -8.744   8.542  73.160  1.00  0.00    -0.364 NA 
HETATM    6  C   UNL     1      -9.425   8.285  72.026  1.00  0.00    -0.236 A  
HETATM    7  C   UNL     1      -8.835   7.716  70.884  1.00  0.00    -0.146 A  
HETATM    8  N   UNL     1     -10.775   8.641  72.121  1.00  0.00    -0.348 NA 
HETATM    9  N   UNL     1      -6.826   7.673  72.113  1.00  0.00    -0.058 NA 
HETATM   10  H1  UNL     1     -11.291   8.447  71.262  1.00  0.00     0.000 HD 
HETATM   11  N   UNL     1      -7.536   7.374  70.981  1.00  0.00    -0.085 NA 
HETATM   12  H2  UNL     1     -10.879   9.617  72.400  1.00  0.00     0.000 HD 
ENDROOT
BRANCH   7  13
HETATM   13  C   UNL     1      -9.500   7.471  69.571  1.00  0.00    -0.156 A  
HETATM   14  C   UNL     1      -9.439   8.368  68.466  1.00  0.00    -0.146 A  
HETATM   15  C   UNL     1     -10.131   8.084  67.267  1.00  0.00    -0.240 A  
HETATM   16 CL   UNL     1      -8.564   9.874  68.555  1.00  0.00    -0.115 Cl 
HETATM   17 CL   UNL     1     -10.074   9.120  65.876  1.00  0.00    -0.258 Cl 
HETATM   18  C   UNL     1     -10.914   6.937  67.147  1.00  0.00    -0.427 A  
HETATM   19  C   UNL     1     -10.980   6.040  68.203  1.00  0.00    -0.340 A  
HETATM   20  C   UNL     1     -10.265   6.294  69.378  1.00  0.00    -0.238 A  
ENDBRANCH   7  13
TORSDOF 1
ENDMDL
MODEL      169
REMARK 921   NORMALIZED FREE ENERGY PREDICTED BY IDOCK:   -3.32 KCAL/MOL
REMARK 922        TOTAL FREE ENERGY PREDICTED BY IDOCK:   -3.79 KCAL/MOL
REMARK 923 INTER-LIGAND FREE ENERGY PREDICTED BY IDOCK:   -3.52 KCAL/MOL
REMARK 924 INTRA-LIGAND FREE ENERGY PREDICTED BY IDOCK:   -0.28 KCAL/MOL
REMARK 927      BINDING AFFINITY PREDICTED BY RF-SCORE:    0.00 PKD
ROOT
HETATM    1  N   UNL     1      -9.107   8.759  65.372  1.00  0.00    -0.376 NA 
HETATM    2  H2  UNL     1      -8.640   8.020  64.845  1.00  0.00     0.000 HD 
HETATM    3  C   UNL     1      -9.263   8.358  66.685  1.00  0.00    -0.180 A  
HETATM    4  H1  UNL     1      -9.945   9.054  64.870  1.00  0.00     0.000 HD 
HETATM    5  N   UNL     1      -8.168   7.972  67.341  1.00  0.00    -0.121 NA 
HETATM    6  C   UNL     1      -8.320   7.677  68.647  1.00  0.00    -0.129 A  
HETATM    7  C   UNL     1      -9.561   7.718  69.307  1.00  0.00    -0.159 A  
HETATM    8  N   UNL     1      -7.113   7.322  69.258  1.00  0.00    -0.076 NA 
HETATM    9  N   UNL     1     -10.484   8.364  67.238  1.00  0.00    -0.303 NA 
HETATM   10  H1  UNL     1      -7.228   7.099  70.247  1.00  0.00     0.000 HD 
HETATM   11  N   UNL     1     -10.636   8.018  68.554  1.00  0.00    -0.153 NA 
HETATM   12  H2  UNL     1      -6.406   8.046  69.125  1.00  0.00     0.000 HD 
ENDROOT
BRANCH   7  13
HETATM   13  C   UNL     1      -9.800   7.478  70.760  1.00  0.00    -0.178 A  
HETATM   14  C   UNL     1     -10.275   6.246  71.297  1.00  0.00    -0.200 A  
HETATM   15  C   UNL     1     -10.516   6.109  72.683  1.00  0.00    -0.208 A  
HETATM   16 CL   UNL     1     -10.634   4.879  70.277  1.00  0.00    -0.161 Cl 
HETATM   17 CL   UNL     1     -11.066   4.630  73.403  1.00  0.00    -0.389 Cl 
HETATM   18  C   UNL     1     -10.325   7.183  73.552  1.00  0.00    -0.412 A  
HETATM   19  C   UNL     1      -9.851   8.389  73.057  1.00  0.00    -0.152 A  
HETATM   20  C   UNL     1      -9.570   8.519  71.693  1.00  0.00    -0.319 A  
ENDBRANCH   7  13
TORSDOF 1
ENDMDL
MODEL      170
REMARK 921   NORMALIZED FREE ENERGY PREDICTED BY IDOCK:   -3.31 KCAL/MOL
REMARK 922        TOTAL FREE ENERGY PREDICTED BY IDOCK:   -3.78 KCAL/MOL
REMARK 923 INTER-LIGAND FREE ENERGY PREDICTED BY IDOCK:   -3.79 KCAL/MOL
REMARK 924 INTRA-LIGAND FREE ENERGY PREDICTED BY IDOCK:    0.01 KCAL/MOL
REMARK 927      BINDING AFFINITY PREDICTED BY RF-SCORE:    0.00 PKD
ROOT
HETATM    1  N   UNL     1      -9.542  20.838  66.900  1.00  0.00    -0.678 NA 
HETATM    2  H2  UNL     1      -8.864  21.590  66.776  1.00  0.00     0.000 HD 
HETATM    3  C   UNL     1      -8.873  19.645  67.099  1.00  0.00    -0.312 A  
HETATM    4  H1  UNL     1     -10.226  20.870  66.144  1.00  0.00     0.000 HD 
HETATM    5  N   UNL     1      -7.979  19.602  68.087  1.00  0.00    -0.314 NA 
HETATM    6  C   UNL     1      -7.407  18.407  68.331  1.00  0.00    -0.276 A  
HETATM    7  C   UNL     1      -7.678  17.254  67.574  1.00  0.00    -0.176 A  
HETATM    8  N   UNL     1      -6.515  18.451  69.408  1.00  0.00    -0.261 NA 
HETATM    9  N   UNL     1      -9.136  18.599  66.303  1.00  0.00    -0.448 NA 
HETATM   10  H1  UNL     1      -6.082  17.546  69.592  1.00  0.00     0.000 HD 
HETATM   11  N   UNL     1      -8.515  17.399  66.529  1.00  0.00    -0.251 NA 
HETATM   12  H2  UNL     1      -6.967  18.819  70.245  1.00  0.00     0.000 HD 
ENDROOT
BRANCH   7  13
HETATM   13  C   UNL     1      -7.144  15.883  67.824  1.00  0.00    -0.168 A  
HETATM   14  C   UNL     1      -7.961  14.748  68.097  1.00  0.00    -0.129 A  
HETATM   15  C   UNL     1      -7.378  13.488  68.365  1.00  0.00    -0.115 A  
HETATM   16 CL   UNL     1      -9.699  14.864  68.171  1.00  0.00    -0.211 Cl 
HETATM   17 CL   UNL     1      -8.315  12.061  68.676  1.00  0.00    -0.090 Cl 
HETATM   18  C   UNL     1      -5.993  13.334  68.400  1.00  0.00    -0.090 A  
HETATM   19  C   UNL     1      -5.175  14.420  68.125  1.00  0.00    -0.118 A  
HETATM   20  C   UNL     1      -5.745  15.660  67.818  1.00  0.00    -0.156 A  
ENDBRANCH   7  13
TORSDOF 1
ENDMDL
MODEL      171
REMARK 921   NORMALIZED FREE ENERGY PREDICTED BY IDOCK:   -3.28 KCAL/MOL
REMARK 922        TOTAL FREE ENERGY PREDICTED BY IDOCK:   -3.75 KCAL/MOL
REMARK 923 INTER-LIGAND FREE ENERGY PREDICTED BY IDOCK:   -3.46 KCAL/MOL
REMARK 924 INTRA-LIGAND FREE ENERGY PREDICTED BY IDOCK:   -0.29 KCAL/MOL
REMARK 927      BINDING AFFINITY PREDICTED BY RF-SCORE:    0.00 PKD
ROOT
HETATM    1  N   UNL     1     -11.334   4.348  64.845  1.00  0.00    -1.085 NA 
HETATM    2  H2  UNL     1     -11.622   5.114  64.236  1.00  0.00     0.000 HD 
HETATM    3  C   UNL     1     -10.597   4.852  65.899  1.00  0.00    -0.230 A  
HETATM    4  H1  UNL     1     -10.905   3.612  64.283  1.00  0.00     0.000 HD 
HETATM    5  N   UNL     1     -11.158   5.813  66.634  1.00  0.00    -0.140 NA 
HETATM    6  C   UNL     1     -10.469   6.226  67.715  1.00  0.00    -0.232 A  
HETATM    7  C   UNL     1      -9.200   5.726  68.058  1.00  0.00    -0.109 A  
HETATM    8  N   UNL     1     -11.153   7.205  68.444  1.00  0.00    -0.469 NA 
HETATM    9  N   UNL     1      -9.368   4.373  66.137  1.00  0.00    -0.147 NA 
HETATM   10  H1  UNL     1     -10.631   7.517  69.263  1.00  0.00     0.000 HD 
HETATM   11  N   UNL     1      -8.655   4.830  67.212  1.00  0.00    -0.105 NA 
HETATM   12  H2  UNL     1     -12.086   6.885  68.703  1.00  0.00     0.000 HD 
ENDROOT
BRANCH   7  13
HETATM   13  C   UNL     1      -8.408   6.075  69.272  1.00  0.00    -0.115 A  
HETATM   14  C   UNL     1      -8.704   5.597  70.582  1.00  0.00    -0.134 A  
HETATM   15  C   UNL     1      -7.929   6.006  71.691  1.00  0.00    -0.110 A  
HETATM   16 CL   UNL     1     -10.055   4.538  70.888  1.00  0.00    -0.262 Cl 
HETATM   17 CL   UNL     1      -8.218   5.438  73.305  1.00  0.00    -0.114 Cl 
HETATM   18  C   UNL     1      -6.880   6.911  71.537  1.00  0.00    -0.065 A  
HETATM   19  C   UNL     1      -6.563   7.383  70.272  1.00  0.00    -0.046 A  
HETATM   20  C   UNL     1      -7.298   6.949  69.163  1.00  0.00    -0.093 A  
ENDBRANCH   7  13
TORSDOF 1
ENDMDL
MODEL      172
REMARK 921   NORMALIZED FREE ENERGY PREDICTED BY IDOCK:   -3.27 KCAL/MOL
REMARK 922        TOTAL FREE ENERGY PREDICTED BY IDOCK:   -3.74 KCAL/MOL
REMARK 923 INTER-LIGAND FREE ENERGY PREDICTED BY IDOCK:   -3.86 KCAL/MOL
REMARK 924 INTRA-LIGAND FREE ENERGY PREDICTED BY IDOCK:    0.12 KCAL/MOL
REMARK 927      BINDING AFFINITY PREDICTED BY RF-SCORE:    0.00 PKD
ROOT
HETATM    1  N   UNL     1      -6.867  18.897  69.173  1.00  0.00    -0.304 NA 
HETATM    2  H2  UNL     1      -6.369  19.362  68.413  1.00  0.00     0.000 HD 
HETATM    3  C   UNL     1      -7.637  17.872  68.657  1.00  0.00    -0.283 A  
HETATM    4  H1  UNL     1      -7.341  19.596  69.745  1.00  0.00     0.000 HD 
HETATM    5  N   UNL     1      -7.017  16.958  67.909  1.00  0.00    -0.145 NA 
HETATM    6  C   UNL     1      -7.761  15.914  67.494  1.00  0.00    -0.159 A  
HETATM    7  C   UNL     1      -9.132  15.784  67.776  1.00  0.00    -0.188 A  
HETATM    8  N   UNL     1      -7.018  14.990  66.751  1.00  0.00    -0.157 NA 
HETATM    9  N   UNL     1      -8.952  17.838  68.914  1.00  0.00    -0.186 NA 
HETATM   10  H1  UNL     1      -7.581  14.199  66.437  1.00  0.00     0.000 HD 
HETATM   11  N   UNL     1      -9.710  16.797  68.450  1.00  0.00    -0.238 NA 
HETATM   12  H2  UNL     1      -6.199  14.674  67.271  1.00  0.00     0.000 HD 
ENDROOT
BRANCH   7  13
HETATM   13  C   UNL     1     -10.005  14.628  67.417  1.00  0.00    -0.231 A  
HETATM   14  C   UNL     1      -9.729  13.278  67.781  1.00  0.00    -0.217 A  
HETATM   15  C   UNL     1     -10.584  12.231  67.369  1.00  0.00    -0.222 A  
HETATM   16 CL   UNL     1      -8.308  12.847  68.695  1.00  0.00    -0.038 Cl 
HETATM   17 CL   UNL     1     -10.321  10.572  67.802  1.00  0.00    -0.232 Cl 
HETATM   18  C   UNL     1     -11.698  12.489  66.570  1.00  0.00    -0.454 A  
HETATM   19  C   UNL     1     -11.996  13.795  66.213  1.00  0.00    -0.462 A  
HETATM   20  C   UNL     1     -11.178  14.841  66.652  1.00  0.00    -0.346 A  
ENDBRANCH   7  13
TORSDOF 1
ENDMDL
MODEL      173
REMARK 921   NORMALIZED FREE ENERGY PREDICTED BY IDOCK:   -3.27 KCAL/MOL
REMARK 922        TOTAL FREE ENERGY PREDICTED BY IDOCK:   -3.74 KCAL/MOL
REMARK 923 INTER-LIGAND FREE ENERGY PREDICTED BY IDOCK:   -3.44 KCAL/MOL
REMARK 924 INTRA-LIGAND FREE ENERGY PREDICTED BY IDOCK:   -0.30 KCAL/MOL
REMARK 927      BINDING AFFINITY PREDICTED BY RF-SCORE:    0.00 PKD
ROOT
HETATM    1  N   UNL     1      -8.759   9.991  63.293  1.00  0.00    -0.198 NA 
HETATM    2  H2  UNL     1      -8.719   9.189  62.664  1.00  0.00     0.000 HD 
HETATM    3  C   UNL     1      -8.995   9.551  64.582  1.00  0.00    -0.221 A  
HETATM    4  H1  UNL     1      -9.398  10.689  62.912  1.00  0.00     0.000 HD 
HETATM    5  N   UNL     1      -8.160   8.639  65.080  1.00  0.00    -0.134 NA 
HETATM    6  C   UNL     1      -8.344   8.292  66.369  1.00  0.00    -0.117 A  
HETATM    7  C   UNL     1      -9.382   8.809  67.165  1.00  0.00    -0.150 A  
HETATM    8  N   UNL     1      -7.399   7.362  66.813  1.00  0.00    -0.090 NA 
HETATM    9  N   UNL     1     -10.038  10.041  65.267  1.00  0.00    -0.297 NA 
HETATM   10  H1  UNL     1      -7.539   7.100  67.789  1.00  0.00     0.000 HD 
HETATM   11  N   UNL     1     -10.245   9.648  66.562  1.00  0.00    -0.238 NA 
HETATM   12  H2  UNL     1      -6.449   7.700  66.656  1.00  0.00     0.000 HD 
ENDROOT
BRANCH   7  13
HETATM   13  C   UNL     1      -9.609   8.533  68.613  1.00  0.00    -0.153 A  
HETATM   14  C   UNL     1     -10.250   7.362  69.111  1.00  0.00    -0.196 A  
HETATM   15  C   UNL     1     -10.465   7.190  70.497  1.00  0.00    -0.212 A  
HETATM   16 CL   UNL     1     -10.847   6.119  68.043  1.00  0.00    -0.373 Cl 
HETATM   17 CL   UNL     1     -11.212   5.776  71.169  1.00  0.00    -0.271 Cl 
HETATM   18  C   UNL     1     -10.085   8.176  71.407  1.00  0.00    -0.248 A  
HETATM   19  C   UNL     1      -9.446   9.320  70.951  1.00  0.00    -0.330 A  
HETATM   20  C   UNL     1      -9.193   9.477  69.584  1.00  0.00    -0.212 A  
ENDBRANCH   7  13
TORSDOF 1
ENDMDL
MODEL      174
REMARK 921   NORMALIZED FREE ENERGY PREDICTED BY IDOCK:   -3.16 KCAL/MOL
REMARK 922        TOTAL FREE ENERGY PREDICTED BY IDOCK:   -3.62 KCAL/MOL
REMARK 923 INTER-LIGAND FREE ENERGY PREDICTED BY IDOCK:   -3.73 KCAL/MOL
REMARK 924 INTRA-LIGAND FREE ENERGY PREDICTED BY IDOCK:    0.12 KCAL/MOL
REMARK 927      BINDING AFFINITY PREDICTED BY RF-SCORE:    0.00 PKD
ROOT
HETATM    1  N   UNL     1     -13.469   9.819  70.717  1.00  0.00    -0.588 NA 
HETATM    2  H2  UNL     1     -14.145  10.029  71.451  1.00  0.00     0.000 HD 
HETATM    3  C   UNL     1     -12.504   8.963  71.212  1.00  0.00    -0.272 A  
HETATM    4  H1  UNL     1     -13.149  10.690  70.293  1.00  0.00     0.000 HD 
HETATM    5  N   UNL     1     -12.923   7.824  71.765  1.00  0.00    -0.328 NA 
HETATM    6  C   UNL     1     -11.968   6.957  72.155  1.00  0.00    -0.267 A  
HETATM    7  C   UNL     1     -10.592   7.223  72.043  1.00  0.00    -0.207 A  
HETATM    8  N   UNL     1     -12.502   5.777  72.686  1.00  0.00    -0.449 NA 
HETATM    9  N   UNL     1     -11.211   9.304  71.127  1.00  0.00    -0.312 NA 
HETATM   10  H1  UNL     1     -11.779   5.121  72.981  1.00  0.00     0.000 HD 
HETATM   11  N   UNL     1     -10.248   8.435  71.567  1.00  0.00    -0.210 NA 
HETATM   12  H2  UNL     1     -13.150   5.340  72.031  1.00  0.00     0.000 HD 
ENDROOT
BRANCH   7  13
HETATM   13  C   UNL     1      -9.478   6.290  72.381  1.00  0.00    -0.146 A  
HETATM   14  C   UNL     1      -8.393   6.624  73.243  1.00  0.00    -0.119 A  
HETATM   15  C   UNL     1      -7.352   5.698  73.484  1.00  0.00    -0.087 A  
HETATM   16 CL   UNL     1      -8.265   8.194  73.990  1.00  0.00    -0.310 Cl 
HETATM   17 CL   UNL     1      -6.020   6.031  74.543  1.00  0.00    -0.062 Cl 
HETATM   18  C   UNL     1      -7.346   4.451  72.860  1.00  0.00    -0.079 A  
HETATM   19  C   UNL     1      -8.397   4.096  72.028  1.00  0.00    -0.106 A  
HETATM   20  C   UNL     1      -9.452   4.991  71.818  1.00  0.00    -0.194 A  
ENDBRANCH   7  13
TORSDOF 1
ENDMDL
MODEL      175
REMARK 921   NORMALIZED FREE ENERGY PREDICTED BY IDOCK:   -3.11 KCAL/MOL
REMARK 922        TOTAL FREE ENERGY PREDICTED BY IDOCK:   -3.57 KCAL/MOL
REMARK 923 INTER-LIGAND FREE ENERGY PREDICTED BY IDOCK:   -3.27 KCAL/MOL
REMARK 924 INTRA-LIGAND FREE ENERGY PREDICTED BY IDOCK:   -0.29 KCAL/MOL
REMARK 927      BINDING AFFINITY PREDICTED BY RF-SCORE:    0.00 PKD
ROOT
HETATM    1  N   UNL     1      -6.542   8.768  74.198  1.00  0.00    -0.303 NA 
HETATM    2  H2  UNL     1      -6.834   8.089  74.900  1.00  0.00     0.000 HD 
HETATM    3  C   UNL     1      -7.251   8.555  73.031  1.00  0.00     0.003 A  
HETATM    4  H1  UNL     1      -5.523   8.771  74.133  1.00  0.00     0.000 HD 
HETATM    5  N   UNL     1      -8.581   8.552  73.115  1.00  0.00    -0.383 NA 
HETATM    6  C   UNL     1      -9.259   8.441  71.956  1.00  0.00    -0.234 A  
HETATM    7  C   UNL     1      -8.630   8.286  70.708  1.00  0.00    -0.138 A  
HETATM    8  N   UNL     1     -10.645   8.487  72.140  1.00  0.00    -0.331 NA 
HETATM    9  N   UNL     1      -6.589   8.356  71.882  1.00  0.00    -0.067 NA 
HETATM   10  H1  UNL     1     -11.158   8.403  71.262  1.00  0.00     0.000 HD 
HETATM   11  N   UNL     1      -7.287   8.197  70.714  1.00  0.00    -0.055 NA 
HETATM   12  H2  UNL     1     -10.920   9.329  72.647  1.00  0.00     0.000 HD 
ENDROOT
BRANCH   7  13
HETATM   13  C   UNL     1      -9.304   8.230  69.378  1.00  0.00    -0.155 A  
HETATM   14  C   UNL     1      -9.739   7.024  68.755  1.00  0.00    -0.143 A  
HETATM   15  C   UNL     1     -10.334   7.048  67.473  1.00  0.00    -0.225 A  
HETATM   16 CL   UNL     1      -9.510   5.469  69.509  1.00  0.00    -0.172 Cl 
HETATM   17 CL   UNL     1     -10.910   5.621  66.673  1.00  0.00    -0.341 Cl 
HETATM   18  C   UNL     1     -10.479   8.246  66.774  1.00  0.00    -0.313 A  
HETATM   19  C   UNL     1     -10.077   9.436  67.363  1.00  0.00    -0.271 A  
HETATM   20  C   UNL     1      -9.526   9.425  68.649  1.00  0.00    -0.147 A  
ENDBRANCH   7  13
TORSDOF 1
ENDMDL
MODEL      176
REMARK 921   NORMALIZED FREE ENERGY PREDICTED BY IDOCK:   -3.08 KCAL/MOL
REMARK 922        TOTAL FREE ENERGY PREDICTED BY IDOCK:   -3.54 KCAL/MOL
REMARK 923 INTER-LIGAND FREE ENERGY PREDICTED BY IDOCK:   -3.45 KCAL/MOL
REMARK 924 INTRA-LIGAND FREE ENERGY PREDICTED BY IDOCK:   -0.09 KCAL/MOL
REMARK 927      BINDING AFFINITY PREDICTED BY RF-SCORE:    0.00 PKD
ROOT
HETATM    1  N   UNL     1     -13.177  10.589  70.573  1.00  0.00    -0.362 NA 
HETATM    2  H2  UNL     1     -13.565  10.273  69.684  1.00  0.00     0.000 HD 
HETATM    3  C   UNL     1     -12.346   9.611  71.085  1.00  0.00    -0.339 A  
HETATM    4  H1  UNL     1     -13.932  10.923  71.173  1.00  0.00     0.000 HD 
HETATM    5  N   UNL     1     -11.359   9.175  70.301  1.00  0.00    -0.227 NA 
HETATM    6  C   UNL     1     -10.500   8.293  70.848  1.00  0.00    -0.196 A  
HETATM    7  C   UNL     1     -10.632   7.799  72.158  1.00  0.00    -0.240 A  
HETATM    8  N   UNL     1      -9.479   7.924  69.966  1.00  0.00    -0.157 NA 
HETATM    9  N   UNL     1     -12.563   9.139  72.321  1.00  0.00    -0.373 NA 
HETATM   10  H1  UNL     1      -8.828   7.257  70.381  1.00  0.00     0.000 HD 
HETATM   11  N   UNL     1     -11.711   8.209  72.853  1.00  0.00    -0.282 NA 
HETATM   12  H2  UNL     1      -8.986   8.745  69.611  1.00  0.00     0.000 HD 
ENDROOT
BRANCH   7  13
HETATM   13  C   UNL     1      -9.687   6.882  72.859  1.00  0.00    -0.183 A  
HETATM   14  C   UNL     1     -10.032   5.575  73.311  1.00  0.00    -0.172 A  
HETATM   15  C   UNL     1      -9.092   4.780  74.005  1.00  0.00    -0.111 A  
HETATM   16 CL   UNL     1     -11.633   4.920  73.086  1.00  0.00    -0.375 Cl 
HETATM   17 CL   UNL     1      -9.440   3.172  74.556  1.00  0.00    -0.115 Cl 
HETATM   18  C   UNL     1      -7.816   5.266  74.290  1.00  0.00    -0.096 A  
HETATM   19  C   UNL     1      -7.450   6.529  73.849  1.00  0.00    -0.084 A  
HETATM   20  C   UNL     1      -8.362   7.305  73.126  1.00  0.00    -0.140 A  
ENDBRANCH   7  13
TORSDOF 1
ENDMDL
MODEL      177
REMARK 921   NORMALIZED FREE ENERGY PREDICTED BY IDOCK:   -3.04 KCAL/MOL
REMARK 922        TOTAL FREE ENERGY PREDICTED BY IDOCK:   -3.50 KCAL/MOL
REMARK 923 INTER-LIGAND FREE ENERGY PREDICTED BY IDOCK:   -3.42 KCAL/MOL
REMARK 924 INTRA-LIGAND FREE ENERGY PREDICTED BY IDOCK:   -0.08 KCAL/MOL
REMARK 927      BINDING AFFINITY PREDICTED BY RF-SCORE:    0.00 PKD
ROOT
HETATM    1  N   UNL     1     -11.207  19.739  65.724  1.00  0.00    -0.028 NA 
HETATM    2  H2  UNL     1     -11.987  19.177  65.381  1.00  0.00     0.000 HD 
HETATM    3  C   UNL     1     -10.339  18.933  66.436  1.00  0.00    -0.443 A  
HETATM    4  H1  UNL     1     -11.569  20.568  66.195  1.00  0.00     0.000 HD 
HETATM    5  N   UNL     1      -9.866  17.849  65.820  1.00  0.00    -0.532 NA 
HETATM    6  C   UNL     1      -8.947  17.127  66.491  1.00  0.00    -0.272 A  
HETATM    7  C   UNL     1      -8.520  17.442  67.793  1.00  0.00    -0.223 A  
HETATM    8  N   UNL     1      -8.481  16.035  65.751  1.00  0.00    -0.109 NA 
HETATM    9  N   UNL     1     -10.018  19.258  67.696  1.00  0.00    -0.338 NA 
HETATM   10  H1  UNL     1      -7.785  15.488  66.259  1.00  0.00     0.000 HD 
HETATM   11  N   UNL     1      -9.117  18.493  68.387  1.00  0.00    -0.315 NA 
HETATM   12  H2  UNL     1      -8.123  16.332  64.843  1.00  0.00     0.000 HD 
ENDROOT
BRANCH   7  13
HETATM   13  C   UNL     1      -7.459  16.740  68.571  1.00  0.00    -0.213 A  
HETATM   14  C   UNL     1      -7.537  15.375  68.974  1.00  0.00    -0.177 A  
HETATM   15  C   UNL     1      -6.508  14.790  69.746  1.00  0.00    -0.160 A  
HETATM   16 CL   UNL     1      -8.918  14.383  68.588  1.00  0.00    -0.189 Cl 
HETATM   17 CL   UNL     1      -6.529  13.128  70.243  1.00  0.00     0.099 Cl 
HETATM   18  C   UNL     1      -5.408  15.542  70.159  1.00  0.00    -0.129 A  
HETATM   19  C   UNL     1      -5.301  16.869  69.770  1.00  0.00    -0.174 A  
HETATM   20  C   UNL     1      -6.295  17.443  68.970  1.00  0.00    -0.220 A  
ENDBRANCH   7  13
TORSDOF 1
ENDMDL
MODEL      178
REMARK 921   NORMALIZED FREE ENERGY PREDICTED BY IDOCK:   -3.04 KCAL/MOL
REMARK 922        TOTAL FREE ENERGY PREDICTED BY IDOCK:   -3.49 KCAL/MOL
REMARK 923 INTER-LIGAND FREE ENERGY PREDICTED BY IDOCK:   -3.21 KCAL/MOL
REMARK 924 INTRA-LIGAND FREE ENERGY PREDICTED BY IDOCK:   -0.28 KCAL/MOL
REMARK 927      BINDING AFFINITY PREDICTED BY RF-SCORE:    0.00 PKD
ROOT
HETATM    1  N   UNL     1     -10.356  12.807  67.896  1.00  0.00    -0.220 NA 
HETATM    2  H2  UNL     1     -11.030  13.276  67.292  1.00  0.00     0.000 HD 
HETATM    3  C   UNL     1     -10.334  11.457  67.601  1.00  0.00    -0.183 A  
HETATM    4  H1  UNL     1     -10.530  13.071  68.867  1.00  0.00     0.000 HD 
HETATM    5  N   UNL     1     -10.106  11.112  66.333  1.00  0.00    -0.219 NA 
HETATM    6  C   UNL     1      -9.992   9.794  66.079  1.00  0.00    -0.272 A  
HETATM    7  C   UNL     1     -10.146   8.802  67.064  1.00  0.00    -0.265 A  
HETATM    8  N   UNL     1      -9.714   9.532  64.733  1.00  0.00    -0.416 NA 
HETATM    9  N   UNL     1     -10.548  10.563  68.576  1.00  0.00    -0.192 NA 
HETATM   10  H1  UNL     1      -9.628   8.533  64.540  1.00  0.00     0.000 HD 
HETATM   11  N   UNL     1     -10.475   9.224  68.299  1.00  0.00    -0.217 NA 
HETATM   12  H2  UNL     1      -8.885  10.039  64.423  1.00  0.00     0.000 HD 
ENDROOT
BRANCH   7  13
HETATM   13  C   UNL     1      -9.963   7.333  66.878  1.00  0.00    -0.302 A  
HETATM   14  C   UNL     1      -8.696   6.701  66.721  1.00  0.00    -0.121 A  
HETATM   15  C   UNL     1      -8.606   5.307  66.509  1.00  0.00    -0.112 A  
HETATM   16 CL   UNL     1      -7.209   7.613  66.725  1.00  0.00    -0.086 Cl 
HETATM   17 CL   UNL     1      -7.094   4.473  66.339  1.00  0.00    -0.073 Cl 
HETATM   18  C   UNL     1      -9.755   4.522  66.416  1.00  0.00    -0.218 A  
HETATM   19  C   UNL     1     -11.001   5.110  66.579  1.00  0.00     0.028 A  
HETATM   20  C   UNL     1     -11.095   6.483  66.831  1.00  0.00    -0.342 A  
ENDBRANCH   7  13
TORSDOF 1
ENDMDL
MODEL      179
REMARK 921   NORMALIZED FREE ENERGY PREDICTED BY IDOCK:   -3.01 KCAL/MOL
REMARK 922        TOTAL FREE ENERGY PREDICTED BY IDOCK:   -3.47 KCAL/MOL
REMARK 923 INTER-LIGAND FREE ENERGY PREDICTED BY IDOCK:   -3.17 KCAL/MOL
REMARK 924 INTRA-LIGAND FREE ENERGY PREDICTED BY IDOCK:   -0.29 KCAL/MOL
REMARK 927      BINDING AFFINITY PREDICTED BY RF-SCORE:    0.00 PKD
ROOT
HETATM    1  N   UNL     1     -10.351  20.452  66.176  1.00  0.00    -0.418 NA 
HETATM    2  H2  UNL     1      -9.870  21.177  66.709  1.00  0.00     0.000 HD 
HETATM    3  C   UNL     1      -9.810  19.219  66.486  1.00  0.00    -0.372 A  
HETATM    4  H1  UNL     1     -10.378  20.717  65.192  1.00  0.00     0.000 HD 
HETATM    5  N   UNL     1      -9.775  18.873  67.773  1.00  0.00    -0.313 NA 
HETATM    6  C   UNL     1      -9.335  17.630  68.051  1.00  0.00    -0.274 A  
HETATM    7  C   UNL     1      -8.883  16.734  67.066  1.00  0.00    -0.207 A  
HETATM    8  N   UNL     1      -9.371  17.343  69.420  1.00  0.00     0.146 NA 
HETATM    9  N   UNL     1      -9.341  18.436  65.504  1.00  0.00     0.158 NA 
HETATM   10  H1  UNL     1      -9.038  16.402  69.630  1.00  0.00     0.000 HD 
HETATM   11  N   UNL     1      -8.853  17.192  65.800  1.00  0.00    -0.498 NA 
HETATM   12  H2  UNL     1     -10.305  17.496  69.802  1.00  0.00     0.000 HD 
ENDROOT
BRANCH   7  13
HETATM   13  C   UNL     1      -8.451  15.323  67.283  1.00  0.00    -0.216 A  
HETATM   14  C   UNL     1      -7.103  14.931  67.532  1.00  0.00    -0.189 A  
HETATM   15  C   UNL     1      -6.765  13.567  67.688  1.00  0.00    -0.167 A  
HETATM   16 CL   UNL     1      -5.807  16.095  67.601  1.00  0.00    -0.161 Cl 
HETATM   17 CL   UNL     1      -5.151  13.027  68.022  1.00  0.00    -0.089 Cl 
HETATM   18  C   UNL     1      -7.735  12.572  67.569  1.00  0.00    -0.165 A  
HETATM   19  C   UNL     1      -9.056  12.927  67.340  1.00  0.00    -0.197 A  
HETATM   20  C   UNL     1      -9.405  14.277  67.227  1.00  0.00    -0.215 A  
ENDBRANCH   7  13
TORSDOF 1
ENDMDL
MODEL      180
REMARK 921   NORMALIZED FREE ENERGY PREDICTED BY IDOCK:   -3.01 KCAL/MOL
REMARK 922        TOTAL FREE ENERGY PREDICTED BY IDOCK:   -3.46 KCAL/MOL
REMARK 923 INTER-LIGAND FREE ENERGY PREDICTED BY IDOCK:   -3.16 KCAL/MOL
REMARK 924 INTRA-LIGAND FREE ENERGY PREDICTED BY IDOCK:   -0.30 KCAL/MOL
REMARK 927      BINDING AFFINITY PREDICTED BY RF-SCORE:    0.00 PKD
ROOT
HETATM    1  N   UNL     1      -9.800   3.523  66.283  1.00  0.00    -0.416 NA 
HETATM    2  H2  UNL     1      -9.040   3.055  66.778  1.00  0.00     0.000 HD 
HETATM    3  C   UNL     1      -9.598   4.890  66.322  1.00  0.00    -0.174 A  
HETATM    4  H1  UNL     1     -10.694   3.172  66.627  1.00  0.00     0.000 HD 
HETATM    5  N   UNL     1      -8.429   5.348  65.873  1.00  0.00    -0.122 NA 
HETATM    6  C   UNL     1      -8.285   6.687  65.827  1.00  0.00    -0.135 A  
HETATM    7  C   UNL     1      -9.275   7.585  66.264  1.00  0.00    -0.146 A  
HETATM    8  N   UNL     1      -7.045   7.074  65.307  1.00  0.00    -0.065 NA 
HETATM    9  N   UNL     1     -10.561   5.687  66.806  1.00  0.00    -0.290 NA 
HETATM   10  H1  UNL     1      -6.936   8.088  65.271  1.00  0.00     0.000 HD 
HETATM   11  N   UNL     1     -10.388   7.045  66.797  1.00  0.00    -0.242 NA 
HETATM   12  H2  UNL     1      -6.884   6.655  64.390  1.00  0.00     0.000 HD 
ENDROOT
BRANCH   7  13
HETATM   13  C   UNL     1      -9.222   9.073  66.177  1.00  0.00    -0.272 A  
HETATM   14  C   UNL     1      -8.603   9.907  67.154  1.00  0.00    -0.125 A  
HETATM   15  C   UNL     1      -8.629  11.314  67.022  1.00  0.00    -0.148 A  
HETATM   16 CL   UNL     1      -7.840   9.244  68.574  1.00  0.00    -0.089 Cl 
HETATM   17 CL   UNL     1      -7.871  12.382  68.159  1.00  0.00    -0.137 Cl 
HETATM   18  C   UNL     1      -9.288  11.920  65.953  1.00  0.00    -0.193 A  
HETATM   19  C   UNL     1      -9.887  11.132  64.982  1.00  0.00    -0.315 A  
HETATM   20  C   UNL     1      -9.829   9.738  65.083  1.00  0.00    -0.294 A  
ENDBRANCH   7  13
TORSDOF 1
ENDMDL
MODEL      181
REMARK 921   NORMALIZED FREE ENERGY PREDICTED BY IDOCK:   -2.98 KCAL/MOL
REMARK 922        TOTAL FREE ENERGY PREDICTED BY IDOCK:   -3.43 KCAL/MOL
REMARK 923 INTER-LIGAND FREE ENERGY PREDICTED BY IDOCK:   -3.26 KCAL/MOL
REMARK 924 INTRA-LIGAND FREE ENERGY PREDICTED BY IDOCK:   -0.17 KCAL/MOL
REMARK 927      BINDING AFFINITY PREDICTED BY RF-SCORE:    0.00 PKD
ROOT
HETATM    1  N   UNL     1      -8.445   6.902  65.474  1.00  0.00    -0.214 NA 
HETATM    2  H2  UNL     1      -8.326   7.816  65.037  1.00  0.00     0.000 HD 
HETATM    3  C   UNL     1      -8.711   7.067  66.820  1.00  0.00    -0.123 A  
HETATM    4  H1  UNL     1      -7.658   6.302  65.223  1.00  0.00     0.000 HD 
HETATM    5  N   UNL     1      -9.739   7.850  67.148  1.00  0.00    -0.174 NA 
HETATM    6  C   UNL     1     -10.047   7.924  68.458  1.00  0.00    -0.197 A  
HETATM    7  C   UNL     1      -9.316   7.261  69.460  1.00  0.00    -0.152 A  
HETATM    8  N   UNL     1     -11.160   8.735  68.701  1.00  0.00    -0.422 NA 
HETATM    9  N   UNL     1      -7.938   6.454  67.728  1.00  0.00    -0.113 NA 
HETATM   10  H1  UNL     1     -11.393   8.791  69.693  1.00  0.00     0.000 HD 
HETATM   11  N   UNL     1      -8.231   6.571  69.060  1.00  0.00    -0.115 NA 
HETATM   12  H2  UNL     1     -11.964   8.430  68.152  1.00  0.00     0.000 HD 
ENDROOT
BRANCH   7  13
HETATM   13  C   UNL     1      -9.634   7.233  70.917  1.00  0.00    -0.170 A  
HETATM   14  C   UNL     1      -8.839   7.863  71.919  1.00  0.00    -0.129 A  
HETATM   15  C   UNL     1      -9.184   7.758  73.285  1.00  0.00    -0.258 A  
HETATM   16 CL   UNL     1      -7.385   8.739  71.520  1.00  0.00    -0.119 Cl 
HETATM   17 CL   UNL     1      -8.277   8.524  74.550  1.00  0.00    -0.101 Cl 
HETATM   18  C   UNL     1     -10.290   7.010  73.688  1.00  0.00    -0.412 A  
HETATM   19  C   UNL     1     -11.088   6.398  72.733  1.00  0.00    -0.281 A  
HETATM   20  C   UNL     1     -10.776   6.533  71.376  1.00  0.00    -0.280 A  
ENDBRANCH   7  13
TORSDOF 1
ENDMDL
MODEL      182
REMARK 921   NORMALIZED FREE ENERGY PREDICTED BY IDOCK:   -2.94 KCAL/MOL
REMARK 922        TOTAL FREE ENERGY PREDICTED BY IDOCK:   -3.39 KCAL/MOL
REMARK 923 INTER-LIGAND FREE ENERGY PREDICTED BY IDOCK:   -3.12 KCAL/MOL
REMARK 924 INTRA-LIGAND FREE ENERGY PREDICTED BY IDOCK:   -0.27 KCAL/MOL
REMARK 927      BINDING AFFINITY PREDICTED BY RF-SCORE:    0.00 PKD
ROOT
HETATM    1  N   UNL     1      -7.237  16.685  67.095  1.00  0.00    -0.164 NA 
HETATM    2  H2  UNL     1      -7.301  17.309  67.900  1.00  0.00     0.000 HD 
HETATM    3  C   UNL     1      -7.498  15.390  67.497  1.00  0.00    -0.189 A  
HETATM    4  H1  UNL     1      -6.358  16.855  66.605  1.00  0.00     0.000 HD 
HETATM    5  N   UNL     1      -8.646  15.168  68.138  1.00  0.00    -0.154 NA 
HETATM    6  C   UNL     1      -8.932  13.885  68.438  1.00  0.00    -0.178 A  
HETATM    7  C   UNL     1      -8.067  12.815  68.148  1.00  0.00    -0.158 A  
HETATM    8  N   UNL     1     -10.171  13.747  69.071  1.00  0.00    -0.430 NA 
HETATM    9  N   UNL     1      -6.604  14.424  67.242  1.00  0.00    -0.227 NA 
HETATM   10  H1  UNL     1     -10.387  12.776  69.298  1.00  0.00     0.000 HD 
HETATM   11  N   UNL     1      -6.882  13.130  67.591  1.00  0.00    -0.147 NA 
HETATM   12  H2  UNL     1     -10.917  14.169  68.517  1.00  0.00     0.000 HD 
ENDROOT
BRANCH   7  13
HETATM   13  C   UNL     1      -8.340  11.367  68.379  1.00  0.00    -0.153 A  
HETATM   14  C   UNL     1      -9.268  10.599  67.618  1.00  0.00    -0.146 A  
HETATM   15  C   UNL     1      -9.503   9.240  67.924  1.00  0.00    -0.137 A  
HETATM   16 CL   UNL     1     -10.195  11.305  66.319  1.00  0.00    -0.269 Cl 
HETATM   17 CL   UNL     1     -10.597   8.243  67.019  1.00  0.00    -0.380 Cl 
HETATM   18  C   UNL     1      -8.857   8.626  68.997  1.00  0.00    -0.138 A  
HETATM   19  C   UNL     1      -7.939   9.347  69.747  1.00  0.00    -0.119 A  
HETATM   20  C   UNL     1      -7.671  10.681  69.423  1.00  0.00    -0.132 A  
ENDBRANCH   7  13
TORSDOF 1
ENDMDL
MODEL      183
REMARK 921   NORMALIZED FREE ENERGY PREDICTED BY IDOCK:   -2.94 KCAL/MOL
REMARK 922        TOTAL FREE ENERGY PREDICTED BY IDOCK:   -3.39 KCAL/MOL
REMARK 923 INTER-LIGAND FREE ENERGY PREDICTED BY IDOCK:   -3.10 KCAL/MOL
REMARK 924 INTRA-LIGAND FREE ENERGY PREDICTED BY IDOCK:   -0.29 KCAL/MOL
REMARK 927      BINDING AFFINITY PREDICTED BY RF-SCORE:    0.00 PKD
ROOT
HETATM    1  N   UNL     1      -9.997   3.191  74.464  1.00  0.00    -0.126 NA 
HETATM    2  H2  UNL     1      -9.103   3.215  74.954  1.00  0.00     0.000 HD 
HETATM    3  C   UNL     1      -9.930   3.997  73.344  1.00  0.00    -0.131 A  
HETATM    4  H1  UNL     1     -10.751   3.374  75.128  1.00  0.00     0.000 HD 
HETATM    5  N   UNL     1      -8.945   3.759  72.478  1.00  0.00    -0.103 NA 
HETATM    6  C   UNL     1      -8.949   4.488  71.345  1.00  0.00    -0.127 A  
HETATM    7  C   UNL     1      -9.899   5.490  71.076  1.00  0.00    -0.182 A  
HETATM    8  N   UNL     1      -7.904   4.141  70.481  1.00  0.00    -0.051 NA 
HETATM    9  N   UNL     1     -10.832   4.975  73.177  1.00  0.00    -0.259 NA 
HETATM   10  H1  UNL     1      -7.908   4.693  69.623  1.00  0.00     0.000 HD 
HETATM   11  N   UNL     1     -10.802   5.742  72.043  1.00  0.00    -0.243 NA 
HETATM   12  H2  UNL     1      -7.915   3.142  70.275  1.00  0.00     0.000 HD 
ENDROOT
BRANCH   7  13
HETATM   13  C   UNL     1     -10.015   6.287  69.820  1.00  0.00    -0.204 A  
HETATM   14  C   UNL     1      -9.437   7.576  69.638  1.00  0.00    -0.156 A  
HETATM   15  C   UNL     1      -9.626   8.288  68.431  1.00  0.00    -0.144 A  
HETATM   16 CL   UNL     1      -8.525   8.359  70.901  1.00  0.00    -0.140 Cl 
HETATM   17 CL   UNL     1      -8.926   9.847  68.136  1.00  0.00    -0.119 Cl 
HETATM   18  C   UNL     1     -10.408   7.760  67.405  1.00  0.00    -0.354 A  
HETATM   19  C   UNL     1     -10.971   6.501  67.551  1.00  0.00    -0.444 A  
HETATM   20  C   UNL     1     -10.754   5.773  68.726  1.00  0.00    -0.318 A  
ENDBRANCH   7  13
TORSDOF 1
ENDMDL
MODEL      184
REMARK 921   NORMALIZED FREE ENERGY PREDICTED BY IDOCK:   -2.92 KCAL/MOL
REMARK 922        TOTAL FREE ENERGY PREDICTED BY IDOCK:   -3.37 KCAL/MOL
REMARK 923 INTER-LIGAND FREE ENERGY PREDICTED BY IDOCK:   -3.10 KCAL/MOL
REMARK 924 INTRA-LIGAND FREE ENERGY PREDICTED BY IDOCK:   -0.27 KCAL/MOL
REMARK 927      BINDING AFFINITY PREDICTED BY RF-SCORE:    0.00 PKD
ROOT
HETATM    1  N   UNL     1     -12.936   7.856  72.529  1.00  0.00    -0.533 NA 
HETATM    2  H2  UNL     1     -12.623   8.766  72.866  1.00  0.00     0.000 HD 
HETATM    3  C   UNL     1     -11.963   7.310  71.713  1.00  0.00    -0.307 A  
HETATM    4  H1  UNL     1     -13.876   7.943  72.143  1.00  0.00     0.000 HD 
HETATM    5  N   UNL     1     -10.734   7.196  72.218  1.00  0.00    -0.214 NA 
HETATM    6  C   UNL     1      -9.821   6.574  71.447  1.00  0.00    -0.176 A  
HETATM    7  C   UNL     1     -10.100   6.098  70.153  1.00  0.00    -0.184 A  
HETATM    8  N   UNL     1      -8.575   6.467  72.074  1.00  0.00    -0.125 NA 
HETATM    9  N   UNL     1     -12.281   6.930  70.467  1.00  0.00    -0.287 NA 
HETATM   10  H1  UNL     1      -7.884   5.996  71.490  1.00  0.00     0.000 HD 
HETATM   11  N   UNL     1     -11.335   6.340  69.673  1.00  0.00    -0.432 NA 
HETATM   12  H2  UNL     1      -8.660   6.012  72.983  1.00  0.00     0.000 HD 
ENDROOT
BRANCH   7  13
HETATM   13  C   UNL     1      -9.170   5.338  69.269  1.00  0.00    -0.151 A  
HETATM   14  C   UNL     1      -8.467   5.912  68.170  1.00  0.00    -0.114 A  
HETATM   15  C   UNL     1      -7.632   5.116  67.352  1.00  0.00    -0.088 A  
HETATM   16 CL   UNL     1      -8.641   7.594  67.748  1.00  0.00    -0.121 Cl 
HETATM   17 CL   UNL     1      -6.728   5.758  66.019  1.00  0.00    -0.055 Cl 
HETATM   18  C   UNL     1      -7.503   3.746  67.581  1.00  0.00    -0.067 A  
HETATM   19  C   UNL     1      -8.166   3.165  68.652  1.00  0.00    -0.079 A  
HETATM   20  C   UNL     1      -8.960   3.954  69.491  1.00  0.00    -0.168 A  
ENDBRANCH   7  13
TORSDOF 1
ENDMDL
MODEL      185
REMARK 921   NORMALIZED FREE ENERGY PREDICTED BY IDOCK:   -2.85 KCAL/MOL
REMARK 922        TOTAL FREE ENERGY PREDICTED BY IDOCK:   -3.30 KCAL/MOL
REMARK 923 INTER-LIGAND FREE ENERGY PREDICTED BY IDOCK:   -3.00 KCAL/MOL
REMARK 924 INTRA-LIGAND FREE ENERGY PREDICTED BY IDOCK:   -0.29 KCAL/MOL
REMARK 927      BINDING AFFINITY PREDICTED BY RF-SCORE:    0.00 PKD
ROOT
HETATM    1  N   UNL     1      -6.229  12.392  68.775  1.00  0.00    -0.068 NA 
HETATM    2  H2  UNL     1      -5.237  12.166  68.702  1.00  0.00     0.000 HD 
HETATM    3  C   UNL     1      -6.920  11.284  69.226  1.00  0.00    -0.119 A  
HETATM    4  H1  UNL     1      -6.544  12.817  67.903  1.00  0.00     0.000 HD 
HETATM    5  N   UNL     1      -6.508  10.728  70.366  1.00  0.00    -0.279 NA 
HETATM    6  C   UNL     1      -7.250   9.709  70.843  1.00  0.00     0.015 A  
HETATM    7  C   UNL     1      -8.380   9.201  70.177  1.00  0.00    -0.165 A  
HETATM    8  N   UNL     1      -6.765   9.217  72.059  1.00  0.00    -0.296 NA 
HETATM    9  N   UNL     1      -7.953  10.813  68.513  1.00  0.00    -0.122 NA 
HETATM   10  H1  UNL     1      -7.327   8.446  72.420  1.00  0.00     0.000 HD 
HETATM   11  N   UNL     1      -8.674   9.748  68.982  1.00  0.00    -0.139 NA 
HETATM   12  H2  UNL     1      -6.679   9.964  72.749  1.00  0.00     0.000 HD 
ENDROOT
BRANCH   7  13
HETATM   13  C   UNL     1      -9.293   8.130  70.672  1.00  0.00    -0.165 A  
HETATM   14  C   UNL     1      -9.131   6.746  70.377  1.00  0.00    -0.153 A  
HETATM   15  C   UNL     1     -10.063   5.793  70.850  1.00  0.00    -0.199 A  
HETATM   16 CL   UNL     1      -7.823   6.167  69.380  1.00  0.00    -0.099 Cl 
HETATM   17 CL   UNL     1      -9.908   4.092  70.550  1.00  0.00    -0.257 Cl 
HETATM   18  C   UNL     1     -11.177   6.189  71.588  1.00  0.00    -0.342 A  
HETATM   19  C   UNL     1     -11.351   7.529  71.901  1.00  0.00    -0.298 A  
HETATM   20  C   UNL     1     -10.411   8.472  71.472  1.00  0.00    -0.318 A  
ENDBRANCH   7  13
TORSDOF 1
ENDMDL
MODEL      186
REMARK 921   NORMALIZED FREE ENERGY PREDICTED BY IDOCK:   -2.85 KCAL/MOL
REMARK 922        TOTAL FREE ENERGY PREDICTED BY IDOCK:   -3.29 KCAL/MOL
REMARK 923 INTER-LIGAND FREE ENERGY PREDICTED BY IDOCK:   -3.00 KCAL/MOL
REMARK 924 INTRA-LIGAND FREE ENERGY PREDICTED BY IDOCK:   -0.29 KCAL/MOL
REMARK 927      BINDING AFFINITY PREDICTED BY RF-SCORE:    0.00 PKD
ROOT
HETATM    1  N   UNL     1      -8.062   4.317  65.650  1.00  0.00    -0.104 NA 
HETATM    2  H2  UNL     1      -7.067   4.102  65.724  1.00  0.00     0.000 HD 
HETATM    3  C   UNL     1      -8.507   4.849  66.845  1.00  0.00    -0.106 A  
HETATM    4  H1  UNL     1      -8.558   3.503  65.287  1.00  0.00     0.000 HD 
HETATM    5  N   UNL     1      -7.859   5.913  67.320  1.00  0.00    -0.101 NA 
HETATM    6  C   UNL     1      -8.364   6.478  68.435  1.00  0.00    -0.117 A  
HETATM    7  C   UNL     1      -9.486   5.973  69.115  1.00  0.00    -0.128 A  
HETATM    8  N   UNL     1      -7.643   7.609  68.834  1.00  0.00    -0.099 NA 
HETATM    9  N   UNL     1      -9.546   4.283  67.475  1.00  0.00    -0.177 NA 
HETATM   10  H1  UNL     1      -8.025   8.037  69.678  1.00  0.00     0.000 HD 
HETATM   11  N   UNL     1     -10.025   4.837  68.632  1.00  0.00    -0.134 NA 
HETATM   12  H2  UNL     1      -7.575   8.288  68.076  1.00  0.00     0.000 HD 
ENDROOT
BRANCH   7  13
HETATM   13  C   UNL     1     -10.147   6.580  70.307  1.00  0.00    -0.208 A  
HETATM   14  C   UNL     1      -9.816   6.254  71.654  1.00  0.00    -0.165 A  
HETATM   15  C   UNL     1     -10.516   6.843  72.731  1.00  0.00    -0.224 A  
HETATM   16 CL   UNL     1      -8.582   5.083  72.038  1.00  0.00    -0.124 Cl 
HETATM   17 CL   UNL     1     -10.144   6.511  74.393  1.00  0.00    -0.374 Cl 
HETATM   18  C   UNL     1     -11.568   7.730  72.502  1.00  0.00    -0.422 A  
HETATM   19  C   UNL     1     -11.901   8.074  71.200  1.00  0.00    -0.307 A  
HETATM   20  C   UNL     1     -11.185   7.528  70.130  1.00  0.00    -0.213 A  
ENDBRANCH   7  13
TORSDOF 1
ENDMDL
MODEL      187
REMARK 921   NORMALIZED FREE ENERGY PREDICTED BY IDOCK:   -2.83 KCAL/MOL
REMARK 922        TOTAL FREE ENERGY PREDICTED BY IDOCK:   -3.28 KCAL/MOL
REMARK 923 INTER-LIGAND FREE ENERGY PREDICTED BY IDOCK:   -3.08 KCAL/MOL
REMARK 924 INTRA-LIGAND FREE ENERGY PREDICTED BY IDOCK:   -0.19 KCAL/MOL
REMARK 927      BINDING AFFINITY PREDICTED BY RF-SCORE:    0.00 PKD
ROOT
HETATM    1  N   UNL     1      -6.048  14.342  69.014  1.00  0.00    -0.088 NA 
HETATM    2  H2  UNL     1      -6.501  15.071  69.566  1.00  0.00     0.000 HD 
HETATM    3  C   UNL     1      -6.891  13.252  68.914  1.00  0.00    -0.103 A  
HETATM    4  H1  UNL     1      -5.110  14.176  69.379  1.00  0.00     0.000 HD 
HETATM    5  N   UNL     1      -8.118  13.469  68.437  1.00  0.00    -0.150 NA 
HETATM    6  C   UNL     1      -8.894  12.383  68.254  1.00  0.00    -0.174 A  
HETATM    7  C   UNL     1      -8.484  11.078  68.581  1.00  0.00    -0.157 A  
HETATM    8  N   UNL     1     -10.145  12.705  67.716  1.00  0.00    -0.215 NA 
HETATM    9  N   UNL     1      -6.458  12.043  69.298  1.00  0.00    -0.103 NA 
HETATM   10  H1  UNL     1     -10.732  11.882  67.577  1.00  0.00     0.000 HD 
HETATM   11  N   UNL     1      -7.271  10.951  69.151  1.00  0.00    -0.107 NA 
HETATM   12  H2  UNL     1     -10.046  13.236  66.850  1.00  0.00     0.000 HD 
ENDROOT
BRANCH   7  13
HETATM   13  C   UNL     1      -9.253   9.822  68.342  1.00  0.00    -0.130 A  
HETATM   14  C   UNL     1      -9.833   9.034  69.377  1.00  0.00    -0.183 A  
HETATM   15  C   UNL     1     -10.513   7.832  69.074  1.00  0.00    -0.205 A  
HETATM   16 CL   UNL     1      -9.688   9.475  71.058  1.00  0.00    -0.279 Cl 
HETATM   17 CL   UNL     1     -11.267   6.843  70.283  1.00  0.00    -0.339 Cl 
HETATM   18  C   UNL     1     -10.604   7.374  67.760  1.00  0.00    -0.278 A  
HETATM   19  C   UNL     1     -10.059   8.129  66.732  1.00  0.00    -0.365 A  
HETATM   20  C   UNL     1      -9.421   9.340  67.020  1.00  0.00    -0.205 A  
ENDBRANCH   7  13
TORSDOF 1
ENDMDL
MODEL      188
REMARK 921   NORMALIZED FREE ENERGY PREDICTED BY IDOCK:   -2.82 KCAL/MOL
REMARK 922        TOTAL FREE ENERGY PREDICTED BY IDOCK:   -3.26 KCAL/MOL
REMARK 923 INTER-LIGAND FREE ENERGY PREDICTED BY IDOCK:   -2.96 KCAL/MOL
REMARK 924 INTRA-LIGAND FREE ENERGY PREDICTED BY IDOCK:   -0.30 KCAL/MOL
REMARK 927      BINDING AFFINITY PREDICTED BY RF-SCORE:    0.00 PKD
ROOT
HETATM    1  N   UNL     1      -8.207   8.073  74.419  1.00  0.00    -0.319 NA 
HETATM    2  H2  UNL     1      -8.622   7.159  74.600  1.00  0.00     0.000 HD 
HETATM    3  C   UNL     1      -8.442   8.431  73.106  1.00  0.00    -0.131 A  
HETATM    4  H1  UNL     1      -7.238   8.074  74.738  1.00  0.00     0.000 HD 
HETATM    5  N   UNL     1      -9.709   8.430  72.689  1.00  0.00    -0.281 NA 
HETATM    6  C   UNL     1      -9.932   8.875  71.436  1.00  0.00    -0.308 A  
HETATM    7  C   UNL     1      -8.903   9.282  70.568  1.00  0.00    -0.241 A  
HETATM    8  N   UNL     1     -11.290   8.874  71.102  1.00  0.00    -0.272 NA 
HETATM    9  N   UNL     1      -7.410   8.752  72.312  1.00  0.00    -0.327 NA 
HETATM   10  H1  UNL     1     -11.459   9.211  70.154  1.00  0.00     0.000 HD 
HETATM   11  N   UNL     1      -7.642   9.159  71.026  1.00  0.00    -0.209 NA 
HETATM   12  H2  UNL     1     -11.836   9.404  71.783  1.00  0.00     0.000 HD 
ENDROOT
BRANCH   7  13
HETATM   13  C   UNL     1      -9.072   9.853  69.200  1.00  0.00    -0.175 A  
HETATM   14  C   UNL     1      -9.245   9.067  68.024  1.00  0.00    -0.135 A  
HETATM   15  C   UNL     1      -9.358   9.681  66.756  1.00  0.00    -0.152 A  
HETATM   16 CL   UNL     1      -9.268   7.324  68.081  1.00  0.00    -0.133 Cl 
HETATM   17 CL   UNL     1      -9.599   8.783  65.291  1.00  0.00     0.071 Cl 
HETATM   18  C   UNL     1      -9.271  11.066  66.622  1.00  0.00    -0.182 A  
HETATM   19  C   UNL     1      -9.116  11.855  67.752  1.00  0.00    -0.180 A  
HETATM   20  C   UNL     1      -9.046  11.257  69.014  1.00  0.00     0.015 A  
ENDBRANCH   7  13
TORSDOF 1
ENDMDL
MODEL      189
REMARK 921   NORMALIZED FREE ENERGY PREDICTED BY IDOCK:   -2.81 KCAL/MOL
REMARK 922        TOTAL FREE ENERGY PREDICTED BY IDOCK:   -3.25 KCAL/MOL
REMARK 923 INTER-LIGAND FREE ENERGY PREDICTED BY IDOCK:   -3.05 KCAL/MOL
REMARK 924 INTRA-LIGAND FREE ENERGY PREDICTED BY IDOCK:   -0.20 KCAL/MOL
REMARK 927      BINDING AFFINITY PREDICTED BY RF-SCORE:    0.00 PKD
ROOT
HETATM    1  N   UNL     1      -5.211  10.043  69.768  1.00  0.00    -0.037 NA 
HETATM    2  H2  UNL     1      -4.383   9.615  70.183  1.00  0.00     0.000 HD 
HETATM    3  C   UNL     1      -6.340   9.381  70.211  1.00  0.00    -0.060 A  
HETATM    4  H1  UNL     1      -5.081  10.123  68.759  1.00  0.00     0.000 HD 
HETATM    5  N   UNL     1      -6.511   9.276  71.529  1.00  0.00    -0.232 NA 
HETATM    6  C   UNL     1      -7.663   8.715  71.945  1.00  0.00    -0.064 A  
HETATM    7  C   UNL     1      -8.637   8.212  71.065  1.00  0.00    -0.137 A  
HETATM    8  N   UNL     1      -7.769   8.684  73.340  1.00  0.00    -0.398 NA 
HETATM    9  N   UNL     1      -7.202   8.872  69.318  1.00  0.00    -0.064 NA 
HETATM   10  H1  UNL     1      -8.642   8.259  73.655  1.00  0.00     0.000 HD 
HETATM   11  N   UNL     1      -8.349   8.262  69.751  1.00  0.00    -0.121 NA 
HETATM   12  H2  UNL     1      -7.650   9.616  73.738  1.00  0.00     0.000 HD 
ENDROOT
BRANCH   7  13
HETATM   13  C   UNL     1      -9.965   7.645  71.443  1.00  0.00    -0.203 A  
HETATM   14  C   UNL     1     -10.136   6.419  72.149  1.00  0.00    -0.177 A  
HETATM   15  C   UNL     1     -11.430   5.926  72.435  1.00  0.00    -0.306 A  
HETATM   16 CL   UNL     1      -8.776   5.444  72.639  1.00  0.00    -0.124 Cl 
HETATM   17 CL   UNL     1     -11.707   4.457  73.315  1.00  0.00    -0.246 Cl 
HETATM   18  C   UNL     1     -12.567   6.611  72.008  1.00  0.00    -0.251 A  
HETATM   19  C   UNL     1     -12.428   7.813  71.331  1.00  0.00    -0.342 A  
HETATM   20  C   UNL     1     -11.152   8.328  71.081  1.00  0.00    -0.289 A  
ENDBRANCH   7  13
TORSDOF 1
ENDMDL
MODEL      190
REMARK 921   NORMALIZED FREE ENERGY PREDICTED BY IDOCK:   -2.81 KCAL/MOL
REMARK 922        TOTAL FREE ENERGY PREDICTED BY IDOCK:   -3.25 KCAL/MOL
REMARK 923 INTER-LIGAND FREE ENERGY PREDICTED BY IDOCK:   -2.99 KCAL/MOL
REMARK 924 INTRA-LIGAND FREE ENERGY PREDICTED BY IDOCK:   -0.25 KCAL/MOL
REMARK 927      BINDING AFFINITY PREDICTED BY RF-SCORE:    0.00 PKD
ROOT
HETATM    1  N   UNL     1     -10.952  11.758  62.975  1.00  0.00    -0.668 NA 
HETATM    2  H2  UNL     1     -10.904  12.775  62.910  1.00  0.00     0.000 HD 
HETATM    3  C   UNL     1     -10.280  11.338  64.107  1.00  0.00    -0.335 A  
HETATM    4  H1  UNL     1     -10.670  11.348  62.085  1.00  0.00     0.000 HD 
HETATM    5  N   UNL     1     -10.649  11.873  65.271  1.00  0.00    -0.265 NA 
HETATM    6  C   UNL     1     -10.052  11.383  66.376  1.00  0.00    -0.218 A  
HETATM    7  C   UNL     1      -9.054  10.393  66.339  1.00  0.00    -0.157 A  
HETATM    8  N   UNL     1     -10.530  11.976  67.550  1.00  0.00    -0.209 NA 
HETATM    9  N   UNL     1      -9.297  10.433  63.996  1.00  0.00    -0.253 NA 
HETATM   10  H1  UNL     1     -10.078  11.605  68.386  1.00  0.00     0.000 HD 
HETATM   11  N   UNL     1      -8.664   9.974  65.120  1.00  0.00    -0.153 NA 
HETATM   12  H2  UNL     1     -11.545  11.896  67.614  1.00  0.00     0.000 HD 
ENDROOT
BRANCH   7  13
HETATM   13  C   UNL     1      -8.401   9.749  67.515  1.00  0.00    -0.114 A  
HETATM   14  C   UNL     1      -7.473  10.410  68.372  1.00  0.00    -0.091 A  
HETATM   15  C   UNL     1      -6.864   9.719  69.444  1.00  0.00    -0.057 A  
HETATM   16 CL   UNL     1      -7.005  12.069  68.111  1.00  0.00    -0.073 Cl 
HETATM   17 CL   UNL     1      -5.751  10.473  70.541  1.00  0.00    -0.086 Cl 
HETATM   18  C   UNL     1      -7.130   8.369  69.669  1.00  0.00    -0.052 A  
HETATM   19  C   UNL     1      -8.038   7.706  68.858  1.00  0.00    -0.127 A  
HETATM   20  C   UNL     1      -8.677   8.394  67.821  1.00  0.00    -0.137 A  
ENDBRANCH   7  13
TORSDOF 1
ENDMDL
MODEL      191
REMARK 921   NORMALIZED FREE ENERGY PREDICTED BY IDOCK:   -2.81 KCAL/MOL
REMARK 922        TOTAL FREE ENERGY PREDICTED BY IDOCK:   -3.25 KCAL/MOL
REMARK 923 INTER-LIGAND FREE ENERGY PREDICTED BY IDOCK:   -3.91 KCAL/MOL
REMARK 924 INTRA-LIGAND FREE ENERGY PREDICTED BY IDOCK:    0.66 KCAL/MOL
REMARK 927      BINDING AFFINITY PREDICTED BY RF-SCORE:    0.00 PKD
ROOT
HETATM    1  N   UNL     1      -7.943   8.665  64.056  1.00  0.00    -0.151 NA 
HETATM    2  H2  UNL     1      -8.540   8.157  63.403  1.00  0.00     0.000 HD 
HETATM    3  C   UNL     1      -8.706   9.124  65.113  1.00  0.00    -0.195 A  
HETATM    4  H1  UNL     1      -7.390   9.353  63.545  1.00  0.00     0.000 HD 
HETATM    5  N   UNL     1      -9.428   8.225  65.782  1.00  0.00    -0.058 NA 
HETATM    6  C   UNL     1     -10.090   8.671  66.868  1.00  0.00    -0.285 A  
HETATM    7  C   UNL     1     -10.081  10.016  67.278  1.00  0.00    -0.209 A  
HETATM    8  N   UNL     1     -10.786   7.651  67.526  1.00  0.00    -0.513 NA 
HETATM    9  N   UNL     1      -8.699  10.430  65.416  1.00  0.00    -0.173 NA 
HETATM   10  H1  UNL     1     -11.287   7.989  68.348  1.00  0.00     0.000 HD 
HETATM   11  N   UNL     1      -9.411  10.882  66.495  1.00  0.00    -0.170 NA 
HETATM   12  H2  UNL     1     -10.165   6.878  67.766  1.00  0.00     0.000 HD 
ENDROOT
BRANCH   7  13
HETATM   13  C   UNL     1     -10.724  10.573  68.504  1.00  0.00    -0.259 A  
HETATM   14  C   UNL     1     -11.222  11.904  68.608  1.00  0.00    -0.257 A  
HETATM   15  C   UNL     1     -11.783  12.372  69.818  1.00  0.00    -0.291 A  
HETATM   16 CL   UNL     1     -11.115  13.029  67.280  1.00  0.00    -0.288 Cl 
HETATM   17 CL   UNL     1     -12.433  13.970  70.001  1.00  0.00    -0.377 Cl 
HETATM   18  C   UNL     1     -11.832  11.555  70.947  1.00  0.00    -0.038 A  
HETATM   19  C   UNL     1     -11.366  10.251  70.869  1.00  0.00    -0.376 A  
HETATM   20  C   UNL     1     -10.849   9.767  69.662  1.00  0.00    -0.274 A  
ENDBRANCH   7  13
TORSDOF 1
ENDMDL
MODEL      192
REMARK 921   NORMALIZED FREE ENERGY PREDICTED BY IDOCK:   -2.80 KCAL/MOL
REMARK 922        TOTAL FREE ENERGY PREDICTED BY IDOCK:   -3.24 KCAL/MOL
REMARK 923 INTER-LIGAND FREE ENERGY PREDICTED BY IDOCK:   -2.95 KCAL/MOL
REMARK 924 INTRA-LIGAND FREE ENERGY PREDICTED BY IDOCK:   -0.30 KCAL/MOL
REMARK 927      BINDING AFFINITY PREDICTED BY RF-SCORE:    0.00 PKD
ROOT
HETATM    1  N   UNL     1      -8.452   4.793  64.721  1.00  0.00    -0.135 NA 
HETATM    2  H2  UNL     1      -7.636   4.197  64.583  1.00  0.00     0.000 HD 
HETATM    3  C   UNL     1      -8.765   4.839  66.066  1.00  0.00    -0.118 A  
HETATM    4  H1  UNL     1      -9.192   4.508  64.078  1.00  0.00     0.000 HD 
HETATM    5  N   UNL     1      -7.798   5.211  66.906  1.00  0.00    -0.099 NA 
HETATM    6  C   UNL     1      -8.144   5.345  68.201  1.00  0.00    -0.095 A  
HETATM    7  C   UNL     1      -9.435   5.070  68.687  1.00  0.00    -0.139 A  
HETATM    8  N   UNL     1      -7.077   5.776  68.998  1.00  0.00    -0.067 NA 
HETATM    9  N   UNL     1      -9.999   4.507  66.471  1.00  0.00    -0.226 NA 
HETATM   10  H1  UNL     1      -7.340   5.877  69.979  1.00  0.00     0.000 HD 
HETATM   11  N   UNL     1     -10.329   4.602  67.796  1.00  0.00     0.032 NA 
HETATM   12  H2  UNL     1      -6.673   6.639  68.634  1.00  0.00     0.000 HD 
ENDROOT
BRANCH   7  13
HETATM   13  C   UNL     1      -9.914   5.263  70.087  1.00  0.00    -0.313 A  
HETATM   14  C   UNL     1     -10.308   6.521  70.628  1.00  0.00    -0.201 A  
HETATM   15  C   UNL     1     -10.713   6.631  71.978  1.00  0.00    -0.219 A  
HETATM   16 CL   UNL     1     -10.255   7.984  69.681  1.00  0.00    -0.203 Cl 
HETATM   17 CL   UNL     1     -11.231   8.126  72.689  1.00  0.00    -0.451 Cl 
HETATM   18  C   UNL     1     -10.707   5.519  72.819  1.00  0.00    -0.290 A  
HETATM   19  C   UNL     1     -10.341   4.280  72.314  1.00  0.00    -0.214 A  
HETATM   20  C   UNL     1      -9.979   4.156  70.968  1.00  0.00    -0.206 A  
ENDBRANCH   7  13
TORSDOF 1
ENDMDL
MODEL      193
REMARK 921   NORMALIZED FREE ENERGY PREDICTED BY IDOCK:   -2.80 KCAL/MOL
REMARK 922        TOTAL FREE ENERGY PREDICTED BY IDOCK:   -3.24 KCAL/MOL
REMARK 923 INTER-LIGAND FREE ENERGY PREDICTED BY IDOCK:   -2.95 KCAL/MOL
REMARK 924 INTRA-LIGAND FREE ENERGY PREDICTED BY IDOCK:   -0.29 KCAL/MOL
REMARK 927      BINDING AFFINITY PREDICTED BY RF-SCORE:    0.00 PKD
ROOT
HETATM    1  N   UNL     1      -9.404   6.924  73.956  1.00  0.00    -0.205 NA 
HETATM    2  H2  UNL     1     -10.106   6.352  74.426  1.00  0.00     0.000 HD 
HETATM    3  C   UNL     1      -9.414   6.645  72.603  1.00  0.00    -0.142 A  
HETATM    4  H1  UNL     1      -8.513   6.836  74.446  1.00  0.00     0.000 HD 
HETATM    5  N   UNL     1     -10.578   6.759  71.963  1.00  0.00    -0.211 NA 
HETATM    6  C   UNL     1     -10.552   6.578  70.628  1.00  0.00    -0.233 A  
HETATM    7  C   UNL     1      -9.387   6.239  69.918  1.00  0.00    -0.150 A  
HETATM    8  N   UNL     1     -11.809   6.757  70.040  1.00  0.00    -0.641 NA 
HETATM    9  N   UNL     1      -8.279   6.268  71.997  1.00  0.00    -0.110 NA 
HETATM   10  H1  UNL     1     -11.790   6.621  69.029  1.00  0.00     0.000 HD 
HETATM   11  N   UNL     1      -8.272   6.042  70.646  1.00  0.00    -0.119 NA 
HETATM   12  H2  UNL     1     -12.201   7.669  70.280  1.00  0.00     0.000 HD 
ENDROOT
BRANCH   7  13
HETATM   13  C   UNL     1      -9.261   6.094  68.439  1.00  0.00    -0.111 A  
HETATM   14  C   UNL     1      -9.367   4.852  67.748  1.00  0.00    -0.131 A  
HETATM   15  C   UNL     1      -9.195   4.790  66.346  1.00  0.00    -0.135 A  
HETATM   16 CL   UNL     1      -9.653   3.354  68.593  1.00  0.00    -0.195 Cl 
HETATM   17 CL   UNL     1      -9.340   3.316  65.442  1.00  0.00    -0.152 Cl 
HETATM   18  C   UNL     1      -8.888   5.934  65.611  1.00  0.00    -0.126 A  
HETATM   19  C   UNL     1      -8.792   7.158  66.257  1.00  0.00    -0.166 A  
HETATM   20  C   UNL     1      -9.002   7.234  67.638  1.00  0.00    -0.126 A  
ENDBRANCH   7  13
TORSDOF 1
ENDMDL
MODEL      194
REMARK 921   NORMALIZED FREE ENERGY PREDICTED BY IDOCK:   -2.80 KCAL/MOL
REMARK 922        TOTAL FREE ENERGY PREDICTED BY IDOCK:   -3.24 KCAL/MOL
REMARK 923 INTER-LIGAND FREE ENERGY PREDICTED BY IDOCK:   -2.95 KCAL/MOL
REMARK 924 INTRA-LIGAND FREE ENERGY PREDICTED BY IDOCK:   -0.28 KCAL/MOL
REMARK 927      BINDING AFFINITY PREDICTED BY RF-SCORE:    0.00 PKD
ROOT
HETATM    1  N   UNL     1      -7.280   4.361  65.458  1.00  0.00    -0.067 NA 
HETATM    2  H2  UNL     1      -6.520   3.821  65.870  1.00  0.00     0.000 HD 
HETATM    3  C   UNL     1      -7.856   5.158  66.428  1.00  0.00    -0.103 A  
HETATM    4  H1  UNL     1      -7.898   3.736  64.939  1.00  0.00     0.000 HD 
HETATM    5  N   UNL     1      -7.049   5.976  67.106  1.00  0.00    -0.069 NA 
HETATM    6  C   UNL     1      -7.637   6.815  67.981  1.00  0.00    -0.107 A  
HETATM    7  C   UNL     1      -9.022   6.825  68.227  1.00  0.00    -0.123 A  
HETATM    8  N   UNL     1      -6.718   7.659  68.613  1.00  0.00    -0.053 NA 
HETATM    9  N   UNL     1      -9.174   5.077  66.655  1.00  0.00    -0.124 NA 
HETATM   10  H1  UNL     1      -7.164   8.295  69.275  1.00  0.00     0.000 HD 
HETATM   11  N   UNL     1      -9.758   5.903  67.579  1.00  0.00    -0.111 NA 
HETATM   12  H2  UNL     1      -6.160   8.172  67.930  1.00  0.00     0.000 HD 
ENDROOT
BRANCH   7  13
HETATM   13  C   UNL     1      -9.756   7.768  69.120  1.00  0.00    -0.161 A  
HETATM   14  C   UNL     1     -10.370   8.974  68.674  1.00  0.00    -0.209 A  
HETATM   15  C   UNL     1     -11.014   9.838  69.589  1.00  0.00    -0.241 A  
HETATM   16 CL   UNL     1     -10.310   9.470  67.003  1.00  0.00    -0.316 Cl 
HETATM   17 CL   UNL     1     -11.805  11.305  69.107  1.00  0.00    -0.394 Cl 
HETATM   18  C   UNL     1     -11.036   9.547  70.953  1.00  0.00    -0.407 A  
HETATM   19  C   UNL     1     -10.457   8.373  71.412  1.00  0.00    -0.286 A  
HETATM   20  C   UNL     1      -9.855   7.493  70.506  1.00  0.00    -0.183 A  
ENDBRANCH   7  13
TORSDOF 1
ENDMDL
MODEL      195
REMARK 921   NORMALIZED FREE ENERGY PREDICTED BY IDOCK:   -2.74 KCAL/MOL
REMARK 922        TOTAL FREE ENERGY PREDICTED BY IDOCK:   -3.18 KCAL/MOL
REMARK 923 INTER-LIGAND FREE ENERGY PREDICTED BY IDOCK:   -3.72 KCAL/MOL
REMARK 924 INTRA-LIGAND FREE ENERGY PREDICTED BY IDOCK:    0.54 KCAL/MOL
REMARK 927      BINDING AFFINITY PREDICTED BY RF-SCORE:    0.00 PKD
ROOT
HETATM    1  N   UNL     1     -10.192   5.030  65.527  1.00  0.00    -0.422 NA 
HETATM    2  H2  UNL     1      -9.980   5.939  65.116  1.00  0.00     0.000 HD 
HETATM    3  C   UNL     1     -10.184   5.135  66.904  1.00  0.00    -0.239 A  
HETATM    4  H1  UNL     1      -9.588   4.321  65.108  1.00  0.00     0.000 HD 
HETATM    5  N   UNL     1     -10.972   6.061  67.452  1.00  0.00    -0.303 NA 
HETATM    6  C   UNL     1     -11.027   6.087  68.798  1.00  0.00    -0.312 A  
HETATM    7  C   UNL     1     -10.272   5.229  69.617  1.00  0.00    -0.278 A  
HETATM    8  N   UNL     1     -11.908   7.062  69.278  1.00  0.00    -0.272 NA 
HETATM    9  N   UNL     1      -9.395   4.326  67.626  1.00  0.00    -0.150 NA 
HETATM   10  H1  UNL     1     -11.949   7.081  70.297  1.00  0.00     0.000 HD 
HETATM   11  N   UNL     1      -9.423   4.390  68.993  1.00  0.00    -0.155 NA 
HETATM   12  H2  UNL     1     -12.838   6.948  68.875  1.00  0.00     0.000 HD 
ENDROOT
BRANCH   7  13
HETATM   13  C   UNL     1     -10.331   5.146  71.105  1.00  0.00    -0.276 A  
HETATM   14  C   UNL     1     -10.229   3.929  71.840  1.00  0.00    -0.073 A  
HETATM   15  C   UNL     1     -10.336   3.926  73.249  1.00  0.00    -0.166 A  
HETATM   16 CL   UNL     1     -10.028   2.391  71.043  1.00  0.00    -0.042 Cl 
HETATM   17 CL   UNL     1     -10.192   2.485  74.204  1.00  0.00    -0.166 Cl 
HETATM   18  C   UNL     1     -10.574   5.107  73.951  1.00  0.00    -0.340 A  
HETATM   19  C   UNL     1     -10.664   6.307  73.262  1.00  0.00    -0.284 A  
HETATM   20  C   UNL     1     -10.518   6.323  71.870  1.00  0.00    -0.244 A  
ENDBRANCH   7  13
TORSDOF 1
ENDMDL
MODEL      196
REMARK 921   NORMALIZED FREE ENERGY PREDICTED BY IDOCK:   -2.73 KCAL/MOL
REMARK 922        TOTAL FREE ENERGY PREDICTED BY IDOCK:   -3.17 KCAL/MOL
REMARK 923 INTER-LIGAND FREE ENERGY PREDICTED BY IDOCK:   -2.88 KCAL/MOL
REMARK 924 INTRA-LIGAND FREE ENERGY PREDICTED BY IDOCK:   -0.29 KCAL/MOL
REMARK 927      BINDING AFFINITY PREDICTED BY RF-SCORE:    0.00 PKD
ROOT
HETATM    1  N   UNL     1      -7.652  10.609  65.076  1.00  0.00    -0.346 NA 
HETATM    2  H2  UNL     1      -7.829  11.369  65.732  1.00  0.00     0.000 HD 
HETATM    3  C   UNL     1      -7.957   9.403  65.678  1.00  0.00    -0.103 A  
HETATM    4  H1  UNL     1      -6.716  10.712  64.684  1.00  0.00     0.000 HD 
HETATM    5  N   UNL     1      -9.180   9.268  66.191  1.00  0.00    -0.180 NA 
HETATM    6  C   UNL     1      -9.495   8.055  66.688  1.00  0.00    -0.212 A  
HETATM    7  C   UNL     1      -8.592   6.978  66.723  1.00  0.00    -0.120 A  
HETATM    8  N   UNL     1     -10.809   7.998  67.167  1.00  0.00    -0.484 NA 
HETATM    9  N   UNL     1      -7.030   8.436  65.731  1.00  0.00    -0.067 NA 
HETATM   10  H1  UNL     1     -11.047   7.080  67.542  1.00  0.00     0.000 HD 
HETATM   11  N   UNL     1      -7.344   7.221  66.279  1.00  0.00    -0.077 NA 
HETATM   12  H2  UNL     1     -11.474   8.285  66.448  1.00  0.00     0.000 HD 
ENDROOT
BRANCH   7  13
HETATM   13  C   UNL     1      -8.885   5.591  67.186  1.00  0.00    -0.106 A  
HETATM   14  C   UNL     1      -8.996   5.215  68.557  1.00  0.00    -0.106 A  
HETATM   15  C   UNL     1      -9.236   3.870  68.918  1.00  0.00    -0.152 A  
HETATM   16 CL   UNL     1      -8.789   6.372  69.845  1.00  0.00    -0.141 Cl 
HETATM   17 CL   UNL     1      -9.411   3.352  70.565  1.00  0.00    -0.239 Cl 
HETATM   18  C   UNL     1      -9.337   2.875  67.947  1.00  0.00    -0.256 A  
HETATM   19  C   UNL     1      -9.245   3.215  66.606  1.00  0.00    -0.165 A  
HETATM   20  C   UNL     1      -9.050   4.551  66.238  1.00  0.00    -0.123 A  
ENDBRANCH   7  13
TORSDOF 1
ENDMDL
MODEL      197
REMARK 921   NORMALIZED FREE ENERGY PREDICTED BY IDOCK:   -2.72 KCAL/MOL
REMARK 922        TOTAL FREE ENERGY PREDICTED BY IDOCK:   -3.16 KCAL/MOL
REMARK 923 INTER-LIGAND FREE ENERGY PREDICTED BY IDOCK:   -2.90 KCAL/MOL
REMARK 924 INTRA-LIGAND FREE ENERGY PREDICTED BY IDOCK:   -0.26 KCAL/MOL
REMARK 927      BINDING AFFINITY PREDICTED BY RF-SCORE:    0.00 PKD
ROOT
HETATM    1  N   UNL     1      -7.447   2.354  68.897  1.00  0.00    -0.044 NA 
HETATM    2  H2  UNL     1      -7.010   2.378  67.975  1.00  0.00     0.000 HD 
HETATM    3  C   UNL     1      -8.095   3.552  69.129  1.00  0.00    -0.056 A  
HETATM    4  H1  UNL     1      -6.760   2.052  69.589  1.00  0.00     0.000 HD 
HETATM    5  N   UNL     1      -8.992   3.947  68.225  1.00  0.00    -0.111 NA 
HETATM    6  C   UNL     1      -9.685   5.067  68.512  1.00  0.00    -0.154 A  
HETATM    7  C   UNL     1      -9.468   5.831  69.672  1.00  0.00    -0.140 A  
HETATM    8  N   UNL     1     -10.627   5.380  67.526  1.00  0.00    -0.173 NA 
HETATM    9  N   UNL     1      -7.799   4.264  70.226  1.00  0.00    -0.052 NA 
HETATM   10  H1  UNL     1     -11.152   6.227  67.744  1.00  0.00     0.000 HD 
HETATM   11  N   UNL     1      -8.476   5.425  70.487  1.00  0.00    -0.119 NA 
HETATM   12  H2  UNL     1     -11.255   4.593  67.355  1.00  0.00     0.000 HD 
ENDROOT
BRANCH   7  13
HETATM   13  C   UNL     1     -10.239   7.036  70.096  1.00  0.00    -0.206 A  
HETATM   14  C   UNL     1     -10.146   8.307  69.459  1.00  0.00    -0.197 A  
HETATM   15  C   UNL     1     -10.880   9.413  69.945  1.00  0.00    -0.236 A  
HETATM   16 CL   UNL     1      -9.092   8.575  68.097  1.00  0.00    -0.138 Cl 
HETATM   17 CL   UNL     1     -10.834  10.978  69.199  1.00  0.00    -0.259 Cl 
HETATM   18  C   UNL     1     -11.685   9.295  71.078  1.00  0.00    -0.378 A  
HETATM   19  C   UNL     1     -11.804   8.066  71.709  1.00  0.00    -0.339 A  
HETATM   20  C   UNL     1     -11.114   6.957  71.208  1.00  0.00    -0.293 A  
ENDBRANCH   7  13
TORSDOF 1
ENDMDL
MODEL      198
REMARK 921   NORMALIZED FREE ENERGY PREDICTED BY IDOCK:   -2.66 KCAL/MOL
REMARK 922        TOTAL FREE ENERGY PREDICTED BY IDOCK:   -3.09 KCAL/MOL
REMARK 923 INTER-LIGAND FREE ENERGY PREDICTED BY IDOCK:   -2.88 KCAL/MOL
REMARK 924 INTRA-LIGAND FREE ENERGY PREDICTED BY IDOCK:   -0.21 KCAL/MOL
REMARK 927      BINDING AFFINITY PREDICTED BY RF-SCORE:    0.00 PKD
ROOT
HETATM    1  N   UNL     1     -11.992  11.994  68.252  1.00  0.00    -0.463 NA 
HETATM    2  H2  UNL     1     -12.492  11.913  67.367  1.00  0.00     0.000 HD 
HETATM    3  C   UNL     1     -11.241  10.854  68.461  1.00  0.00    -0.274 A  
HETATM    4  H1  UNL     1     -12.647  12.264  68.987  1.00  0.00     0.000 HD 
HETATM    5  N   UNL     1     -10.385  10.501  67.501  1.00  0.00    -0.209 NA 
HETATM    6  C   UNL     1      -9.591   9.443  67.760  1.00  0.00    -0.134 A  
HETATM    7  C   UNL     1      -9.664   8.698  68.950  1.00  0.00    -0.170 A  
HETATM    8  N   UNL     1      -8.702   9.174  66.714  1.00  0.00    -0.126 NA 
HETATM    9  N   UNL     1     -11.401  10.153  69.593  1.00  0.00    -0.248 NA 
HETATM   10  H1  UNL     1      -8.100   8.373  66.910  1.00  0.00     0.000 HD 
HETATM   11  N   UNL     1     -10.621   9.053  69.828  1.00  0.00    -0.225 NA 
HETATM   12  H2  UNL     1      -8.150   9.999  66.479  1.00  0.00     0.000 HD 
ENDROOT
BRANCH   7  13
HETATM   13  C   UNL     1      -8.775   7.565  69.342  1.00  0.00    -0.137 A  
HETATM   14  C   UNL     1      -9.192   6.203  69.385  1.00  0.00    -0.133 A  
HETATM   15  C   UNL     1      -8.302   5.189  69.806  1.00  0.00    -0.093 A  
HETATM   16 CL   UNL     1     -10.820   5.729  68.980  1.00  0.00    -0.360 Cl 
HETATM   17 CL   UNL     1      -8.737   3.511  69.854  1.00  0.00    -0.119 Cl 
HETATM   18  C   UNL     1      -7.007   5.501  70.219  1.00  0.00    -0.061 A  
HETATM   19  C   UNL     1      -6.571   6.817  70.174  1.00  0.00    -0.044 A  
HETATM   20  C   UNL     1      -7.434   7.820  69.719  1.00  0.00    -0.089 A  
ENDBRANCH   7  13
TORSDOF 1
ENDMDL
MODEL      199
REMARK 921   NORMALIZED FREE ENERGY PREDICTED BY IDOCK:   -2.65 KCAL/MOL
REMARK 922        TOTAL FREE ENERGY PREDICTED BY IDOCK:   -3.09 KCAL/MOL
REMARK 923 INTER-LIGAND FREE ENERGY PREDICTED BY IDOCK:   -2.79 KCAL/MOL
REMARK 924 INTRA-LIGAND FREE ENERGY PREDICTED BY IDOCK:   -0.30 KCAL/MOL
REMARK 927      BINDING AFFINITY PREDICTED BY RF-SCORE:    0.00 PKD
ROOT
HETATM    1  N   UNL     1     -10.100  14.004  65.980  1.00  0.00    -0.305 NA 
HETATM    2  H2  UNL     1     -11.088  14.043  65.730  1.00  0.00     0.000 HD 
HETATM    3  C   UNL     1      -9.731  12.690  66.192  1.00  0.00    -0.251 A  
HETATM    4  H1  UNL     1      -9.915  14.669  66.731  1.00  0.00     0.000 HD 
HETATM    5  N   UNL     1      -9.972  11.821  65.210  1.00  0.00    -0.248 NA 
HETATM    6  C   UNL     1      -9.520  10.564  65.392  1.00  0.00    -0.223 A  
HETATM    7  C   UNL     1      -8.864  10.143  66.562  1.00  0.00    -0.140 A  
HETATM    8  N   UNL     1      -9.784   9.737  64.295  1.00  0.00    -0.409 NA 
HETATM    9  N   UNL     1      -9.163  12.341  67.355  1.00  0.00    -0.176 NA 
HETATM   10  H1  UNL     1      -9.441   8.786  64.433  1.00  0.00     0.000 HD 
HETATM   11  N   UNL     1      -8.747  11.051  67.550  1.00  0.00    -0.127 NA 
HETATM   12  H2  UNL     1      -9.414  10.139  63.434  1.00  0.00     0.000 HD 
ENDROOT
BRANCH   7  13
HETATM   13  C   UNL     1      -8.271   8.797  66.810  1.00  0.00    -0.108 A  
HETATM   14  C   UNL     1      -8.990   7.699  67.364  1.00  0.00    -0.126 A  
HETATM   15  C   UNL     1      -8.347   6.464  67.607  1.00  0.00    -0.117 A  
HETATM   16 CL   UNL     1     -10.668   7.837  67.819  1.00  0.00    -0.242 Cl 
HETATM   17 CL   UNL     1      -9.172   5.080  68.252  1.00  0.00    -0.135 Cl 
HETATM   18  C   UNL     1      -6.988   6.301  67.341  1.00  0.00    -0.068 A  
HETATM   19  C   UNL     1      -6.267   7.349  66.789  1.00  0.00    -0.044 A  
HETATM   20  C   UNL     1      -6.907   8.561  66.507  1.00  0.00    -0.071 A  
ENDBRANCH   7  13
TORSDOF 1
ENDMDL
MODEL      200
REMARK 921   NORMALIZED FREE ENERGY PREDICTED BY IDOCK:   -2.65 KCAL/MOL
REMARK 922        TOTAL FREE ENERGY PREDICTED BY IDOCK:   -3.08 KCAL/MOL
REMARK 923 INTER-LIGAND FREE ENERGY PREDICTED BY IDOCK:   -2.78 KCAL/MOL
REMARK 924 INTRA-LIGAND FREE ENERGY PREDICTED BY IDOCK:   -0.30 KCAL/MOL
REMARK 927      BINDING AFFINITY PREDICTED BY RF-SCORE:    0.00 PKD
ROOT
HETATM    1  N   UNL     1      -5.319  13.236  69.438  1.00  0.00    -0.075 NA 
HETATM    2  H2  UNL     1      -5.754  14.159  69.426  1.00  0.00     0.000 HD 
HETATM    3  C   UNL     1      -6.300  12.266  69.500  1.00  0.00    -0.121 A  
HETATM    4  H1  UNL     1      -4.593  13.214  70.155  1.00  0.00     0.000 HD 
HETATM    5  N   UNL     1      -7.249  12.295  68.564  1.00  0.00    -0.098 NA 
HETATM    6  C   UNL     1      -8.143  11.287  68.580  1.00  0.00    -0.148 A  
HETATM    7  C   UNL     1      -8.136  10.266  69.546  1.00  0.00    -0.162 A  
HETATM    8  N   UNL     1      -9.073  11.381  67.539  1.00  0.00    -0.155 NA 
HETATM    9  N   UNL     1      -6.270  11.355  70.483  1.00  0.00    -0.313 NA 
HETATM   10  H1  UNL     1      -9.750  10.617  67.551  1.00  0.00     0.000 HD 
HETATM   11  N   UNL     1      -7.209  10.360  70.518  1.00  0.00    -0.216 NA 
HETATM   12  H2  UNL     1      -8.606  11.443  66.633  1.00  0.00     0.000 HD 
ENDROOT
BRANCH   7  13
HETATM   13  C   UNL     1      -9.041   9.080  69.589  1.00  0.00    -0.155 A  
HETATM   14  C   UNL     1      -8.831   7.889  68.835  1.00  0.00    -0.142 A  
HETATM   15  C   UNL     1      -9.757   6.823  68.899  1.00  0.00    -0.137 A  
HETATM   16 CL   UNL     1      -7.467   7.710  67.764  1.00  0.00    -0.105 Cl 
HETATM   17 CL   UNL     1      -9.545   5.336  68.030  1.00  0.00    -0.150 Cl 
HETATM   18  C   UNL     1     -10.911   6.923  69.674  1.00  0.00    -0.298 A  
HETATM   19  C   UNL     1     -11.133   8.066  70.428  1.00  0.00    -0.238 A  
HETATM   20  C   UNL     1     -10.201   9.108  70.402  1.00  0.00    -0.268 A  
ENDBRANCH   7  13
TORSDOF 1
ENDMDL
MODEL      201
REMARK 921   NORMALIZED FREE ENERGY PREDICTED BY IDOCK:   -2.64 KCAL/MOL
REMARK 922        TOTAL FREE ENERGY PREDICTED BY IDOCK:   -3.07 KCAL/MOL
REMARK 923 INTER-LIGAND FREE ENERGY PREDICTED BY IDOCK:   -2.81 KCAL/MOL
REMARK 924 INTRA-LIGAND FREE ENERGY PREDICTED BY IDOCK:   -0.27 KCAL/MOL
REMARK 927      BINDING AFFINITY PREDICTED BY RF-SCORE:    0.00 PKD
ROOT
HETATM    1  N   UNL     1      -8.977   9.345  65.244  1.00  0.00    -0.192 NA 
HETATM    2  H2  UNL     1      -8.336   8.961  64.550  1.00  0.00     0.000 HD 
HETATM    3  C   UNL     1      -9.102   8.457  66.295  1.00  0.00    -0.194 A  
HETATM    4  H1  UNL     1      -9.835   9.647  64.782  1.00  0.00     0.000 HD 
HETATM    5  N   UNL     1      -7.980   8.063  66.899  1.00  0.00    -0.103 NA 
HETATM    6  C   UNL     1      -8.124   7.273  67.982  1.00  0.00    -0.120 A  
HETATM    7  C   UNL     1      -9.373   6.830  68.452  1.00  0.00    -0.124 A  
HETATM    8  N   UNL     1      -6.898   6.945  68.570  1.00  0.00    -0.067 NA 
HETATM    9  N   UNL     1     -10.319   8.025  66.656  1.00  0.00    -0.272 NA 
HETATM   10  H1  UNL     1      -7.007   6.347  69.390  1.00  0.00     0.000 HD 
HETATM   11  N   UNL     1     -10.452   7.187  67.730  1.00  0.00    -0.206 NA 
HETATM   12  H2  UNL     1      -6.362   7.783  68.795  1.00  0.00     0.000 HD 
ENDROOT
BRANCH   7  13
HETATM   13  C   UNL     1      -9.620   6.019  69.679  1.00  0.00    -0.177 A  
HETATM   14  C   UNL     1      -9.298   4.636  69.799  1.00  0.00    -0.145 A  
HETATM   15  C   UNL     1      -9.601   3.925  70.983  1.00  0.00    -0.181 A  
HETATM   16 CL   UNL     1      -8.573   3.745  68.487  1.00  0.00    -0.109 Cl 
HETATM   17 CL   UNL     1      -9.208   2.249  71.204  1.00  0.00    -0.174 Cl 
HETATM   18  C   UNL     1     -10.250   4.550  72.047  1.00  0.00    -0.251 A  
HETATM   19  C   UNL     1     -10.563   5.898  71.961  1.00  0.00    -0.268 A  
HETATM   20  C   UNL     1     -10.228   6.619  70.810  1.00  0.00    -0.221 A  
ENDBRANCH   7  13
TORSDOF 1
ENDMDL
MODEL      202
REMARK 921   NORMALIZED FREE ENERGY PREDICTED BY IDOCK:   -2.64 KCAL/MOL
REMARK 922        TOTAL FREE ENERGY PREDICTED BY IDOCK:   -3.07 KCAL/MOL
REMARK 923 INTER-LIGAND FREE ENERGY PREDICTED BY IDOCK:   -2.77 KCAL/MOL
REMARK 924 INTRA-LIGAND FREE ENERGY PREDICTED BY IDOCK:   -0.30 KCAL/MOL
REMARK 927      BINDING AFFINITY PREDICTED BY RF-SCORE:    0.00 PKD
ROOT
HETATM    1  N   UNL     1      -7.881  10.398  70.167  1.00  0.00    -0.413 NA 
HETATM    2  H2  UNL     1      -7.919  11.176  70.826  1.00  0.00     0.000 HD 
HETATM    3  C   UNL     1      -8.033   9.208  70.852  1.00  0.00    -0.157 A  
HETATM    4  H1  UNL     1      -7.055  10.495  69.576  1.00  0.00     0.000 HD 
HETATM    5  N   UNL     1      -9.113   9.080  71.625  1.00  0.00    -0.343 NA 
HETATM    6  C   UNL     1      -9.297   7.881  72.210  1.00  0.00    -0.180 A  
HETATM    7  C   UNL     1      -8.397   6.810  72.073  1.00  0.00    -0.111 A  
HETATM    8  N   UNL     1     -10.473   7.830  72.966  1.00  0.00    -0.349 NA 
HETATM    9  N   UNL     1      -7.106   8.247  70.725  1.00  0.00    -0.041 NA 
HETATM   10  H1  UNL     1     -10.613   6.921  73.409  1.00  0.00     0.000 HD 
HETATM   11  N   UNL     1      -7.279   7.047  71.360  1.00  0.00    -0.077 NA 
HETATM   12  H2  UNL     1     -11.283   8.093  72.405  1.00  0.00     0.000 HD 
ENDROOT
BRANCH   7  13
HETATM   13  C   UNL     1      -8.565   5.434  72.625  1.00  0.00    -0.120 A  
HETATM   14  C   UNL     1      -9.316   4.405  71.986  1.00  0.00    -0.132 A  
HETATM   15  C   UNL     1      -9.464   3.137  72.592  1.00  0.00    -0.106 A  
HETATM   16 CL   UNL     1     -10.129   4.672  70.467  1.00  0.00    -0.289 Cl 
HETATM   17 CL   UNL     1     -10.339   1.834  71.853  1.00  0.00    -0.184 Cl 
HETATM   18  C   UNL     1      -8.907   2.873  73.843  1.00  0.00    -0.075 A  
HETATM   19  C   UNL     1      -8.161   3.852  74.481  1.00  0.00    -0.089 A  
HETATM   20  C   UNL     1      -7.975   5.096  73.868  1.00  0.00    -0.102 A  
ENDBRANCH   7  13
TORSDOF 1
ENDMDL
MODEL      203
REMARK 921   NORMALIZED FREE ENERGY PREDICTED BY IDOCK:   -2.60 KCAL/MOL
REMARK 922        TOTAL FREE ENERGY PREDICTED BY IDOCK:   -3.03 KCAL/MOL
REMARK 923 INTER-LIGAND FREE ENERGY PREDICTED BY IDOCK:   -2.75 KCAL/MOL
REMARK 924 INTRA-LIGAND FREE ENERGY PREDICTED BY IDOCK:   -0.28 KCAL/MOL
REMARK 927      BINDING AFFINITY PREDICTED BY RF-SCORE:    0.00 PKD
ROOT
HETATM    1  N   UNL     1     -11.975  11.280  70.432  1.00  0.00    -0.360 NA 
HETATM    2  H2  UNL     1     -12.159  11.276  71.435  1.00  0.00     0.000 HD 
HETATM    3  C   UNL     1     -11.300  10.126  70.085  1.00  0.00    -0.303 A  
HETATM    4  H1  UNL     1     -11.547  12.169  70.170  1.00  0.00     0.000 HD 
HETATM    5  N   UNL     1     -11.859   8.964  70.427  1.00  0.00    -0.061 NA 
HETATM    6  C   UNL     1     -11.239   7.847  69.997  1.00  0.00    -0.100 A  
HETATM    7  C   UNL     1     -10.039   7.865  69.264  1.00  0.00    -0.197 A  
HETATM    8  N   UNL     1     -11.918   6.682  70.370  1.00  0.00    -0.538 NA 
HETATM    9  N   UNL     1     -10.129  10.212  69.437  1.00  0.00    -0.218 NA 
HETATM   10  H1  UNL     1     -11.449   5.837  70.045  1.00  0.00     0.000 HD 
HETATM   11  N   UNL     1      -9.483   9.071  69.044  1.00  0.00    -0.154 NA 
HETATM   12  H2  UNL     1     -12.889   6.707  70.058  1.00  0.00     0.000 HD 
ENDROOT
BRANCH   7  13
HETATM   13  C   UNL     1      -9.333   6.682  68.692  1.00  0.00    -0.129 A  
HETATM   14  C   UNL     1      -8.584   5.749  69.467  1.00  0.00    -0.112 A  
HETATM   15  C   UNL     1      -7.908   4.674  68.846  1.00  0.00    -0.071 A  
HETATM   16 CL   UNL     1      -8.416   5.917  71.194  1.00  0.00    -0.123 Cl 
HETATM   17 CL   UNL     1      -7.004   3.489  69.734  1.00  0.00    -0.041 Cl 
HETATM   18  C   UNL     1      -7.932   4.519  67.461  1.00  0.00    -0.100 A  
HETATM   19  C   UNL     1      -8.664   5.404  66.684  1.00  0.00    -0.115 A  
HETATM   20  C   UNL     1      -9.370   6.446  67.296  1.00  0.00    -0.125 A  
ENDBRANCH   7  13
TORSDOF 1
ENDMDL
MODEL      204
REMARK 921   NORMALIZED FREE ENERGY PREDICTED BY IDOCK:   -2.60 KCAL/MOL
REMARK 922        TOTAL FREE ENERGY PREDICTED BY IDOCK:   -3.03 KCAL/MOL
REMARK 923 INTER-LIGAND FREE ENERGY PREDICTED BY IDOCK:   -2.74 KCAL/MOL
REMARK 924 INTRA-LIGAND FREE ENERGY PREDICTED BY IDOCK:   -0.29 KCAL/MOL
REMARK 927      BINDING AFFINITY PREDICTED BY RF-SCORE:    0.00 PKD
ROOT
HETATM    1  N   UNL     1     -12.145  10.418  69.942  1.00  0.00    -0.467 NA 
HETATM    2  H2  UNL     1     -12.024  10.651  70.928  1.00  0.00     0.000 HD 
HETATM    3  C   UNL     1     -11.285   9.391  69.604  1.00  0.00    -0.074 A  
HETATM    4  H1  UNL     1     -12.095  11.272  69.385  1.00  0.00     0.000 HD 
HETATM    5  N   UNL     1     -11.349   8.275  70.332  1.00  0.00    -0.224 NA 
HETATM    6  C   UNL     1     -10.574   7.248  69.931  1.00  0.00    -0.231 A  
HETATM    7  C   UNL     1      -9.697   7.327  68.835  1.00  0.00    -0.148 A  
HETATM    8  N   UNL     1     -10.738   6.111  70.730  1.00  0.00    -0.251 NA 
HETATM    9  N   UNL     1     -10.430   9.551  68.584  1.00  0.00    -0.206 NA 
HETATM   10  H1  UNL     1     -10.152   5.334  70.425  1.00  0.00     0.000 HD 
HETATM   11  N   UNL     1      -9.613   8.518  68.212  1.00  0.00    -0.142 NA 
HETATM   12  H2  UNL     1     -11.719   5.835  70.778  1.00  0.00     0.000 HD 
ENDROOT
BRANCH   7  13
HETATM   13  C   UNL     1      -8.865   6.217  68.285  1.00  0.00    -0.114 A  
HETATM   14  C   UNL     1      -9.304   5.320  67.269  1.00  0.00    -0.119 A  
HETATM   15  C   UNL     1      -8.471   4.266  66.828  1.00  0.00    -0.104 A  
HETATM   16 CL   UNL     1     -10.896   5.437  66.566  1.00  0.00    -0.311 Cl 
HETATM   17 CL   UNL     1      -8.934   3.158  65.576  1.00  0.00    -0.139 Cl 
HETATM   18  C   UNL     1      -7.215   4.061  67.397  1.00  0.00    -0.067 A  
HETATM   19  C   UNL     1      -6.758   4.928  68.378  1.00  0.00    -0.050 A  
HETATM   20  C   UNL     1      -7.560   5.998  68.790  1.00  0.00    -0.091 A  
ENDBRANCH   7  13
TORSDOF 1
ENDMDL
MODEL      205
REMARK 921   NORMALIZED FREE ENERGY PREDICTED BY IDOCK:   -2.59 KCAL/MOL
REMARK 922        TOTAL FREE ENERGY PREDICTED BY IDOCK:   -3.01 KCAL/MOL
REMARK 923 INTER-LIGAND FREE ENERGY PREDICTED BY IDOCK:   -2.73 KCAL/MOL
REMARK 924 INTRA-LIGAND FREE ENERGY PREDICTED BY IDOCK:   -0.29 KCAL/MOL
REMARK 927      BINDING AFFINITY PREDICTED BY RF-SCORE:    0.00 PKD
ROOT
HETATM    1  N   UNL     1      -7.850   2.702  68.106  1.00  0.00    -0.058 NA 
HETATM    2  H2  UNL     1      -7.754   1.900  67.484  1.00  0.00     0.000 HD 
HETATM    3  C   UNL     1      -8.002   3.851  67.354  1.00  0.00    -0.091 A  
HETATM    4  H1  UNL     1      -7.095   2.689  68.793  1.00  0.00     0.000 HD 
HETATM    5  N   UNL     1      -8.987   3.868  66.456  1.00  0.00    -0.126 NA 
HETATM    6  C   UNL     1      -9.184   5.028  65.799  1.00  0.00    -0.156 A  
HETATM    7  C   UNL     1      -8.383   6.168  65.990  1.00  0.00    -0.136 A  
HETATM    8  N   UNL     1     -10.262   4.963  64.910  1.00  0.00    -0.372 NA 
HETATM    9  N   UNL     1      -7.165   4.882  67.543  1.00  0.00    -0.069 NA 
HETATM   10  H1  UNL     1     -10.411   5.841  64.413  1.00  0.00     0.000 HD 
HETATM   11  N   UNL     1      -7.345   6.042  66.838  1.00  0.00    -0.075 NA 
HETATM   12  H2  UNL     1     -11.113   4.661  65.385  1.00  0.00     0.000 HD 
ENDROOT
BRANCH   7  13
HETATM   13  C   UNL     1      -8.580   7.505  65.359  1.00  0.00    -0.069 A  
HETATM   14  C   UNL     1      -9.351   8.554  65.939  1.00  0.00    -0.163 A  
HETATM   15  C   UNL     1      -9.525   9.782  65.260  1.00  0.00    -0.279 A  
HETATM   16 CL   UNL     1     -10.157   8.360  67.473  1.00  0.00    -0.258 Cl 
HETATM   17 CL   UNL     1     -10.426  11.108  65.924  1.00  0.00    -0.311 Cl 
HETATM   18  C   UNL     1      -8.975   9.984  63.995  1.00  0.00    -0.270 A  
HETATM   19  C   UNL     1      -8.209   8.985  63.414  1.00  0.00    -0.182 A  
HETATM   20  C   UNL     1      -7.998   7.783  64.098  1.00  0.00    -0.113 A  
ENDBRANCH   7  13
TORSDOF 1
ENDMDL
MODEL      206
REMARK 921   NORMALIZED FREE ENERGY PREDICTED BY IDOCK:   -2.55 KCAL/MOL
REMARK 922        TOTAL FREE ENERGY PREDICTED BY IDOCK:   -2.97 KCAL/MOL
REMARK 923 INTER-LIGAND FREE ENERGY PREDICTED BY IDOCK:   -2.67 KCAL/MOL
REMARK 924 INTRA-LIGAND FREE ENERGY PREDICTED BY IDOCK:   -0.30 KCAL/MOL
REMARK 927      BINDING AFFINITY PREDICTED BY RF-SCORE:    0.00 PKD
ROOT
HETATM    1  N   UNL     1      -6.923   9.746  71.216  1.00  0.00    -0.308 NA 
HETATM    2  H2  UNL     1      -6.586   8.826  71.500  1.00  0.00     0.000 HD 
HETATM    3  C   UNL     1      -7.147   9.751  69.852  1.00  0.00    -0.108 A  
HETATM    4  H1  UNL     1      -6.303  10.464  71.591  1.00  0.00     0.000 HD 
HETATM    5  N   UNL     1      -7.957   8.813  69.362  1.00  0.00    -0.098 NA 
HETATM    6  C   UNL     1      -8.243   8.889  68.047  1.00  0.00    -0.110 A  
HETATM    7  C   UNL     1      -7.698   9.866  67.196  1.00  0.00    -0.092 A  
HETATM    8  N   UNL     1      -9.129   7.889  67.633  1.00  0.00    -0.133 NA 
HETATM    9  N   UNL     1      -6.549  10.675  69.087  1.00  0.00    -0.055 NA 
HETATM   10  H1  UNL     1      -9.346   7.947  66.638  1.00  0.00     0.000 HD 
HETATM   11  N   UNL     1      -6.810  10.718  67.743  1.00  0.00    -0.072 NA 
HETATM   12  H2  UNL     1      -9.981   7.897  68.195  1.00  0.00     0.000 HD 
ENDROOT
BRANCH   7  13
HETATM   13  C   UNL     1      -8.019  10.063  65.752  1.00  0.00    -0.126 A  
HETATM   14  C   UNL     1      -9.163  10.769  65.279  1.00  0.00    -0.204 A  
HETATM   15  C   UNL     1      -9.421  10.878  63.894  1.00  0.00    -0.261 A  
HETATM   16 CL   UNL     1     -10.320  11.478  66.374  1.00  0.00    -0.266 Cl 
HETATM   17 CL   UNL     1     -10.779  11.748  63.253  1.00  0.00    -0.430 Cl 
HETATM   18  C   UNL     1      -8.583  10.271  62.960  1.00  0.00    -0.190 A  
HETATM   19  C   UNL     1      -7.456   9.589  63.392  1.00  0.00    -0.109 A  
HETATM   20  C   UNL     1      -7.171   9.513  64.760  1.00  0.00    -0.112 A  
ENDBRANCH   7  13
TORSDOF 1
ENDMDL
MODEL      207
REMARK 921   NORMALIZED FREE ENERGY PREDICTED BY IDOCK:   -2.51 KCAL/MOL
REMARK 922        TOTAL FREE ENERGY PREDICTED BY IDOCK:   -2.93 KCAL/MOL
REMARK 923 INTER-LIGAND FREE ENERGY PREDICTED BY IDOCK:   -2.63 KCAL/MOL
REMARK 924 INTRA-LIGAND FREE ENERGY PREDICTED BY IDOCK:   -0.30 KCAL/MOL
REMARK 927      BINDING AFFINITY PREDICTED BY RF-SCORE:    0.00 PKD
ROOT
HETATM    1  N   UNL     1     -10.224   8.904  71.783  1.00  0.00    -0.330 NA 
HETATM    2  H2  UNL     1      -9.652   8.639  72.585  1.00  0.00     0.000 HD 
HETATM    3  C   UNL     1      -9.980   8.033  70.738  1.00  0.00    -0.188 A  
HETATM    4  H1  UNL     1     -10.105   9.901  71.598  1.00  0.00     0.000 HD 
HETATM    5  N   UNL     1     -10.135   6.731  70.980  1.00  0.00    -0.190 NA 
HETATM    6  C   UNL     1      -9.989   5.901  69.928  1.00  0.00    -0.182 A  
HETATM    7  C   UNL     1      -9.646   6.344  68.638  1.00  0.00    -0.120 A  
HETATM    8  N   UNL     1     -10.207   4.562  70.269  1.00  0.00    -0.167 NA 
HETATM    9  N   UNL     1      -9.598   8.517  69.548  1.00  0.00    -0.169 NA 
HETATM   10  H1  UNL     1     -10.097   3.934  69.472  1.00  0.00     0.000 HD 
HETATM   11  N   UNL     1      -9.408   7.662  68.495  1.00  0.00    -0.147 NA 
HETATM   12  H2  UNL     1     -11.120   4.439  70.710  1.00  0.00     0.000 HD 
ENDROOT
BRANCH   7  13
HETATM   13  C   UNL     1      -9.538   5.502  67.411  1.00  0.00    -0.128 A  
HETATM   14  C   UNL     1      -8.347   4.833  67.006  1.00  0.00    -0.106 A  
HETATM   15  C   UNL     1      -8.312   4.085  65.807  1.00  0.00    -0.109 A  
HETATM   16 CL   UNL     1      -6.872   4.947  67.929  1.00  0.00    -0.058 Cl 
HETATM   17 CL   UNL     1      -6.904   3.224  65.273  1.00  0.00    -0.047 Cl 
HETATM   18  C   UNL     1      -9.430   4.011  64.977  1.00  0.00    -0.172 A  
HETATM   19  C   UNL     1     -10.606   4.642  65.355  1.00  0.00    -0.167 A  
HETATM   20  C   UNL     1     -10.660   5.349  66.561  1.00  0.00    -0.353 A  
ENDBRANCH   7  13
TORSDOF 1
ENDMDL
MODEL      208
REMARK 921   NORMALIZED FREE ENERGY PREDICTED BY IDOCK:   -2.46 KCAL/MOL
REMARK 922        TOTAL FREE ENERGY PREDICTED BY IDOCK:   -2.88 KCAL/MOL
REMARK 923 INTER-LIGAND FREE ENERGY PREDICTED BY IDOCK:   -2.58 KCAL/MOL
REMARK 924 INTRA-LIGAND FREE ENERGY PREDICTED BY IDOCK:   -0.30 KCAL/MOL
REMARK 927      BINDING AFFINITY PREDICTED BY RF-SCORE:    0.00 PKD
ROOT
HETATM    1  N   UNL     1      -5.663  10.322  71.479  1.00  0.00    -0.293 NA 
HETATM    2  H2  UNL     1      -6.041  11.041  72.096  1.00  0.00     0.000 HD 
HETATM    3  C   UNL     1      -6.438   9.182  71.574  1.00  0.00    -0.045 A  
HETATM    4  H1  UNL     1      -4.662  10.223  71.650  1.00  0.00     0.000 HD 
HETATM    5  N   UNL     1      -7.746   9.312  71.352  1.00  0.00    -0.336 NA 
HETATM    6  C   UNL     1      -8.473   8.177  71.352  1.00  0.00    -0.126 A  
HETATM    7  C   UNL     1      -7.924   6.910  71.615  1.00  0.00    -0.101 A  
HETATM    8  N   UNL     1      -9.824   8.408  71.071  1.00  0.00    -0.179 NA 
HETATM    9  N   UNL     1      -5.861   8.013  71.888  1.00  0.00    -0.036 NA 
HETATM   10  H1  UNL     1     -10.374   7.548  71.071  1.00  0.00     0.000 HD 
HETATM   11  N   UNL     1      -6.615   6.872  71.930  1.00  0.00    -0.053 NA 
HETATM   12  H2  UNL     1      -9.936   8.915  70.193  1.00  0.00     0.000 HD 
ENDROOT
BRANCH   7  13
HETATM   13  C   UNL     1      -8.643   5.604  71.562  1.00  0.00    -0.132 A  
HETATM   14  C   UNL     1      -9.501   5.124  72.594  1.00  0.00    -0.140 A  
HETATM   15  C   UNL     1     -10.116   3.855  72.489  1.00  0.00    -0.166 A  
HETATM   16 CL   UNL     1      -9.787   6.040  74.050  1.00  0.00    -0.188 Cl 
HETATM   17 CL   UNL     1     -11.192   3.226  73.695  1.00  0.00    -0.315 Cl 
HETATM   18  C   UNL     1      -9.874   3.032  71.390  1.00  0.00    -0.173 A  
HETATM   19  C   UNL     1      -9.054   3.480  70.366  1.00  0.00    -0.197 A  
HETATM   20  C   UNL     1      -8.475   4.751  70.443  1.00  0.00    -0.102 A  
ENDBRANCH   7  13
TORSDOF 1
ENDMDL
MODEL      209
REMARK 921   NORMALIZED FREE ENERGY PREDICTED BY IDOCK:   -2.45 KCAL/MOL
REMARK 922        TOTAL FREE ENERGY PREDICTED BY IDOCK:   -2.87 KCAL/MOL
REMARK 923 INTER-LIGAND FREE ENERGY PREDICTED BY IDOCK:   -3.18 KCAL/MOL
REMARK 924 INTRA-LIGAND FREE ENERGY PREDICTED BY IDOCK:    0.31 KCAL/MOL
REMARK 927      BINDING AFFINITY PREDICTED BY RF-SCORE:    0.00 PKD
ROOT
HETATM    1  N   UNL     1     -11.791  12.172  67.627  1.00  0.00    -0.535 NA 
HETATM    2  H2  UNL     1     -12.522  12.111  66.918  1.00  0.00     0.000 HD 
HETATM    3  C   UNL     1     -11.228  10.925  67.815  1.00  0.00    -0.317 A  
HETATM    4  H1  UNL     1     -12.159  12.649  68.452  1.00  0.00     0.000 HD 
HETATM    5  N   UNL     1     -10.748  10.302  66.738  1.00  0.00    -0.188 NA 
HETATM    6  C   UNL     1     -10.116   9.131  66.951  1.00  0.00    -0.258 A  
HETATM    7  C   UNL     1      -9.990   8.542  68.221  1.00  0.00    -0.184 A  
HETATM    8  N   UNL     1      -9.613   8.573  65.770  1.00  0.00    -0.453 NA 
HETATM    9  N   UNL     1     -11.193  10.392  69.045  1.00  0.00    -0.238 NA 
HETATM   10  H1  UNL     1      -9.134   7.687  65.931  1.00  0.00     0.000 HD 
HETATM   11  N   UNL     1     -10.589   9.180  69.245  1.00  0.00    -0.225 NA 
HETATM   12  H2  UNL     1      -9.008   9.234  65.280  1.00  0.00     0.000 HD 
ENDROOT
BRANCH   7  13
HETATM   13  C   UNL     1      -9.246   7.292  68.549  1.00  0.00    -0.138 A  
HETATM   14  C   UNL     1      -8.341   7.166  69.642  1.00  0.00    -0.133 A  
HETATM   15  C   UNL     1      -7.641   5.958  69.864  1.00  0.00    -0.080 A  
HETATM   16 CL   UNL     1      -8.011   8.498  70.718  1.00  0.00    -0.096 Cl 
HETATM   17 CL   UNL     1      -6.549   5.731  71.193  1.00  0.00    -0.044 Cl 
HETATM   18  C   UNL     1      -7.794   4.873  69.001  1.00  0.00    -0.076 A  
HETATM   19  C   UNL     1      -8.679   4.965  67.937  1.00  0.00    -0.106 A  
HETATM   20  C   UNL     1      -9.406   6.143  67.736  1.00  0.00    -0.109 A  
ENDBRANCH   7  13
TORSDOF 1
ENDMDL
MODEL      210
REMARK 921   NORMALIZED FREE ENERGY PREDICTED BY IDOCK:   -2.39 KCAL/MOL
REMARK 922        TOTAL FREE ENERGY PREDICTED BY IDOCK:   -2.81 KCAL/MOL
REMARK 923 INTER-LIGAND FREE ENERGY PREDICTED BY IDOCK:   -2.56 KCAL/MOL
REMARK 924 INTRA-LIGAND FREE ENERGY PREDICTED BY IDOCK:   -0.24 KCAL/MOL
REMARK 927      BINDING AFFINITY PREDICTED BY RF-SCORE:    0.00 PKD
ROOT
HETATM    1  N   UNL     1      -6.162  17.237  67.052  1.00  0.00    -0.151 NA 
HETATM    2  H2  UNL     1      -6.156  17.873  67.849  1.00  0.00     0.000 HD 
HETATM    3  C   UNL     1      -6.517  15.971  67.476  1.00  0.00    -0.177 A  
HETATM    4  H1  UNL     1      -5.284  17.330  66.539  1.00  0.00     0.000 HD 
HETATM    5  N   UNL     1      -7.664  15.850  68.146  1.00  0.00    -0.130 NA 
HETATM    6  C   UNL     1      -8.045  14.599  68.468  1.00  0.00    -0.146 A  
HETATM    7  C   UNL     1      -7.277  13.459  68.171  1.00  0.00    -0.113 A  
HETATM    8  N   UNL     1      -9.276  14.569  69.133  1.00  0.00    -0.388 NA 
HETATM    9  N   UNL     1      -5.711  14.934  67.211  1.00  0.00    -0.245 NA 
HETATM   10  H1  UNL     1      -9.564  13.620  69.376  1.00  0.00     0.000 HD 
HETATM   11  N   UNL     1      -6.084  13.670  67.583  1.00  0.00    -0.285 NA 
HETATM   12  H2  UNL     1      -9.997  15.044  68.590  1.00  0.00     0.000 HD 
ENDROOT
BRANCH   7  13
HETATM   13  C   UNL     1      -7.661  12.040  68.427  1.00  0.00    -0.138 A  
HETATM   14  C   UNL     1      -7.114  11.242  69.473  1.00  0.00    -0.058 A  
HETATM   15  C   UNL     1      -7.499   9.891  69.627  1.00  0.00    -0.122 A  
HETATM   16 CL   UNL     1      -5.911  11.867  70.570  1.00  0.00    -0.161 Cl 
HETATM   17 CL   UNL     1      -6.892   8.875  70.895  1.00  0.00    -0.067 Cl 
HETATM   18  C   UNL     1      -8.398   9.298  68.741  1.00  0.00    -0.117 A  
HETATM   19  C   UNL     1      -8.956  10.056  67.722  1.00  0.00    -0.133 A  
HETATM   20  C   UNL     1      -8.611  11.405  67.589  1.00  0.00    -0.130 A  
ENDBRANCH   7  13
TORSDOF 1
ENDMDL
MODEL      211
REMARK 921   NORMALIZED FREE ENERGY PREDICTED BY IDOCK:   -2.39 KCAL/MOL
REMARK 922        TOTAL FREE ENERGY PREDICTED BY IDOCK:   -2.80 KCAL/MOL
REMARK 923 INTER-LIGAND FREE ENERGY PREDICTED BY IDOCK:   -2.56 KCAL/MOL
REMARK 924 INTRA-LIGAND FREE ENERGY PREDICTED BY IDOCK:   -0.25 KCAL/MOL
REMARK 927      BINDING AFFINITY PREDICTED BY RF-SCORE:    0.00 PKD
ROOT
HETATM    1  N   UNL     1      -6.153  10.894  64.584  1.00  0.00    -0.357 NA 
HETATM    2  H2  UNL     1      -6.312  11.634  65.268  1.00  0.00     0.000 HD 
HETATM    3  C   UNL     1      -6.730   9.722  65.034  1.00  0.00    -0.107 A  
HETATM    4  H1  UNL     1      -5.163  10.866  64.341  1.00  0.00     0.000 HD 
HETATM    5  N   UNL     1      -8.024   9.759  65.352  1.00  0.00    -0.120 NA 
HETATM    6  C   UNL     1      -8.594   8.587  65.695  1.00  0.00    -0.177 A  
HETATM    7  C   UNL     1      -7.883   7.377  65.771  1.00  0.00    -0.108 A  
HETATM    8  N   UNL     1      -9.960   8.718  65.972  1.00  0.00    -0.456 NA 
HETATM    9  N   UNL     1      -5.981   8.614  65.140  1.00  0.00    -0.048 NA 
HETATM   10  H1  UNL     1     -10.391   7.831  66.232  1.00  0.00     0.000 HD 
HETATM   11  N   UNL     1      -6.559   7.438  65.534  1.00  0.00    -0.044 NA 
HETATM   12  H2  UNL     1     -10.453   9.152  65.192  1.00  0.00     0.000 HD 
ENDROOT
BRANCH   7  13
HETATM   13  C   UNL     1      -8.454   6.031  66.071  1.00  0.00    -0.139 A  
HETATM   14  C   UNL     1      -8.717   5.039  65.082  1.00  0.00    -0.150 A  
HETATM   15  C   UNL     1      -9.297   3.801  65.440  1.00  0.00    -0.159 A  
HETATM   16 CL   UNL     1      -8.394   5.320  63.392  1.00  0.00    -0.124 Cl 
HETATM   17 CL   UNL     1      -9.616   2.541  64.290  1.00  0.00    -0.141 Cl 
HETATM   18  C   UNL     1      -9.655   3.533  66.760  1.00  0.00    -0.140 A  
HETATM   19  C   UNL     1      -9.398   4.476  67.744  1.00  0.00    -0.180 A  
HETATM   20  C   UNL     1      -8.785   5.687  67.404  1.00  0.00    -0.107 A  
ENDBRANCH   7  13
TORSDOF 1
ENDMDL
MODEL      212
REMARK 921   NORMALIZED FREE ENERGY PREDICTED BY IDOCK:   -2.33 KCAL/MOL
REMARK 922        TOTAL FREE ENERGY PREDICTED BY IDOCK:   -2.74 KCAL/MOL
REMARK 923 INTER-LIGAND FREE ENERGY PREDICTED BY IDOCK:   -2.66 KCAL/MOL
REMARK 924 INTRA-LIGAND FREE ENERGY PREDICTED BY IDOCK:   -0.08 KCAL/MOL
REMARK 927      BINDING AFFINITY PREDICTED BY RF-SCORE:    0.00 PKD
ROOT
HETATM    1  N   UNL     1      -7.486   1.880  69.459  1.00  0.00    -0.043 NA 
HETATM    2  H2  UNL     1      -6.992   1.665  68.593  1.00  0.00     0.000 HD 
HETATM    3  C   UNL     1      -7.994   3.163  69.392  1.00  0.00    -0.048 A  
HETATM    4  H1  UNL     1      -6.887   1.655  70.255  1.00  0.00     0.000 HD 
HETATM    5  N   UNL     1      -8.775   3.457  68.352  1.00  0.00    -0.094 NA 
HETATM    6  C   UNL     1      -9.341   4.680  68.351  1.00  0.00    -0.137 A  
HETATM    7  C   UNL     1      -9.106   5.640  69.351  1.00  0.00    -0.117 A  
HETATM    8  N   UNL     1     -10.173   4.883  67.244  1.00  0.00    -0.167 NA 
HETATM    9  N   UNL     1      -7.683   4.049  70.348  1.00  0.00    -0.045 NA 
HETATM   10  H1  UNL     1     -10.602   5.809  67.244  1.00  0.00     0.000 HD 
HETATM   11  N   UNL     1      -8.227   5.305  70.315  1.00  0.00    -0.094 NA 
HETATM   12  H2  UNL     1     -10.881   4.151  67.178  1.00  0.00     0.000 HD 
ENDROOT
BRANCH   7  13
HETATM   13  C   UNL     1      -9.748   6.982  69.460  1.00  0.00    -0.160 A  
HETATM   14  C   UNL     1     -10.618   7.366  70.521  1.00  0.00    -0.224 A  
HETATM   15  C   UNL     1     -11.221   8.644  70.534  1.00  0.00    -0.241 A  
HETATM   16 CL   UNL     1     -11.025   6.270  71.816  1.00  0.00    -0.291 Cl 
HETATM   17 CL   UNL     1     -12.266   9.183  71.809  1.00  0.00    -0.418 Cl 
HETATM   18  C   UNL     1     -11.005   9.547  69.493  1.00  0.00    -0.217 A  
HETATM   19  C   UNL     1     -10.151   9.204  68.455  1.00  0.00    -0.220 A  
HETATM   20  C   UNL     1      -9.518   7.956  68.458  1.00  0.00    -0.148 A  
ENDBRANCH   7  13
TORSDOF 1
ENDMDL
MODEL      213
REMARK 921   NORMALIZED FREE ENERGY PREDICTED BY IDOCK:   -2.30 KCAL/MOL
REMARK 922        TOTAL FREE ENERGY PREDICTED BY IDOCK:   -2.71 KCAL/MOL
REMARK 923 INTER-LIGAND FREE ENERGY PREDICTED BY IDOCK:   -2.42 KCAL/MOL
REMARK 924 INTRA-LIGAND FREE ENERGY PREDICTED BY IDOCK:   -0.29 KCAL/MOL
REMARK 927      BINDING AFFINITY PREDICTED BY RF-SCORE:    0.00 PKD
ROOT
HETATM    1  N   UNL     1     -10.193   1.972  73.736  1.00  0.00    -0.094 NA 
HETATM    2  H2  UNL     1      -9.493   1.235  73.822  1.00  0.00     0.000 HD 
HETATM    3  C   UNL     1      -9.756   2.916  72.827  1.00  0.00    -0.122 A  
HETATM    4  H1  UNL     1     -10.452   2.303  74.666  1.00  0.00     0.000 HD 
HETATM    5  N   UNL     1      -9.418   2.484  71.612  1.00  0.00    -0.124 NA 
HETATM    6  C   UNL     1      -9.087   3.426  70.707  1.00  0.00    -0.113 A  
HETATM    7  C   UNL     1      -9.044   4.799  71.005  1.00  0.00    -0.132 A  
HETATM    8  N   UNL     1      -8.787   2.882  69.453  1.00  0.00    -0.083 NA 
HETATM    9  N   UNL     1      -9.681   4.203  73.193  1.00  0.00    -0.123 NA 
HETATM   10  H1  UNL     1      -8.537   3.596  68.769  1.00  0.00     0.000 HD 
HETATM   11  N   UNL     1      -9.300   5.149  72.280  1.00  0.00    -0.138 NA 
HETATM   12  H2  UNL     1      -9.552   2.299  69.113  1.00  0.00     0.000 HD 
ENDROOT
BRANCH   7  13
HETATM   13  C   UNL     1      -8.760   5.906  70.046  1.00  0.00    -0.133 A  
HETATM   14  C   UNL     1      -9.758   6.563  69.269  1.00  0.00    -0.144 A  
HETATM   15  C   UNL     1      -9.406   7.577  68.350  1.00  0.00    -0.141 A  
HETATM   16 CL   UNL     1     -11.441   6.116  69.370  1.00  0.00    -0.427 Cl 
HETATM   17 CL   UNL     1     -10.574   8.436  67.397  1.00  0.00    -0.348 Cl 
HETATM   18  C   UNL     1      -8.072   7.936  68.158  1.00  0.00    -0.123 A  
HETATM   19  C   UNL     1      -7.082   7.322  68.910  1.00  0.00    -0.084 A  
HETATM   20  C   UNL     1      -7.428   6.347  69.852  1.00  0.00    -0.088 A  
ENDBRANCH   7  13
TORSDOF 1
ENDMDL
MODEL      214
REMARK 921   NORMALIZED FREE ENERGY PREDICTED BY IDOCK:   -2.27 KCAL/MOL
REMARK 922        TOTAL FREE ENERGY PREDICTED BY IDOCK:   -2.68 KCAL/MOL
REMARK 923 INTER-LIGAND FREE ENERGY PREDICTED BY IDOCK:   -2.42 KCAL/MOL
REMARK 924 INTRA-LIGAND FREE ENERGY PREDICTED BY IDOCK:   -0.26 KCAL/MOL
REMARK 927      BINDING AFFINITY PREDICTED BY RF-SCORE:    0.00 PKD
ROOT
HETATM    1  N   UNL     1      -8.185  15.879  67.080  1.00  0.00    -0.198 NA 
HETATM    2  H2  UNL     1      -7.382  16.242  66.567  1.00  0.00     0.000 HD 
HETATM    3  C   UNL     1      -8.180  14.498  67.023  1.00  0.00    -0.135 A  
HETATM    4  H1  UNL     1      -9.031  16.356  66.767  1.00  0.00     0.000 HD 
HETATM    5  N   UNL     1      -7.075  13.874  67.432  1.00  0.00    -0.145 NA 
HETATM    6  C   UNL     1      -7.120  12.527  67.462  1.00  0.00    -0.151 A  
HETATM    7  C   UNL     1      -8.239  11.784  67.047  1.00  0.00    -0.172 A  
HETATM    8  N   UNL     1      -5.932  11.963  67.940  1.00  0.00    -0.048 NA 
HETATM    9  N   UNL     1      -9.259  13.850  66.561  1.00  0.00    -0.239 NA 
HETATM   10  H1  UNL     1      -5.966  10.944  67.963  1.00  0.00     0.000 HD 
HETATM   11  N   UNL     1      -9.279  12.481  66.552  1.00  0.00    -0.230 NA 
HETATM   12  H2  UNL     1      -5.688  12.343  68.855  1.00  0.00     0.000 HD 
ENDROOT
BRANCH   7  13
HETATM   13  C   UNL     1      -8.394  10.301  67.118  1.00  0.00    -0.122 A  
HETATM   14  C   UNL     1      -9.112   9.623  68.145  1.00  0.00    -0.122 A  
HETATM   15  C   UNL     1      -9.180   8.212  68.167  1.00  0.00    -0.133 A  
HETATM   16 CL   UNL     1      -9.887  10.488  69.447  1.00  0.00    -0.231 Cl 
HETATM   17 CL   UNL     1     -10.061   7.327  69.372  1.00  0.00    -0.178 Cl 
HETATM   18  C   UNL     1      -8.520   7.449  67.204  1.00  0.00    -0.118 A  
HETATM   19  C   UNL     1      -7.825   8.084  66.185  1.00  0.00    -0.093 A  
HETATM   20  C   UNL     1      -7.789   9.482  66.134  1.00  0.00    -0.100 A  
ENDBRANCH   7  13
TORSDOF 1
ENDMDL
MODEL      215
REMARK 921   NORMALIZED FREE ENERGY PREDICTED BY IDOCK:   -2.26 KCAL/MOL
REMARK 922        TOTAL FREE ENERGY PREDICTED BY IDOCK:   -2.67 KCAL/MOL
REMARK 923 INTER-LIGAND FREE ENERGY PREDICTED BY IDOCK:   -2.37 KCAL/MOL
REMARK 924 INTRA-LIGAND FREE ENERGY PREDICTED BY IDOCK:   -0.30 KCAL/MOL
REMARK 927      BINDING AFFINITY PREDICTED BY RF-SCORE:    0.00 PKD
ROOT
HETATM    1  N   UNL     1      -8.385  16.182  66.855  1.00  0.00    -0.210 NA 
HETATM    2  H2  UNL     1      -7.728  16.521  66.152  1.00  0.00     0.000 HD 
HETATM    3  C   UNL     1      -8.243  14.814  66.993  1.00  0.00    -0.179 A  
HETATM    4  H1  UNL     1      -9.318  16.537  66.645  1.00  0.00     0.000 HD 
HETATM    5  N   UNL     1      -7.024  14.350  67.266  1.00  0.00    -0.196 NA 
HETATM    6  C   UNL     1      -6.920  13.026  67.493  1.00  0.00    -0.151 A  
HETATM    7  C   UNL     1      -8.010  12.141  67.409  1.00  0.00    -0.168 A  
HETATM    8  N   UNL     1      -5.613  12.638  67.810  1.00  0.00    -0.109 NA 
HETATM    9  N   UNL     1      -9.313  14.020  66.841  1.00  0.00    -0.248 NA 
HETATM   10  H1  UNL     1      -5.535  11.636  67.982  1.00  0.00     0.000 HD 
HETATM   11  N   UNL     1      -9.189  12.669  67.029  1.00  0.00    -0.206 NA 
HETATM   12  H2  UNL     1      -5.252  13.176  68.599  1.00  0.00     0.000 HD 
ENDROOT
BRANCH   7  13
HETATM   13  C   UNL     1      -7.992  10.681  67.715  1.00  0.00    -0.110 A  
HETATM   14  C   UNL     1      -7.626   9.674  66.776  1.00  0.00    -0.098 A  
HETATM   15  C   UNL     1      -7.673   8.306  67.130  1.00  0.00    -0.097 A  
HETATM   16 CL   UNL     1      -7.160  10.068  65.143  1.00  0.00    -0.129 Cl 
HETATM   17 CL   UNL     1      -7.213   7.034  66.045  1.00  0.00    -0.073 Cl 
HETATM   18  C   UNL     1      -8.109   7.909  68.394  1.00  0.00    -0.123 A  
HETATM   19  C   UNL     1      -8.459   8.870  69.331  1.00  0.00    -0.124 A  
HETATM   20  C   UNL     1      -8.374  10.227  69.002  1.00  0.00    -0.148 A  
ENDBRANCH   7  13
TORSDOF 1
ENDMDL
MODEL      216
REMARK 921   NORMALIZED FREE ENERGY PREDICTED BY IDOCK:   -2.24 KCAL/MOL
REMARK 922        TOTAL FREE ENERGY PREDICTED BY IDOCK:   -2.65 KCAL/MOL
REMARK 923 INTER-LIGAND FREE ENERGY PREDICTED BY IDOCK:   -2.38 KCAL/MOL
REMARK 924 INTRA-LIGAND FREE ENERGY PREDICTED BY IDOCK:   -0.27 KCAL/MOL
REMARK 927      BINDING AFFINITY PREDICTED BY RF-SCORE:    0.00 PKD
ROOT
HETATM    1  N   UNL     1      -6.000  10.759  64.776  1.00  0.00    -0.368 NA 
HETATM    2  H2  UNL     1      -6.084  11.328  65.618  1.00  0.00     0.000 HD 
HETATM    3  C   UNL     1      -6.588   9.528  64.992  1.00  0.00    -0.088 A  
HETATM    4  H1  UNL     1      -5.030  10.765  64.459  1.00  0.00     0.000 HD 
HETATM    5  N   UNL     1      -7.855   9.519  65.406  1.00  0.00    -0.107 NA 
HETATM    6  C   UNL     1      -8.445   8.313  65.519  1.00  0.00    -0.161 A  
HETATM    7  C   UNL     1      -7.776   7.102  65.268  1.00  0.00    -0.114 A  
HETATM    8  N   UNL     1      -9.782   8.406  65.920  1.00  0.00    -0.465 NA 
HETATM    9  N   UNL     1      -5.876   8.410  64.791  1.00  0.00    -0.051 NA 
HETATM   10  H1  UNL     1     -10.228   7.492  66.005  1.00  0.00     0.000 HD 
HETATM   11  N   UNL     1      -6.470   7.187  64.953  1.00  0.00    -0.037 NA 
HETATM   12  H2  UNL     1     -10.311   9.016  65.296  1.00  0.00     0.000 HD 
ENDROOT
BRANCH   7  13
HETATM   13  C   UNL     1      -8.375   5.736  65.300  1.00  0.00    -0.146 A  
HETATM   14  C   UNL     1      -8.738   5.052  66.496  1.00  0.00    -0.109 A  
HETATM   15  C   UNL     1      -9.263   3.740  66.447  1.00  0.00    -0.171 A  
HETATM   16 CL   UNL     1      -8.501   5.767  68.069  1.00  0.00    -0.106 Cl 
HETATM   17 CL   UNL     1      -9.751   2.865  67.863  1.00  0.00    -0.082 Cl 
HETATM   18  C   UNL     1      -9.409   3.074  65.231  1.00  0.00    -0.122 A  
HETATM   19  C   UNL     1      -9.076   3.721  64.050  1.00  0.00    -0.124 A  
HETATM   20  C   UNL     1      -8.595   5.034  64.089  1.00  0.00    -0.125 A  
ENDBRANCH   7  13
TORSDOF 1
ENDMDL
MODEL      217
REMARK 921   NORMALIZED FREE ENERGY PREDICTED BY IDOCK:   -2.21 KCAL/MOL
REMARK 922        TOTAL FREE ENERGY PREDICTED BY IDOCK:   -2.61 KCAL/MOL
REMARK 923 INTER-LIGAND FREE ENERGY PREDICTED BY IDOCK:   -2.41 KCAL/MOL
REMARK 924 INTRA-LIGAND FREE ENERGY PREDICTED BY IDOCK:   -0.20 KCAL/MOL
REMARK 927      BINDING AFFINITY PREDICTED BY RF-SCORE:    0.00 PKD
ROOT
HETATM    1  N   UNL     1      -6.322  11.688  67.734  1.00  0.00    -0.061 NA 
HETATM    2  H2  UNL     1      -6.950  12.486  67.642  1.00  0.00     0.000 HD 
HETATM    3  C   UNL     1      -7.005  10.629  68.303  1.00  0.00    -0.072 A  
HETATM    4  H1  UNL     1      -5.460  11.988  68.190  1.00  0.00     0.000 HD 
HETATM    5  N   UNL     1      -8.131  10.238  67.707  1.00  0.00    -0.103 NA 
HETATM    6  C   UNL     1      -8.734   9.145  68.215  1.00  0.00    -0.129 A  
HETATM    7  C   UNL     1      -8.254   8.455  69.342  1.00  0.00    -0.116 A  
HETATM    8  N   UNL     1      -9.883   8.788  67.502  1.00  0.00    -0.168 NA 
HETATM    9  N   UNL     1      -6.525  10.052  69.413  1.00  0.00    -0.045 NA 
HETATM   10  H1  UNL     1     -10.339   7.960  67.887  1.00  0.00     0.000 HD 
HETATM   11  N   UNL     1      -7.168   8.970  69.950  1.00  0.00    -0.054 NA 
HETATM   12  H2  UNL     1      -9.677   8.666  66.510  1.00  0.00     0.000 HD 
ENDROOT
BRANCH   7  13
HETATM   13  C   UNL     1      -8.819   7.200  69.920  1.00  0.00    -0.142 A  
HETATM   14  C   UNL     1      -9.502   7.134  71.169  1.00  0.00    -0.157 A  
HETATM   15  C   UNL     1      -9.974   5.899  71.669  1.00  0.00    -0.175 A  
HETATM   16 CL   UNL     1      -9.739   8.549  72.160  1.00  0.00    -0.366 Cl 
HETATM   17 CL   UNL     1     -10.838   5.756  73.166  1.00  0.00    -0.291 Cl 
HETATM   18  C   UNL     1      -9.754   4.713  70.969  1.00  0.00    -0.258 A  
HETATM   19  C   UNL     1      -9.104   4.751  69.745  1.00  0.00    -0.159 A  
HETATM   20  C   UNL     1      -8.671   5.975  69.224  1.00  0.00    -0.117 A  
ENDBRANCH   7  13
TORSDOF 1
ENDMDL
MODEL      218
REMARK 921   NORMALIZED FREE ENERGY PREDICTED BY IDOCK:   -2.16 KCAL/MOL
REMARK 922        TOTAL FREE ENERGY PREDICTED BY IDOCK:   -2.57 KCAL/MOL
REMARK 923 INTER-LIGAND FREE ENERGY PREDICTED BY IDOCK:   -2.91 KCAL/MOL
REMARK 924 INTRA-LIGAND FREE ENERGY PREDICTED BY IDOCK:    0.35 KCAL/MOL
REMARK 927      BINDING AFFINITY PREDICTED BY RF-SCORE:    0.00 PKD
ROOT
HETATM    1  N   UNL     1     -12.120  11.513  63.303  1.00  0.00    -0.884 NA 
HETATM    2  H2  UNL     1     -12.581  10.690  63.693  1.00  0.00     0.000 HD 
HETATM    3  C   UNL     1     -11.387  12.140  64.291  1.00  0.00    -0.360 A  
HETATM    4  H1  UNL     1     -12.805  12.077  62.799  1.00  0.00     0.000 HD 
HETATM    5  N   UNL     1     -10.492  11.403  64.950  1.00  0.00    -0.290 NA 
HETATM    6  C   UNL     1      -9.718  12.051  65.843  1.00  0.00    -0.239 A  
HETATM    7  C   UNL     1      -9.849  13.422  66.126  1.00  0.00    -0.281 A  
HETATM    8  N   UNL     1      -8.785  11.206  66.454  1.00  0.00    -0.173 NA 
HETATM    9  N   UNL     1     -11.602  13.437  64.553  1.00  0.00    -0.355 NA 
HETATM   10  H1  UNL     1      -8.198  11.697  67.130  1.00  0.00     0.000 HD 
HETATM   11  N   UNL     1     -10.841  14.077  65.494  1.00  0.00    -0.299 NA 
HETATM   12  H2  UNL     1      -8.217  10.722  65.759  1.00  0.00     0.000 HD 
ENDROOT
BRANCH   7  13
HETATM   13  C   UNL     1      -8.987  14.224  67.042  1.00  0.00    -0.251 A  
HETATM   14  C   UNL     1      -9.485  15.191  67.962  1.00  0.00    -0.199 A  
HETATM   15  C   UNL     1      -8.600  15.942  68.769  1.00  0.00    -0.212 A  
HETATM   16 CL   UNL     1     -11.189  15.535  68.098  1.00  0.00    -0.330 Cl 
HETATM   17 CL   UNL     1      -9.144  17.112  69.929  1.00  0.00     1.073 Cl 
HETATM   18  C   UNL     1      -7.220  15.778  68.662  1.00  0.00    -0.135 A  
HETATM   19  C   UNL     1      -6.709  14.834  67.783  1.00  0.00    -0.193 A  
HETATM   20  C   UNL     1      -7.580  14.058  67.011  1.00  0.00     0.212 A  
ENDBRANCH   7  13
TORSDOF 1
ENDMDL
MODEL      219
REMARK 921   NORMALIZED FREE ENERGY PREDICTED BY IDOCK:   -1.97 KCAL/MOL
REMARK 922        TOTAL FREE ENERGY PREDICTED BY IDOCK:   -2.36 KCAL/MOL
REMARK 923 INTER-LIGAND FREE ENERGY PREDICTED BY IDOCK:   -2.10 KCAL/MOL
REMARK 924 INTRA-LIGAND FREE ENERGY PREDICTED BY IDOCK:   -0.25 KCAL/MOL
REMARK 927      BINDING AFFINITY PREDICTED BY RF-SCORE:    0.00 PKD
ROOT
HETATM    1  N   UNL     1      -7.363  11.024  70.096  1.00  0.00    -0.404 NA 
HETATM    2  H2  UNL     1      -7.075  10.348  70.803  1.00  0.00     0.000 HD 
HETATM    3  C   UNL     1      -7.485  10.389  68.875  1.00  0.00    -0.099 A  
HETATM    4  H1  UNL     1      -6.752  11.840  70.140  1.00  0.00     0.000 HD 
HETATM    5  N   UNL     1      -8.283   9.323  68.817  1.00  0.00    -0.111 NA 
HETATM    6  C   UNL     1      -8.468   8.773  67.601  1.00  0.00    -0.125 A  
HETATM    7  C   UNL     1      -7.832   9.243  66.438  1.00  0.00    -0.103 A  
HETATM    8  N   UNL     1      -9.349   7.687  67.633  1.00  0.00    -0.141 NA 
HETATM    9  N   UNL     1      -6.804  10.853  67.817  1.00  0.00    -0.071 NA 
HETATM   10  H1  UNL     1      -9.489   7.272  66.712  1.00  0.00     0.000 HD 
HETATM   11  N   UNL     1      -6.963  10.260  66.593  1.00  0.00    -0.098 NA 
HETATM   12  H2  UNL     1     -10.240   7.949  68.057  1.00  0.00     0.000 HD 
ENDROOT
BRANCH   7  13
HETATM   13  C   UNL     1      -8.039   8.739  65.049  1.00  0.00    -0.144 A  
HETATM   14  C   UNL     1      -7.579   7.473  64.584  1.00  0.00    -0.111 A  
HETATM   15  C   UNL     1      -7.779   7.082  63.241  1.00  0.00    -0.118 A  
HETATM   16 CL   UNL     1      -6.705   6.377  65.621  1.00  0.00    -0.047 Cl 
HETATM   17 CL   UNL     1      -7.269   5.544  62.619  1.00  0.00    -0.044 Cl 
HETATM   18  C   UNL     1      -8.401   7.937  62.332  1.00  0.00    -0.100 A  
HETATM   19  C   UNL     1      -8.870   9.169  62.762  1.00  0.00    -0.151 A  
HETATM   20  C   UNL     1      -8.714   9.545  64.100  1.00  0.00    -0.239 A  
ENDBRANCH   7  13
TORSDOF 1
ENDMDL
MODEL      220
REMARK 921   NORMALIZED FREE ENERGY PREDICTED BY IDOCK:   -1.93 KCAL/MOL
REMARK 922        TOTAL FREE ENERGY PREDICTED BY IDOCK:   -2.32 KCAL/MOL
REMARK 923 INTER-LIGAND FREE ENERGY PREDICTED BY IDOCK:   -2.11 KCAL/MOL
REMARK 924 INTRA-LIGAND FREE ENERGY PREDICTED BY IDOCK:   -0.21 KCAL/MOL
REMARK 927      BINDING AFFINITY PREDICTED BY RF-SCORE:    0.00 PKD
ROOT
HETATM    1  N   UNL     1      -6.424  16.440  67.772  1.00  0.00    -0.127 NA 
HETATM    2  H2  UNL     1      -6.807  16.728  68.672  1.00  0.00     0.000 HD 
HETATM    3  C   UNL     1      -6.592  15.078  67.615  1.00  0.00    -0.169 A  
HETATM    4  H1  UNL     1      -5.478  16.809  67.673  1.00  0.00     0.000 HD 
HETATM    5  N   UNL     1      -7.829  14.595  67.744  1.00  0.00    -0.139 NA 
HETATM    6  C   UNL     1      -7.992  13.281  67.494  1.00  0.00    -0.184 A  
HETATM    7  C   UNL     1      -6.931  12.423  67.157  1.00  0.00    -0.077 A  
HETATM    8  N   UNL     1      -9.326  12.876  67.616  1.00  0.00    -0.187 NA 
HETATM    9  N   UNL     1      -5.528  14.305  67.353  1.00  0.00    -0.304 NA 
HETATM   10  H1  UNL     1      -9.450  11.881  67.426  1.00  0.00     0.000 HD 
HETATM   11  N   UNL     1      -5.697  12.963  67.145  1.00  0.00    -0.332 NA 
HETATM   12  H2  UNL     1      -9.937  13.441  67.026  1.00  0.00     0.000 HD 
ENDROOT
BRANCH   7  13
HETATM   13  C   UNL     1      -7.039  10.980  66.795  1.00  0.00    -0.135 A  
HETATM   14  C   UNL     1      -6.603   9.913  67.632  1.00  0.00    -0.068 A  
HETATM   15  C   UNL     1      -6.702   8.570  67.201  1.00  0.00    -0.063 A  
HETATM   16 CL   UNL     1      -5.879  10.207  69.191  1.00  0.00    -0.038 Cl 
HETATM   17 CL   UNL     1      -6.216   7.225  68.184  1.00  0.00    -0.034 Cl 
HETATM   18  C   UNL     1      -7.199   8.260  65.936  1.00  0.00    -0.072 A  
HETATM   19  C   UNL     1      -7.643   9.278  65.106  1.00  0.00    -0.106 A  
HETATM   20  C   UNL     1      -7.587  10.606  65.543  1.00  0.00    -0.072 A  
ENDBRANCH   7  13
TORSDOF 1
ENDMDL
MODEL      221
REMARK 921   NORMALIZED FREE ENERGY PREDICTED BY IDOCK:   -1.88 KCAL/MOL
REMARK 922        TOTAL FREE ENERGY PREDICTED BY IDOCK:   -2.27 KCAL/MOL
REMARK 923 INTER-LIGAND FREE ENERGY PREDICTED BY IDOCK:   -1.97 KCAL/MOL
REMARK 924 INTRA-LIGAND FREE ENERGY PREDICTED BY IDOCK:   -0.30 KCAL/MOL
REMARK 927      BINDING AFFINITY PREDICTED BY RF-SCORE:    0.00 PKD
ROOT
HETATM    1  N   UNL     1      -9.921   2.103  72.192  1.00  0.00    -0.152 NA 
HETATM    2  H2  UNL     1      -9.459   1.286  71.792  1.00  0.00     0.000 HD 
HETATM    3  C   UNL     1      -9.550   3.231  71.486  1.00  0.00    -0.164 A  
HETATM    4  H1  UNL     1      -9.774   2.114  73.202  1.00  0.00     0.000 HD 
HETATM    5  N   UNL     1      -9.741   3.217  70.166  1.00  0.00    -0.109 NA 
HETATM    6  C   UNL     1      -9.465   4.359  69.505  1.00  0.00    -0.181 A  
HETATM    7  C   UNL     1      -8.957   5.509  70.133  1.00  0.00    -0.136 A  
HETATM    8  N   UNL     1      -9.733   4.261  68.135  1.00  0.00    -0.136 NA 
HETATM    9  N   UNL     1      -9.015   4.274  72.138  1.00  0.00    -0.114 NA 
HETATM   10  H1  UNL     1      -9.524   5.126  67.635  1.00  0.00     0.000 HD 
HETATM   11  N   UNL     1      -8.695   5.414  71.451  1.00  0.00    -0.130 NA 
HETATM   12  H2  UNL     1     -10.695   3.964  67.970  1.00  0.00     0.000 HD 
ENDROOT
BRANCH   7  13
HETATM   13  C   UNL     1      -8.696   6.829  69.487  1.00  0.00    -0.133 A  
HETATM   14  C   UNL     1      -7.516   7.137  68.751  1.00  0.00    -0.102 A  
HETATM   15  C   UNL     1      -7.323   8.425  68.202  1.00  0.00    -0.096 A  
HETATM   16 CL   UNL     1      -6.237   5.970  68.539  1.00  0.00    -0.030 Cl 
HETATM   17 CL   UNL     1      -5.924   8.854  67.271  1.00  0.00    -0.049 Cl 
HETATM   18  C   UNL     1      -8.266   9.433  68.395  1.00  0.00    -0.117 A  
HETATM   19  C   UNL     1      -9.430   9.157  69.097  1.00  0.00    -0.156 A  
HETATM   20  C   UNL     1      -9.647   7.872  69.607  1.00  0.00    -0.164 A  
ENDBRANCH   7  13
TORSDOF 1
ENDMDL
MODEL      222
REMARK 921   NORMALIZED FREE ENERGY PREDICTED BY IDOCK:    3.14 KCAL/MOL
REMARK 922        TOTAL FREE ENERGY PREDICTED BY IDOCK:    3.05 KCAL/MOL
REMARK 923 INTER-LIGAND FREE ENERGY PREDICTED BY IDOCK:    3.34 KCAL/MOL
REMARK 924 INTRA-LIGAND FREE ENERGY PREDICTED BY IDOCK:   -0.29 KCAL/MOL
REMARK 927      BINDING AFFINITY PREDICTED BY RF-SCORE:    0.00 PKD
ROOT
HETATM    1  N   UNL     1     -12.084   9.664  65.781  1.00  0.00     5.591 NA 
HETATM    2  H2  UNL     1     -13.076   9.861  65.915  1.00  0.00     0.000 HD 
HETATM    3  C   UNL     1     -11.334  10.612  66.449  1.00  0.00     0.471 A  
HETATM    4  H1  UNL     1     -11.896   9.535  64.786  1.00  0.00     0.000 HD 
HETATM    5  N   UNL     1     -11.579  10.781  67.749  1.00  0.00    -0.528 NA 
HETATM    6  C   UNL     1     -10.775  11.639  68.408  1.00  0.00    -0.217 A  
HETATM    7  C   UNL     1      -9.750  12.370  67.782  1.00  0.00    -0.201 A  
HETATM    8  N   UNL     1     -11.082  11.720  69.770  1.00  0.00    -0.475 NA 
HETATM    9  N   UNL     1     -10.412  11.319  65.780  1.00  0.00    -0.252 NA 
HETATM   10  H1  UNL     1     -10.473  12.369  70.269  1.00  0.00     0.000 HD 
HETATM   11  N   UNL     1      -9.629  12.222  66.449  1.00  0.00    -0.233 NA 
HETATM   12  H2  UNL     1     -11.070  10.797  70.205  1.00  0.00     0.000 HD 
ENDROOT
BRANCH   7  13
HETATM   13  C   UNL     1      -8.774  13.279  68.451  1.00  0.00    -0.126 A  
HETATM   14  C   UNL     1      -7.543  12.844  69.023  1.00  0.00     0.150 A  
HETATM   15  C   UNL     1      -6.688  13.760  69.677  1.00  0.00    -0.015 A  
HETATM   16 CL   UNL     1      -7.061  11.168  68.998  1.00  0.00    -0.104 Cl 
HETATM   17 CL   UNL     1      -5.165  13.301  70.369  1.00  0.00    -0.105 Cl 
HETATM   18  C   UNL     1      -7.043  15.103  69.806  1.00  0.00    -0.169 A  
HETATM   19  C   UNL     1      -8.229  15.555  69.246  1.00  0.00    -0.255 A  
HETATM   20  C   UNL     1      -9.060  14.662  68.561  1.00  0.00    -0.188 A  
ENDBRANCH   7  13
TORSDOF 1
ENDMDL
