MODEL        1
REMARK 921   NORMALIZED FREE ENERGY PREDICTED BY IDOCK:   -7.61 KCAL/MOL
REMARK 922        TOTAL FREE ENERGY PREDICTED BY IDOCK:  -10.60 KCAL/MOL
REMARK 923 INTER-LIGAND FREE ENERGY PREDICTED BY IDOCK:   -9.84 KCAL/MOL
REMARK 924 INTRA-LIGAND FREE ENERGY PREDICTED BY IDOCK:   -0.77 KCAL/MOL
REMARK 927      BINDING AFFINITY PREDICTED BY RF-SCORE:    0.00 PKD
ROOT
HETATM    1  C   UNL     1      -8.222  14.744  67.150  1.00  0.00    -0.239 C  
HETATM    2  C   UNL     1      -9.570  14.732  66.492  1.00  0.00    -0.304 A  
HETATM    3  C   UNL     1     -10.044  15.823  65.740  1.00  0.00    -0.371 A  
HETATM    4  C   UNL     1     -11.209  15.692  64.987  1.00  0.00    -0.335 A  
HETATM    5  N   UNL     1     -11.557  13.485  65.865  1.00  0.00    -0.325 NA 
HETATM    6  C   UNL     1     -11.912  14.507  65.062  1.00  0.00    -0.399 A  
HETATM    7  C   UNL     1     -10.408  13.600  66.588  1.00  0.00    -0.275 A  
ENDROOT
BRANCH   3   8
HETATM    8  O   UNL     1      -9.435  17.047  65.594  1.00  0.00    -0.526 OA 
BRANCH   8   9
HETATM    9  C   UNL     1      -9.515  17.943  66.713  1.00  0.00    -0.287 C  
HETATM   10  C   UNL     1     -10.261  19.236  66.399  1.00  0.00    -0.449 C  
HETATM   11  F   UNL     1      -9.414  20.297  66.384  1.00  0.00    -0.441 F  
HETATM   12  F   UNL     1     -11.190  19.493  67.355  1.00  0.00    -0.578 F  
HETATM   13  F   UNL     1     -10.906  19.217  65.211  1.00  0.00    -0.511 F  
ENDBRANCH   8   9
ENDBRANCH   3   8
BRANCH   7  14
HETATM   14  C   UNL     1     -10.137  12.437  67.525  1.00  0.00    -0.202 C  
BRANCH  14  15
HETATM   15  S   UNL     1     -11.638  11.842  68.327  1.00  0.00    -0.330 S  
HETATM   16  O   UNL     1     -11.481  10.461  68.896  1.00  0.00    -0.244 OA 
BRANCH  15  17
HETATM   17  C   UNL     1     -11.721  12.910  69.695  1.00  0.00    -0.299 A  
HETATM   18  N   UNL     1     -11.142  14.088  69.790  1.00  0.00    -0.452 NA 
HETATM   19  C   UNL     1     -11.677  14.662  70.923  1.00  0.00    -0.280 A  
HETATM   20  H   UNL     1     -10.447  14.489  69.161  1.00  0.00     0.000 HD 
HETATM   21  C   UNL     1     -11.470  15.939  71.468  1.00  0.00    -0.484 A  
HETATM   22  C   UNL     1     -12.223  16.327  72.583  1.00  0.00    -0.581 A  
HETATM   23  C   UNL     1     -13.152  15.455  73.156  1.00  0.00    -0.643 A  
HETATM   24  C   UNL     1     -13.343  14.162  72.653  1.00  0.00    -0.638 A  
HETATM   25  C   UNL     1     -12.582  13.802  71.538  1.00  0.00    -0.318 A  
HETATM   26  N   UNL     1     -12.517  12.658  70.784  1.00  0.00    -0.324 NA 
ENDBRANCH  15  17
ENDBRANCH  14  15
ENDBRANCH   7  14
TORSDOF 5
ENDMDL
MODEL        2
REMARK 921   NORMALIZED FREE ENERGY PREDICTED BY IDOCK:   -7.55 KCAL/MOL
REMARK 922        TOTAL FREE ENERGY PREDICTED BY IDOCK:  -10.53 KCAL/MOL
REMARK 923 INTER-LIGAND FREE ENERGY PREDICTED BY IDOCK:   -9.51 KCAL/MOL
REMARK 924 INTRA-LIGAND FREE ENERGY PREDICTED BY IDOCK:   -1.02 KCAL/MOL
REMARK 927      BINDING AFFINITY PREDICTED BY RF-SCORE:    0.00 PKD
ROOT
HETATM    1  C   UNL     1     -12.230  15.506  68.844  1.00  0.00    -0.097 C  
HETATM    2  C   UNL     1     -12.045  14.019  68.922  1.00  0.00    -0.351 A  
HETATM    3  C   UNL     1     -11.908  13.347  70.150  1.00  0.00    -0.272 A  
HETATM    4  C   UNL     1     -11.937  11.954  70.185  1.00  0.00    -0.413 A  
HETATM    5  N   UNL     1     -12.035  11.872  67.787  1.00  0.00    -0.573 NA 
HETATM    6  C   UNL     1     -12.025  11.267  68.991  1.00  0.00    -0.325 A  
HETATM    7  C   UNL     1     -12.027  13.234  67.748  1.00  0.00    -0.314 A  
ENDROOT
BRANCH   3   8
HETATM    8  O   UNL     1     -11.809  13.921  71.395  1.00  0.00    -0.116 OA 
BRANCH   8   9
HETATM    9  C   UNL     1     -13.032  14.075  72.131  1.00  0.00    -0.369 C  
HETATM   10  C   UNL     1     -13.074  15.346  72.974  1.00  0.00    -0.514 C  
HETATM   11  F   UNL     1     -13.021  15.054  74.299  1.00  0.00    -0.468 F  
HETATM   12  F   UNL     1     -14.237  16.015  72.770  1.00  0.00    -0.651 F  
HETATM   13  F   UNL     1     -12.066  16.207  72.710  1.00  0.00    -0.475 F  
ENDBRANCH   8   9
ENDBRANCH   3   8
BRANCH   7  14
HETATM   14  C   UNL     1     -11.953  13.822  66.351  1.00  0.00    -0.438 C  
BRANCH  14  15
HETATM   15  S   UNL     1     -10.256  13.960  65.758  1.00  0.00    -0.322 S  
HETATM   16  O   UNL     1     -10.141  13.735  64.277  1.00  0.00    -0.271 OA 
BRANCH  15  17
HETATM   17  C   UNL     1      -9.964  15.655  66.001  1.00  0.00    -0.333 A  
HETATM   18  N   UNL     1     -10.609  16.641  65.413  1.00  0.00    -0.580 NA 
HETATM   19  C   UNL     1     -10.216  17.779  66.082  1.00  0.00    -0.339 A  
HETATM   20  H   UNL     1     -11.260  16.576  64.631  1.00  0.00     0.000 HD 
HETATM   21  C   UNL     1     -10.638  19.108  65.922  1.00  0.00    -0.495 A  
HETATM   22  C   UNL     1     -10.158  20.081  66.809  1.00  0.00    -0.607 A  
HETATM   23  C   UNL     1      -9.263  19.739  67.827  1.00  0.00    -0.427 A  
HETATM   24  C   UNL     1      -8.798  18.428  67.978  1.00  0.00    -0.302 A  
HETATM   25  C   UNL     1      -9.295  17.478  67.081  1.00  0.00    -0.250 A  
HETATM   26  N   UNL     1      -9.084  16.129  66.941  1.00  0.00    -0.207 NA 
ENDBRANCH  15  17
ENDBRANCH  14  15
ENDBRANCH   7  14
TORSDOF 5
ENDMDL
MODEL        3
REMARK 921   NORMALIZED FREE ENERGY PREDICTED BY IDOCK:   -7.51 KCAL/MOL
REMARK 922        TOTAL FREE ENERGY PREDICTED BY IDOCK:  -10.47 KCAL/MOL
REMARK 923 INTER-LIGAND FREE ENERGY PREDICTED BY IDOCK:   -9.61 KCAL/MOL
REMARK 924 INTRA-LIGAND FREE ENERGY PREDICTED BY IDOCK:   -0.87 KCAL/MOL
REMARK 927      BINDING AFFINITY PREDICTED BY RF-SCORE:    0.00 PKD
ROOT
HETATM    1  C   UNL     1     -12.032  13.025  69.179  1.00  0.00    -0.320 C  
HETATM    2  C   UNL     1     -11.331  12.284  68.080  1.00  0.00    -0.348 A  
HETATM    3  C   UNL     1     -10.449  11.219  68.341  1.00  0.00    -0.197 A  
HETATM    4  C   UNL     1      -9.977  10.435  67.290  1.00  0.00    -0.229 A  
HETATM    5  N   UNL     1     -11.076  11.861  65.702  1.00  0.00    -0.313 NA 
HETATM    6  C   UNL     1     -10.334  10.777  66.002  1.00  0.00    -0.238 A  
HETATM    7  C   UNL     1     -11.557  12.620  66.727  1.00  0.00    -0.374 A  
ENDROOT
BRANCH   3   8
HETATM    8  O   UNL     1     -10.023  10.789  69.576  1.00  0.00    -0.174 OA 
BRANCH   8   9
HETATM    9  C   UNL     1     -10.380   9.450  69.950  1.00  0.00    -0.227 C  
HETATM   10  C   UNL     1     -11.323   9.389  71.148  1.00  0.00    -0.351 C  
HETATM   11  F   UNL     1     -10.694   8.879  72.238  1.00  0.00    -0.398 F  
HETATM   12  F   UNL     1     -12.373   8.570  70.887  1.00  0.00    -0.283 F  
HETATM   13  F   UNL     1     -11.832  10.590  71.501  1.00  0.00    -0.407 F  
ENDBRANCH   8   9
ENDBRANCH   3   8
BRANCH   7  14
HETATM   14  C   UNL     1     -12.308  13.863  66.289  1.00  0.00    -0.449 C  
BRANCH  14  15
HETATM   15  S   UNL     1     -11.552  14.646  64.852  1.00  0.00    -0.415 S  
HETATM   16  O   UNL     1     -12.566  15.107  63.844  1.00  0.00    -0.794 OA 
BRANCH  15  17
HETATM   17  C   UNL     1     -10.910  16.093  65.569  1.00  0.00    -0.270 A  
HETATM   18  N   UNL     1     -10.866  17.281  65.003  1.00  0.00    -0.713 NA 
HETATM   19  C   UNL     1     -10.512  18.148  66.012  1.00  0.00    -0.335 A  
HETATM   20  H   UNL     1     -11.053  17.509  64.027  1.00  0.00     0.000 HD 
HETATM   21  C   UNL     1     -10.381  19.545  65.993  1.00  0.00    -0.604 A  
HETATM   22  C   UNL     1     -10.110  20.215  67.193  1.00  0.00    -0.590 A  
HETATM   23  C   UNL     1      -9.956  19.506  68.387  1.00  0.00    -0.540 A  
HETATM   24  C   UNL     1     -10.041  18.110  68.421  1.00  0.00    -0.401 A  
HETATM   25  C   UNL     1     -10.316  17.467  67.211  1.00  0.00    -0.337 A  
HETATM   26  N   UNL     1     -10.485  16.148  66.873  1.00  0.00    -0.302 NA 
ENDBRANCH  15  17
ENDBRANCH  14  15
ENDBRANCH   7  14
TORSDOF 5
ENDMDL
MODEL        4
REMARK 921   NORMALIZED FREE ENERGY PREDICTED BY IDOCK:   -7.44 KCAL/MOL
REMARK 922        TOTAL FREE ENERGY PREDICTED BY IDOCK:  -10.38 KCAL/MOL
REMARK 923 INTER-LIGAND FREE ENERGY PREDICTED BY IDOCK:   -9.53 KCAL/MOL
REMARK 924 INTRA-LIGAND FREE ENERGY PREDICTED BY IDOCK:   -0.85 KCAL/MOL
REMARK 927      BINDING AFFINITY PREDICTED BY RF-SCORE:    0.00 PKD
ROOT
HETATM    1  C   UNL     1     -10.064  15.180  65.090  1.00  0.00    -0.331 C  
HETATM    2  C   UNL     1      -9.274  15.299  66.359  1.00  0.00    -0.342 A  
HETATM    3  C   UNL     1      -8.618  16.490  66.722  1.00  0.00    -0.230 A  
HETATM    4  C   UNL     1      -8.066  16.618  67.995  1.00  0.00    -0.181 A  
HETATM    5  N   UNL     1      -8.622  14.336  68.491  1.00  0.00    -0.177 NA 
HETATM    6  C   UNL     1      -8.112  15.532  68.845  1.00  0.00    -0.194 A  
HETATM    7  C   UNL     1      -9.182  14.211  67.255  1.00  0.00    -0.219 A  
ENDROOT
BRANCH   3   8
HETATM    8  O   UNL     1      -8.505  17.630  65.962  1.00  0.00    -0.499 OA 
BRANCH   8   9
HETATM    9  C   UNL     1      -8.962  18.852  66.562  1.00  0.00    -0.323 C  
HETATM   10  C   UNL     1     -10.367  19.253  66.121  1.00  0.00    -0.494 C  
HETATM   11  F   UNL     1     -10.333  20.361  65.337  1.00  0.00    -0.497 F  
HETATM   12  F   UNL     1     -11.134  19.563  67.198  1.00  0.00    -0.577 F  
HETATM   13  F   UNL     1     -11.017  18.289  65.432  1.00  0.00    -0.428 F  
ENDBRANCH   8   9
ENDBRANCH   3   8
BRANCH   7  14
HETATM   14  C   UNL     1      -9.650  12.808  66.916  1.00  0.00    -0.235 C  
BRANCH  14  15
HETATM   15  S   UNL     1     -11.447  12.662  66.955  1.00  0.00    -0.363 S  
HETATM   16  O   UNL     1     -11.910  11.233  66.976  1.00  0.00    -0.484 OA 
BRANCH  15  17
HETATM   17  C   UNL     1     -11.791  13.293  68.536  1.00  0.00    -0.349 A  
HETATM   18  N   UNL     1     -12.083  14.545  68.821  1.00  0.00    -0.533 NA 
HETATM   19  C   UNL     1     -12.511  14.526  70.130  1.00  0.00    -0.321 A  
HETATM   20  H   UNL     1     -12.008  15.354  68.205  1.00  0.00     0.000 HD 
HETATM   21  C   UNL     1     -13.008  15.567  70.929  1.00  0.00    -0.526 A  
HETATM   22  C   UNL     1     -13.483  15.267  72.212  1.00  0.00    -0.552 A  
HETATM   23  C   UNL     1     -13.449  13.957  72.697  1.00  0.00    -0.652 A  
HETATM   24  C   UNL     1     -12.919  12.911  71.933  1.00  0.00    -0.405 A  
HETATM   25  C   UNL     1     -12.455  13.238  70.656  1.00  0.00    -0.298 A  
HETATM   26  N   UNL     1     -11.903  12.492  69.645  1.00  0.00    -0.323 NA 
ENDBRANCH  15  17
ENDBRANCH  14  15
ENDBRANCH   7  14
TORSDOF 5
ENDMDL
MODEL        5
REMARK 921   NORMALIZED FREE ENERGY PREDICTED BY IDOCK:   -7.40 KCAL/MOL
REMARK 922        TOTAL FREE ENERGY PREDICTED BY IDOCK:  -10.33 KCAL/MOL
REMARK 923 INTER-LIGAND FREE ENERGY PREDICTED BY IDOCK:   -9.55 KCAL/MOL
REMARK 924 INTRA-LIGAND FREE ENERGY PREDICTED BY IDOCK:   -0.78 KCAL/MOL
REMARK 927      BINDING AFFINITY PREDICTED BY RF-SCORE:    0.00 PKD
ROOT
HETATM    1  C   UNL     1     -12.222  13.050  70.302  1.00  0.00    -0.368 C  
HETATM    2  C   UNL     1     -11.717  12.162  69.204  1.00  0.00    -0.384 A  
HETATM    3  C   UNL     1     -11.224  10.868  69.456  1.00  0.00    -0.277 A  
HETATM    4  C   UNL     1     -10.953  10.010  68.393  1.00  0.00    -0.266 A  
HETATM    5  N   UNL     1     -11.458  11.756  66.824  1.00  0.00    -0.476 NA 
HETATM    6  C   UNL     1     -11.106  10.486  67.106  1.00  0.00    -0.160 A  
HETATM    7  C   UNL     1     -11.744  12.593  67.860  1.00  0.00    -0.358 A  
ENDROOT
BRANCH   3   8
HETATM    8  O   UNL     1     -11.028  10.289  70.687  1.00  0.00    -0.308 OA 
BRANCH   8   9
HETATM    9  C   UNL     1     -11.808   9.120  70.981  1.00  0.00    -0.292 C  
HETATM   10  C   UNL     1     -12.943   9.383  71.967  1.00  0.00    -0.423 C  
HETATM   11  F   UNL     1     -12.701   8.779  73.159  1.00  0.00    -0.313 F  
HETATM   12  F   UNL     1     -14.109   8.868  71.500  1.00  0.00    -0.416 F  
HETATM   13  F   UNL     1     -13.156  10.694  72.214  1.00  0.00    -0.545 F  
ENDBRANCH   8   9
ENDBRANCH   3   8
BRANCH   7  14
HETATM   14  C   UNL     1     -12.047  14.022  67.447  1.00  0.00    -0.349 C  
BRANCH  14  15
HETATM   15  S   UNL     1     -11.204  14.484  65.922  1.00  0.00    -0.335 S  
HETATM   16  O   UNL     1     -12.153  14.690  64.776  1.00  0.00    -0.421 OA 
BRANCH  15  17
HETATM   17  C   UNL     1     -10.620  16.066  66.340  1.00  0.00    -0.284 A  
HETATM   18  N   UNL     1     -10.575  17.109  65.537  1.00  0.00    -0.579 NA 
HETATM   19  C   UNL     1     -10.279  18.179  66.352  1.00  0.00    -0.399 A  
HETATM   20  H   UNL     1     -10.726  17.121  64.529  1.00  0.00     0.000 HD 
HETATM   21  C   UNL     1     -10.174  19.544  66.043  1.00  0.00    -0.567 A  
HETATM   22  C   UNL     1      -9.965  20.458  67.083  1.00  0.00    -0.568 A  
HETATM   23  C   UNL     1      -9.847  20.021  68.405  1.00  0.00    -0.436 A  
HETATM   24  C   UNL     1      -9.906  18.661  68.730  1.00  0.00    -0.422 A  
HETATM   25  C   UNL     1     -10.119  17.771  67.674  1.00  0.00    -0.342 A  
HETATM   26  N   UNL     1     -10.249  16.406  67.617  1.00  0.00    -0.265 NA 
ENDBRANCH  15  17
ENDBRANCH  14  15
ENDBRANCH   7  14
TORSDOF 5
ENDMDL
MODEL        6
REMARK 921   NORMALIZED FREE ENERGY PREDICTED BY IDOCK:   -7.34 KCAL/MOL
REMARK 922        TOTAL FREE ENERGY PREDICTED BY IDOCK:  -10.26 KCAL/MOL
REMARK 923 INTER-LIGAND FREE ENERGY PREDICTED BY IDOCK:   -9.37 KCAL/MOL
REMARK 924 INTRA-LIGAND FREE ENERGY PREDICTED BY IDOCK:   -0.89 KCAL/MOL
REMARK 927      BINDING AFFINITY PREDICTED BY RF-SCORE:    0.00 PKD
ROOT
HETATM    1  C   UNL     1     -11.114  10.858  67.175  1.00  0.00    -0.308 C  
HETATM    2  C   UNL     1     -11.612  11.755  68.270  1.00  0.00    -0.373 A  
HETATM    3  C   UNL     1     -11.791  11.296  69.588  1.00  0.00    -0.360 A  
HETATM    4  C   UNL     1     -12.064  12.205  70.608  1.00  0.00    -0.344 A  
HETATM    5  N   UNL     1     -12.184  13.995  69.012  1.00  0.00    -0.316 NA 
HETATM    6  C   UNL     1     -12.227  13.535  70.279  1.00  0.00    -0.347 A  
HETATM    7  C   UNL     1     -11.898  13.114  68.014  1.00  0.00    -0.358 A  
ENDROOT
BRANCH   3   8
HETATM    8  O   UNL     1     -11.659  10.002  70.032  1.00  0.00    -0.249 OA 
BRANCH   8   9
HETATM    9  C   UNL     1     -11.462   9.823  71.443  1.00  0.00    -0.365 C  
HETATM   10  C   UNL     1     -12.477   8.878  72.081  1.00  0.00    -0.389 C  
HETATM   11  F   UNL     1     -13.324   9.553  72.899  1.00  0.00    -0.394 F  
HETATM   12  F   UNL     1     -11.849   7.953  72.850  1.00  0.00    -0.390 F  
HETATM   13  F   UNL     1     -13.231   8.206  71.183  1.00  0.00    -0.280 F  
ENDBRANCH   8   9
ENDBRANCH   3   8
BRANCH   7  14
HETATM   14  C   UNL     1     -11.956  13.706  66.618  1.00  0.00    -0.415 C  
BRANCH  14  15
HETATM   15  S   UNL     1     -10.357  14.339  66.078  1.00  0.00    -0.322 S  
HETATM   16  O   UNL     1     -10.237  14.409  64.582  1.00  0.00    -0.362 OA 
BRANCH  15  17
HETATM   17  C   UNL     1     -10.459  15.986  66.621  1.00  0.00    -0.304 A  
HETATM   18  N   UNL     1     -10.424  16.389  67.874  1.00  0.00    -0.297 NA 
HETATM   19  C   UNL     1     -10.289  17.758  67.808  1.00  0.00    -0.380 A  
HETATM   20  H   UNL     1     -10.484  15.812  68.712  1.00  0.00     0.000 HD 
HETATM   21  C   UNL     1     -10.136  18.697  68.840  1.00  0.00    -0.357 A  
HETATM   22  C   UNL     1      -9.908  20.038  68.505  1.00  0.00    -0.412 A  
HETATM   23  C   UNL     1      -9.851  20.440  67.167  1.00  0.00    -0.601 A  
HETATM   24  C   UNL     1     -10.044  19.526  66.124  1.00  0.00    -0.557 A  
HETATM   25  C   UNL     1     -10.265  18.195  66.487  1.00  0.00    -0.391 A  
HETATM   26  N   UNL     1     -10.470  17.051  65.756  1.00  0.00    -0.498 NA 
ENDBRANCH  15  17
ENDBRANCH  14  15
ENDBRANCH   7  14
TORSDOF 5
ENDMDL
MODEL        7
REMARK 921   NORMALIZED FREE ENERGY PREDICTED BY IDOCK:   -7.28 KCAL/MOL
REMARK 922        TOTAL FREE ENERGY PREDICTED BY IDOCK:  -10.18 KCAL/MOL
REMARK 923 INTER-LIGAND FREE ENERGY PREDICTED BY IDOCK:   -9.26 KCAL/MOL
REMARK 924 INTRA-LIGAND FREE ENERGY PREDICTED BY IDOCK:   -0.92 KCAL/MOL
REMARK 927      BINDING AFFINITY PREDICTED BY RF-SCORE:    0.00 PKD
ROOT
HETATM    1  C   UNL     1     -10.748  15.258  65.077  1.00  0.00    -0.461 C  
HETATM    2  C   UNL     1     -11.001  15.281  66.555  1.00  0.00    -0.295 A  
HETATM    3  C   UNL     1     -10.650  16.383  67.356  1.00  0.00    -0.306 A  
HETATM    4  C   UNL     1     -11.080  16.442  68.681  1.00  0.00    -0.352 A  
HETATM    5  N   UNL     1     -12.031  14.246  68.495  1.00  0.00    -0.338 NA 
HETATM    6  C   UNL     1     -11.782  15.371  69.194  1.00  0.00    -0.345 A  
HETATM    7  C   UNL     1     -11.631  14.190  67.194  1.00  0.00    -0.377 A  
ENDROOT
BRANCH   3   8
HETATM    8  O   UNL     1      -9.955  17.500  66.958  1.00  0.00    -0.288 OA 
BRANCH   8   9
HETATM    9  C   UNL     1     -10.660  18.749  67.011  1.00  0.00    -0.420 C  
HETATM   10  C   UNL     1      -9.959  19.804  67.863  1.00  0.00    -0.416 C  
HETATM   11  F   UNL     1     -10.658  20.055  68.999  1.00  0.00    -0.475 F  
HETATM   12  F   UNL     1      -9.874  20.980  67.191  1.00  0.00    -0.611 F  
HETATM   13  F   UNL     1      -8.704  19.461  68.228  1.00  0.00    -0.328 F  
ENDBRANCH   8   9
ENDBRANCH   3   8
BRANCH   7  14
HETATM   14  C   UNL     1     -11.879  12.855  66.517  1.00  0.00    -0.407 C  
BRANCH  14  15
HETATM   15  S   UNL     1     -10.556  11.672  66.836  1.00  0.00    -0.252 S  
HETATM   16  O   UNL     1      -9.217  12.333  67.001  1.00  0.00    -0.192 OA 
BRANCH  15  17
HETATM   17  C   UNL     1     -11.001  11.106  68.417  1.00  0.00    -0.227 A  
HETATM   18  N   UNL     1     -12.210  11.142  68.938  1.00  0.00    -0.638 NA 
HETATM   19  C   UNL     1     -12.132  10.378  70.082  1.00  0.00    -0.256 A  
HETATM   20  H   UNL     1     -13.027  11.630  68.573  1.00  0.00     0.000 HD 
HETATM   21  C   UNL     1     -13.137  10.018  70.993  1.00  0.00    -0.435 A  
HETATM   22  C   UNL     1     -12.822   9.133  72.032  1.00  0.00    -0.483 A  
HETATM   23  C   UNL     1     -11.526   8.628  72.171  1.00  0.00    -0.443 A  
HETATM   24  C   UNL     1     -10.500   9.007  71.298  1.00  0.00    -0.381 A  
HETATM   25  C   UNL     1     -10.843   9.888  70.269  1.00  0.00    -0.310 A  
HETATM   26  N   UNL     1     -10.124  10.448  69.242  1.00  0.00    -0.220 NA 
ENDBRANCH  15  17
ENDBRANCH  14  15
ENDBRANCH   7  14
TORSDOF 5
ENDMDL
MODEL        8
REMARK 921   NORMALIZED FREE ENERGY PREDICTED BY IDOCK:   -7.26 KCAL/MOL
REMARK 922        TOTAL FREE ENERGY PREDICTED BY IDOCK:  -10.16 KCAL/MOL
REMARK 923 INTER-LIGAND FREE ENERGY PREDICTED BY IDOCK:   -9.11 KCAL/MOL
REMARK 924 INTRA-LIGAND FREE ENERGY PREDICTED BY IDOCK:   -1.05 KCAL/MOL
REMARK 927      BINDING AFFINITY PREDICTED BY RF-SCORE:    0.00 PKD
ROOT
HETATM    1  C   UNL     1      -8.339  15.038  66.997  1.00  0.00    -0.254 C  
HETATM    2  C   UNL     1      -9.613  14.972  66.208  1.00  0.00    -0.335 A  
HETATM    3  C   UNL     1     -10.165  16.106  65.584  1.00  0.00    -0.364 A  
HETATM    4  C   UNL     1     -11.235  15.961  64.703  1.00  0.00    -0.361 A  
HETATM    5  N   UNL     1     -11.352  13.614  65.194  1.00  0.00    -0.302 NA 
HETATM    6  C   UNL     1     -11.774  14.704  64.523  1.00  0.00    -0.401 A  
HETATM    7  C   UNL     1     -10.294  13.746  66.043  1.00  0.00    -0.308 A  
ENDROOT
BRANCH   3   8
HETATM    8  O   UNL     1      -9.718  17.401  65.690  1.00  0.00    -0.533 OA 
BRANCH   8   9
HETATM    9  C   UNL     1     -10.440  18.260  66.586  1.00  0.00    -0.360 C  
HETATM   10  C   UNL     1      -9.677  18.573  67.869  1.00  0.00    -0.314 C  
HETATM   11  F   UNL     1     -10.259  17.975  68.940  1.00  0.00    -0.348 F  
HETATM   12  F   UNL     1      -9.686  19.908  68.117  1.00  0.00    -0.421 F  
HETATM   13  F   UNL     1      -8.383  18.181  67.842  1.00  0.00    -0.232 F  
ENDBRANCH   8   9
ENDBRANCH   3   8
BRANCH   7  14
HETATM   14  C   UNL     1      -9.947  12.487  66.815  1.00  0.00    -0.228 C  
BRANCH  14  15
HETATM   15  S   UNL     1     -11.414  11.643  67.438  1.00  0.00    -0.252 S  
HETATM   16  O   UNL     1     -11.114  10.263  67.949  1.00  0.00    -0.291 OA 
BRANCH  15  17
HETATM   17  C   UNL     1     -11.768  12.600  68.844  1.00  0.00    -0.325 A  
HETATM   18  N   UNL     1     -11.853  13.914  68.882  1.00  0.00    -0.340 NA 
HETATM   19  C   UNL     1     -12.383  14.205  70.119  1.00  0.00    -0.351 A  
HETATM   20  H   UNL     1     -11.584  14.573  68.152  1.00  0.00     0.000 HD 
HETATM   21  C   UNL     1     -12.750  15.441  70.673  1.00  0.00    -0.490 A  
HETATM   22  C   UNL     1     -13.374  15.462  71.926  1.00  0.00    -0.554 A  
HETATM   23  C   UNL     1     -13.615  14.275  72.624  1.00  0.00    -0.601 A  
HETATM   24  C   UNL     1     -13.220  13.035  72.108  1.00  0.00    -0.558 A  
HETATM   25  C   UNL     1     -12.602  13.043  70.855  1.00  0.00    -0.280 A  
HETATM   26  N   UNL     1     -12.112  12.045  70.051  1.00  0.00    -0.303 NA 
ENDBRANCH  15  17
ENDBRANCH  14  15
ENDBRANCH   7  14
TORSDOF 5
ENDMDL
MODEL        9
REMARK 921   NORMALIZED FREE ENERGY PREDICTED BY IDOCK:   -7.20 KCAL/MOL
REMARK 922        TOTAL FREE ENERGY PREDICTED BY IDOCK:  -10.07 KCAL/MOL
REMARK 923 INTER-LIGAND FREE ENERGY PREDICTED BY IDOCK:   -9.55 KCAL/MOL
REMARK 924 INTRA-LIGAND FREE ENERGY PREDICTED BY IDOCK:   -0.52 KCAL/MOL
REMARK 927      BINDING AFFINITY PREDICTED BY RF-SCORE:    0.00 PKD
ROOT
HETATM    1  C   UNL     1     -11.221  10.945  67.310  1.00  0.00    -0.307 C  
HETATM    2  C   UNL     1     -11.707  11.879  68.378  1.00  0.00    -0.387 A  
HETATM    3  C   UNL     1     -11.909  11.456  69.705  1.00  0.00    -0.364 A  
HETATM    4  C   UNL     1     -12.169  12.396  70.700  1.00  0.00    -0.368 A  
HETATM    5  N   UNL     1     -12.233  14.150  69.061  1.00  0.00    -0.303 NA 
HETATM    6  C   UNL     1     -12.297  13.722  70.338  1.00  0.00    -0.353 A  
HETATM    7  C   UNL     1     -11.959  13.238  68.087  1.00  0.00    -0.304 A  
ENDROOT
BRANCH   3   8
HETATM    8  O   UNL     1     -11.812  10.171  70.181  1.00  0.00    -0.256 OA 
BRANCH   8   9
HETATM    9  C   UNL     1     -12.185   9.962  71.552  1.00  0.00    -0.416 C  
HETATM   10  C   UNL     1     -12.526   8.510  71.871  1.00  0.00    -0.352 C  
HETATM   11  F   UNL     1     -13.853   8.364  72.120  1.00  0.00    -0.351 F  
HETATM   12  F   UNL     1     -11.874   8.102  72.990  1.00  0.00    -0.450 F  
HETATM   13  F   UNL     1     -12.202   7.646  70.884  1.00  0.00    -0.317 F  
ENDBRANCH   8   9
ENDBRANCH   3   8
BRANCH   7  14
HETATM   14  C   UNL     1     -11.990  13.798  66.676  1.00  0.00    -0.431 C  
BRANCH  14  15
HETATM   15  S   UNL     1     -10.336  14.051  66.006  1.00  0.00    -0.315 S  
HETATM   16  O   UNL     1     -10.297  13.943  64.508  1.00  0.00    -0.436 OA 
BRANCH  15  17
HETATM   17  C   UNL     1     -10.094  15.734  66.364  1.00  0.00    -0.291 A  
HETATM   18  N   UNL     1     -10.319  16.737  65.542  1.00  0.00    -0.606 NA 
HETATM   19  C   UNL     1     -10.226  17.869  66.321  1.00  0.00    -0.363 A  
HETATM   20  H   UNL     1     -10.518  16.687  64.543  1.00  0.00     0.000 HD 
HETATM   21  C   UNL     1     -10.438  19.215  65.982  1.00  0.00    -0.546 A  
HETATM   22  C   UNL     1     -10.385  20.183  66.993  1.00  0.00    -0.502 A  
HETATM   23  C   UNL     1     -10.109  19.820  68.314  1.00  0.00    -0.575 A  
HETATM   24  C   UNL     1      -9.852  18.490  68.666  1.00  0.00    -0.419 A  
HETATM   25  C   UNL     1      -9.916  17.545  67.639  1.00  0.00    -0.309 A  
HETATM   26  N   UNL     1      -9.745  16.183  67.612  1.00  0.00    -0.231 NA 
ENDBRANCH  15  17
ENDBRANCH  14  15
ENDBRANCH   7  14
TORSDOF 5
ENDMDL
MODEL       10
REMARK 921   NORMALIZED FREE ENERGY PREDICTED BY IDOCK:   -7.06 KCAL/MOL
REMARK 922        TOTAL FREE ENERGY PREDICTED BY IDOCK:   -9.89 KCAL/MOL
REMARK 923 INTER-LIGAND FREE ENERGY PREDICTED BY IDOCK:   -9.25 KCAL/MOL
REMARK 924 INTRA-LIGAND FREE ENERGY PREDICTED BY IDOCK:   -0.64 KCAL/MOL
REMARK 927      BINDING AFFINITY PREDICTED BY RF-SCORE:    0.00 PKD
ROOT
HETATM    1  C   UNL     1     -11.945  11.859  68.661  1.00  0.00    -0.291 C  
HETATM    2  C   UNL     1     -11.252  11.442  67.398  1.00  0.00    -0.370 A  
HETATM    3  C   UNL     1     -10.493  10.259  67.317  1.00  0.00    -0.253 A  
HETATM    4  C   UNL     1     -10.034   9.813  66.080  1.00  0.00    -0.342 A  
HETATM    5  N   UNL     1     -10.892  11.791  65.022  1.00  0.00    -0.289 NA 
HETATM    6  C   UNL     1     -10.276  10.593  64.967  1.00  0.00    -0.310 A  
HETATM    7  C   UNL     1     -11.360  12.223  66.226  1.00  0.00    -0.345 A  
ENDROOT
BRANCH   3   8
HETATM    8  O   UNL     1     -10.187   9.408  68.352  1.00  0.00    -0.182 OA 
BRANCH   8   9
HETATM    9  C   UNL     1     -10.136   8.008  68.039  1.00  0.00    -0.194 C  
HETATM   10  C   UNL     1     -10.690   7.119  69.149  1.00  0.00    -0.198 C  
HETATM   11  F   UNL     1      -9.699   6.405  69.741  1.00  0.00    -0.152 F  
HETATM   12  F   UNL     1     -11.570   6.219  68.644  1.00  0.00    -0.403 F  
HETATM   13  F   UNL     1     -11.332   7.803  70.122  1.00  0.00    -0.269 F  
ENDBRANCH   8   9
ENDBRANCH   3   8
BRANCH   7  14
HETATM   14  C   UNL     1     -11.961  13.616  66.203  1.00  0.00    -0.416 C  
BRANCH  14  15
HETATM   15  S   UNL     1     -11.468  14.547  64.740  1.00  0.00    -0.406 S  
HETATM   16  O   UNL     1     -12.639  14.954  63.892  1.00  0.00    -0.831 OA 
BRANCH  15  17
HETATM   17  C   UNL     1     -10.882  16.011  65.468  1.00  0.00    -0.292 A  
HETATM   18  N   UNL     1     -10.916  17.210  64.925  1.00  0.00    -0.819 NA 
HETATM   19  C   UNL     1     -10.578  18.076  65.941  1.00  0.00    -0.219 A  
HETATM   20  H   UNL     1     -11.145  17.447  63.960  1.00  0.00     0.000 HD 
HETATM   21  C   UNL     1     -10.521  19.478  65.947  1.00  0.00    -0.585 A  
HETATM   22  C   UNL     1     -10.249  20.139  67.152  1.00  0.00    -0.554 A  
HETATM   23  C   UNL     1     -10.022  19.416  68.327  1.00  0.00    -0.516 A  
HETATM   24  C   UNL     1     -10.033  18.016  68.334  1.00  0.00    -0.382 A  
HETATM   25  C   UNL     1     -10.310  17.384  67.119  1.00  0.00    -0.325 A  
HETATM   26  N   UNL     1     -10.420  16.064  66.759  1.00  0.00    -0.307 NA 
ENDBRANCH  15  17
ENDBRANCH  14  15
ENDBRANCH   7  14
TORSDOF 5
ENDMDL
MODEL       11
REMARK 921   NORMALIZED FREE ENERGY PREDICTED BY IDOCK:   -7.01 KCAL/MOL
REMARK 922        TOTAL FREE ENERGY PREDICTED BY IDOCK:   -9.82 KCAL/MOL
REMARK 923 INTER-LIGAND FREE ENERGY PREDICTED BY IDOCK:   -8.74 KCAL/MOL
REMARK 924 INTRA-LIGAND FREE ENERGY PREDICTED BY IDOCK:   -1.09 KCAL/MOL
REMARK 927      BINDING AFFINITY PREDICTED BY RF-SCORE:    0.00 PKD
ROOT
HETATM    1  C   UNL     1      -9.287  12.648  67.459  1.00  0.00    -0.188 C  
HETATM    2  C   UNL     1      -9.542  11.231  67.039  1.00  0.00    -0.197 A  
HETATM    3  C   UNL     1      -9.682  10.867  65.687  1.00  0.00    -0.232 A  
HETATM    4  C   UNL     1      -9.720   9.520  65.332  1.00  0.00    -0.314 A  
HETATM    5  N   UNL     1      -9.685   8.884  67.647  1.00  0.00    -0.154 NA 
HETATM    6  C   UNL     1      -9.695   8.573  66.336  1.00  0.00    -0.258 A  
HETATM    7  C   UNL     1      -9.628  10.200  67.999  1.00  0.00    -0.145 A  
ENDROOT
BRANCH   3   8
HETATM    8  O   UNL     1      -9.722  11.716  64.607  1.00  0.00    -0.239 OA 
BRANCH   8   9
HETATM    9  C   UNL     1     -10.904  11.667  63.793  1.00  0.00    -0.424 C  
HETATM   10  C   UNL     1     -11.898  12.782  64.104  1.00  0.00    -0.413 C  
HETATM   11  F   UNL     1     -13.016  12.287  64.693  1.00  0.00    -0.555 F  
HETATM   12  F   UNL     1     -12.300  13.394  62.961  1.00  0.00    -0.607 F  
HETATM   13  F   UNL     1     -11.403  13.740  64.917  1.00  0.00    -0.312 F  
ENDBRANCH   8   9
ENDBRANCH   3   8
BRANCH   7  14
HETATM   14  C   UNL     1      -9.707  10.454  69.493  1.00  0.00    -0.170 C  
BRANCH  14  15
HETATM   15  S   UNL     1     -11.245   9.841  70.209  1.00  0.00    -0.302 S  
HETATM   16  O   UNL     1     -11.039   9.179  71.541  1.00  0.00    -0.313 OA 
BRANCH  15  17
HETATM   17  C   UNL     1     -12.065  11.335  70.546  1.00  0.00    -0.387 A  
HETATM   18  N   UNL     1     -12.989  11.517  71.466  1.00  0.00    -0.430 NA 
HETATM   19  C   UNL     1     -13.166  12.881  71.534  1.00  0.00    -0.257 A  
HETATM   20  H   UNL     1     -13.471  10.802  72.009  1.00  0.00     0.000 HD 
HETATM   21  C   UNL     1     -13.980  13.641  72.388  1.00  0.00    -0.651 A  
HETATM   22  C   UNL     1     -13.902  15.039  72.330  1.00  0.00    -0.596 A  
HETATM   23  C   UNL     1     -13.040  15.668  71.428  1.00  0.00    -0.559 A  
HETATM   24  C   UNL     1     -12.251  14.930  70.539  1.00  0.00    -0.388 A  
HETATM   25  C   UNL     1     -12.347  13.538  70.620  1.00  0.00    -0.358 A  
HETATM   26  N   UNL     1     -11.727  12.519  69.941  1.00  0.00    -0.289 NA 
ENDBRANCH  15  17
ENDBRANCH  14  15
ENDBRANCH   7  14
TORSDOF 5
ENDMDL
MODEL       12
REMARK 921   NORMALIZED FREE ENERGY PREDICTED BY IDOCK:   -7.00 KCAL/MOL
REMARK 922        TOTAL FREE ENERGY PREDICTED BY IDOCK:   -9.82 KCAL/MOL
REMARK 923 INTER-LIGAND FREE ENERGY PREDICTED BY IDOCK:   -9.03 KCAL/MOL
REMARK 924 INTRA-LIGAND FREE ENERGY PREDICTED BY IDOCK:   -0.78 KCAL/MOL
REMARK 927      BINDING AFFINITY PREDICTED BY RF-SCORE:    0.00 PKD
ROOT
HETATM    1  C   UNL     1      -9.784  15.483  67.884  1.00  0.00    -0.211 C  
HETATM    2  C   UNL     1     -10.684  15.354  66.691  1.00  0.00    -0.309 A  
HETATM    3  C   UNL     1     -10.650  16.273  65.626  1.00  0.00    -0.346 A  
HETATM    4  C   UNL     1     -11.358  16.006  64.457  1.00  0.00    -0.303 A  
HETATM    5  N   UNL     1     -12.297  14.031  65.448  1.00  0.00    -0.452 NA 
HETATM    6  C   UNL     1     -12.141  14.871  64.405  1.00  0.00    -0.401 A  
HETATM    7  C   UNL     1     -11.591  14.276  66.587  1.00  0.00    -0.383 A  
ENDROOT
BRANCH   3   8
HETATM    8  O   UNL     1      -9.914  17.433  65.566  1.00  0.00    -0.555 OA 
BRANCH   8   9
HETATM    9  C   UNL     1     -10.604  18.650  65.885  1.00  0.00    -0.321 C  
HETATM   10  C   UNL     1      -9.978  19.413  67.049  1.00  0.00    -0.364 C  
HETATM   11  F   UNL     1     -10.783  19.381  68.142  1.00  0.00    -0.468 F  
HETATM   12  F   UNL     1      -9.811  20.721  66.727  1.00  0.00    -0.555 F  
HETATM   13  F   UNL     1      -8.770  18.936  67.423  1.00  0.00    -0.272 F  
ENDBRANCH   8   9
ENDBRANCH   3   8
BRANCH   7  14
HETATM   14  C   UNL     1     -11.895  13.327  67.731  1.00  0.00    -0.353 C  
BRANCH  14  15
HETATM   15  S   UNL     1     -11.276  11.663  67.419  1.00  0.00    -0.302 S  
HETATM   16  O   UNL     1      -9.795  11.634  67.168  1.00  0.00    -0.187 OA 
BRANCH  15  17
HETATM   17  C   UNL     1     -11.504  10.933  68.979  1.00  0.00    -0.302 A  
HETATM   18  N   UNL     1     -12.661  10.729  69.574  1.00  0.00    -0.566 NA 
HETATM   19  C   UNL     1     -12.375   9.921  70.652  1.00  0.00    -0.214 A  
HETATM   20  H   UNL     1     -13.573  11.091  69.296  1.00  0.00     0.000 HD 
HETATM   21  C   UNL     1     -13.237   9.339  71.594  1.00  0.00    -0.456 A  
HETATM   22  C   UNL     1     -12.704   8.459  72.545  1.00  0.00    -0.286 A  
HETATM   23  C   UNL     1     -11.335   8.177  72.568  1.00  0.00    -0.469 A  
HETATM   24  C   UNL     1     -10.453   8.779  71.664  1.00  0.00    -0.387 A  
HETATM   25  C   UNL     1     -11.011   9.649  70.724  1.00  0.00    -0.327 A  
HETATM   26  N   UNL     1     -10.472  10.386  69.699  1.00  0.00    -0.243 NA 
ENDBRANCH  15  17
ENDBRANCH  14  15
ENDBRANCH   7  14
TORSDOF 5
ENDMDL
MODEL       13
REMARK 921   NORMALIZED FREE ENERGY PREDICTED BY IDOCK:   -6.99 KCAL/MOL
REMARK 922        TOTAL FREE ENERGY PREDICTED BY IDOCK:   -9.80 KCAL/MOL
REMARK 923 INTER-LIGAND FREE ENERGY PREDICTED BY IDOCK:   -8.83 KCAL/MOL
REMARK 924 INTRA-LIGAND FREE ENERGY PREDICTED BY IDOCK:   -0.96 KCAL/MOL
REMARK 927      BINDING AFFINITY PREDICTED BY RF-SCORE:    0.00 PKD
ROOT
HETATM    1  C   UNL     1     -12.465  15.060  69.712  1.00  0.00    -0.216 C  
HETATM    2  C   UNL     1     -12.217  13.613  70.020  1.00  0.00    -0.395 A  
HETATM    3  C   UNL     1     -12.669  13.015  71.211  1.00  0.00    -0.293 A  
HETATM    4  C   UNL     1     -12.591  11.632  71.365  1.00  0.00    -0.391 A  
HETATM    5  N   UNL     1     -11.445  11.438  69.264  1.00  0.00    -0.273 NA 
HETATM    6  C   UNL     1     -11.999  10.890  70.364  1.00  0.00    -0.362 A  
HETATM    7  C   UNL     1     -11.535  12.787  69.099  1.00  0.00    -0.306 A  
ENDROOT
BRANCH   3   8
HETATM    8  O   UNL     1     -13.269  13.649  72.272  1.00  0.00    -0.422 OA 
BRANCH   8   9
HETATM    9  C   UNL     1     -12.418  14.445  73.111  1.00  0.00    -0.187 C  
HETATM   10  C   UNL     1     -12.875  15.896  73.231  1.00  0.00    -0.556 C  
HETATM   11  F   UNL     1     -12.015  16.733  72.596  1.00  0.00    -0.558 F  
HETATM   12  F   UNL     1     -12.902  16.281  74.533  1.00  0.00    -0.489 F  
HETATM   13  F   UNL     1     -14.107  16.122  72.723  1.00  0.00    -0.610 F  
ENDBRANCH   8   9
ENDBRANCH   3   8
BRANCH   7  14
HETATM   14  C   UNL     1     -10.810  13.320  67.877  1.00  0.00    -0.243 C  
BRANCH  14  15
HETATM   15  S   UNL     1      -9.141  13.881  68.266  1.00  0.00    -0.184 S  
HETATM   16  O   UNL     1      -8.100  13.254  67.382  1.00  0.00    -0.169 OA 
BRANCH  15  17
HETATM   17  C   UNL     1      -9.235  15.545  67.776  1.00  0.00    -0.179 A  
HETATM   18  N   UNL     1      -9.833  15.999  66.695  1.00  0.00    -0.248 NA 
HETATM   19  C   UNL     1      -9.864  17.368  66.847  1.00  0.00    -0.289 A  
HETATM   20  H   UNL     1     -10.196  15.454  65.913  1.00  0.00     0.000 HD 
HETATM   21  C   UNL     1     -10.441  18.351  66.030  1.00  0.00    -0.400 A  
HETATM   22  C   UNL     1     -10.428  19.683  66.463  1.00  0.00    -0.612 A  
HETATM   23  C   UNL     1      -9.837  20.032  67.680  1.00  0.00    -0.548 A  
HETATM   24  C   UNL     1      -9.219  19.073  68.491  1.00  0.00    -0.413 A  
HETATM   25  C   UNL     1      -9.249  17.752  68.036  1.00  0.00    -0.273 A  
HETATM   26  N   UNL     1      -8.776  16.574  68.559  1.00  0.00    -0.218 NA 
ENDBRANCH  15  17
ENDBRANCH  14  15
ENDBRANCH   7  14
TORSDOF 5
ENDMDL
MODEL       14
REMARK 921   NORMALIZED FREE ENERGY PREDICTED BY IDOCK:   -6.93 KCAL/MOL
REMARK 922        TOTAL FREE ENERGY PREDICTED BY IDOCK:   -9.73 KCAL/MOL
REMARK 923 INTER-LIGAND FREE ENERGY PREDICTED BY IDOCK:   -8.86 KCAL/MOL
REMARK 924 INTRA-LIGAND FREE ENERGY PREDICTED BY IDOCK:   -0.87 KCAL/MOL
REMARK 927      BINDING AFFINITY PREDICTED BY RF-SCORE:    0.00 PKD
ROOT
HETATM    1  C   UNL     1     -10.792  16.175  65.086  1.00  0.00    -0.376 C  
HETATM    2  C   UNL     1      -9.639  15.906  66.007  1.00  0.00    -0.385 A  
HETATM    3  C   UNL     1      -8.802  16.935  66.477  1.00  0.00    -0.271 A  
HETATM    4  C   UNL     1      -7.872  16.668  67.480  1.00  0.00    -0.191 A  
HETATM    5  N   UNL     1      -8.444  14.337  67.423  1.00  0.00    -0.192 NA 
HETATM    6  C   UNL     1      -7.747  15.371  67.934  1.00  0.00    -0.133 A  
HETATM    7  C   UNL     1      -9.368  14.595  66.457  1.00  0.00    -0.288 A  
ENDROOT
BRANCH   3   8
HETATM    8  O   UNL     1      -8.832  18.256  66.098  1.00  0.00    -0.464 OA 
BRANCH   8   9
HETATM    9  C   UNL     1      -8.687  19.228  67.144  1.00  0.00    -0.290 C  
HETATM   10  C   UNL     1      -9.999  19.912  67.520  1.00  0.00    -0.417 C  
HETATM   11  F   UNL     1      -9.997  21.214  67.137  1.00  0.00    -0.572 F  
HETATM   12  F   UNL     1     -10.173  19.902  68.866  1.00  0.00    -0.504 F  
HETATM   13  F   UNL     1     -11.090  19.331  66.973  1.00  0.00    -0.533 F  
ENDBRANCH   8   9
ENDBRANCH   3   8
BRANCH   7  14
HETATM   14  C   UNL     1     -10.040  13.360  65.884  1.00  0.00    -0.293 C  
BRANCH  14  15
HETATM   15  S   UNL     1     -11.669  13.076  66.602  1.00  0.00    -0.391 S  
HETATM   16  O   UNL     1     -12.631  12.459  65.626  1.00  0.00    -0.575 OA 
BRANCH  15  17
HETATM   17  C   UNL     1     -11.304  11.829  67.755  1.00  0.00    -0.289 A  
HETATM   18  N   UNL     1     -10.113  11.318  67.987  1.00  0.00    -0.173 NA 
HETATM   19  C   UNL     1     -10.263  10.558  69.127  1.00  0.00    -0.224 A  
HETATM   20  H   UNL     1      -9.263  11.454  67.441  1.00  0.00     0.000 HD 
HETATM   21  C   UNL     1      -9.306   9.842  69.863  1.00  0.00    -0.250 A  
HETATM   22  C   UNL     1      -9.695   9.229  71.061  1.00  0.00    -0.341 A  
HETATM   23  C   UNL     1     -11.016   9.314  71.510  1.00  0.00    -0.446 A  
HETATM   24  C   UNL     1     -11.994   9.988  70.770  1.00  0.00    -0.426 A  
HETATM   25  C   UNL     1     -11.578  10.593  69.581  1.00  0.00    -0.296 A  
HETATM   26  N   UNL     1     -12.237  11.334  68.632  1.00  0.00    -0.542 NA 
ENDBRANCH  15  17
ENDBRANCH  14  15
ENDBRANCH   7  14
TORSDOF 5
ENDMDL
MODEL       15
REMARK 921   NORMALIZED FREE ENERGY PREDICTED BY IDOCK:   -6.93 KCAL/MOL
REMARK 922        TOTAL FREE ENERGY PREDICTED BY IDOCK:   -9.73 KCAL/MOL
REMARK 923 INTER-LIGAND FREE ENERGY PREDICTED BY IDOCK:   -8.82 KCAL/MOL
REMARK 924 INTRA-LIGAND FREE ENERGY PREDICTED BY IDOCK:   -0.90 KCAL/MOL
REMARK 927      BINDING AFFINITY PREDICTED BY RF-SCORE:    0.00 PKD
ROOT
HETATM    1  C   UNL     1      -8.545  14.639  66.984  1.00  0.00    -0.249 C  
HETATM    2  C   UNL     1      -9.378  15.808  66.547  1.00  0.00    -0.312 A  
HETATM    3  C   UNL     1      -9.330  17.049  67.209  1.00  0.00    -0.237 A  
HETATM    4  C   UNL     1      -9.966  18.157  66.653  1.00  0.00    -0.363 A  
HETATM    5  N   UNL     1     -10.866  16.788  64.897  1.00  0.00    -0.698 NA 
HETATM    6  C   UNL     1     -10.695  17.985  65.494  1.00  0.00     0.042 A  
HETATM    7  C   UNL     1     -10.230  15.705  65.426  1.00  0.00    -0.370 A  
ENDROOT
BRANCH   3   8
HETATM    8  O   UNL     1      -8.643  17.338  68.364  1.00  0.00    -0.236 OA 
BRANCH   8   9
HETATM    9  C   UNL     1      -7.465  18.147  68.227  1.00  0.00    -0.274 C  
HETATM   10  C   UNL     1      -7.645  19.569  68.751  1.00  0.00    -0.351 C  
HETATM   11  F   UNL     1      -7.645  20.467  67.733  1.00  0.00    -0.324 F  
HETATM   12  F   UNL     1      -6.617  19.909  69.569  1.00  0.00    -0.335 F  
HETATM   13  F   UNL     1      -8.788  19.750  69.450  1.00  0.00    -0.305 F  
ENDBRANCH   8   9
ENDBRANCH   3   8
BRANCH   7  14
HETATM   14  C   UNL     1     -10.550  14.391  64.738  1.00  0.00    -0.393 C  
BRANCH  14  15
HETATM   15  S   UNL     1     -12.216  13.814  65.113  1.00  0.00    -0.455 S  
HETATM   16  O   UNL     1     -12.571  12.553  64.376  1.00  0.00    -0.574 OA 
BRANCH  15  17
HETATM   17  C   UNL     1     -12.033  13.351  66.777  1.00  0.00    -0.394 A  
HETATM   18  N   UNL     1     -12.326  14.097  67.822  1.00  0.00    -0.547 NA 
HETATM   19  C   UNL     1     -12.255  13.247  68.903  1.00  0.00    -0.098 A  
HETATM   20  H   UNL     1     -12.557  15.090  67.829  1.00  0.00     0.000 HD 
HETATM   21  C   UNL     1     -12.535  13.488  70.258  1.00  0.00    -0.309 A  
HETATM   22  C   UNL     1     -12.488  12.417  71.158  1.00  0.00    -0.323 A  
HETATM   23  C   UNL     1     -12.154  11.132  70.723  1.00  0.00    -0.458 A  
HETATM   24  C   UNL     1     -11.831  10.878  69.384  1.00  0.00    -0.400 A  
HETATM   25  C   UNL     1     -11.888  11.964  68.507  1.00  0.00    -0.297 A  
HETATM   26  N   UNL     1     -11.662  12.086  67.159  1.00  0.00    -0.566 NA 
ENDBRANCH  15  17
ENDBRANCH  14  15
ENDBRANCH   7  14
TORSDOF 5
ENDMDL
MODEL       16
REMARK 921   NORMALIZED FREE ENERGY PREDICTED BY IDOCK:   -6.87 KCAL/MOL
REMARK 922        TOTAL FREE ENERGY PREDICTED BY IDOCK:   -9.65 KCAL/MOL
REMARK 923 INTER-LIGAND FREE ENERGY PREDICTED BY IDOCK:   -9.10 KCAL/MOL
REMARK 924 INTRA-LIGAND FREE ENERGY PREDICTED BY IDOCK:   -0.55 KCAL/MOL
REMARK 927      BINDING AFFINITY PREDICTED BY RF-SCORE:    0.00 PKD
ROOT
HETATM    1  C   UNL     1     -12.291  12.686  70.593  1.00  0.00    -0.375 C  
HETATM    2  C   UNL     1     -12.016  13.734  69.555  1.00  0.00    -0.399 A  
HETATM    3  C   UNL     1     -12.157  15.108  69.826  1.00  0.00    -0.319 A  
HETATM    4  C   UNL     1     -11.704  16.047  68.901  1.00  0.00    -0.322 A  
HETATM    5  N   UNL     1     -11.154  14.293  67.355  1.00  0.00    -0.295 NA 
HETATM    6  C   UNL     1     -11.193  15.596  67.701  1.00  0.00    -0.274 A  
HETATM    7  C   UNL     1     -11.577  13.370  68.263  1.00  0.00    -0.344 A  
ENDROOT
BRANCH   3   8
HETATM    8  O   UNL     1     -12.653  15.672  70.977  1.00  0.00    -0.425 OA 
BRANCH   8   9
HETATM    9  C   UNL     1     -11.816  15.598  72.141  1.00  0.00    -0.474 C  
HETATM   10  C   UNL     1     -12.555  15.915  73.438  1.00  0.00    -0.550 C  
HETATM   11  F   UNL     1     -12.140  17.098  73.959  1.00  0.00    -0.465 F  
HETATM   12  F   UNL     1     -12.302  14.967  74.375  1.00  0.00    -0.661 F  
HETATM   13  F   UNL     1     -13.897  15.986  73.295  1.00  0.00    -0.654 F  
ENDBRANCH   8   9
ENDBRANCH   3   8
BRANCH   7  14
HETATM   14  C   UNL     1     -11.576  11.941  67.753  1.00  0.00    -0.323 C  
BRANCH  14  15
HETATM   15  S   UNL     1      -9.924  11.219  67.754  1.00  0.00    -0.179 S  
HETATM   16  O   UNL     1      -8.880  12.164  68.278  1.00  0.00    -0.184 OA 
BRANCH  15  17
HETATM   17  C   UNL     1     -10.105   9.994  68.973  1.00  0.00    -0.200 A  
HETATM   18  N   UNL     1     -10.061  10.188  70.275  1.00  0.00    -0.413 NA 
HETATM   19  C   UNL     1     -10.491   9.004  70.831  1.00  0.00    -0.254 A  
HETATM   20  H   UNL     1      -9.771  11.034  70.765  1.00  0.00     0.000 HD 
HETATM   21  C   UNL     1     -10.705   8.667  72.176  1.00  0.00    -0.417 A  
HETATM   22  C   UNL     1     -11.254   7.415  72.480  1.00  0.00    -0.363 A  
HETATM   23  C   UNL     1     -11.569   6.508  71.465  1.00  0.00    -0.366 A  
HETATM   24  C   UNL     1     -11.325   6.808  70.120  1.00  0.00    -0.404 A  
HETATM   25  C   UNL     1     -10.780   8.065  69.845  1.00  0.00    -0.242 A  
HETATM   26  N   UNL     1     -10.433   8.695  68.676  1.00  0.00    -0.203 NA 
ENDBRANCH  15  17
ENDBRANCH  14  15
ENDBRANCH   7  14
TORSDOF 5
ENDMDL
MODEL       17
REMARK 921   NORMALIZED FREE ENERGY PREDICTED BY IDOCK:   -6.87 KCAL/MOL
REMARK 922        TOTAL FREE ENERGY PREDICTED BY IDOCK:   -9.65 KCAL/MOL
REMARK 923 INTER-LIGAND FREE ENERGY PREDICTED BY IDOCK:   -9.00 KCAL/MOL
REMARK 924 INTRA-LIGAND FREE ENERGY PREDICTED BY IDOCK:   -0.65 KCAL/MOL
REMARK 927      BINDING AFFINITY PREDICTED BY RF-SCORE:    0.00 PKD
ROOT
HETATM    1  C   UNL     1     -12.543  13.945  69.925  1.00  0.00    -0.172 C  
HETATM    2  C   UNL     1     -12.034  12.785  69.121  1.00  0.00    -0.296 A  
HETATM    3  C   UNL     1     -11.725  11.545  69.712  1.00  0.00    -0.353 A  
HETATM    4  C   UNL     1     -11.447  10.443  68.906  1.00  0.00    -0.251 A  
HETATM    5  N   UNL     1     -11.580  11.817  66.941  1.00  0.00    -0.548 NA 
HETATM    6  C   UNL     1     -11.410  10.620  67.538  1.00  0.00    -0.162 A  
HETATM    7  C   UNL     1     -11.871  12.894  67.723  1.00  0.00    -0.339 A  
ENDROOT
BRANCH   3   8
HETATM    8  O   UNL     1     -11.726  11.252  71.055  1.00  0.00    -0.118 OA 
BRANCH   8   9
HETATM    9  C   UNL     1     -12.989  10.887  71.632  1.00  0.00    -0.464 C  
HETATM   10  C   UNL     1     -13.142   9.385  71.852  1.00  0.00    -0.424 C  
HETATM   11  F   UNL     1     -14.064   8.860  71.005  1.00  0.00    -0.354 F  
HETATM   12  F   UNL     1     -13.581   9.129  73.111  1.00  0.00    -0.391 F  
HETATM   13  F   UNL     1     -11.995   8.691  71.681  1.00  0.00    -0.304 F  
ENDBRANCH   8   9
ENDBRANCH   3   8
BRANCH   7  14
HETATM   14  C   UNL     1     -11.961  14.209  66.972  1.00  0.00    -0.439 C  
BRANCH  14  15
HETATM   15  S   UNL     1     -10.507  14.510  65.949  1.00  0.00    -0.330 S  
HETATM   16  O   UNL     1     -10.833  14.569  64.483  1.00  0.00    -0.351 OA 
BRANCH  15  17
HETATM   17  C   UNL     1     -10.116  16.139  66.410  1.00  0.00    -0.308 A  
HETATM   18  N   UNL     1     -10.223  17.204  65.644  1.00  0.00    -0.602 NA 
HETATM   19  C   UNL     1     -10.043  18.276  66.491  1.00  0.00    -0.385 A  
HETATM   20  H   UNL     1     -10.402  17.231  64.641  1.00  0.00     0.000 HD 
HETATM   21  C   UNL     1     -10.119  19.653  66.228  1.00  0.00    -0.578 A  
HETATM   22  C   UNL     1      -9.999  20.552  67.295  1.00  0.00    -0.528 A  
HETATM   23  C   UNL     1      -9.791  20.090  68.598  1.00  0.00    -0.377 A  
HETATM   24  C   UNL     1      -9.671  18.723  68.875  1.00  0.00    -0.393 A  
HETATM   25  C   UNL     1      -9.798  17.849  67.793  1.00  0.00    -0.300 A  
HETATM   26  N   UNL     1      -9.757  16.481  67.689  1.00  0.00    -0.236 NA 
ENDBRANCH  15  17
ENDBRANCH  14  15
ENDBRANCH   7  14
TORSDOF 5
ENDMDL
MODEL       18
REMARK 921   NORMALIZED FREE ENERGY PREDICTED BY IDOCK:   -6.84 KCAL/MOL
REMARK 922        TOTAL FREE ENERGY PREDICTED BY IDOCK:   -9.61 KCAL/MOL
REMARK 923 INTER-LIGAND FREE ENERGY PREDICTED BY IDOCK:   -8.94 KCAL/MOL
REMARK 924 INTRA-LIGAND FREE ENERGY PREDICTED BY IDOCK:   -0.67 KCAL/MOL
REMARK 927      BINDING AFFINITY PREDICTED BY RF-SCORE:    0.00 PKD
ROOT
HETATM    1  C   UNL     1      -7.838  15.352  66.934  1.00  0.00    -0.196 C  
HETATM    2  C   UNL     1      -9.183  15.238  66.280  1.00  0.00    -0.350 A  
HETATM    3  C   UNL     1      -9.842  16.353  65.729  1.00  0.00    -0.271 A  
HETATM    4  C   UNL     1     -10.991  16.170  64.962  1.00  0.00    -0.357 A  
HETATM    5  N   UNL     1     -10.963  13.817  65.439  1.00  0.00    -0.300 NA 
HETATM    6  C   UNL     1     -11.496  14.893  64.826  1.00  0.00    -0.410 A  
HETATM    7  C   UNL     1      -9.829  13.987  66.174  1.00  0.00    -0.303 A  
ENDROOT
BRANCH   3   8
HETATM    8  O   UNL     1      -9.438  17.665  65.801  1.00  0.00    -0.516 OA 
BRANCH   8   9
HETATM    9  C   UNL     1      -9.702  18.352  67.034  1.00  0.00    -0.310 C  
HETATM   10  C   UNL     1     -10.423  19.683  66.842  1.00  0.00    -0.488 C  
HETATM   11  F   UNL     1      -9.607  20.727  67.137  1.00  0.00    -0.556 F  
HETATM   12  F   UNL     1     -11.488  19.774  67.678  1.00  0.00    -0.323 F  
HETATM   13  F   UNL     1     -10.885  19.874  65.586  1.00  0.00    -0.580 F  
ENDBRANCH   8   9
ENDBRANCH   3   8
BRANCH   7  14
HETATM   14  C   UNL     1      -9.353  12.738  66.893  1.00  0.00    -0.234 C  
BRANCH  14  15
HETATM   15  S   UNL     1     -10.455  11.336  66.626  1.00  0.00    -0.256 S  
HETATM   16  O   UNL     1      -9.739  10.017  66.692  1.00  0.00    -0.177 OA 
BRANCH  15  17
HETATM   17  C   UNL     1     -11.434  11.413  68.059  1.00  0.00    -0.307 A  
HETATM   18  N   UNL     1     -11.909  10.382  68.725  1.00  0.00    -0.668 NA 
HETATM   19  C   UNL     1     -12.404  10.907  69.898  1.00  0.00    -0.285 A  
HETATM   20  H   UNL     1     -11.911   9.404  68.435  1.00  0.00     0.000 HD 
HETATM   21  C   UNL     1     -12.966  10.258  71.008  1.00  0.00    -0.488 A  
HETATM   22  C   UNL     1     -13.300  11.016  72.137  1.00  0.00    -0.285 A  
HETATM   23  C   UNL     1     -13.093  12.398  72.155  1.00  0.00    -0.419 A  
HETATM   24  C   UNL     1     -12.572  13.071  71.044  1.00  0.00    -0.386 A  
HETATM   25  C   UNL     1     -12.245  12.290  69.933  1.00  0.00    -0.163 A  
HETATM   26  N   UNL     1     -11.710  12.592  68.705  1.00  0.00    -0.312 NA 
ENDBRANCH  15  17
ENDBRANCH  14  15
ENDBRANCH   7  14
TORSDOF 5
ENDMDL
MODEL       19
REMARK 921   NORMALIZED FREE ENERGY PREDICTED BY IDOCK:   -6.84 KCAL/MOL
REMARK 922        TOTAL FREE ENERGY PREDICTED BY IDOCK:   -9.61 KCAL/MOL
REMARK 923 INTER-LIGAND FREE ENERGY PREDICTED BY IDOCK:   -8.50 KCAL/MOL
REMARK 924 INTRA-LIGAND FREE ENERGY PREDICTED BY IDOCK:   -1.11 KCAL/MOL
REMARK 927      BINDING AFFINITY PREDICTED BY RF-SCORE:    0.00 PKD
ROOT
HETATM    1  C   UNL     1     -12.012  11.291  69.070  1.00  0.00    -0.393 C  
HETATM    2  C   UNL     1     -11.221  10.990  67.832  1.00  0.00    -0.375 A  
HETATM    3  C   UNL     1     -10.575   9.755  67.641  1.00  0.00    -0.276 A  
HETATM    4  C   UNL     1     -10.021   9.447  66.400  1.00  0.00    -0.346 A  
HETATM    5  N   UNL     1     -10.557  11.643  65.589  1.00  0.00    -0.267 NA 
HETATM    6  C   UNL     1     -10.057  10.404  65.406  1.00  0.00    -0.284 A  
HETATM    7  C   UNL     1     -11.118  11.942  66.794  1.00  0.00    -0.308 A  
ENDROOT
BRANCH   3   8
HETATM    8  O   UNL     1     -10.473   8.731  68.552  1.00  0.00    -0.206 OA 
BRANCH   8   9
HETATM    9  C   UNL     1      -9.170   8.491  69.107  1.00  0.00    -0.150 C  
HETATM   10  C   UNL     1      -8.958   9.160  70.462  1.00  0.00    -0.232 C  
HETATM   11  F   UNL     1      -8.066  10.179  70.368  1.00  0.00    -0.190 F  
HETATM   12  F   UNL     1      -8.446   8.276  71.355  1.00  0.00    -0.106 F  
HETATM   13  F   UNL     1     -10.090   9.663  71.003  1.00  0.00    -0.340 F  
ENDBRANCH   8   9
ENDBRANCH   3   8
BRANCH   7  14
HETATM   14  C   UNL     1     -11.576  13.382  66.934  1.00  0.00    -0.365 C  
BRANCH  14  15
HETATM   15  S   UNL     1     -10.365  14.402  67.796  1.00  0.00    -0.239 S  
HETATM   16  O   UNL     1     -10.017  15.652  67.039  1.00  0.00    -0.234 OA 
BRANCH  15  17
HETATM   17  C   UNL     1     -11.296  14.925  69.166  1.00  0.00    -0.292 A  
HETATM   18  N   UNL     1     -12.610  14.906  69.259  1.00  0.00    -0.560 NA 
HETATM   19  C   UNL     1     -12.882  15.172  70.583  1.00  0.00    -0.388 A  
HETATM   20  H   UNL     1     -13.281  14.732  68.511  1.00  0.00     0.000 HD 
HETATM   21  C   UNL     1     -14.111  15.210  71.258  1.00  0.00    -0.537 A  
HETATM   22  C   UNL     1     -14.114  15.401  72.646  1.00  0.00    -0.519 A  
HETATM   23  C   UNL     1     -12.916  15.568  73.346  1.00  0.00    -0.673 A  
HETATM   24  C   UNL     1     -11.682  15.575  72.685  1.00  0.00    -0.564 A  
HETATM   25  C   UNL     1     -11.708  15.379  71.302  1.00  0.00    -0.380 A  
HETATM   26  N   UNL     1     -10.721  15.308  70.351  1.00  0.00    -0.274 NA 
ENDBRANCH  15  17
ENDBRANCH  14  15
ENDBRANCH   7  14
TORSDOF 5
ENDMDL
MODEL       20
REMARK 921   NORMALIZED FREE ENERGY PREDICTED BY IDOCK:   -6.82 KCAL/MOL
REMARK 922        TOTAL FREE ENERGY PREDICTED BY IDOCK:   -9.58 KCAL/MOL
REMARK 923 INTER-LIGAND FREE ENERGY PREDICTED BY IDOCK:   -8.91 KCAL/MOL
REMARK 924 INTRA-LIGAND FREE ENERGY PREDICTED BY IDOCK:   -0.66 KCAL/MOL
REMARK 927      BINDING AFFINITY PREDICTED BY RF-SCORE:    0.00 PKD
ROOT
HETATM    1  C   UNL     1     -10.257  15.696  69.711  1.00  0.00    -0.303 C  
HETATM    2  C   UNL     1     -10.223  15.556  68.218  1.00  0.00    -0.222 A  
HETATM    3  C   UNL     1     -10.418  16.655  67.361  1.00  0.00    -0.314 A  
HETATM    4  C   UNL     1     -10.183  16.518  65.994  1.00  0.00    -0.372 A  
HETATM    5  N   UNL     1      -9.757  14.172  66.278  1.00  0.00    -0.295 NA 
HETATM    6  C   UNL     1      -9.834  15.275  65.506  1.00  0.00    -0.326 A  
HETATM    7  C   UNL     1      -9.966  14.304  67.618  1.00  0.00    -0.225 A  
ENDROOT
BRANCH   3   8
HETATM    8  O   UNL     1     -10.767  17.933  67.729  1.00  0.00    -0.400 OA 
BRANCH   8   9
HETATM    9  C   UNL     1      -9.693  18.871  67.892  1.00  0.00    -0.327 C  
HETATM   10  C   UNL     1      -9.689  19.976  66.840  1.00  0.00    -0.425 C  
HETATM   11  F   UNL     1      -8.635  19.840  65.994  1.00  0.00    -0.348 F  
HETATM   12  F   UNL     1      -9.562  21.193  67.427  1.00  0.00    -0.595 F  
HETATM   13  F   UNL     1     -10.810  20.011  66.086  1.00  0.00    -0.533 F  
ENDBRANCH   8   9
ENDBRANCH   3   8
BRANCH   7  14
HETATM   14  C   UNL     1      -9.942  12.997  68.389  1.00  0.00    -0.216 C  
BRANCH  14  15
HETATM   15  S   UNL     1     -11.569  12.226  68.473  1.00  0.00    -0.328 S  
HETATM   16  O   UNL     1     -11.996  11.632  67.161  1.00  0.00    -0.614 OA 
BRANCH  15  17
HETATM   17  C   UNL     1     -11.235  10.876  69.514  1.00  0.00    -0.277 A  
HETATM   18  N   UNL     1     -10.040  10.440  69.853  1.00  0.00    -0.421 NA 
HETATM   19  C   UNL     1     -10.261   9.531  70.864  1.00  0.00    -0.286 A  
HETATM   20  H   UNL     1      -9.143  10.716  69.454  1.00  0.00     0.000 HD 
HETATM   21  C   UNL     1      -9.342   8.808  71.641  1.00  0.00    -0.345 A  
HETATM   22  C   UNL     1      -9.822   8.016  72.692  1.00  0.00    -0.347 A  
HETATM   23  C   UNL     1     -11.192   7.932  72.955  1.00  0.00    -0.429 A  
HETATM   24  C   UNL     1     -12.127   8.611  72.166  1.00  0.00    -0.451 A  
HETATM   25  C   UNL     1     -11.621   9.396  71.127  1.00  0.00    -0.345 A  
HETATM   26  N   UNL     1     -12.220  10.196  70.185  1.00  0.00    -0.172 NA 
ENDBRANCH  15  17
ENDBRANCH  14  15
ENDBRANCH   7  14
TORSDOF 5
ENDMDL
MODEL       21
REMARK 921   NORMALIZED FREE ENERGY PREDICTED BY IDOCK:   -6.78 KCAL/MOL
REMARK 922        TOTAL FREE ENERGY PREDICTED BY IDOCK:   -9.54 KCAL/MOL
REMARK 923 INTER-LIGAND FREE ENERGY PREDICTED BY IDOCK:   -8.77 KCAL/MOL
REMARK 924 INTRA-LIGAND FREE ENERGY PREDICTED BY IDOCK:   -0.76 KCAL/MOL
REMARK 927      BINDING AFFINITY PREDICTED BY RF-SCORE:    0.00 PKD
ROOT
HETATM    1  C   UNL     1      -9.857  10.899  65.913  1.00  0.00    -0.285 C  
HETATM    2  C   UNL     1     -10.485  10.711  67.263  1.00  0.00    -0.293 A  
HETATM    3  C   UNL     1     -10.355   9.511  67.987  1.00  0.00    -0.214 A  
HETATM    4  C   UNL     1     -10.784   9.451  69.311  1.00  0.00    -0.228 A  
HETATM    5  N   UNL     1     -11.652  11.684  69.157  1.00  0.00    -0.285 NA 
HETATM    6  C   UNL     1     -11.399  10.560  69.856  1.00  0.00    -0.309 A  
HETATM    7  C   UNL     1     -11.217  11.756  67.868  1.00  0.00    -0.267 A  
ENDROOT
BRANCH   3   8
HETATM    8  O   UNL     1      -9.767   8.348  67.551  1.00  0.00    -0.148 OA 
BRANCH   8   9
HETATM    9  C   UNL     1      -9.754   7.248  68.474  1.00  0.00    -0.149 C  
HETATM   10  C   UNL     1     -10.871   6.238  68.225  1.00  0.00    -0.319 C  
HETATM   11  F   UNL     1     -11.792   6.276  69.222  1.00  0.00    -0.445 F  
HETATM   12  F   UNL     1     -10.374   4.975  68.203  1.00  0.00    -0.219 F  
HETATM   13  F   UNL     1     -11.527   6.429  67.060  1.00  0.00    -0.416 F  
ENDBRANCH   8   9
ENDBRANCH   3   8
BRANCH   7  14
HETATM   14  C   UNL     1     -11.622  13.023  67.138  1.00  0.00    -0.358 C  
BRANCH  14  15
HETATM   15  S   UNL     1     -10.652  14.451  67.661  1.00  0.00    -0.262 S  
HETATM   16  O   UNL     1     -10.717  15.585  66.678  1.00  0.00    -0.306 OA 
BRANCH  15  17
HETATM   17  C   UNL     1     -11.563  14.974  69.044  1.00  0.00    -0.319 A  
HETATM   18  N   UNL     1     -12.778  14.579  69.362  1.00  0.00    -0.507 NA 
HETATM   19  C   UNL     1     -12.990  15.055  70.638  1.00  0.00    -0.345 A  
HETATM   20  H   UNL     1     -13.424  14.038  68.788  1.00  0.00     0.000 HD 
HETATM   21  C   UNL     1     -14.087  14.876  71.494  1.00  0.00    -0.593 A  
HETATM   22  C   UNL     1     -14.014  15.380  72.799  1.00  0.00    -0.519 A  
HETATM   23  C   UNL     1     -12.877  16.063  73.239  1.00  0.00    -0.649 A  
HETATM   24  C   UNL     1     -11.789  16.288  72.387  1.00  0.00    -0.606 A  
HETATM   25  C   UNL     1     -11.887  15.772  71.092  1.00  0.00    -0.425 A  
HETATM   26  N   UNL     1     -11.032  15.782  70.018  1.00  0.00    -0.308 NA 
ENDBRANCH  15  17
ENDBRANCH  14  15
ENDBRANCH   7  14
TORSDOF 5
ENDMDL
MODEL       22
REMARK 921   NORMALIZED FREE ENERGY PREDICTED BY IDOCK:   -6.77 KCAL/MOL
REMARK 922        TOTAL FREE ENERGY PREDICTED BY IDOCK:   -9.52 KCAL/MOL
REMARK 923 INTER-LIGAND FREE ENERGY PREDICTED BY IDOCK:   -8.59 KCAL/MOL
REMARK 924 INTRA-LIGAND FREE ENERGY PREDICTED BY IDOCK:   -0.93 KCAL/MOL
REMARK 927      BINDING AFFINITY PREDICTED BY RF-SCORE:    0.00 PKD
ROOT
HETATM    1  C   UNL     1     -11.465  11.451  67.564  1.00  0.00    -0.336 C  
HETATM    2  C   UNL     1     -11.136  11.787  66.140  1.00  0.00    -0.358 A  
HETATM    3  C   UNL     1     -10.428  10.900  65.307  1.00  0.00    -0.230 A  
HETATM    4  C   UNL     1     -10.317  11.168  63.944  1.00  0.00    -0.441 A  
HETATM    5  N   UNL     1     -11.425  13.277  64.244  1.00  0.00    -0.379 NA 
HETATM    6  C   UNL     1     -10.848  12.346  63.459  1.00  0.00    -0.438 A  
HETATM    7  C   UNL     1     -11.553  13.012  65.574  1.00  0.00    -0.347 A  
ENDROOT
BRANCH   3   8
HETATM    8  O   UNL     1      -9.856   9.706  65.677  1.00  0.00    -0.290 OA 
BRANCH   8   9
HETATM    9  C   UNL     1      -8.448   9.565  65.434  1.00  0.00    -0.148 C  
HETATM   10  C   UNL     1      -7.581  10.166  66.538  1.00  0.00    -0.109 C  
HETATM   11  F   UNL     1      -6.931  11.273  66.098  1.00  0.00    -0.125 F  
HETATM   12  F   UNL     1      -6.627   9.283  66.927  1.00  0.00    -0.064 F  
HETATM   13  F   UNL     1      -8.275  10.517  67.643  1.00  0.00    -0.109 F  
ENDBRANCH   8   9
ENDBRANCH   3   8
BRANCH   7  14
HETATM   14  C   UNL     1     -12.137  14.152  66.388  1.00  0.00    -0.451 C  
BRANCH  14  15
HETATM   15  S   UNL     1     -10.876  15.035  67.327  1.00  0.00    -0.316 S  
HETATM   16  O   UNL     1     -10.656  16.434  66.826  1.00  0.00    -0.299 OA 
BRANCH  15  17
HETATM   17  C   UNL     1     -11.671  15.203  68.862  1.00  0.00    -0.333 A  
HETATM   18  N   UNL     1     -12.545  14.362  69.375  1.00  0.00    -0.532 NA 
HETATM   19  C   UNL     1     -12.712  14.767  70.680  1.00  0.00    -0.358 A  
HETATM   20  H   UNL     1     -12.999  13.579  68.906  1.00  0.00     0.000 HD 
HETATM   21  C   UNL     1     -13.477  14.195  71.709  1.00  0.00    -0.471 A  
HETATM   22  C   UNL     1     -13.396  14.743  72.995  1.00  0.00    -0.543 A  
HETATM   23  C   UNL     1     -12.582  15.851  73.250  1.00  0.00    -0.640 A  
HETATM   24  C   UNL     1     -11.844  16.461  72.229  1.00  0.00    -0.531 A  
HETATM   25  C   UNL     1     -11.940  15.892  70.957  1.00  0.00    -0.412 A  
HETATM   26  N   UNL     1     -11.361  16.201  69.751  1.00  0.00    -0.335 NA 
ENDBRANCH  15  17
ENDBRANCH  14  15
ENDBRANCH   7  14
TORSDOF 5
ENDMDL
MODEL       23
REMARK 921   NORMALIZED FREE ENERGY PREDICTED BY IDOCK:   -6.77 KCAL/MOL
REMARK 922        TOTAL FREE ENERGY PREDICTED BY IDOCK:   -9.52 KCAL/MOL
REMARK 923 INTER-LIGAND FREE ENERGY PREDICTED BY IDOCK:   -8.87 KCAL/MOL
REMARK 924 INTRA-LIGAND FREE ENERGY PREDICTED BY IDOCK:   -0.64 KCAL/MOL
REMARK 927      BINDING AFFINITY PREDICTED BY RF-SCORE:    0.00 PKD
ROOT
HETATM    1  C   UNL     1     -11.575  15.555  68.283  1.00  0.00    -0.344 C  
HETATM    2  C   UNL     1     -11.655  14.078  68.532  1.00  0.00    -0.357 A  
HETATM    3  C   UNL     1     -11.772  13.544  69.828  1.00  0.00    -0.295 A  
HETATM    4  C   UNL     1     -12.040  12.187  69.998  1.00  0.00    -0.352 A  
HETATM    5  N   UNL     1     -11.881  11.835  67.628  1.00  0.00    -0.603 NA 
HETATM    6  C   UNL     1     -12.109  11.384  68.877  1.00  0.00    -0.219 A  
HETATM    7  C   UNL     1     -11.638  13.165  67.455  1.00  0.00    -0.356 A  
ENDROOT
BRANCH   3   8
HETATM    8  O   UNL     1     -11.718  14.240  71.012  1.00  0.00    -0.276 OA 
BRANCH   8   9
HETATM    9  C   UNL     1     -12.880  14.173  71.852  1.00  0.00    -0.341 C  
HETATM   10  C   UNL     1     -12.961  15.312  72.864  1.00  0.00    -0.463 C  
HETATM   11  F   UNL     1     -12.766  14.857  74.128  1.00  0.00    -0.583 F  
HETATM   12  F   UNL     1     -14.193  15.882  72.842  1.00  0.00    -0.657 F  
HETATM   13  F   UNL     1     -12.062  16.297  72.647  1.00  0.00    -0.495 F  
ENDBRANCH   8   9
ENDBRANCH   3   8
BRANCH   7  14
HETATM   14  C   UNL     1     -11.310  13.562  66.027  1.00  0.00    -0.312 C  
BRANCH  14  15
HETATM   15  S   UNL     1     -12.195  12.558  64.819  1.00  0.00    -0.453 S  
HETATM   16  O   UNL     1     -12.730  13.370  63.674  1.00  0.00    -0.698 OA 
BRANCH  15  17
HETATM   17  C   UNL     1     -10.891  11.617  64.162  1.00  0.00    -0.372 A  
HETATM   18  N   UNL     1     -10.068  12.000  63.208  1.00  0.00    -0.485 NA 
HETATM   19  C   UNL     1      -9.071  11.049  63.190  1.00  0.00    -0.258 A  
HETATM   20  H   UNL     1     -10.151  12.822  62.611  1.00  0.00     0.000 HD 
HETATM   21  C   UNL     1      -7.900  10.988  62.418  1.00  0.00    -0.129 A  
HETATM   22  C   UNL     1      -6.981   9.960  62.664  1.00  0.00    -0.116 A  
HETATM   23  C   UNL     1      -7.231   9.001  63.650  1.00  0.00    -0.093 A  
HETATM   24  C   UNL     1      -8.411   9.020  64.402  1.00  0.00    -0.190 A  
HETATM   25  C   UNL     1      -9.308  10.058  64.138  1.00  0.00    -0.280 A  
HETATM   26  N   UNL     1     -10.524  10.399  64.675  1.00  0.00    -0.149 NA 
ENDBRANCH  15  17
ENDBRANCH  14  15
ENDBRANCH   7  14
TORSDOF 5
ENDMDL
MODEL       24
REMARK 921   NORMALIZED FREE ENERGY PREDICTED BY IDOCK:   -6.76 KCAL/MOL
REMARK 922        TOTAL FREE ENERGY PREDICTED BY IDOCK:   -9.50 KCAL/MOL
REMARK 923 INTER-LIGAND FREE ENERGY PREDICTED BY IDOCK:   -8.75 KCAL/MOL
REMARK 924 INTRA-LIGAND FREE ENERGY PREDICTED BY IDOCK:   -0.75 KCAL/MOL
REMARK 927      BINDING AFFINITY PREDICTED BY RF-SCORE:    0.00 PKD
ROOT
HETATM    1  C   UNL     1     -11.314  11.380  68.239  1.00  0.00    -0.354 C  
HETATM    2  C   UNL     1     -10.880  11.441  66.804  1.00  0.00    -0.336 A  
HETATM    3  C   UNL     1     -10.068  10.448  66.227  1.00  0.00    -0.231 A  
HETATM    4  C   UNL     1      -9.855  10.441  64.850  1.00  0.00    -0.400 A  
HETATM    5  N   UNL     1     -11.071  12.499  64.627  1.00  0.00    -0.293 NA 
HETATM    6  C   UNL     1     -10.391  11.464  64.095  1.00  0.00    -0.344 A  
HETATM    7  C   UNL     1     -11.299  12.501  65.970  1.00  0.00    -0.344 A  
ENDROOT
BRANCH   3   8
HETATM    8  O   UNL     1      -9.480   9.388  66.875  1.00  0.00    -0.144 OA 
BRANCH   8   9
HETATM    9  C   UNL     1      -9.793   8.077  66.379  1.00  0.00    -0.167 C  
HETATM   10  C   UNL     1     -10.466   7.183  67.416  1.00  0.00    -0.284 C  
HETATM   11  F   UNL     1      -9.639   6.178  67.803  1.00  0.00    -0.117 F  
HETATM   12  F   UNL     1     -11.573   6.596  66.893  1.00  0.00    -0.429 F  
HETATM   13  F   UNL     1     -10.852   7.841  68.532  1.00  0.00    -0.201 F  
ENDBRANCH   8   9
ENDBRANCH   3   8
BRANCH   7  14
HETATM   14  C   UNL     1     -11.996  13.746  66.487  1.00  0.00    -0.434 C  
BRANCH  14  15
HETATM   15  S   UNL     1     -10.854  14.876  67.306  1.00  0.00    -0.314 S  
HETATM   16  O   UNL     1     -10.817  16.230  66.656  1.00  0.00    -0.247 OA 
BRANCH  15  17
HETATM   17  C   UNL     1     -11.659  15.105  68.828  1.00  0.00    -0.349 A  
HETATM   18  N   UNL     1     -12.639  14.365  69.302  1.00  0.00    -0.522 NA 
HETATM   19  C   UNL     1     -12.786  14.758  70.614  1.00  0.00    -0.343 A  
HETATM   20  H   UNL     1     -13.174  13.653  68.805  1.00  0.00     0.000 HD 
HETATM   21  C   UNL     1     -13.638  14.261  71.612  1.00  0.00    -0.461 A  
HETATM   22  C   UNL     1     -13.522  14.766  72.913  1.00  0.00    -0.541 A  
HETATM   23  C   UNL     1     -12.586  15.761  73.212  1.00  0.00    -0.627 A  
HETATM   24  C   UNL     1     -11.757  16.301  72.222  1.00  0.00    -0.530 A  
HETATM   25  C   UNL     1     -11.891  15.775  70.934  1.00  0.00    -0.414 A  
HETATM   26  N   UNL     1     -11.252  16.038  69.748  1.00  0.00    -0.324 NA 
ENDBRANCH  15  17
ENDBRANCH  14  15
ENDBRANCH   7  14
TORSDOF 5
ENDMDL
MODEL       25
REMARK 921   NORMALIZED FREE ENERGY PREDICTED BY IDOCK:   -6.76 KCAL/MOL
REMARK 922        TOTAL FREE ENERGY PREDICTED BY IDOCK:   -9.50 KCAL/MOL
REMARK 923 INTER-LIGAND FREE ENERGY PREDICTED BY IDOCK:   -8.79 KCAL/MOL
REMARK 924 INTRA-LIGAND FREE ENERGY PREDICTED BY IDOCK:   -0.71 KCAL/MOL
REMARK 927      BINDING AFFINITY PREDICTED BY RF-SCORE:    0.00 PKD
ROOT
HETATM    1  C   UNL     1     -11.469  10.685  68.700  1.00  0.00    -0.332 C  
HETATM    2  C   UNL     1     -12.152  11.458  69.789  1.00  0.00    -0.388 A  
HETATM    3  C   UNL     1     -12.795  10.823  70.867  1.00  0.00    -0.351 A  
HETATM    4  C   UNL     1     -13.241  11.576  71.951  1.00  0.00    -0.479 A  
HETATM    5  N   UNL     1     -12.607  13.604  70.831  1.00  0.00    -0.353 NA 
HETATM    6  C   UNL     1     -13.105  12.949  71.899  1.00  0.00    -0.373 A  
HETATM    7  C   UNL     1     -12.151  12.870  69.778  1.00  0.00    -0.245 A  
ENDROOT
BRANCH   3   8
HETATM    8  O   UNL     1     -12.990   9.471  71.026  1.00  0.00    -0.294 OA 
BRANCH   8   9
HETATM    9  C   UNL     1     -12.684   8.925  72.318  1.00  0.00    -0.397 C  
HETATM   10  C   UNL     1     -11.557   7.897  72.288  1.00  0.00    -0.350 C  
HETATM   11  F   UNL     1     -12.028   6.649  72.542  1.00  0.00    -0.288 F  
HETATM   12  F   UNL     1     -10.638   8.169  73.250  1.00  0.00    -0.393 F  
HETATM   13  F   UNL     1     -10.898   7.847  71.109  1.00  0.00    -0.226 F  
ENDBRANCH   8   9
ENDBRANCH   3   8
BRANCH   7  14
HETATM   14  C   UNL     1     -11.689  13.696  68.591  1.00  0.00    -0.354 C  
BRANCH  14  15
HETATM   15  S   UNL     1     -10.025  14.351  68.823  1.00  0.00    -0.192 S  
HETATM   16  O   UNL     1      -9.037  13.777  67.847  1.00  0.00    -0.177 OA 
BRANCH  15  17
HETATM   17  C   UNL     1     -10.256  16.004  68.343  1.00  0.00    -0.236 A  
HETATM   18  N   UNL     1     -10.044  17.063  69.096  1.00  0.00    -0.280 NA 
HETATM   19  C   UNL     1     -10.120  18.137  68.237  1.00  0.00    -0.386 A  
HETATM   20  H   UNL     1      -9.863  17.083  70.099  1.00  0.00     0.000 HD 
HETATM   21  C   UNL     1      -9.910  19.503  68.484  1.00  0.00    -0.518 A  
HETATM   22  C   UNL     1      -9.943  20.397  67.407  1.00  0.00    -0.556 A  
HETATM   23  C   UNL     1     -10.196  19.943  66.109  1.00  0.00    -0.611 A  
HETATM   24  C   UNL     1     -10.449  18.591  65.848  1.00  0.00    -0.379 A  
HETATM   25  C   UNL     1     -10.407  17.721  66.940  1.00  0.00    -0.344 A  
HETATM   26  N   UNL     1     -10.581  16.365  67.059  1.00  0.00    -0.292 NA 
ENDBRANCH  15  17
ENDBRANCH  14  15
ENDBRANCH   7  14
TORSDOF 5
ENDMDL
MODEL       26
REMARK 921   NORMALIZED FREE ENERGY PREDICTED BY IDOCK:   -6.74 KCAL/MOL
REMARK 922        TOTAL FREE ENERGY PREDICTED BY IDOCK:   -9.47 KCAL/MOL
REMARK 923 INTER-LIGAND FREE ENERGY PREDICTED BY IDOCK:   -8.35 KCAL/MOL
REMARK 924 INTRA-LIGAND FREE ENERGY PREDICTED BY IDOCK:   -1.13 KCAL/MOL
REMARK 927      BINDING AFFINITY PREDICTED BY RF-SCORE:    0.00 PKD
ROOT
HETATM    1  C   UNL     1     -12.019  14.546  67.691  1.00  0.00    -0.355 C  
HETATM    2  C   UNL     1     -12.012  13.431  68.693  1.00  0.00    -0.362 A  
HETATM    3  C   UNL     1     -12.361  13.635  70.041  1.00  0.00    -0.278 A  
HETATM    4  C   UNL     1     -12.531  12.542  70.887  1.00  0.00    -0.361 A  
HETATM    5  N   UNL     1     -11.821  11.052  69.143  1.00  0.00    -0.325 NA 
HETATM    6  C   UNL     1     -12.275  11.279  70.392  1.00  0.00    -0.365 A  
HETATM    7  C   UNL     1     -11.672  12.116  68.305  1.00  0.00    -0.342 A  
ENDROOT
BRANCH   3   8
HETATM    8  O   UNL     1     -12.635  14.839  70.645  1.00  0.00    -0.318 OA 
BRANCH   8   9
HETATM    9  C   UNL     1     -13.465  14.798  71.816  1.00  0.00    -0.380 C  
HETATM   10  C   UNL     1     -12.908  15.612  72.981  1.00  0.00    -0.490 C  
HETATM   11  F   UNL     1     -12.492  14.800  73.987  1.00  0.00    -0.617 F  
HETATM   12  F   UNL     1     -13.869  16.416  73.502  1.00  0.00    -0.604 F  
HETATM   13  F   UNL     1     -11.866  16.402  72.642  1.00  0.00    -0.540 F  
ENDBRANCH   8   9
ENDBRANCH   3   8
BRANCH   7  14
HETATM   14  C   UNL     1     -11.077  11.772  66.953  1.00  0.00    -0.307 C  
BRANCH  14  15
HETATM   15  S   UNL     1      -9.286  11.574  67.027  1.00  0.00    -0.181 S  
HETATM   16  O   UNL     1      -8.711  11.034  65.748  1.00  0.00    -0.186 OA 
BRANCH  15  17
HETATM   17  C   UNL     1      -8.779  13.234  67.108  1.00  0.00    -0.212 A  
HETATM   18  N   UNL     1      -8.915  14.130  66.152  1.00  0.00    -0.471 NA 
HETATM   19  C   UNL     1      -8.604  15.335  66.741  1.00  0.00    -0.265 A  
HETATM   20  H   UNL     1      -9.191  13.966  65.184  1.00  0.00     0.000 HD 
HETATM   21  C   UNL     1      -8.644  16.633  66.209  1.00  0.00    -0.359 A  
HETATM   22  C   UNL     1      -8.378  17.718  67.055  1.00  0.00    -0.242 A  
HETATM   23  C   UNL     1      -8.063  17.514  68.401  1.00  0.00    -0.266 A  
HETATM   24  C   UNL     1      -7.977  16.226  68.941  1.00  0.00    -0.230 A  
HETATM   25  C   UNL     1      -8.250  15.162  68.077  1.00  0.00    -0.142 A  
HETATM   26  N   UNL     1      -8.280  13.801  68.253  1.00  0.00    -0.150 NA 
ENDBRANCH  15  17
ENDBRANCH  14  15
ENDBRANCH   7  14
TORSDOF 5
ENDMDL
MODEL       27
REMARK 921   NORMALIZED FREE ENERGY PREDICTED BY IDOCK:   -6.72 KCAL/MOL
REMARK 922        TOTAL FREE ENERGY PREDICTED BY IDOCK:   -9.45 KCAL/MOL
REMARK 923 INTER-LIGAND FREE ENERGY PREDICTED BY IDOCK:   -8.66 KCAL/MOL
REMARK 924 INTRA-LIGAND FREE ENERGY PREDICTED BY IDOCK:   -0.79 KCAL/MOL
REMARK 927      BINDING AFFINITY PREDICTED BY RF-SCORE:    0.00 PKD
ROOT
HETATM    1  C   UNL     1     -12.151  14.026  69.171  1.00  0.00    -0.375 C  
HETATM    2  C   UNL     1     -11.698  13.077  68.100  1.00  0.00    -0.391 A  
HETATM    3  C   UNL     1     -11.160  11.812  68.401  1.00  0.00    -0.237 A  
HETATM    4  C   UNL     1     -10.937  10.892  67.379  1.00  0.00    -0.353 A  
HETATM    5  N   UNL     1     -11.584  12.522  65.739  1.00  0.00    -0.372 NA 
HETATM    6  C   UNL     1     -11.185  11.280  66.078  1.00  0.00    -0.041 A  
HETATM    7  C   UNL     1     -11.822  13.420  66.736  1.00  0.00    -0.403 A  
ENDROOT
BRANCH   3   8
HETATM    8  O   UNL     1     -10.871  11.319  69.651  1.00  0.00    -0.201 OA 
BRANCH   8   9
HETATM    9  C   UNL     1     -11.556  10.120  70.043  1.00  0.00    -0.253 C  
HETATM   10  C   UNL     1     -12.542  10.334  71.188  1.00  0.00    -0.400 C  
HETATM   11  F   UNL     1     -12.105   9.735  72.326  1.00  0.00    -0.378 F  
HETATM   12  F   UNL     1     -13.744   9.778  70.892  1.00  0.00    -0.418 F  
HETATM   13  F   UNL     1     -12.764  11.635  71.477  1.00  0.00    -0.458 F  
ENDBRANCH   8   9
ENDBRANCH   3   8
BRANCH   7  14
HETATM   14  C   UNL     1     -12.183  14.813  66.254  1.00  0.00    -0.019 C  
BRANCH  14  15
HETATM   15  S   UNL     1     -11.092  15.383  64.937  1.00  0.00    -0.386 S  
HETATM   16  O   UNL     1     -11.828  16.119  63.854  1.00  0.00    -0.921 OA 
BRANCH  15  17
HETATM   17  C   UNL     1     -10.167  16.588  65.780  1.00  0.00    -0.329 A  
HETATM   18  N   UNL     1      -8.904  16.482  66.136  1.00  0.00    -0.398 NA 
HETATM   19  C   UNL     1      -8.538  17.745  66.546  1.00  0.00    -0.257 A  
HETATM   20  H   UNL     1      -8.322  15.645  66.114  1.00  0.00     0.000 HD 
HETATM   21  C   UNL     1      -7.289  18.227  66.967  1.00  0.00    -0.225 A  
HETATM   22  C   UNL     1      -7.148  19.595  67.234  1.00  0.00    -0.237 A  
HETATM   23  C   UNL     1      -8.233  20.465  67.099  1.00  0.00    -0.374 A  
HETATM   24  C   UNL     1      -9.497  19.997  66.721  1.00  0.00    -0.530 A  
HETATM   25  C   UNL     1      -9.609  18.630  66.458  1.00  0.00    -0.337 A  
HETATM   26  N   UNL     1     -10.658  17.840  66.056  1.00  0.00    -0.365 NA 
ENDBRANCH  15  17
ENDBRANCH  14  15
ENDBRANCH   7  14
TORSDOF 5
ENDMDL
MODEL       28
REMARK 921   NORMALIZED FREE ENERGY PREDICTED BY IDOCK:   -6.71 KCAL/MOL
REMARK 922        TOTAL FREE ENERGY PREDICTED BY IDOCK:   -9.45 KCAL/MOL
REMARK 923 INTER-LIGAND FREE ENERGY PREDICTED BY IDOCK:   -8.42 KCAL/MOL
REMARK 924 INTRA-LIGAND FREE ENERGY PREDICTED BY IDOCK:   -1.02 KCAL/MOL
REMARK 927      BINDING AFFINITY PREDICTED BY RF-SCORE:    0.00 PKD
ROOT
HETATM    1  C   UNL     1     -12.118  15.058  69.078  1.00  0.00    -0.243 C  
HETATM    2  C   UNL     1     -12.399  13.986  70.088  1.00  0.00    -0.409 A  
HETATM    3  C   UNL     1     -13.202  14.219  71.221  1.00  0.00    -0.343 A  
HETATM    4  C   UNL     1     -13.597  13.150  72.022  1.00  0.00    -0.554 A  
HETATM    5  N   UNL     1     -12.255  11.645  70.719  1.00  0.00    -0.375 NA 
HETATM    6  C   UNL     1     -13.123  11.890  71.721  1.00  0.00    -0.360 A  
HETATM    7  C   UNL     1     -11.881  12.683  69.920  1.00  0.00    -0.294 A  
ENDROOT
BRANCH   3   8
HETATM    8  O   UNL     1     -13.728  15.424  71.621  1.00  0.00    -0.460 OA 
BRANCH   8   9
HETATM    9  C   UNL     1     -13.737  15.685  73.033  1.00  0.00    -0.476 C  
HETATM   10  C   UNL     1     -12.379  16.124  73.575  1.00  0.00    -0.559 C  
HETATM   11  F   UNL     1     -11.838  15.164  74.369  1.00  0.00    -0.623 F  
HETATM   12  F   UNL     1     -12.509  17.236  74.342  1.00  0.00    -0.269 F  
HETATM   13  F   UNL     1     -11.475  16.407  72.611  1.00  0.00    -0.507 F  
ENDBRANCH   8   9
ENDBRANCH   3   8
BRANCH   7  14
HETATM   14  C   UNL     1     -10.839  12.328  68.875  1.00  0.00    -0.196 C  
BRANCH  14  15
HETATM   15  S   UNL     1     -11.530  11.349  67.528  1.00  0.00    -0.210 S  
HETATM   16  O   UNL     1     -10.921  11.687  66.196  1.00  0.00    -0.284 OA 
BRANCH  15  17
HETATM   17  C   UNL     1     -10.930   9.770  67.932  1.00  0.00    -0.188 A  
HETATM   18  N   UNL     1     -11.048   9.176  69.102  1.00  0.00    -0.440 NA 
HETATM   19  C   UNL     1     -10.653   7.874  68.887  1.00  0.00    -0.145 A  
HETATM   20  H   UNL     1     -11.363   9.591  69.978  1.00  0.00     0.000 HD 
HETATM   21  C   UNL     1     -10.639   6.781  69.767  1.00  0.00    -0.263 A  
HETATM   22  C   UNL     1     -10.288   5.519  69.271  1.00  0.00    -0.335 A  
HETATM   23  C   UNL     1      -9.941   5.351  67.927  1.00  0.00    -0.202 A  
HETATM   24  C   UNL     1      -9.908   6.436  67.043  1.00  0.00    -0.194 A  
HETATM   25  C   UNL     1     -10.266   7.682  67.563  1.00  0.00    -0.227 A  
HETATM   26  N   UNL     1     -10.365   8.932  67.005  1.00  0.00    -0.268 NA 
ENDBRANCH  15  17
ENDBRANCH  14  15
ENDBRANCH   7  14
TORSDOF 5
ENDMDL
MODEL       29
REMARK 921   NORMALIZED FREE ENERGY PREDICTED BY IDOCK:   -6.66 KCAL/MOL
REMARK 922        TOTAL FREE ENERGY PREDICTED BY IDOCK:   -9.37 KCAL/MOL
REMARK 923 INTER-LIGAND FREE ENERGY PREDICTED BY IDOCK:   -8.20 KCAL/MOL
REMARK 924 INTRA-LIGAND FREE ENERGY PREDICTED BY IDOCK:   -1.18 KCAL/MOL
REMARK 927      BINDING AFFINITY PREDICTED BY RF-SCORE:    0.00 PKD
ROOT
HETATM    1  C   UNL     1     -11.945  12.622  65.996  1.00  0.00    -0.478 C  
HETATM    2  C   UNL     1     -10.568  12.807  66.562  1.00  0.00    -0.270 A  
HETATM    3  C   UNL     1      -9.743  11.716  66.891  1.00  0.00    -0.195 A  
HETATM    4  C   UNL     1      -8.407  11.933  67.225  1.00  0.00    -0.169 A  
HETATM    5  N   UNL     1      -8.739  14.308  67.108  1.00  0.00    -0.219 NA 
HETATM    6  C   UNL     1      -7.949  13.233  67.297  1.00  0.00    -0.125 A  
HETATM    7  C   UNL     1     -10.040  14.102  66.762  1.00  0.00    -0.262 A  
ENDROOT
BRANCH   3   8
HETATM    8  O   UNL     1     -10.088  10.386  66.860  1.00  0.00    -0.201 OA 
BRANCH   8   9
HETATM    9  C   UNL     1      -9.806   9.621  68.042  1.00  0.00    -0.150 C  
HETATM   10  C   UNL     1     -10.821   9.842  69.161  1.00  0.00    -0.207 C  
HETATM   11  F   UNL     1     -10.263  10.517  70.198  1.00  0.00    -0.266 F  
HETATM   12  F   UNL     1     -11.250   8.653  69.656  1.00  0.00    -0.205 F  
HETATM   13  F   UNL     1     -11.916  10.531  68.773  1.00  0.00    -0.313 F  
ENDBRANCH   8   9
ENDBRANCH   3   8
BRANCH   7  14
HETATM   14  C   UNL     1     -10.870  15.368  66.654  1.00  0.00    -0.302 C  
BRANCH  14  15
HETATM   15  S   UNL     1     -10.371  16.614  67.858  1.00  0.00    -0.322 S  
HETATM   16  O   UNL     1     -10.813  17.998  67.475  1.00  0.00    -0.379 OA 
BRANCH  15  17
HETATM   17  C   UNL     1     -11.356  16.165  69.218  1.00  0.00    -0.328 A  
HETATM   18  N   UNL     1     -12.357  15.311  69.196  1.00  0.00    -0.603 NA 
HETATM   19  C   UNL     1     -12.671  15.091  70.520  1.00  0.00    -0.357 A  
HETATM   20  H   UNL     1     -12.805  14.901  68.377  1.00  0.00     0.000 HD 
HETATM   21  C   UNL     1     -13.615  14.221  71.087  1.00  0.00    -0.300 A  
HETATM   22  C   UNL     1     -13.669  14.100  72.482  1.00  0.00    -0.626 A  
HETATM   23  C   UNL     1     -12.811  14.844  73.297  1.00  0.00    -0.646 A  
HETATM   24  C   UNL     1     -11.892  15.748  72.752  1.00  0.00    -0.584 A  
HETATM   25  C   UNL     1     -11.856  15.845  71.359  1.00  0.00    -0.463 A  
HETATM   26  N   UNL     1     -11.092  16.591  70.495  1.00  0.00    -0.226 NA 
ENDBRANCH  15  17
ENDBRANCH  14  15
ENDBRANCH   7  14
TORSDOF 5
ENDMDL
MODEL       30
REMARK 921   NORMALIZED FREE ENERGY PREDICTED BY IDOCK:   -6.65 KCAL/MOL
REMARK 922        TOTAL FREE ENERGY PREDICTED BY IDOCK:   -9.37 KCAL/MOL
REMARK 923 INTER-LIGAND FREE ENERGY PREDICTED BY IDOCK:   -8.66 KCAL/MOL
REMARK 924 INTRA-LIGAND FREE ENERGY PREDICTED BY IDOCK:   -0.71 KCAL/MOL
REMARK 927      BINDING AFFINITY PREDICTED BY RF-SCORE:    0.00 PKD
ROOT
HETATM    1  C   UNL     1     -10.862  10.387  67.155  1.00  0.00    -0.301 C  
HETATM    2  C   UNL     1     -11.211  11.516  68.079  1.00  0.00    -0.335 A  
HETATM    3  C   UNL     1     -11.461  12.818  67.607  1.00  0.00    -0.334 A  
HETATM    4  C   UNL     1     -11.973  13.783  68.472  1.00  0.00    -0.402 A  
HETATM    5  N   UNL     1     -11.807  12.253  70.315  1.00  0.00    -0.294 NA 
HETATM    6  C   UNL     1     -12.150  13.450  69.800  1.00  0.00    -0.310 A  
HETATM    7  C   UNL     1     -11.325  11.299  69.470  1.00  0.00    -0.294 A  
ENDROOT
BRANCH   3   8
HETATM    8  O   UNL     1     -11.319  13.265  66.315  1.00  0.00    -0.295 OA 
BRANCH   8   9
HETATM    9  C   UNL     1     -12.506  13.285  65.507  1.00  0.00    -0.474 C  
HETATM   10  C   UNL     1     -12.326  12.608  64.151  1.00  0.00    -0.436 C  
HETATM   11  F   UNL     1     -12.355  13.519  63.145  1.00  0.00    -0.600 F  
HETATM   12  F   UNL     1     -13.338  11.736  63.916  1.00  0.00    -0.500 F  
HETATM   13  F   UNL     1     -11.169  11.918  64.038  1.00  0.00    -0.349 F  
ENDBRANCH   8   9
ENDBRANCH   3   8
BRANCH   7  14
HETATM   14  C   UNL     1     -10.888  10.017  70.154  1.00  0.00    -0.311 C  
BRANCH  14  15
HETATM   15  S   UNL     1     -11.944   9.596  71.553  1.00  0.00    -0.409 S  
HETATM   16  O   UNL     1     -13.370   9.352  71.149  1.00  0.00    -0.314 OA 
BRANCH  15  17
HETATM   17  C   UNL     1     -11.305   8.041  71.987  1.00  0.00    -0.302 A  
HETATM   18  N   UNL     1     -11.630   7.343  73.056  1.00  0.00    -0.597 NA 
HETATM   19  C   UNL     1     -11.072   6.099  72.858  1.00  0.00    -0.247 A  
HETATM   20  H   UNL     1     -12.177   7.657  73.857  1.00  0.00     0.000 HD 
HETATM   21  C   UNL     1     -11.156   4.941  73.646  1.00  0.00    -0.370 A  
HETATM   22  C   UNL     1     -10.581   3.756  73.168  1.00  0.00    -0.268 A  
HETATM   23  C   UNL     1      -9.920   3.729  71.937  1.00  0.00    -0.230 A  
HETATM   24  C   UNL     1      -9.789   4.884  71.156  1.00  0.00    -0.261 A  
HETATM   25  C   UNL     1     -10.375   6.050  71.655  1.00  0.00    -0.214 A  
HETATM   26  N   UNL     1     -10.463   7.331  71.169  1.00  0.00    -0.210 NA 
ENDBRANCH  15  17
ENDBRANCH  14  15
ENDBRANCH   7  14
TORSDOF 5
ENDMDL
MODEL       31
REMARK 921   NORMALIZED FREE ENERGY PREDICTED BY IDOCK:   -6.65 KCAL/MOL
REMARK 922        TOTAL FREE ENERGY PREDICTED BY IDOCK:   -9.36 KCAL/MOL
REMARK 923 INTER-LIGAND FREE ENERGY PREDICTED BY IDOCK:   -8.41 KCAL/MOL
REMARK 924 INTRA-LIGAND FREE ENERGY PREDICTED BY IDOCK:   -0.96 KCAL/MOL
REMARK 927      BINDING AFFINITY PREDICTED BY RF-SCORE:    0.00 PKD
ROOT
HETATM    1  C   UNL     1     -12.732   9.553  70.972  1.00  0.00    -0.314 C  
HETATM    2  C   UNL     1     -11.275   9.649  70.627  1.00  0.00    -0.385 A  
HETATM    3  C   UNL     1     -10.277   9.070  71.433  1.00  0.00    -0.329 A  
HETATM    4  C   UNL     1      -8.962   9.013  70.974  1.00  0.00    -0.304 A  
HETATM    5  N   UNL     1      -9.564  10.272  69.020  1.00  0.00    -0.192 NA 
HETATM    6  C   UNL     1      -8.661   9.601  69.763  1.00  0.00    -0.208 A  
HETATM    7  C   UNL     1     -10.855  10.313  69.454  1.00  0.00    -0.245 A  
ENDROOT
BRANCH   3   8
HETATM    8  O   UNL     1     -10.456   8.461  72.652  1.00  0.00    -0.326 OA 
BRANCH   8   9
HETATM    9  C   UNL     1      -9.992   7.107  72.769  1.00  0.00    -0.185 C  
HETATM   10  C   UNL     1     -11.087   6.071  72.536  1.00  0.00    -0.279 C  
HETATM   11  F   UNL     1     -11.399   5.424  73.689  1.00  0.00    -0.319 F  
HETATM   12  F   UNL     1     -10.668   5.123  71.660  1.00  0.00    -0.279 F  
HETATM   13  F   UNL     1     -12.233   6.592  72.043  1.00  0.00    -0.349 F  
ENDBRANCH   8   9
ENDBRANCH   3   8
BRANCH   7  14
HETATM   14  C   UNL     1     -11.778  11.161  68.598  1.00  0.00    -0.320 C  
BRANCH  14  15
HETATM   15  S   UNL     1     -11.101  12.802  68.285  1.00  0.00    -0.276 S  
HETATM   16  O   UNL     1     -11.681  13.442  67.055  1.00  0.00    -0.339 OA 
BRANCH  15  17
HETATM   17  C   UNL     1     -11.757  13.686  69.630  1.00  0.00    -0.320 A  
HETATM   18  N   UNL     1     -12.498  13.184  70.595  1.00  0.00    -0.321 NA 
HETATM   19  C   UNL     1     -12.574  14.179  71.545  1.00  0.00    -0.354 A  
HETATM   20  H   UNL     1     -12.924  12.258  70.632  1.00  0.00     0.000 HD 
HETATM   21  C   UNL     1     -13.182  14.170  72.810  1.00  0.00    -0.604 A  
HETATM   22  C   UNL     1     -13.027  15.286  73.642  1.00  0.00    -0.576 A  
HETATM   23  C   UNL     1     -12.294  16.397  73.216  1.00  0.00    -0.547 A  
HETATM   24  C   UNL     1     -11.716  16.443  71.942  1.00  0.00    -0.419 A  
HETATM   25  C   UNL     1     -11.883  15.315  71.135  1.00  0.00    -0.348 A  
HETATM   26  N   UNL     1     -11.453  15.003  69.870  1.00  0.00    -0.271 NA 
ENDBRANCH  15  17
ENDBRANCH  14  15
ENDBRANCH   7  14
TORSDOF 5
ENDMDL
MODEL       32
REMARK 921   NORMALIZED FREE ENERGY PREDICTED BY IDOCK:   -6.64 KCAL/MOL
REMARK 922        TOTAL FREE ENERGY PREDICTED BY IDOCK:   -9.35 KCAL/MOL
REMARK 923 INTER-LIGAND FREE ENERGY PREDICTED BY IDOCK:   -8.51 KCAL/MOL
REMARK 924 INTRA-LIGAND FREE ENERGY PREDICTED BY IDOCK:   -0.85 KCAL/MOL
REMARK 927      BINDING AFFINITY PREDICTED BY RF-SCORE:    0.00 PKD
ROOT
HETATM    1  C   UNL     1     -11.678  11.730  68.420  1.00  0.00    -0.389 C  
HETATM    2  C   UNL     1     -11.024  11.404  67.110  1.00  0.00    -0.340 A  
HETATM    3  C   UNL     1     -10.223  10.260  66.939  1.00  0.00    -0.230 A  
HETATM    4  C   UNL     1      -9.800   9.893  65.662  1.00  0.00    -0.368 A  
HETATM    5  N   UNL     1     -10.782  11.881  64.741  1.00  0.00    -0.294 NA 
HETATM    6  C   UNL     1     -10.121  10.715  64.601  1.00  0.00    -0.349 A  
HETATM    7  C   UNL     1     -11.214  12.235  65.984  1.00  0.00    -0.332 A  
ENDROOT
BRANCH   3   8
HETATM    8  O   UNL     1      -9.837   9.373  67.916  1.00  0.00    -0.154 OA 
BRANCH   8   9
HETATM    9  C   UNL     1      -8.520   8.815  67.795  1.00  0.00    -0.125 C  
HETATM   10  C   UNL     1      -7.430   9.705  68.383  1.00  0.00    -0.080 C  
HETATM   11  F   UNL     1      -6.642  10.222  67.405  1.00  0.00    -0.064 F  
HETATM   12  F   UNL     1      -6.616   8.986  69.198  1.00  0.00    -0.047 F  
HETATM   13  F   UNL     1      -7.906  10.741  69.108  1.00  0.00    -0.117 F  
ENDBRANCH   8   9
ENDBRANCH   3   8
BRANCH   7  14
HETATM   14  C   UNL     1     -11.870  13.601  66.055  1.00  0.00    -0.385 C  
BRANCH  14  15
HETATM   15  S   UNL     1     -11.463  14.628  64.630  1.00  0.00    -0.363 S  
HETATM   16  O   UNL     1     -12.678  15.034  63.844  1.00  0.00    -0.775 OA 
BRANCH  15  17
HETATM   17  C   UNL     1     -10.908  16.073  65.419  1.00  0.00    -0.328 A  
HETATM   18  N   UNL     1     -10.930  17.287  64.910  1.00  0.00    -0.850 NA 
HETATM   19  C   UNL     1     -10.629  18.125  65.961  1.00  0.00    -0.264 A  
HETATM   20  H   UNL     1     -11.127  17.551  63.945  1.00  0.00     0.000 HD 
HETATM   21  C   UNL     1     -10.578  19.526  66.009  1.00  0.00    -0.589 A  
HETATM   22  C   UNL     1     -10.349  20.153  67.241  1.00  0.00    -0.494 A  
HETATM   23  C   UNL     1     -10.158  19.397  68.401  1.00  0.00    -0.538 A  
HETATM   24  C   UNL     1     -10.163  17.998  68.368  1.00  0.00    -0.399 A  
HETATM   25  C   UNL     1     -10.397  17.400  67.127  1.00  0.00    -0.325 A  
HETATM   26  N   UNL     1     -10.490  16.090  66.726  1.00  0.00    -0.307 NA 
ENDBRANCH  15  17
ENDBRANCH  14  15
ENDBRANCH   7  14
TORSDOF 5
ENDMDL
MODEL       33
REMARK 921   NORMALIZED FREE ENERGY PREDICTED BY IDOCK:   -6.61 KCAL/MOL
REMARK 922        TOTAL FREE ENERGY PREDICTED BY IDOCK:   -9.31 KCAL/MOL
REMARK 923 INTER-LIGAND FREE ENERGY PREDICTED BY IDOCK:   -8.40 KCAL/MOL
REMARK 924 INTRA-LIGAND FREE ENERGY PREDICTED BY IDOCK:   -0.91 KCAL/MOL
REMARK 927      BINDING AFFINITY PREDICTED BY RF-SCORE:    0.00 PKD
ROOT
HETATM    1  C   UNL     1     -11.637  13.192  68.619  1.00  0.00    -0.356 C  
HETATM    2  C   UNL     1     -12.034  12.271  69.735  1.00  0.00    -0.365 A  
HETATM    3  C   UNL     1     -12.526  12.753  70.962  1.00  0.00    -0.277 A  
HETATM    4  C   UNL     1     -13.066  11.865  71.890  1.00  0.00    -0.474 A  
HETATM    5  N   UNL     1     -12.460  10.005  70.497  1.00  0.00    -0.222 NA 
HETATM    6  C   UNL     1     -13.033  10.515  71.606  1.00  0.00    -0.476 A  
HETATM    7  C   UNL     1     -11.949  10.870  69.577  1.00  0.00    -0.330 A  
ENDROOT
BRANCH   3   8
HETATM    8  O   UNL     1     -12.606  14.068  71.356  1.00  0.00    -0.341 OA 
BRANCH   8   9
HETATM    9  C   UNL     1     -13.328  14.334  72.568  1.00  0.00    -0.500 C  
HETATM   10  C   UNL     1     -12.778  15.522  73.351  1.00  0.00    -0.532 C  
HETATM   11  F   UNL     1     -12.189  15.115  74.505  1.00  0.00    -0.692 F  
HETATM   12  F   UNL     1     -13.780  16.367  73.702  1.00  0.00    -0.571 F  
HETATM   13  F   UNL     1     -11.866  16.248  72.667  1.00  0.00    -0.522 F  
ENDBRANCH   8   9
ENDBRANCH   3   8
BRANCH   7  14
HETATM   14  C   UNL     1     -11.251  10.202  68.407  1.00  0.00    -0.177 C  
BRANCH  14  15
HETATM   15  S   UNL     1      -9.510   9.882  68.744  1.00  0.00    -0.164 S  
HETATM   16  O   UNL     1      -8.797  11.084  69.297  1.00  0.00    -0.050 OA 
BRANCH  15  17
HETATM   17  C   UNL     1      -9.635   8.760  70.065  1.00  0.00    -0.169 A  
HETATM   18  N   UNL     1      -9.396   9.029  71.331  1.00  0.00    -0.258 NA 
HETATM   19  C   UNL     1      -9.854   7.932  72.026  1.00  0.00    -0.192 A  
HETATM   20  H   UNL     1      -8.964   9.870  71.715  1.00  0.00     0.000 HD 
HETATM   21  C   UNL     1      -9.912   7.703  73.409  1.00  0.00    -0.373 A  
HETATM   22  C   UNL     1     -10.528   6.534  73.875  1.00  0.00    -0.329 A  
HETATM   23  C   UNL     1     -11.061   5.603  72.980  1.00  0.00    -0.327 A  
HETATM   24  C   UNL     1     -10.976   5.792  71.596  1.00  0.00    -0.308 A  
HETATM   25  C   UNL     1     -10.360   6.967  71.159  1.00  0.00    -0.206 A  
HETATM   26  N   UNL     1     -10.119   7.486  69.911  1.00  0.00    -0.190 NA 
ENDBRANCH  15  17
ENDBRANCH  14  15
ENDBRANCH   7  14
TORSDOF 5
ENDMDL
MODEL       34
REMARK 921   NORMALIZED FREE ENERGY PREDICTED BY IDOCK:   -6.60 KCAL/MOL
REMARK 922        TOTAL FREE ENERGY PREDICTED BY IDOCK:   -9.30 KCAL/MOL
REMARK 923 INTER-LIGAND FREE ENERGY PREDICTED BY IDOCK:   -8.67 KCAL/MOL
REMARK 924 INTRA-LIGAND FREE ENERGY PREDICTED BY IDOCK:   -0.62 KCAL/MOL
REMARK 927      BINDING AFFINITY PREDICTED BY RF-SCORE:    0.00 PKD
ROOT
HETATM    1  C   UNL     1      -8.821  15.000  68.324  1.00  0.00    -0.172 C  
HETATM    2  C   UNL     1      -9.631  14.941  67.063  1.00  0.00    -0.245 A  
HETATM    3  C   UNL     1     -10.207  16.090  66.490  1.00  0.00    -0.293 A  
HETATM    4  C   UNL     1     -10.780  16.020  65.222  1.00  0.00    -0.417 A  
HETATM    5  N   UNL     1     -10.402  13.650  65.156  1.00  0.00    -0.357 NA 
HETATM    6  C   UNL     1     -10.832  14.795  64.590  1.00  0.00    -0.292 A  
HETATM    7  C   UNL     1      -9.823  13.716  66.388  1.00  0.00    -0.296 A  
ENDROOT
BRANCH   3   8
HETATM    8  O   UNL     1     -10.218  17.356  67.025  1.00  0.00    -0.305 OA 
BRANCH   8   9
HETATM    9  C   UNL     1      -9.674  18.404  66.208  1.00  0.00    -0.294 C  
HETATM   10  C   UNL     1     -10.470  19.704  66.284  1.00  0.00    -0.519 C  
HETATM   11  F   UNL     1     -11.112  19.951  65.113  1.00  0.00    -0.543 F  
HETATM   12  F   UNL     1      -9.643  20.758  66.504  1.00  0.00    -0.420 F  
HETATM   13  F   UNL     1     -11.401  19.716  67.264  1.00  0.00    -0.524 F  
ENDBRANCH   8   9
ENDBRANCH   3   8
BRANCH   7  14
HETATM   14  C   UNL     1      -9.449  12.369  66.978  1.00  0.00    -0.211 C  
BRANCH  14  15
HETATM   15  S   UNL     1     -10.750  11.141  66.753  1.00  0.00    -0.268 S  
HETATM   16  O   UNL     1     -10.259   9.896  66.069  1.00  0.00    -0.254 OA 
BRANCH  15  17
HETATM   17  C   UNL     1     -11.054  10.684  68.401  1.00  0.00    -0.272 A  
HETATM   18  N   UNL     1     -12.227  10.691  69.000  1.00  0.00    -0.769 NA 
HETATM   19  C   UNL     1     -12.027  10.031  70.193  1.00  0.00    -0.131 A  
HETATM   20  H   UNL     1     -13.096  11.097  68.655  1.00  0.00     0.000 HD 
HETATM   21  C   UNL     1     -12.946   9.689  71.197  1.00  0.00    -0.389 A  
HETATM   22  C   UNL     1     -12.507   8.915  72.279  1.00  0.00    -0.440 A  
HETATM   23  C   UNL     1     -11.175   8.502  72.368  1.00  0.00    -0.399 A  
HETATM   24  C   UNL     1     -10.233   8.867  71.398  1.00  0.00    -0.375 A  
HETATM   25  C   UNL     1     -10.699   9.637  70.329  1.00  0.00    -0.281 A  
HETATM   26  N   UNL     1     -10.085  10.150  69.213  1.00  0.00    -0.209 NA 
ENDBRANCH  15  17
ENDBRANCH  14  15
ENDBRANCH   7  14
TORSDOF 5
ENDMDL
MODEL       35
REMARK 921   NORMALIZED FREE ENERGY PREDICTED BY IDOCK:   -6.59 KCAL/MOL
REMARK 922        TOTAL FREE ENERGY PREDICTED BY IDOCK:   -9.29 KCAL/MOL
REMARK 923 INTER-LIGAND FREE ENERGY PREDICTED BY IDOCK:   -8.13 KCAL/MOL
REMARK 924 INTRA-LIGAND FREE ENERGY PREDICTED BY IDOCK:   -1.16 KCAL/MOL
REMARK 927      BINDING AFFINITY PREDICTED BY RF-SCORE:    0.00 PKD
ROOT
HETATM    1  C   UNL     1     -11.740  13.271  69.427  1.00  0.00    -0.383 C  
HETATM    2  C   UNL     1     -11.900  12.049  70.282  1.00  0.00    -0.356 A  
HETATM    3  C   UNL     1     -12.908  11.947  71.259  1.00  0.00    -0.290 A  
HETATM    4  C   UNL     1     -13.142  10.726  71.889  1.00  0.00    -0.557 A  
HETATM    5  N   UNL     1     -11.268   9.751  70.748  1.00  0.00    -0.320 NA 
HETATM    6  C   UNL     1     -12.320   9.660  71.586  1.00  0.00    -0.404 A  
HETATM    7  C   UNL     1     -11.046  10.937  70.115  1.00  0.00    -0.161 A  
ENDROOT
BRANCH   3   8
HETATM    8  O   UNL     1     -13.781  12.935  71.645  1.00  0.00    -0.166 OA 
BRANCH   8   9
HETATM    9  C   UNL     1     -13.335  13.818  72.685  1.00  0.00    -0.514 C  
HETATM   10  C   UNL     1     -13.215  15.271  72.235  1.00  0.00    -0.398 C  
HETATM   11  F   UNL     1     -11.915  15.659  72.180  1.00  0.00    -0.367 F  
HETATM   12  F   UNL     1     -13.830  16.097  73.119  1.00  0.00    -0.659 F  
HETATM   13  F   UNL     1     -13.759  15.511  71.021  1.00  0.00    -0.525 F  
ENDBRANCH   8   9
ENDBRANCH   3   8
BRANCH   7  14
HETATM   14  C   UNL     1      -9.793  10.967  69.260  1.00  0.00    -0.035 C  
BRANCH  14  15
HETATM   15  S   UNL     1     -10.004  10.075  67.707  1.00  0.00    -0.179 S  
HETATM   16  O   UNL     1     -11.194   9.157  67.726  1.00  0.00     0.052 OA 
BRANCH  15  17
HETATM   17  C   UNL     1     -10.430  11.377  66.639  1.00  0.00    -0.243 A  
HETATM   18  N   UNL     1     -11.520  11.447  65.904  1.00  0.00    -0.171 NA 
HETATM   19  C   UNL     1     -11.548  12.737  65.423  1.00  0.00    -0.358 A  
HETATM   20  H   UNL     1     -12.198  10.705  65.729  1.00  0.00     0.000 HD 
HETATM   21  C   UNL     1     -12.518  13.385  64.641  1.00  0.00    -0.385 A  
HETATM   22  C   UNL     1     -12.364  14.750  64.368  1.00  0.00    -0.389 A  
HETATM   23  C   UNL     1     -11.257  15.454  64.851  1.00  0.00    -0.410 A  
HETATM   24  C   UNL     1     -10.259  14.818  65.597  1.00  0.00    -0.382 A  
HETATM   25  C   UNL     1     -10.439  13.457  65.858  1.00  0.00    -0.287 A  
HETATM   26  N   UNL     1      -9.698  12.534  66.553  1.00  0.00    -0.241 NA 
ENDBRANCH  15  17
ENDBRANCH  14  15
ENDBRANCH   7  14
TORSDOF 5
ENDMDL
MODEL       36
REMARK 921   NORMALIZED FREE ENERGY PREDICTED BY IDOCK:   -6.56 KCAL/MOL
REMARK 922        TOTAL FREE ENERGY PREDICTED BY IDOCK:   -9.25 KCAL/MOL
REMARK 923 INTER-LIGAND FREE ENERGY PREDICTED BY IDOCK:   -8.67 KCAL/MOL
REMARK 924 INTRA-LIGAND FREE ENERGY PREDICTED BY IDOCK:   -0.57 KCAL/MOL
REMARK 927      BINDING AFFINITY PREDICTED BY RF-SCORE:    0.00 PKD
ROOT
HETATM    1  C   UNL     1     -11.407  12.667  68.835  1.00  0.00    -0.345 C  
HETATM    2  C   UNL     1     -12.160  13.028  70.082  1.00  0.00    -0.377 A  
HETATM    3  C   UNL     1     -12.562  14.349  70.355  1.00  0.00    -0.345 A  
HETATM    4  C   UNL     1     -13.425  14.605  71.419  1.00  0.00    -0.462 A  
HETATM    5  N   UNL     1     -13.341  12.296  72.073  1.00  0.00    -0.477 NA 
HETATM    6  C   UNL     1     -13.803  13.553  72.228  1.00  0.00    -0.581 A  
HETATM    7  C   UNL     1     -12.514  12.036  71.022  1.00  0.00    -0.276 A  
ENDROOT
BRANCH   3   8
HETATM    8  O   UNL     1     -12.248  15.471  69.626  1.00  0.00    -0.343 OA 
BRANCH   8   9
HETATM    9  C   UNL     1     -11.132  16.247  70.088  1.00  0.00    -0.341 C  
HETATM   10  C   UNL     1     -10.373  16.944  68.963  1.00  0.00    -0.333 C  
HETATM   11  F   UNL     1      -9.143  16.394  68.792  1.00  0.00    -0.203 F  
HETATM   12  F   UNL     1     -10.175  18.253  69.261  1.00  0.00    -0.373 F  
HETATM   13  F   UNL     1     -11.006  16.897  67.770  1.00  0.00    -0.344 F  
ENDBRANCH   8   9
ENDBRANCH   3   8
BRANCH   7  14
HETATM   14  C   UNL     1     -11.980  10.616  70.980  1.00  0.00    -0.339 C  
BRANCH  14  15
HETATM   15  S   UNL     1     -12.924   9.501  72.035  1.00  0.00    -0.432 S  
HETATM   16  O   UNL     1     -14.229   9.087  71.417  1.00  0.00    -0.299 OA 
BRANCH  15  17
HETATM   17  C   UNL     1     -11.916   8.087  71.999  1.00  0.00    -0.327 A  
HETATM   18  N   UNL     1     -11.740   7.239  72.991  1.00  0.00    -0.558 NA 
HETATM   19  C   UNL     1     -11.072   6.169  72.437  1.00  0.00    -0.275 A  
HETATM   20  H   UNL     1     -12.035   7.350  73.961  1.00  0.00     0.000 HD 
HETATM   21  C   UNL     1     -10.685   4.952  73.017  1.00  0.00    -0.305 A  
HETATM   22  C   UNL     1     -10.104   3.970  72.205  1.00  0.00    -0.233 A  
HETATM   23  C   UNL     1      -9.897   4.202  70.842  1.00  0.00    -0.247 A  
HETATM   24  C   UNL     1     -10.237   5.425  70.252  1.00  0.00    -0.338 A  
HETATM   25  C   UNL     1     -10.818   6.385  71.085  1.00  0.00    -0.258 A  
HETATM   26  N   UNL     1     -11.284   7.656  70.860  1.00  0.00    -0.264 NA 
ENDBRANCH  15  17
ENDBRANCH  14  15
ENDBRANCH   7  14
TORSDOF 5
ENDMDL
MODEL       37
REMARK 921   NORMALIZED FREE ENERGY PREDICTED BY IDOCK:   -6.54 KCAL/MOL
REMARK 922        TOTAL FREE ENERGY PREDICTED BY IDOCK:   -9.23 KCAL/MOL
REMARK 923 INTER-LIGAND FREE ENERGY PREDICTED BY IDOCK:   -8.30 KCAL/MOL
REMARK 924 INTRA-LIGAND FREE ENERGY PREDICTED BY IDOCK:   -0.93 KCAL/MOL
REMARK 927      BINDING AFFINITY PREDICTED BY RF-SCORE:    0.00 PKD
ROOT
HETATM    1  C   UNL     1     -11.925  13.679  69.537  1.00  0.00    -0.397 C  
HETATM    2  C   UNL     1     -12.039  12.388  70.293  1.00  0.00    -0.377 A  
HETATM    3  C   UNL     1     -12.932  12.228  71.368  1.00  0.00    -0.256 A  
HETATM    4  C   UNL     1     -13.146  10.962  71.910  1.00  0.00    -0.537 A  
HETATM    5  N   UNL     1     -11.458  10.037  70.475  1.00  0.00    -0.306 NA 
HETATM    6  C   UNL     1     -12.410   9.903  71.420  1.00  0.00    -0.404 A  
HETATM    7  C   UNL     1     -11.258  11.269  69.928  1.00  0.00    -0.187 A  
ENDROOT
BRANCH   3   8
HETATM    8  O   UNL     1     -13.712  13.205  71.940  1.00  0.00    -0.399 OA 
BRANCH   8   9
HETATM    9  C   UNL     1     -13.044  14.141  72.799  1.00  0.00    -0.478 C  
HETATM   10  C   UNL     1     -13.255  15.595  72.387  1.00  0.00    -0.474 C  
HETATM   11  F   UNL     1     -12.105  16.138  71.909  1.00  0.00    -0.443 F  
HETATM   12  F   UNL     1     -13.623  16.345  73.457  1.00  0.00    -0.633 F  
HETATM   13  F   UNL     1     -14.204  15.760  71.439  1.00  0.00    -0.498 F  
ENDBRANCH   8   9
ENDBRANCH   3   8
BRANCH   7  14
HETATM   14  C   UNL     1     -10.111  11.338  68.938  1.00  0.00    -0.170 C  
BRANCH  14  15
HETATM   15  S   UNL     1     -10.633  10.937  67.259  1.00  0.00    -0.267 S  
HETATM   16  O   UNL     1      -9.787  11.608  66.215  1.00  0.00    -0.207 OA 
BRANCH  15  17
HETATM   17  C   UNL     1     -10.224   9.250  67.186  1.00  0.00    -0.257 A  
HETATM   18  N   UNL     1     -10.956   8.258  67.648  1.00  0.00    -0.489 NA 
HETATM   19  C   UNL     1     -10.365   7.115  67.157  1.00  0.00    -0.289 A  
HETATM   20  H   UNL     1     -11.783   8.323  68.242  1.00  0.00     0.000 HD 
HETATM   21  C   UNL     1     -10.762   5.774  67.278  1.00  0.00    -0.345 A  
HETATM   22  C   UNL     1     -10.041   4.791  66.588  1.00  0.00    -0.276 A  
HETATM   23  C   UNL     1      -8.935   5.135  65.805  1.00  0.00    -0.152 A  
HETATM   24  C   UNL     1      -8.499   6.461  65.704  1.00  0.00    -0.147 A  
HETATM   25  C   UNL     1      -9.238   7.421  66.400  1.00  0.00    -0.159 A  
HETATM   26  N   UNL     1      -9.121   8.784  66.516  1.00  0.00    -0.151 NA 
ENDBRANCH  15  17
ENDBRANCH  14  15
ENDBRANCH   7  14
TORSDOF 5
ENDMDL
MODEL       38
REMARK 921   NORMALIZED FREE ENERGY PREDICTED BY IDOCK:   -6.54 KCAL/MOL
REMARK 922        TOTAL FREE ENERGY PREDICTED BY IDOCK:   -9.22 KCAL/MOL
REMARK 923 INTER-LIGAND FREE ENERGY PREDICTED BY IDOCK:   -8.42 KCAL/MOL
REMARK 924 INTRA-LIGAND FREE ENERGY PREDICTED BY IDOCK:   -0.80 KCAL/MOL
REMARK 927      BINDING AFFINITY PREDICTED BY RF-SCORE:    0.00 PKD
ROOT
HETATM    1  C   UNL     1     -10.194  13.131  64.465  1.00  0.00    -0.333 C  
HETATM    2  C   UNL     1     -10.713  12.439  65.691  1.00  0.00    -0.299 A  
HETATM    3  C   UNL     1     -10.631  11.044  65.853  1.00  0.00    -0.206 A  
HETATM    4  C   UNL     1     -10.943  10.469  67.083  1.00  0.00    -0.294 A  
HETATM    5  N   UNL     1     -11.608  12.610  67.943  1.00  0.00    -0.328 NA 
HETATM    6  C   UNL     1     -11.400  11.287  68.096  1.00  0.00    -0.303 A  
HETATM    7  C   UNL     1     -11.286  13.181  66.748  1.00  0.00    -0.299 A  
ENDROOT
BRANCH   3   8
HETATM    8  O   UNL     1     -10.197  10.133  64.920  1.00  0.00    -0.300 OA 
BRANCH   8   9
HETATM    9  C   UNL     1      -8.822   9.728  65.008  1.00  0.00    -0.191 C  
HETATM   10  C   UNL     1      -8.275   9.159  63.702  1.00  0.00    -0.174 C  
HETATM   11  F   UNL     1      -8.044   7.825  63.810  1.00  0.00    -0.135 F  
HETATM   12  F   UNL     1      -7.086   9.735  63.391  1.00  0.00    -0.101 F  
HETATM   13  F   UNL     1      -9.096   9.342  62.643  1.00  0.00    -0.245 F  
ENDBRANCH   8   9
ENDBRANCH   3   8
BRANCH   7  14
HETATM   14  C   UNL     1     -11.634  14.654  66.642  1.00  0.00    -0.350 C  
BRANCH  14  15
HETATM   15  S   UNL     1     -10.558  15.684  67.658  1.00  0.00    -0.300 S  
HETATM   16  O   UNL     1     -10.439  17.087  67.136  1.00  0.00    -0.317 OA 
BRANCH  15  17
HETATM   17  C   UNL     1     -11.500  15.801  69.113  1.00  0.00    -0.380 A  
HETATM   18  N   UNL     1     -12.703  15.299  69.296  1.00  0.00    -0.417 NA 
HETATM   19  C   UNL     1     -12.943  15.421  70.647  1.00  0.00    -0.398 A  
HETATM   20  H   UNL     1     -13.324  14.905  68.589  1.00  0.00     0.000 HD 
HETATM   21  C   UNL     1     -14.042  14.992  71.407  1.00  0.00    -0.576 A  
HETATM   22  C   UNL     1     -14.000  15.142  72.799  1.00  0.00    -0.419 A  
HETATM   23  C   UNL     1     -12.892  15.724  73.421  1.00  0.00    -0.680 A  
HETATM   24  C   UNL     1     -11.805  16.197  72.677  1.00  0.00    -0.609 A  
HETATM   25  C   UNL     1     -11.871  16.031  71.292  1.00  0.00    -0.449 A  
HETATM   26  N   UNL     1     -11.008  16.346  70.272  1.00  0.00    -0.320 NA 
ENDBRANCH  15  17
ENDBRANCH  14  15
ENDBRANCH   7  14
TORSDOF 5
ENDMDL
MODEL       39
REMARK 921   NORMALIZED FREE ENERGY PREDICTED BY IDOCK:   -6.53 KCAL/MOL
REMARK 922        TOTAL FREE ENERGY PREDICTED BY IDOCK:   -9.21 KCAL/MOL
REMARK 923 INTER-LIGAND FREE ENERGY PREDICTED BY IDOCK:   -8.55 KCAL/MOL
REMARK 924 INTRA-LIGAND FREE ENERGY PREDICTED BY IDOCK:   -0.66 KCAL/MOL
REMARK 927      BINDING AFFINITY PREDICTED BY RF-SCORE:    0.00 PKD
ROOT
HETATM    1  C   UNL     1     -11.612  10.796  68.874  1.00  0.00    -0.361 C  
HETATM    2  C   UNL     1     -11.018  10.776  67.497  1.00  0.00    -0.372 A  
HETATM    3  C   UNL     1     -10.293   9.671  67.012  1.00  0.00    -0.248 A  
HETATM    4  C   UNL     1      -9.931   9.615  65.667  1.00  0.00    -0.321 A  
HETATM    5  N   UNL     1     -10.816  11.819  65.313  1.00  0.00    -0.286 NA 
HETATM    6  C   UNL     1     -10.232  10.692  64.859  1.00  0.00    -0.324 A  
HETATM    7  C   UNL     1     -11.189  11.871  66.622  1.00  0.00    -0.328 A  
ENDROOT
BRANCH   3   8
HETATM    8  O   UNL     1      -9.935   8.549  67.720  1.00  0.00    -0.170 OA 
BRANCH   8   9
HETATM    9  C   UNL     1     -10.848   7.441  67.675  1.00  0.00    -0.149 C  
HETATM   10  C   UNL     1     -10.707   6.494  68.863  1.00  0.00    -0.273 C  
HETATM   11  F   UNL     1     -10.189   5.300  68.476  1.00  0.00    -0.207 F  
HETATM   12  F   UNL     1     -11.922   6.231  69.409  1.00  0.00    -0.407 F  
HETATM   13  F   UNL     1      -9.921   6.974  69.851  1.00  0.00    -0.173 F  
ENDBRANCH   8   9
ENDBRANCH   3   8
BRANCH   7  14
HETATM   14  C   UNL     1     -11.758  13.208  67.060  1.00  0.00    -0.377 C  
BRANCH  14  15
HETATM   15  S   UNL     1     -10.533  14.228  67.902  1.00  0.00    -0.242 S  
HETATM   16  O   UNL     1     -10.412  15.600  67.301  1.00  0.00    -0.279 OA 
BRANCH  15  17
HETATM   17  C   UNL     1     -11.301  14.455  69.443  1.00  0.00    -0.281 A  
HETATM   18  N   UNL     1     -10.706  14.843  70.552  1.00  0.00    -0.511 NA 
HETATM   19  C   UNL     1     -11.729  15.115  71.433  1.00  0.00    -0.374 A  
HETATM   20  H   UNL     1      -9.704  14.924  70.722  1.00  0.00     0.000 HD 
HETATM   21  C   UNL     1     -11.679  15.626  72.740  1.00  0.00    -0.537 A  
HETATM   22  C   UNL     1     -12.881  15.918  73.398  1.00  0.00    -0.688 A  
HETATM   23  C   UNL     1     -14.110  15.691  72.773  1.00  0.00    -0.442 A  
HETATM   24  C   UNL     1     -14.183  15.143  71.487  1.00  0.00    -0.647 A  
HETATM   25  C   UNL     1     -12.969  14.865  70.852  1.00  0.00    -0.380 A  
HETATM   26  N   UNL     1     -12.659  14.355  69.616  1.00  0.00    -0.176 NA 
ENDBRANCH  15  17
ENDBRANCH  14  15
ENDBRANCH   7  14
TORSDOF 5
ENDMDL
MODEL       40
REMARK 921   NORMALIZED FREE ENERGY PREDICTED BY IDOCK:   -6.49 KCAL/MOL
REMARK 922        TOTAL FREE ENERGY PREDICTED BY IDOCK:   -9.16 KCAL/MOL
REMARK 923 INTER-LIGAND FREE ENERGY PREDICTED BY IDOCK:   -8.40 KCAL/MOL
REMARK 924 INTRA-LIGAND FREE ENERGY PREDICTED BY IDOCK:   -0.76 KCAL/MOL
REMARK 927      BINDING AFFINITY PREDICTED BY RF-SCORE:    0.00 PKD
ROOT
HETATM    1  C   UNL     1     -13.125  10.106  71.148  1.00  0.00    -0.480 C  
HETATM    2  C   UNL     1     -11.658  10.022  70.848  1.00  0.00    -0.463 A  
HETATM    3  C   UNL     1     -10.792   9.190  71.582  1.00  0.00    -0.372 A  
HETATM    4  C   UNL     1      -9.483   8.994  71.145  1.00  0.00    -0.348 A  
HETATM    5  N   UNL     1      -9.809  10.586  69.377  1.00  0.00    -0.211 NA 
HETATM    6  C   UNL     1      -9.048   9.688  70.035  1.00  0.00    -0.237 A  
HETATM    7  C   UNL     1     -11.096  10.767  69.789  1.00  0.00    -0.281 A  
ENDROOT
BRANCH   3   8
HETATM    8  O   UNL     1     -11.109   8.455  72.700  1.00  0.00    -0.359 OA 
BRANCH   8   9
HETATM    9  C   UNL     1     -10.623   7.105  72.741  1.00  0.00    -0.268 C  
HETATM   10  C   UNL     1     -11.555   6.106  72.060  1.00  0.00    -0.310 C  
HETATM   11  F   UNL     1     -12.136   5.284  72.970  1.00  0.00    -0.348 F  
HETATM   12  F   UNL     1     -10.861   5.312  71.206  1.00  0.00    -0.298 F  
HETATM   13  F   UNL     1     -12.547   6.687  71.348  1.00  0.00    -0.378 F  
ENDBRANCH   8   9
ENDBRANCH   3   8
BRANCH   7  14
HETATM   14  C   UNL     1     -11.846  11.856  69.044  1.00  0.00    -0.308 C  
BRANCH  14  15
HETATM   15  S   UNL     1     -11.097  12.229  67.447  1.00  0.00    -0.301 S  
HETATM   16  O   UNL     1     -12.001  11.899  66.293  1.00  0.00    -0.554 OA 
BRANCH  15  17
HETATM   17  C   UNL     1     -11.035  13.964  67.514  1.00  0.00    -0.276 A  
HETATM   18  N   UNL     1     -10.934  14.690  68.608  1.00  0.00    -0.246 NA 
HETATM   19  C   UNL     1     -10.675  15.970  68.168  1.00  0.00    -0.311 A  
HETATM   20  H   UNL     1     -11.028  14.374  69.572  1.00  0.00     0.000 HD 
HETATM   21  C   UNL     1     -10.412  17.137  68.901  1.00  0.00    -0.346 A  
HETATM   22  C   UNL     1     -10.070  18.307  68.210  1.00  0.00    -0.406 A  
HETATM   23  C   UNL     1     -10.007  18.318  66.814  1.00  0.00    -0.359 A  
HETATM   24  C   UNL     1     -10.307  17.176  66.062  1.00  0.00    -0.317 A  
HETATM   25  C   UNL     1     -10.641  16.023  66.777  1.00  0.00    -0.297 A  
HETATM   26  N   UNL     1     -10.968  14.747  66.390  1.00  0.00    -0.326 NA 
ENDBRANCH  15  17
ENDBRANCH  14  15
ENDBRANCH   7  14
TORSDOF 5
ENDMDL
MODEL       41
REMARK 921   NORMALIZED FREE ENERGY PREDICTED BY IDOCK:   -6.48 KCAL/MOL
REMARK 922        TOTAL FREE ENERGY PREDICTED BY IDOCK:   -9.14 KCAL/MOL
REMARK 923 INTER-LIGAND FREE ENERGY PREDICTED BY IDOCK:   -7.95 KCAL/MOL
REMARK 924 INTRA-LIGAND FREE ENERGY PREDICTED BY IDOCK:   -1.19 KCAL/MOL
REMARK 927      BINDING AFFINITY PREDICTED BY RF-SCORE:    0.00 PKD
ROOT
HETATM    1  C   UNL     1      -9.035  12.886  67.997  1.00  0.00    -0.196 C  
HETATM    2  C   UNL     1     -10.218  13.559  68.627  1.00  0.00    -0.193 A  
HETATM    3  C   UNL     1     -11.273  12.828  69.204  1.00  0.00    -0.237 A  
HETATM    4  C   UNL     1     -12.248  13.488  69.948  1.00  0.00    -0.356 A  
HETATM    5  N   UNL     1     -11.266  15.609  69.398  1.00  0.00    -0.288 NA 
HETATM    6  C   UNL     1     -12.190  14.864  70.037  1.00  0.00    -0.333 A  
HETATM    7  C   UNL     1     -10.299  14.967  68.685  1.00  0.00    -0.236 A  
ENDROOT
BRANCH   3   8
HETATM    8  O   UNL     1     -11.438  11.464  69.179  1.00  0.00    -0.242 OA 
BRANCH   8   9
HETATM    9  C   UNL     1     -12.506  10.930  69.975  1.00  0.00    -0.263 C  
HETATM   10  C   UNL     1     -12.023  10.038  71.115  1.00  0.00    -0.392 C  
HETATM   11  F   UNL     1     -12.352   8.740  70.892  1.00  0.00    -0.290 F  
HETATM   12  F   UNL     1     -12.617  10.394  72.283  1.00  0.00    -0.420 F  
HETATM   13  F   UNL     1     -10.687  10.088  71.316  1.00  0.00    -0.363 F  
ENDBRANCH   8   9
ENDBRANCH   3   8
BRANCH   7  14
HETATM   14  C   UNL     1      -9.356  15.890  67.934  1.00  0.00    -0.207 C  
BRANCH  14  15
HETATM   15  S   UNL     1     -10.185  16.767  66.594  1.00  0.00    -0.307 S  
HETATM   16  O   UNL     1      -9.241  17.607  65.781  1.00  0.00    -0.505 OA 
BRANCH  15  17
HETATM   17  C   UNL     1     -10.639  15.440  65.568  1.00  0.00    -0.383 A  
HETATM   18  N   UNL     1      -9.810  14.616  64.961  1.00  0.00    -0.461 NA 
HETATM   19  C   UNL     1     -10.604  13.602  64.473  1.00  0.00    -0.411 A  
HETATM   20  H   UNL     1      -8.799  14.709  64.872  1.00  0.00     0.000 HD 
HETATM   21  C   UNL     1     -10.245  12.423  63.800  1.00  0.00    -0.404 A  
HETATM   22  C   UNL     1     -11.243  11.488  63.498  1.00  0.00    -0.412 A  
HETATM   23  C   UNL     1     -12.576  11.728  63.845  1.00  0.00    -0.356 A  
HETATM   24  C   UNL     1     -12.960  12.915  64.479  1.00  0.00    -0.168 A  
HETATM   25  C   UNL     1     -11.945  13.829  64.771  1.00  0.00    -0.404 A  
HETATM   26  N   UNL     1     -11.943  15.056  65.387  1.00  0.00    -0.123 NA 
ENDBRANCH  15  17
ENDBRANCH  14  15
ENDBRANCH   7  14
TORSDOF 5
ENDMDL
MODEL       42
REMARK 921   NORMALIZED FREE ENERGY PREDICTED BY IDOCK:   -6.40 KCAL/MOL
REMARK 922        TOTAL FREE ENERGY PREDICTED BY IDOCK:   -9.04 KCAL/MOL
REMARK 923 INTER-LIGAND FREE ENERGY PREDICTED BY IDOCK:   -8.81 KCAL/MOL
REMARK 924 INTRA-LIGAND FREE ENERGY PREDICTED BY IDOCK:   -0.23 KCAL/MOL
REMARK 927      BINDING AFFINITY PREDICTED BY RF-SCORE:    0.00 PKD
ROOT
HETATM    1  C   UNL     1     -11.379  11.627  64.221  1.00  0.00    -0.361 C  
HETATM    2  C   UNL     1     -10.955  11.630  65.660  1.00  0.00    -0.322 A  
HETATM    3  C   UNL     1     -10.248  10.557  66.233  1.00  0.00    -0.235 A  
HETATM    4  C   UNL     1      -9.705  10.687  67.509  1.00  0.00    -0.189 A  
HETATM    5  N   UNL     1     -10.718  12.851  67.746  1.00  0.00    -0.221 NA 
HETATM    6  C   UNL     1      -9.944  11.850  68.212  1.00  0.00    -0.202 A  
HETATM    7  C   UNL     1     -11.235  12.738  66.490  1.00  0.00    -0.307 A  
ENDROOT
BRANCH   3   8
HETATM    8  O   UNL     1      -9.953   9.355  65.635  1.00  0.00    -0.304 OA 
BRANCH   8   9
HETATM    9  C   UNL     1      -9.131   8.448  66.385  1.00  0.00    -0.187 C  
HETATM   10  C   UNL     1      -9.920   7.316  67.037  1.00  0.00    -0.224 C  
HETATM   11  F   UNL     1      -9.945   7.455  68.387  1.00  0.00    -0.149 F  
HETATM   12  F   UNL     1      -9.335   6.118  66.780  1.00  0.00    -0.125 F  
HETATM   13  F   UNL     1     -11.201   7.233  66.615  1.00  0.00    -0.352 F  
ENDBRANCH   8   9
ENDBRANCH   3   8
BRANCH   7  14
HETATM   14  C   UNL     1     -12.160  13.871  66.087  1.00  0.00    -0.448 C  
BRANCH  14  15
HETATM   15  S   UNL     1     -11.544  14.777  64.655  1.00  0.00    -0.374 S  
HETATM   16  O   UNL     1     -12.649  15.273  63.766  1.00  0.00    -0.733 OA 
BRANCH  15  17
HETATM   17  C   UNL     1     -10.887  16.191  65.422  1.00  0.00    -0.307 A  
HETATM   18  N   UNL     1     -10.947  17.420  64.955  1.00  0.00    -0.742 NA 
HETATM   19  C   UNL     1     -10.523  18.221  65.993  1.00  0.00    -0.361 A  
HETATM   20  H   UNL     1     -11.243  17.716  64.025  1.00  0.00     0.000 HD 
HETATM   21  C   UNL     1     -10.448  19.620  66.077  1.00  0.00    -0.622 A  
HETATM   22  C   UNL     1     -10.079  20.205  67.295  1.00  0.00    -0.572 A  
HETATM   23  C   UNL     1      -9.775  19.411  68.405  1.00  0.00    -0.488 A  
HETATM   24  C   UNL     1      -9.803  18.014  68.330  1.00  0.00    -0.369 A  
HETATM   25  C   UNL     1     -10.178  17.457  67.104  1.00  0.00    -0.323 A  
HETATM   26  N   UNL     1     -10.331  16.162  66.677  1.00  0.00    -0.291 NA 
ENDBRANCH  15  17
ENDBRANCH  14  15
ENDBRANCH   7  14
TORSDOF 5
ENDMDL
MODEL       43
REMARK 921   NORMALIZED FREE ENERGY PREDICTED BY IDOCK:   -6.39 KCAL/MOL
REMARK 922        TOTAL FREE ENERGY PREDICTED BY IDOCK:   -9.02 KCAL/MOL
REMARK 923 INTER-LIGAND FREE ENERGY PREDICTED BY IDOCK:   -7.95 KCAL/MOL
REMARK 924 INTRA-LIGAND FREE ENERGY PREDICTED BY IDOCK:   -1.07 KCAL/MOL
REMARK 927      BINDING AFFINITY PREDICTED BY RF-SCORE:    0.00 PKD
ROOT
HETATM    1  C   UNL     1     -11.240  11.122  67.241  1.00  0.00    -0.347 C  
HETATM    2  C   UNL     1     -11.424  12.249  66.269  1.00  0.00    -0.435 A  
HETATM    3  C   UNL     1     -11.371  12.051  64.877  1.00  0.00    -0.310 A  
HETATM    4  C   UNL     1     -11.741  13.081  64.015  1.00  0.00    -0.497 A  
HETATM    5  N   UNL     1     -12.028  14.569  65.877  1.00  0.00    -0.345 NA 
HETATM    6  C   UNL     1     -12.083  14.303  64.557  1.00  0.00    -0.480 A  
HETATM    7  C   UNL     1     -11.685  13.559  66.726  1.00  0.00    -0.391 A  
ENDROOT
BRANCH   3   8
HETATM    8  O   UNL     1     -11.044  10.886  64.225  1.00  0.00    -0.134 OA 
BRANCH   8   9
HETATM    9  C   UNL     1      -9.747  10.835  63.611  1.00  0.00    -0.327 C  
HETATM   10  C   UNL     1      -8.788   9.871  64.304  1.00  0.00    -0.225 C  
HETATM   11  F   UNL     1      -7.793  10.545  64.937  1.00  0.00    -0.149 F  
HETATM   12  F   UNL     1      -8.190   9.058  63.396  1.00  0.00    -0.144 F  
HETATM   13  F   UNL     1      -9.384   9.076  65.220  1.00  0.00    -0.267 F  
ENDBRANCH   8   9
ENDBRANCH   3   8
BRANCH   7  14
HETATM   14  C   UNL     1     -11.568  13.975  68.181  1.00  0.00    -0.334 C  
BRANCH  14  15
HETATM   15  S   UNL     1      -9.867  14.344  68.650  1.00  0.00    -0.214 S  
HETATM   16  O   UNL     1      -8.865  13.544  67.867  1.00  0.00    -0.170 OA 
BRANCH  15  17
HETATM   17  C   UNL     1      -9.718  15.977  68.077  1.00  0.00    -0.217 A  
HETATM   18  N   UNL     1     -10.713  16.808  67.847  1.00  0.00    -0.354 NA 
HETATM   19  C   UNL     1     -10.120  18.035  67.649  1.00  0.00    -0.347 A  
HETATM   20  H   UNL     1     -11.709  16.589  67.822  1.00  0.00     0.000 HD 
HETATM   21  C   UNL     1     -10.705  19.292  67.431  1.00  0.00    -0.594 A  
HETATM   22  C   UNL     1      -9.877  20.420  67.364  1.00  0.00    -0.587 A  
HETATM   23  C   UNL     1      -8.491  20.297  67.495  1.00  0.00    -0.376 A  
HETATM   24  C   UNL     1      -7.885  19.047  67.671  1.00  0.00    -0.269 A  
HETATM   25  C   UNL     1      -8.734  17.940  67.738  1.00  0.00    -0.250 A  
HETATM   26  N   UNL     1      -8.505  16.599  67.918  1.00  0.00    -0.191 NA 
ENDBRANCH  15  17
ENDBRANCH  14  15
ENDBRANCH   7  14
TORSDOF 5
ENDMDL
MODEL       44
REMARK 921   NORMALIZED FREE ENERGY PREDICTED BY IDOCK:   -6.32 KCAL/MOL
REMARK 922        TOTAL FREE ENERGY PREDICTED BY IDOCK:   -8.94 KCAL/MOL
REMARK 923 INTER-LIGAND FREE ENERGY PREDICTED BY IDOCK:   -7.90 KCAL/MOL
REMARK 924 INTRA-LIGAND FREE ENERGY PREDICTED BY IDOCK:   -1.04 KCAL/MOL
REMARK 927      BINDING AFFINITY PREDICTED BY RF-SCORE:    0.00 PKD
ROOT
HETATM    1  C   UNL     1      -8.886   8.651  71.475  1.00  0.00    -0.285 C  
HETATM    2  C   UNL     1     -10.266   9.167  71.192  1.00  0.00    -0.384 A  
HETATM    3  C   UNL     1     -11.391   8.726  71.914  1.00  0.00    -0.361 A  
HETATM    4  C   UNL     1     -12.615   9.372  71.753  1.00  0.00    -0.470 A  
HETATM    5  N   UNL     1     -11.683  10.757  70.026  1.00  0.00    -0.305 NA 
HETATM    6  C   UNL     1     -12.706  10.389  70.824  1.00  0.00    -0.371 A  
HETATM    7  C   UNL     1     -10.479  10.142  70.193  1.00  0.00    -0.255 A  
ENDROOT
BRANCH   3   8
HETATM    8  O   UNL     1     -11.422   7.727  72.857  1.00  0.00    -0.378 OA 
BRANCH   8   9
HETATM    9  C   UNL     1     -11.815   6.424  72.401  1.00  0.00    -0.213 C  
HETATM   10  C   UNL     1     -10.930   5.303  72.938  1.00  0.00    -0.287 C  
HETATM   11  F   UNL     1     -10.178   4.758  71.947  1.00  0.00    -0.231 F  
HETATM   12  F   UNL     1     -11.688   4.299  73.447  1.00  0.00    -0.362 F  
HETATM   13  F   UNL     1     -10.084   5.699  73.915  1.00  0.00    -0.163 F  
ENDBRANCH   8   9
ENDBRANCH   3   8
BRANCH   7  14
HETATM   14  C   UNL     1      -9.415  10.563  69.196  1.00  0.00    -0.191 C  
BRANCH  14  15
HETATM   15  S   UNL     1      -9.514   9.626  67.659  1.00  0.00    -0.135 S  
HETATM   16  O   UNL     1     -10.314   8.362  67.802  1.00  0.00    -0.217 OA 
BRANCH  15  17
HETATM   17  C   UNL     1     -10.486  10.691  66.690  1.00  0.00    -0.237 A  
HETATM   18  N   UNL     1     -11.194  11.708  67.136  1.00  0.00    -0.297 NA 
HETATM   19  C   UNL     1     -11.589  12.394  66.008  1.00  0.00    -0.401 A  
HETATM   20  H   UNL     1     -11.405  11.938  68.106  1.00  0.00     0.000 HD 
HETATM   21  C   UNL     1     -12.308  13.594  65.891  1.00  0.00    -0.516 A  
HETATM   22  C   UNL     1     -12.493  14.148  64.618  1.00  0.00    -0.375 A  
HETATM   23  C   UNL     1     -11.986  13.512  63.481  1.00  0.00    -0.388 A  
HETATM   24  C   UNL     1     -11.302  12.294  63.573  1.00  0.00    -0.549 A  
HETATM   25  C   UNL     1     -11.129  11.766  64.854  1.00  0.00    -0.285 A  
HETATM   26  N   UNL     1     -10.510  10.632  65.320  1.00  0.00    -0.240 NA 
ENDBRANCH  15  17
ENDBRANCH  14  15
ENDBRANCH   7  14
TORSDOF 5
ENDMDL
MODEL       45
REMARK 921   NORMALIZED FREE ENERGY PREDICTED BY IDOCK:   -6.30 KCAL/MOL
REMARK 922        TOTAL FREE ENERGY PREDICTED BY IDOCK:   -8.91 KCAL/MOL
REMARK 923 INTER-LIGAND FREE ENERGY PREDICTED BY IDOCK:   -7.86 KCAL/MOL
REMARK 924 INTRA-LIGAND FREE ENERGY PREDICTED BY IDOCK:   -1.05 KCAL/MOL
REMARK 927      BINDING AFFINITY PREDICTED BY RF-SCORE:    0.00 PKD
ROOT
HETATM    1  C   UNL     1     -11.333  16.495  68.854  1.00  0.00    -0.206 C  
HETATM    2  C   UNL     1     -10.098  15.942  68.206  1.00  0.00    -0.224 A  
HETATM    3  C   UNL     1      -8.919  16.698  68.078  1.00  0.00    -0.211 A  
HETATM    4  C   UNL     1      -7.743  16.083  67.652  1.00  0.00    -0.165 A  
HETATM    5  N   UNL     1      -8.925  14.026  67.285  1.00  0.00    -0.207 NA 
HETATM    6  C   UNL     1      -7.789  14.752  67.292  1.00  0.00    -0.194 A  
HETATM    7  C   UNL     1     -10.073  14.616  67.719  1.00  0.00    -0.228 A  
ENDROOT
BRANCH   3   8
HETATM    8  O   UNL     1      -8.754  18.024  68.400  1.00  0.00    -0.282 OA 
BRANCH   8   9
HETATM    9  C   UNL     1      -8.935  18.972  67.336  1.00  0.00    -0.291 C  
HETATM   10  C   UNL     1     -10.094  19.935  67.575  1.00  0.00    -0.429 C  
HETATM   11  F   UNL     1     -11.116  19.690  66.716  1.00  0.00    -0.555 F  
HETATM   12  F   UNL     1      -9.702  21.216  67.357  1.00  0.00    -0.616 F  
HETATM   13  F   UNL     1     -10.597  19.880  68.828  1.00  0.00    -0.506 F  
ENDBRANCH   8   9
ENDBRANCH   3   8
BRANCH   7  14
HETATM   14  C   UNL     1     -11.312  13.749  67.594  1.00  0.00    -0.304 C  
BRANCH  14  15
HETATM   15  S   UNL     1     -12.069  13.874  65.962  1.00  0.00    -0.459 S  
HETATM   16  O   UNL     1     -11.661  15.120  65.229  1.00  0.00    -0.306 OA 
BRANCH  15  17
HETATM   17  C   UNL     1     -11.283  12.562  65.138  1.00  0.00    -0.304 A  
HETATM   18  N   UNL     1     -10.827  12.590  63.903  1.00  0.00    -0.398 NA 
HETATM   19  C   UNL     1     -10.082  11.440  63.768  1.00  0.00    -0.362 A  
HETATM   20  H   UNL     1     -10.990  13.309  63.198  1.00  0.00     0.000 HD 
HETATM   21  C   UNL     1      -9.314  10.987  62.684  1.00  0.00    -0.348 A  
HETATM   22  C   UNL     1      -8.554   9.820  62.834  1.00  0.00    -0.195 A  
HETATM   23  C   UNL     1      -8.570   9.108  64.037  1.00  0.00    -0.186 A  
HETATM   24  C   UNL     1      -9.362   9.519  65.115  1.00  0.00    -0.316 A  
HETATM   25  C   UNL     1     -10.107  10.688  64.939  1.00  0.00    -0.335 A  
HETATM   26  N   UNL     1     -10.958  11.384  65.761  1.00  0.00    -0.237 NA 
ENDBRANCH  15  17
ENDBRANCH  14  15
ENDBRANCH   7  14
TORSDOF 5
ENDMDL
MODEL       46
REMARK 921   NORMALIZED FREE ENERGY PREDICTED BY IDOCK:   -6.30 KCAL/MOL
REMARK 922        TOTAL FREE ENERGY PREDICTED BY IDOCK:   -8.91 KCAL/MOL
REMARK 923 INTER-LIGAND FREE ENERGY PREDICTED BY IDOCK:   -8.29 KCAL/MOL
REMARK 924 INTRA-LIGAND FREE ENERGY PREDICTED BY IDOCK:   -0.61 KCAL/MOL
REMARK 927      BINDING AFFINITY PREDICTED BY RF-SCORE:    0.00 PKD
ROOT
HETATM    1  C   UNL     1     -10.094  14.731  68.971  1.00  0.00    -0.232 C  
HETATM    2  C   UNL     1     -10.496  14.948  67.542  1.00  0.00    -0.254 A  
HETATM    3  C   UNL     1     -10.255  16.163  66.874  1.00  0.00    -0.283 A  
HETATM    4  C   UNL     1     -10.464  16.253  65.500  1.00  0.00    -0.383 A  
HETATM    5  N   UNL     1     -11.337  14.016  65.463  1.00  0.00    -0.308 NA 
HETATM    6  C   UNL     1     -10.979  15.156  64.839  1.00  0.00    -0.419 A  
HETATM    7  C   UNL     1     -11.117  13.916  66.804  1.00  0.00    -0.303 A  
ENDROOT
BRANCH   3   8
HETATM    8  O   UNL     1      -9.749  17.317  67.425  1.00  0.00    -0.249 OA 
BRANCH   8   9
HETATM    9  C   UNL     1      -9.333  18.339  66.507  1.00  0.00    -0.302 C  
HETATM   10  C   UNL     1     -10.313  19.504  66.415  1.00  0.00    -0.496 C  
HETATM   11  F   UNL     1     -10.937  19.523  65.209  1.00  0.00    -0.549 F  
HETATM   12  F   UNL     1      -9.660  20.688  66.532  1.00  0.00    -0.453 F  
HETATM   13  F   UNL     1     -11.274  19.483  67.365  1.00  0.00    -0.578 F  
ENDBRANCH   8   9
ENDBRANCH   3   8
BRANCH   7  14
HETATM   14  C   UNL     1     -11.630  12.633  67.431  1.00  0.00    -0.360 C  
BRANCH  14  15
HETATM   15  S   UNL     1     -10.627  11.205  66.979  1.00  0.00    -0.264 S  
HETATM   16  O   UNL     1      -9.153  11.469  67.109  1.00  0.00    -0.161 OA 
BRANCH  15  17
HETATM   17  C   UNL     1     -11.024  10.108  68.265  1.00  0.00    -0.248 A  
HETATM   18  N   UNL     1     -10.745   8.821  68.297  1.00  0.00    -0.434 NA 
HETATM   19  C   UNL     1     -11.023   8.423  69.585  1.00  0.00    -0.087 A  
HETATM   20  H   UNL     1     -10.397   8.244  67.531  1.00  0.00     0.000 HD 
HETATM   21  C   UNL     1     -10.848   7.173  70.198  1.00  0.00    -0.279 A  
HETATM   22  C   UNL     1     -11.112   7.049  71.568  1.00  0.00    -0.271 A  
HETATM   23  C   UNL     1     -11.557   8.146  72.312  1.00  0.00    -0.436 A  
HETATM   24  C   UNL     1     -11.778   9.390  71.711  1.00  0.00    -0.444 A  
HETATM   25  C   UNL     1     -11.504   9.487  70.344  1.00  0.00    -0.242 A  
HETATM   26  N   UNL     1     -11.582  10.523  69.448  1.00  0.00    -0.259 NA 
ENDBRANCH  15  17
ENDBRANCH  14  15
ENDBRANCH   7  14
TORSDOF 5
ENDMDL
MODEL       47
REMARK 921   NORMALIZED FREE ENERGY PREDICTED BY IDOCK:   -6.24 KCAL/MOL
REMARK 922        TOTAL FREE ENERGY PREDICTED BY IDOCK:   -8.84 KCAL/MOL
REMARK 923 INTER-LIGAND FREE ENERGY PREDICTED BY IDOCK:   -7.03 KCAL/MOL
REMARK 924 INTRA-LIGAND FREE ENERGY PREDICTED BY IDOCK:   -1.81 KCAL/MOL
REMARK 927      BINDING AFFINITY PREDICTED BY RF-SCORE:    0.00 PKD
ROOT
HETATM    1  C   UNL     1     -11.622  13.400  68.257  1.00  0.00    -0.379 C  
HETATM    2  C   UNL     1     -10.128  13.455  68.125  1.00  0.00    -0.244 A  
HETATM    3  C   UNL     1      -9.325  12.306  68.250  1.00  0.00    -0.199 A  
HETATM    4  C   UNL     1      -7.971  12.368  67.926  1.00  0.00    -0.155 A  
HETATM    5  N   UNL     1      -8.146  14.732  67.544  1.00  0.00    -0.167 NA 
HETATM    6  C   UNL     1      -7.437  13.586  67.558  1.00  0.00    -0.167 A  
HETATM    7  C   UNL     1      -9.475  14.674  67.841  1.00  0.00    -0.210 A  
ENDROOT
BRANCH   3   8
HETATM    8  O   UNL     1      -9.742  11.047  68.610  1.00  0.00    -0.183 OA 
BRANCH   8   9
HETATM    9  C   UNL     1      -9.328   9.965  67.761  1.00  0.00    -0.140 C  
HETATM   10  C   UNL     1     -10.377   9.576  66.723  1.00  0.00    -0.228 C  
HETATM   11  F   UNL     1     -10.905   8.356  66.999  1.00  0.00    -0.371 F  
HETATM   12  F   UNL     1      -9.817   9.487  65.490  1.00  0.00    -0.333 F  
HETATM   13  F   UNL     1     -11.404  10.450  66.633  1.00  0.00    -0.152 F  
ENDBRANCH   8   9
ENDBRANCH   3   8
BRANCH   7  14
HETATM   14  C   UNL     1     -10.169  16.023  67.883  1.00  0.00    -0.258 C  
BRANCH  14  15
HETATM   15  S   UNL     1     -10.253  16.797  66.257  1.00  0.00    -0.328 S  
HETATM   16  O   UNL     1      -8.911  17.263  65.768  1.00  0.00    -0.521 OA 
BRANCH  15  17
HETATM   17  C   UNL     1     -10.665  15.430  65.267  1.00  0.00    -0.421 A  
HETATM   18  N   UNL     1      -9.812  14.616  64.681  1.00  0.00    -0.501 NA 
HETATM   19  C   UNL     1     -10.574  13.564  64.222  1.00  0.00    -0.287 A  
HETATM   20  H   UNL     1      -8.804  14.738  64.588  1.00  0.00     0.000 HD 
HETATM   21  C   UNL     1     -10.180  12.380  63.580  1.00  0.00    -0.383 A  
HETATM   22  C   UNL     1     -11.148  11.406  63.305  1.00  0.00    -0.204 A  
HETATM   23  C   UNL     1     -12.487  11.614  63.647  1.00  0.00    -0.325 A  
HETATM   24  C   UNL     1     -12.908  12.805  64.250  1.00  0.00    -0.245 A  
HETATM   25  C   UNL     1     -11.921  13.757  64.516  1.00  0.00    -0.427 A  
HETATM   26  N   UNL     1     -11.958  15.000  65.099  1.00  0.00    -0.203 NA 
ENDBRANCH  15  17
ENDBRANCH  14  15
ENDBRANCH   7  14
TORSDOF 5
ENDMDL
MODEL       48
REMARK 921   NORMALIZED FREE ENERGY PREDICTED BY IDOCK:   -6.24 KCAL/MOL
REMARK 922        TOTAL FREE ENERGY PREDICTED BY IDOCK:   -8.83 KCAL/MOL
REMARK 923 INTER-LIGAND FREE ENERGY PREDICTED BY IDOCK:   -8.12 KCAL/MOL
REMARK 924 INTRA-LIGAND FREE ENERGY PREDICTED BY IDOCK:   -0.71 KCAL/MOL
REMARK 927      BINDING AFFINITY PREDICTED BY RF-SCORE:    0.00 PKD
ROOT
HETATM    1  C   UNL     1     -10.813  13.876  68.857  1.00  0.00    -0.278 C  
HETATM    2  C   UNL     1     -10.845  13.708  67.366  1.00  0.00    -0.282 A  
HETATM    3  C   UNL     1     -11.458  12.599  66.753  1.00  0.00    -0.351 A  
HETATM    4  C   UNL     1     -11.637  12.583  65.371  1.00  0.00    -0.416 A  
HETATM    5  N   UNL     1     -10.435  14.652  65.167  1.00  0.00    -0.393 NA 
HETATM    6  C   UNL     1     -11.135  13.633  64.629  1.00  0.00    -0.381 A  
HETATM    7  C   UNL     1     -10.274  14.682  66.519  1.00  0.00    -0.278 A  
ENDROOT
BRANCH   3   8
HETATM    8  O   UNL     1     -11.990  11.501  67.384  1.00  0.00    -0.623 OA 
BRANCH   8   9
HETATM    9  C   UNL     1     -11.073  10.452  67.733  1.00  0.00    -0.299 C  
HETATM   10  C   UNL     1     -10.929  10.251  69.238  1.00  0.00    -0.241 C  
HETATM   11  F   UNL     1      -9.701  10.641  69.667  1.00  0.00    -0.222 F  
HETATM   12  F   UNL     1     -11.054   8.938  69.558  1.00  0.00    -0.225 F  
HETATM   13  F   UNL     1     -11.845  10.927  69.967  1.00  0.00    -0.293 F  
ENDBRANCH   8   9
ENDBRANCH   3   8
BRANCH   7  14
HETATM   14  C   UNL     1      -9.402  15.818  67.022  1.00  0.00    -0.220 C  
BRANCH  14  15
HETATM   15  S   UNL     1     -10.373  17.251  67.528  1.00  0.00    -0.348 S  
HETATM   16  O   UNL     1     -10.700  17.239  68.995  1.00  0.00    -0.292 OA 
BRANCH  15  17
HETATM   17  C   UNL     1      -9.210  18.524  67.315  1.00  0.00    -0.276 A  
HETATM   18  N   UNL     1      -8.521  19.107  68.273  1.00  0.00    -0.319 NA 
HETATM   19  C   UNL     1      -7.569  19.863  67.623  1.00  0.00    -0.289 A  
HETATM   20  H   UNL     1      -8.661  19.019  69.279  1.00  0.00     0.000 HD 
HETATM   21  C   UNL     1      -6.525  20.639  68.148  1.00  0.00    -0.341 A  
HETATM   22  C   UNL     1      -5.615  21.234  67.264  1.00  0.00    -0.379 A  
HETATM   23  C   UNL     1      -5.752  21.072  65.883  1.00  0.00    -0.280 A  
HETATM   24  C   UNL     1      -6.810  20.337  65.338  1.00  0.00    -0.320 A  
HETATM   25  C   UNL     1      -7.701  19.751  66.242  1.00  0.00    -0.319 A  
HETATM   26  N   UNL     1      -8.815  18.966  66.077  1.00  0.00    -0.459 NA 
ENDBRANCH  15  17
ENDBRANCH  14  15
ENDBRANCH   7  14
TORSDOF 5
ENDMDL
MODEL       49
REMARK 921   NORMALIZED FREE ENERGY PREDICTED BY IDOCK:   -6.24 KCAL/MOL
REMARK 922        TOTAL FREE ENERGY PREDICTED BY IDOCK:   -8.83 KCAL/MOL
REMARK 923 INTER-LIGAND FREE ENERGY PREDICTED BY IDOCK:   -8.46 KCAL/MOL
REMARK 924 INTRA-LIGAND FREE ENERGY PREDICTED BY IDOCK:   -0.37 KCAL/MOL
REMARK 927      BINDING AFFINITY PREDICTED BY RF-SCORE:    0.00 PKD
ROOT
HETATM    1  C   UNL     1     -10.295  10.859  69.060  1.00  0.00    -0.230 C  
HETATM    2  C   UNL     1     -11.419  11.063  70.032  1.00  0.00    -0.398 A  
HETATM    3  C   UNL     1     -11.981   9.997  70.759  1.00  0.00    -0.335 A  
HETATM    4  C   UNL     1     -12.882  10.259  71.789  1.00  0.00    -0.565 A  
HETATM    5  N   UNL     1     -12.837  12.602  71.265  1.00  0.00    -0.319 NA 
HETATM    6  C   UNL     1     -13.258  11.567  72.018  1.00  0.00    -0.337 A  
HETATM    7  C   UNL     1     -11.940  12.354  70.269  1.00  0.00    -0.289 A  
ENDROOT
BRANCH   3   8
HETATM    8  O   UNL     1     -11.688   8.662  70.618  1.00  0.00    -0.255 OA 
BRANCH   8   9
HETATM    9  C   UNL     1     -11.478   7.918  71.828  1.00  0.00    -0.269 C  
HETATM   10  C   UNL     1     -11.737   6.422  71.671  1.00  0.00    -0.313 C  
HETATM   11  F   UNL     1     -12.851   6.046  72.349  1.00  0.00    -0.282 F  
HETATM   12  F   UNL     1     -10.707   5.704  72.186  1.00  0.00    -0.243 F  
HETATM   13  F   UNL     1     -11.894   6.030  70.387  1.00  0.00    -0.368 F  
ENDBRANCH   8   9
ENDBRANCH   3   8
BRANCH   7  14
HETATM   14  C   UNL     1     -11.590  13.564  69.423  1.00  0.00    -0.312 C  
BRANCH  14  15
HETATM   15  S   UNL     1     -11.980  15.114  70.256  1.00  0.00    -0.346 S  
HETATM   16  O   UNL     1     -11.336  15.222  71.609  1.00  0.00    -0.390 OA 
BRANCH  15  17
HETATM   17  C   UNL     1     -11.140  16.249  69.243  1.00  0.00    -0.325 A  
HETATM   18  N   UNL     1     -11.185  16.288  67.928  1.00  0.00    -0.270 NA 
HETATM   19  C   UNL     1     -10.578  17.476  67.582  1.00  0.00    -0.355 A  
HETATM   20  H   UNL     1     -11.582  15.590  67.300  1.00  0.00     0.000 HD 
HETATM   21  C   UNL     1     -10.405  18.063  66.319  1.00  0.00    -0.384 A  
HETATM   22  C   UNL     1      -9.843  19.344  66.242  1.00  0.00    -0.477 A  
HETATM   23  C   UNL     1      -9.444  20.020  67.398  1.00  0.00    -0.508 A  
HETATM   24  C   UNL     1      -9.569  19.434  68.663  1.00  0.00    -0.490 A  
HETATM   25  C   UNL     1     -10.137  18.158  68.712  1.00  0.00    -0.376 A  
HETATM   26  N   UNL     1     -10.426  17.306  69.748  1.00  0.00    -0.020 NA 
ENDBRANCH  15  17
ENDBRANCH  14  15
ENDBRANCH   7  14
TORSDOF 5
ENDMDL
MODEL       50
REMARK 921   NORMALIZED FREE ENERGY PREDICTED BY IDOCK:   -6.23 KCAL/MOL
REMARK 922        TOTAL FREE ENERGY PREDICTED BY IDOCK:   -8.81 KCAL/MOL
REMARK 923 INTER-LIGAND FREE ENERGY PREDICTED BY IDOCK:   -7.97 KCAL/MOL
REMARK 924 INTRA-LIGAND FREE ENERGY PREDICTED BY IDOCK:   -0.85 KCAL/MOL
REMARK 927      BINDING AFFINITY PREDICTED BY RF-SCORE:    0.00 PKD
ROOT
HETATM    1  C   UNL     1      -9.613   9.868  64.698  1.00  0.00    -0.320 C  
HETATM    2  C   UNL     1     -10.151  10.240  66.049  1.00  0.00    -0.311 A  
HETATM    3  C   UNL     1     -10.542  11.555  66.360  1.00  0.00    -0.259 A  
HETATM    4  C   UNL     1     -11.216  11.814  67.552  1.00  0.00    -0.354 A  
HETATM    5  N   UNL     1     -10.947   9.526  68.229  1.00  0.00    -0.139 NA 
HETATM    6  C   UNL     1     -11.415  10.773  68.436  1.00  0.00    -0.288 A  
HETATM    7  C   UNL     1     -10.305   9.263  67.056  1.00  0.00    -0.255 A  
ENDROOT
BRANCH   3   8
HETATM    8  O   UNL     1     -10.395  12.667  65.565  1.00  0.00    -0.276 OA 
BRANCH   8   9
HETATM    9  C   UNL     1     -11.194  13.811  65.904  1.00  0.00    -0.302 C  
HETATM   10  C   UNL     1     -12.300  14.096  64.892  1.00  0.00    -0.430 C  
HETATM   11  F   UNL     1     -12.045  15.237  64.200  1.00  0.00    -0.459 F  
HETATM   12  F   UNL     1     -13.487  14.282  65.523  1.00  0.00    -0.467 F  
HETATM   13  F   UNL     1     -12.478  13.107  63.988  1.00  0.00    -0.428 F  
ENDBRANCH   8   9
ENDBRANCH   3   8
BRANCH   7  14
HETATM   14  C   UNL     1      -9.741   7.858  66.951  1.00  0.00    -0.219 C  
BRANCH  14  15
HETATM   15  S   UNL     1     -11.009   6.596  67.176  1.00  0.00    -0.350 S  
HETATM   16  O   UNL     1     -10.670   5.306  66.485  1.00  0.00    -0.301 OA 
BRANCH  15  17
HETATM   17  C   UNL     1     -10.850   6.276  68.876  1.00  0.00    -0.333 A  
HETATM   18  N   UNL     1     -11.544   6.848  69.838  1.00  0.00    -0.573 NA 
HETATM   19  C   UNL     1     -11.258   6.120  70.971  1.00  0.00    -0.296 A  
HETATM   20  H   UNL     1     -12.161   7.656  69.760  1.00  0.00     0.000 HD 
HETATM   21  C   UNL     1     -11.770   6.243  72.273  1.00  0.00    -0.344 A  
HETATM   22  C   UNL     1     -11.394   5.300  73.238  1.00  0.00    -0.318 A  
HETATM   23  C   UNL     1     -10.513   4.264  72.919  1.00  0.00    -0.246 A  
HETATM   24  C   UNL     1      -9.959   4.148  71.639  1.00  0.00    -0.240 A  
HETATM   25  C   UNL     1     -10.353   5.099  70.695  1.00  0.00    -0.235 A  
HETATM   26  N   UNL     1     -10.040   5.284  69.371  1.00  0.00    -0.221 NA 
ENDBRANCH  15  17
ENDBRANCH  14  15
ENDBRANCH   7  14
TORSDOF 5
ENDMDL
MODEL       51
REMARK 921   NORMALIZED FREE ENERGY PREDICTED BY IDOCK:   -6.19 KCAL/MOL
REMARK 922        TOTAL FREE ENERGY PREDICTED BY IDOCK:   -8.77 KCAL/MOL
REMARK 923 INTER-LIGAND FREE ENERGY PREDICTED BY IDOCK:   -7.73 KCAL/MOL
REMARK 924 INTRA-LIGAND FREE ENERGY PREDICTED BY IDOCK:   -1.03 KCAL/MOL
REMARK 927      BINDING AFFINITY PREDICTED BY RF-SCORE:    0.00 PKD
ROOT
HETATM    1  C   UNL     1     -11.123   6.223  68.771  1.00  0.00    -0.424 C  
HETATM    2  C   UNL     1     -10.428   7.507  69.117  1.00  0.00    -0.220 A  
HETATM    3  C   UNL     1     -10.528   8.090  70.394  1.00  0.00    -0.218 A  
HETATM    4  C   UNL     1      -9.712   9.169  70.729  1.00  0.00    -0.337 A  
HETATM    5  N   UNL     1      -8.840   9.235  68.493  1.00  0.00    -0.128 NA 
HETATM    6  C   UNL     1      -8.875   9.687  69.762  1.00  0.00    -0.210 A  
HETATM    7  C   UNL     1      -9.620   8.167  68.165  1.00  0.00    -0.149 A  
ENDROOT
BRANCH   3   8
HETATM    8  O   UNL     1     -11.324   7.665  71.431  1.00  0.00    -0.250 OA 
BRANCH   8   9
HETATM    9  C   UNL     1     -11.849   8.683  72.297  1.00  0.00    -0.366 C  
HETATM   10  C   UNL     1     -13.223   9.190  71.869  1.00  0.00    -0.416 C  
HETATM   11  F   UNL     1     -13.151  10.467  71.413  1.00  0.00    -0.418 F  
HETATM   12  F   UNL     1     -14.076   9.202  72.924  1.00  0.00    -0.456 F  
HETATM   13  F   UNL     1     -13.799   8.447  70.898  1.00  0.00    -0.158 F  
ENDBRANCH   8   9
ENDBRANCH   3   8
BRANCH   7  14
HETATM   14  C   UNL     1      -9.578   7.786  66.697  1.00  0.00    -0.220 C  
BRANCH  14  15
HETATM   15  S   UNL     1      -8.672   8.989  65.706  1.00  0.00    -0.180 S  
HETATM   16  O   UNL     1      -8.305   8.461  64.348  1.00  0.00    -0.159 OA 
BRANCH  15  17
HETATM   17  C   UNL     1      -9.908  10.179  65.430  1.00  0.00    -0.307 A  
HETATM   18  N   UNL     1     -10.525  10.880  66.358  1.00  0.00    -0.255 NA 
HETATM   19  C   UNL     1     -11.225  11.848  65.672  1.00  0.00    -0.306 A  
HETATM   20  H   UNL     1     -10.491  10.738  67.367  1.00  0.00     0.000 HD 
HETATM   21  C   UNL     1     -12.005  12.908  66.159  1.00  0.00    -0.491 A  
HETATM   22  C   UNL     1     -12.535  13.831  65.248  1.00  0.00    -0.512 A  
HETATM   23  C   UNL     1     -12.306  13.691  63.876  1.00  0.00    -0.375 A  
HETATM   24  C   UNL     1     -11.567  12.617  63.367  1.00  0.00    -0.536 A  
HETATM   25  C   UNL     1     -11.047  11.714  64.298  1.00  0.00    -0.338 A  
HETATM   26  N   UNL     1     -10.278  10.584  64.172  1.00  0.00    -0.303 NA 
ENDBRANCH  15  17
ENDBRANCH  14  15
ENDBRANCH   7  14
TORSDOF 5
ENDMDL
MODEL       52
REMARK 921   NORMALIZED FREE ENERGY PREDICTED BY IDOCK:   -6.18 KCAL/MOL
REMARK 922        TOTAL FREE ENERGY PREDICTED BY IDOCK:   -8.75 KCAL/MOL
REMARK 923 INTER-LIGAND FREE ENERGY PREDICTED BY IDOCK:   -8.03 KCAL/MOL
REMARK 924 INTRA-LIGAND FREE ENERGY PREDICTED BY IDOCK:   -0.72 KCAL/MOL
REMARK 927      BINDING AFFINITY PREDICTED BY RF-SCORE:    0.00 PKD
ROOT
HETATM    1  C   UNL     1     -11.456  11.974  65.178  1.00  0.00    -0.344 C  
HETATM    2  C   UNL     1     -11.587  12.353  66.624  1.00  0.00    -0.447 A  
HETATM    3  C   UNL     1     -11.335  11.437  67.662  1.00  0.00    -0.290 A  
HETATM    4  C   UNL     1     -11.277  11.883  68.981  1.00  0.00    -0.316 A  
HETATM    5  N   UNL     1     -11.910  14.093  68.287  1.00  0.00    -0.352 NA 
HETATM    6  C   UNL     1     -11.545  13.212  69.240  1.00  0.00    -0.314 A  
HETATM    7  C   UNL     1     -11.949  13.667  66.994  1.00  0.00    -0.406 A  
ENDROOT
BRANCH   3   8
HETATM    8  O   UNL     1     -11.060  10.097  67.527  1.00  0.00    -0.298 OA 
BRANCH   8   9
HETATM    9  C   UNL     1      -9.679   9.713  67.606  1.00  0.00    -0.149 C  
HETATM   10  C   UNL     1      -9.126   9.173  66.290  1.00  0.00    -0.178 C  
HETATM   11  F   UNL     1      -8.874   7.842  66.377  1.00  0.00    -0.126 F  
HETATM   12  F   UNL     1      -7.947   9.773  65.986  1.00  0.00    -0.105 F  
HETATM   13  F   UNL     1      -9.952   9.360  65.236  1.00  0.00    -0.363 F  
ENDBRANCH   8   9
ENDBRANCH   3   8
BRANCH   7  14
HETATM   14  C   UNL     1     -12.452  14.704  66.006  1.00  0.00    -0.034 C  
BRANCH  14  15
HETATM   15  S   UNL     1     -11.133  15.337  64.952  1.00  0.00    -0.399 S  
HETATM   16  O   UNL     1     -11.656  16.039  63.731  1.00  0.00    -0.613 OA 
BRANCH  15  17
HETATM   17  C   UNL     1     -10.475  16.583  65.967  1.00  0.00    -0.310 A  
HETATM   18  N   UNL     1      -9.874  16.398  67.124  1.00  0.00    -0.244 NA 
HETATM   19  C   UNL     1      -9.313  17.617  67.438  1.00  0.00    -0.247 A  
HETATM   20  H   UNL     1      -9.833  15.538  67.671  1.00  0.00     0.000 HD 
HETATM   21  C   UNL     1      -8.503  17.981  68.524  1.00  0.00    -0.314 A  
HETATM   22  C   UNL     1      -7.964  19.274  68.562  1.00  0.00    -0.396 A  
HETATM   23  C   UNL     1      -8.241  20.192  67.545  1.00  0.00    -0.373 A  
HETATM   24  C   UNL     1      -9.080  19.862  66.474  1.00  0.00    -0.464 A  
HETATM   25  C   UNL     1      -9.601  18.565  66.460  1.00  0.00    -0.329 A  
HETATM   26  N   UNL     1     -10.421  17.899  65.584  1.00  0.00    -0.619 NA 
ENDBRANCH  15  17
ENDBRANCH  14  15
ENDBRANCH   7  14
TORSDOF 5
ENDMDL
MODEL       53
REMARK 921   NORMALIZED FREE ENERGY PREDICTED BY IDOCK:   -6.16 KCAL/MOL
REMARK 922        TOTAL FREE ENERGY PREDICTED BY IDOCK:   -8.74 KCAL/MOL
REMARK 923 INTER-LIGAND FREE ENERGY PREDICTED BY IDOCK:   -8.07 KCAL/MOL
REMARK 924 INTRA-LIGAND FREE ENERGY PREDICTED BY IDOCK:   -0.67 KCAL/MOL
REMARK 927      BINDING AFFINITY PREDICTED BY RF-SCORE:    0.00 PKD
ROOT
HETATM    1  C   UNL     1     -10.793  10.254  67.413  1.00  0.00    -0.336 C  
HETATM    2  C   UNL     1     -10.487  10.681  66.007  1.00  0.00    -0.250 A  
HETATM    3  C   UNL     1      -9.611   9.955  65.179  1.00  0.00    -0.300 A  
HETATM    4  C   UNL     1      -9.511  10.274  63.827  1.00  0.00    -0.352 A  
HETATM    5  N   UNL     1     -10.980  12.148  64.136  1.00  0.00    -0.330 NA 
HETATM    6  C   UNL     1     -10.226  11.354  63.350  1.00  0.00    -0.411 A  
HETATM    7  C   UNL     1     -11.097  11.829  65.455  1.00  0.00    -0.280 A  
ENDROOT
BRANCH   3   8
HETATM    8  O   UNL     1      -8.850   8.869  65.541  1.00  0.00    -0.178 OA 
BRANCH   8   9
HETATM    9  C   UNL     1      -8.127   8.211  64.489  1.00  0.00    -0.142 C  
HETATM   10  C   UNL     1      -7.981   6.708  64.704  1.00  0.00    -0.113 C  
HETATM   11  F   UNL     1      -6.692   6.377  64.973  1.00  0.00    -0.036 F  
HETATM   12  F   UNL     1      -8.330   6.029  63.582  1.00  0.00    -0.118 F  
HETATM   13  F   UNL     1      -8.740   6.227  65.714  1.00  0.00    -0.143 F  
ENDBRANCH   8   9
ENDBRANCH   3   8
BRANCH   7  14
HETATM   14  C   UNL     1     -11.894  12.827  66.275  1.00  0.00    -0.423 C  
BRANCH  14  15
HETATM   15  S   UNL     1     -10.850  14.114  66.985  1.00  0.00    -0.299 S  
HETATM   16  O   UNL     1     -11.084  15.459  66.358  1.00  0.00    -0.313 OA 
BRANCH  15  17
HETATM   17  C   UNL     1     -11.510  14.220  68.589  1.00  0.00    -0.296 A  
HETATM   18  N   UNL     1     -12.084  15.279  69.118  1.00  0.00    -0.550 NA 
HETATM   19  C   UNL     1     -12.659  14.831  70.287  1.00  0.00    -0.315 A  
HETATM   20  H   UNL     1     -12.101  16.228  68.744  1.00  0.00     0.000 HD 
HETATM   21  C   UNL     1     -13.454  15.517  71.219  1.00  0.00    -0.560 A  
HETATM   22  C   UNL     1     -14.014  14.801  72.285  1.00  0.00    -0.598 A  
HETATM   23  C   UNL     1     -13.773  13.432  72.431  1.00  0.00    -0.698 A  
HETATM   24  C   UNL     1     -12.949  12.739  71.536  1.00  0.00    -0.388 A  
HETATM   25  C   UNL     1     -12.407  13.476  70.480  1.00  0.00    -0.342 A  
HETATM   26  N   UNL     1     -11.592  13.138  69.429  1.00  0.00    -0.295 NA 
ENDBRANCH  15  17
ENDBRANCH  14  15
ENDBRANCH   7  14
TORSDOF 5
ENDMDL
MODEL       54
REMARK 921   NORMALIZED FREE ENERGY PREDICTED BY IDOCK:   -6.15 KCAL/MOL
REMARK 922        TOTAL FREE ENERGY PREDICTED BY IDOCK:   -8.71 KCAL/MOL
REMARK 923 INTER-LIGAND FREE ENERGY PREDICTED BY IDOCK:   -7.67 KCAL/MOL
REMARK 924 INTRA-LIGAND FREE ENERGY PREDICTED BY IDOCK:   -1.04 KCAL/MOL
REMARK 927      BINDING AFFINITY PREDICTED BY RF-SCORE:    0.00 PKD
ROOT
HETATM    1  C   UNL     1     -11.649  11.035  68.668  1.00  0.00    -0.385 C  
HETATM    2  C   UNL     1     -12.074  11.838  69.862  1.00  0.00    -0.359 A  
HETATM    3  C   UNL     1     -11.877  13.229  69.936  1.00  0.00    -0.310 A  
HETATM    4  C   UNL     1     -12.461  13.958  70.969  1.00  0.00    -0.452 A  
HETATM    5  N   UNL     1     -13.270  11.933  71.973  1.00  0.00    -0.456 NA 
HETATM    6  C   UNL     1     -13.162  13.276  71.943  1.00  0.00    -0.431 A  
HETATM    7  C   UNL     1     -12.718  11.216  70.954  1.00  0.00    -0.344 A  
ENDROOT
BRANCH   3   8
HETATM    8  O   UNL     1     -11.198  14.012  69.033  1.00  0.00    -0.254 OA 
BRANCH   8   9
HETATM    9  C   UNL     1     -11.993  14.724  68.073  1.00  0.00    -0.227 C  
HETATM   10  C   UNL     1     -11.695  14.330  66.629  1.00  0.00    -0.400 C  
HETATM   11  F   UNL     1     -11.078  15.341  65.966  1.00  0.00    -0.328 F  
HETATM   12  F   UNL     1     -12.847  14.071  65.959  1.00  0.00    -0.490 F  
HETATM   13  F   UNL     1     -10.912  13.234  66.516  1.00  0.00    -0.278 F  
ENDBRANCH   8   9
ENDBRANCH   3   8
BRANCH   7  14
HETATM   14  C   UNL     1     -12.817   9.711  71.120  1.00  0.00    -0.316 C  
BRANCH  14  15
HETATM   15  S   UNL     1     -11.327   9.006  71.852  1.00  0.00    -0.327 S  
HETATM   16  O   UNL     1     -11.629   7.908  72.832  1.00  0.00    -0.383 OA 
BRANCH  15  17
HETATM   17  C   UNL     1     -10.624   8.224  70.470  1.00  0.00    -0.219 A  
HETATM   18  N   UNL     1     -11.224   7.349  69.690  1.00  0.00    -0.456 NA 
HETATM   19  C   UNL     1     -10.384   7.195  68.609  1.00  0.00    -0.187 A  
HETATM   20  H   UNL     1     -12.117   6.886  69.851  1.00  0.00     0.000 HD 
HETATM   21  C   UNL     1     -10.551   6.434  67.441  1.00  0.00    -0.363 A  
HETATM   22  C   UNL     1      -9.587   6.528  66.430  1.00  0.00    -0.151 A  
HETATM   23  C   UNL     1      -8.468   7.351  66.584  1.00  0.00    -0.124 A  
HETATM   24  C   UNL     1      -8.261   8.085  67.758  1.00  0.00    -0.129 A  
HETATM   25  C   UNL     1      -9.240   7.976  68.749  1.00  0.00    -0.143 A  
HETATM   26  N   UNL     1      -9.380   8.547  69.989  1.00  0.00    -0.161 NA 
ENDBRANCH  15  17
ENDBRANCH  14  15
ENDBRANCH   7  14
TORSDOF 5
ENDMDL
MODEL       55
REMARK 921   NORMALIZED FREE ENERGY PREDICTED BY IDOCK:   -6.15 KCAL/MOL
REMARK 922        TOTAL FREE ENERGY PREDICTED BY IDOCK:   -8.71 KCAL/MOL
REMARK 923 INTER-LIGAND FREE ENERGY PREDICTED BY IDOCK:   -7.82 KCAL/MOL
REMARK 924 INTRA-LIGAND FREE ENERGY PREDICTED BY IDOCK:   -0.89 KCAL/MOL
REMARK 927      BINDING AFFINITY PREDICTED BY RF-SCORE:    0.00 PKD
ROOT
HETATM    1  C   UNL     1      -9.105  12.285  66.498  1.00  0.00    -0.188 C  
HETATM    2  C   UNL     1     -10.016  13.295  67.131  1.00  0.00    -0.238 A  
HETATM    3  C   UNL     1     -11.416  13.205  67.031  1.00  0.00    -0.336 A  
HETATM    4  C   UNL     1     -12.222  14.047  67.794  1.00  0.00    -0.209 A  
HETATM    5  N   UNL     1     -10.283  15.204  68.609  1.00  0.00    -0.221 NA 
HETATM    6  C   UNL     1     -11.615  15.006  68.579  1.00  0.00    -0.326 A  
HETATM    7  C   UNL     1      -9.489  14.371  67.879  1.00  0.00    -0.214 A  
ENDROOT
BRANCH   3   8
HETATM    8  O   UNL     1     -12.130  12.298  66.283  1.00  0.00    -0.626 OA 
BRANCH   8   9
HETATM    9  C   UNL     1     -12.653  12.767  65.031  1.00  0.00    -0.468 C  
HETATM   10  C   UNL     1     -12.016  12.092  63.819  1.00  0.00    -0.513 C  
HETATM   11  F   UNL     1     -11.237  12.964  63.129  1.00  0.00    -0.457 F  
HETATM   12  F   UNL     1     -12.971  11.658  62.958  1.00  0.00    -0.682 F  
HETATM   13  F   UNL     1     -11.247  11.026  64.133  1.00  0.00    -0.400 F  
ENDBRANCH   8   9
ENDBRANCH   3   8
BRANCH   7  14
HETATM   14  C   UNL     1      -8.013  14.725  67.907  1.00  0.00    -0.140 C  
BRANCH  14  15
HETATM   15  S   UNL     1      -7.625  15.925  69.196  1.00  0.00    -0.220 S  
HETATM   16  O   UNL     1      -6.285  15.679  69.830  1.00  0.00    -0.157 OA 
BRANCH  15  17
HETATM   17  C   UNL     1      -7.439  17.370  68.249  1.00  0.00    -0.227 A  
HETATM   18  N   UNL     1      -7.397  18.599  68.718  1.00  0.00    -0.299 NA 
HETATM   19  C   UNL     1      -6.999  19.378  67.654  1.00  0.00    -0.222 A  
HETATM   20  H   UNL     1      -7.612  18.909  69.666  1.00  0.00     0.000 HD 
HETATM   21  C   UNL     1      -6.725  20.753  67.598  1.00  0.00    -0.394 A  
HETATM   22  C   UNL     1      -6.228  21.295  66.406  1.00  0.00    -0.319 A  
HETATM   23  C   UNL     1      -6.021  20.486  65.285  1.00  0.00    -0.265 A  
HETATM   24  C   UNL     1      -6.328  19.120  65.307  1.00  0.00    -0.315 A  
HETATM   25  C   UNL     1      -6.819  18.605  66.510  1.00  0.00    -0.206 A  
HETATM   26  N   UNL     1      -7.199  17.345  66.898  1.00  0.00    -0.179 NA 
ENDBRANCH  15  17
ENDBRANCH  14  15
ENDBRANCH   7  14
TORSDOF 5
ENDMDL
MODEL       56
REMARK 921   NORMALIZED FREE ENERGY PREDICTED BY IDOCK:   -6.13 KCAL/MOL
REMARK 922        TOTAL FREE ENERGY PREDICTED BY IDOCK:   -8.69 KCAL/MOL
REMARK 923 INTER-LIGAND FREE ENERGY PREDICTED BY IDOCK:   -7.73 KCAL/MOL
REMARK 924 INTRA-LIGAND FREE ENERGY PREDICTED BY IDOCK:   -0.97 KCAL/MOL
REMARK 927      BINDING AFFINITY PREDICTED BY RF-SCORE:    0.00 PKD
ROOT
HETATM    1  C   UNL     1     -11.331  10.625  67.628  1.00  0.00    -0.284 C  
HETATM    2  C   UNL     1     -10.082  11.407  67.906  1.00  0.00    -0.198 A  
HETATM    3  C   UNL     1      -9.000  10.859  68.620  1.00  0.00    -0.162 A  
HETATM    4  C   UNL     1      -7.791  11.548  68.683  1.00  0.00    -0.137 A  
HETATM    5  N   UNL     1      -8.761  13.407  67.513  1.00  0.00    -0.192 NA 
HETATM    6  C   UNL     1      -7.712  12.796  68.100  1.00  0.00    -0.137 A  
HETATM    7  C   UNL     1      -9.941  12.730  67.432  1.00  0.00    -0.212 A  
ENDROOT
BRANCH   3   8
HETATM    8  O   UNL     1      -8.963   9.634  69.242  1.00  0.00    -0.151 OA 
BRANCH   8   9
HETATM    9  C   UNL     1      -9.164   9.628  70.664  1.00  0.00    -0.084 C  
HETATM   10  C   UNL     1     -10.480   8.982  71.085  1.00  0.00    -0.293 C  
HETATM   11  F   UNL     1     -11.343   9.908  71.577  1.00  0.00    -0.424 F  
HETATM   12  F   UNL     1     -10.272   8.079  72.078  1.00  0.00    -0.221 F  
HETATM   13  F   UNL     1     -11.113   8.333  70.083  1.00  0.00    -0.253 F  
ENDBRANCH   8   9
ENDBRANCH   3   8
BRANCH   7  14
HETATM   14  C   UNL     1     -11.084  13.529  66.833  1.00  0.00    -0.296 C  
BRANCH  14  15
HETATM   15  S   UNL     1     -10.548  14.554  65.450  1.00  0.00    -0.398 S  
HETATM   16  O   UNL     1     -11.542  14.572  64.324  1.00  0.00    -0.331 OA 
BRANCH  15  17
HETATM   17  C   UNL     1     -10.620  16.134  66.168  1.00  0.00    -0.283 A  
HETATM   18  N   UNL     1     -10.596  16.397  67.458  1.00  0.00    -0.312 NA 
HETATM   19  C   UNL     1     -10.429  17.761  67.544  1.00  0.00    -0.372 A  
HETATM   20  H   UNL     1     -10.683  15.733  68.227  1.00  0.00     0.000 HD 
HETATM   21  C   UNL     1     -10.270  18.578  68.675  1.00  0.00    -0.363 A  
HETATM   22  C   UNL     1     -10.007  19.942  68.491  1.00  0.00    -0.507 A  
HETATM   23  C   UNL     1      -9.920  20.485  67.206  1.00  0.00    -0.528 A  
HETATM   24  C   UNL     1     -10.117  19.696  66.067  1.00  0.00    -0.553 A  
HETATM   25  C   UNL     1     -10.374  18.339  66.279  1.00  0.00    -0.405 A  
HETATM   26  N   UNL     1     -10.594  17.287  65.425  1.00  0.00    -0.631 NA 
ENDBRANCH  15  17
ENDBRANCH  14  15
ENDBRANCH   7  14
TORSDOF 5
ENDMDL
MODEL       57
REMARK 921   NORMALIZED FREE ENERGY PREDICTED BY IDOCK:   -6.13 KCAL/MOL
REMARK 922        TOTAL FREE ENERGY PREDICTED BY IDOCK:   -8.69 KCAL/MOL
REMARK 923 INTER-LIGAND FREE ENERGY PREDICTED BY IDOCK:   -7.83 KCAL/MOL
REMARK 924 INTRA-LIGAND FREE ENERGY PREDICTED BY IDOCK:   -0.85 KCAL/MOL
REMARK 927      BINDING AFFINITY PREDICTED BY RF-SCORE:    0.00 PKD
ROOT
HETATM    1  C   UNL     1      -9.015  14.358  66.961  1.00  0.00    -0.257 C  
HETATM    2  C   UNL     1     -10.288  13.919  66.301  1.00  0.00    -0.293 A  
HETATM    3  C   UNL     1     -10.867  14.640  65.240  1.00  0.00    -0.377 A  
HETATM    4  C   UNL     1     -11.934  14.093  64.531  1.00  0.00    -0.476 A  
HETATM    5  N   UNL     1     -12.000  12.218  66.029  1.00  0.00    -0.609 NA 
HETATM    6  C   UNL     1     -12.447  12.880  64.943  1.00  0.00    -0.478 A  
HETATM    7  C   UNL     1     -10.943  12.738  66.714  1.00  0.00    -0.270 A  
ENDROOT
BRANCH   3   8
HETATM    8  O   UNL     1     -10.448  15.852  64.746  1.00  0.00    -0.538 OA 
BRANCH   8   9
HETATM    9  C   UNL     1     -11.119  17.018  65.247  1.00  0.00     0.097 C  
HETATM   10  C   UNL     1     -10.234  17.891  66.132  1.00  0.00    -0.343 C  
HETATM   11  F   UNL     1     -10.640  17.844  67.426  1.00  0.00    -0.356 F  
HETATM   12  F   UNL     1     -10.310  19.191  65.748  1.00  0.00    -0.438 F  
HETATM   13  F   UNL     1      -8.928  17.544  66.106  1.00  0.00    -0.272 F  
ENDBRANCH   8   9
ENDBRANCH   3   8
BRANCH   7  14
HETATM   14  C   UNL     1     -10.567  11.969  67.967  1.00  0.00    -0.208 C  
BRANCH  14  15
HETATM   15  S   UNL     1      -9.444  10.603  67.617  1.00  0.00    -0.154 S  
HETATM   16  O   UNL     1      -7.999  10.991  67.759  1.00  0.00    -0.111 OA 
BRANCH  15  17
HETATM   17  C   UNL     1      -9.783   9.551  68.958  1.00  0.00    -0.170 A  
HETATM   18  N   UNL     1      -9.841   9.909  70.224  1.00  0.00    -0.365 NA 
HETATM   19  C   UNL     1     -10.370   8.821  70.882  1.00  0.00    -0.223 A  
HETATM   20  H   UNL     1      -9.555  10.800  70.629  1.00  0.00     0.000 HD 
HETATM   21  C   UNL     1     -10.712   8.667  72.234  1.00  0.00    -0.383 A  
HETATM   22  C   UNL     1     -11.342   7.483  72.641  1.00  0.00    -0.395 A  
HETATM   23  C   UNL     1     -11.610   6.465  71.722  1.00  0.00    -0.367 A  
HETATM   24  C   UNL     1     -11.239   6.582  70.377  1.00  0.00    -0.414 A  
HETATM   25  C   UNL     1     -10.616   7.774  69.998  1.00  0.00    -0.238 A  
HETATM   26  N   UNL     1     -10.144   8.237  68.796  1.00  0.00    -0.195 NA 
ENDBRANCH  15  17
ENDBRANCH  14  15
ENDBRANCH   7  14
TORSDOF 5
ENDMDL
MODEL       58
REMARK 921   NORMALIZED FREE ENERGY PREDICTED BY IDOCK:   -6.10 KCAL/MOL
REMARK 922        TOTAL FREE ENERGY PREDICTED BY IDOCK:   -8.65 KCAL/MOL
REMARK 923 INTER-LIGAND FREE ENERGY PREDICTED BY IDOCK:   -7.69 KCAL/MOL
REMARK 924 INTRA-LIGAND FREE ENERGY PREDICTED BY IDOCK:   -0.96 KCAL/MOL
REMARK 927      BINDING AFFINITY PREDICTED BY RF-SCORE:    0.00 PKD
ROOT
HETATM    1  C   UNL     1      -8.849  12.971  68.034  1.00  0.00    -0.191 C  
HETATM    2  C   UNL     1     -10.128  13.050  67.254  1.00  0.00    -0.235 A  
HETATM    3  C   UNL     1     -11.190  13.888  67.641  1.00  0.00    -0.295 A  
HETATM    4  C   UNL     1     -12.272  14.077  66.785  1.00  0.00    -0.439 A  
HETATM    5  N   UNL     1     -11.370  12.466  65.250  1.00  0.00    -0.321 NA 
HETATM    6  C   UNL     1     -12.307  13.370  65.600  1.00  0.00    -0.470 A  
HETATM    7  C   UNL     1     -10.299  12.292  66.074  1.00  0.00    -0.245 A  
ENDROOT
BRANCH   3   8
HETATM    8  O   UNL     1     -11.268  14.636  68.792  1.00  0.00    -0.243 OA 
BRANCH   8   9
HETATM    9  C   UNL     1     -12.284  14.261  69.735  1.00  0.00    -0.339 C  
HETATM   10  C   UNL     1     -12.398  15.222  70.914  1.00  0.00    -0.377 C  
HETATM   11  F   UNL     1     -11.970  14.638  72.063  1.00  0.00    -0.382 F  
HETATM   12  F   UNL     1     -13.693  15.576  71.117  1.00  0.00    -0.520 F  
HETATM   13  F   UNL     1     -11.693  16.365  70.755  1.00  0.00    -0.389 F  
ENDBRANCH   8   9
ENDBRANCH   3   8
BRANCH   7  14
HETATM   14  C   UNL     1      -9.344  11.195  65.640  1.00  0.00    -0.219 C  
BRANCH  14  15
HETATM   15  S   UNL     1     -10.004   9.549  65.963  1.00  0.00    -0.238 S  
HETATM   16  O   UNL     1      -9.000   8.462  65.704  1.00  0.00    -0.179 OA 
BRANCH  15  17
HETATM   17  C   UNL     1     -10.200   9.609  67.688  1.00  0.00    -0.216 A  
HETATM   18  N   UNL     1     -11.341   9.744  68.331  1.00  0.00    -0.517 NA 
HETATM   19  C   UNL     1     -11.041   9.495  69.652  1.00  0.00    -0.171 A  
HETATM   20  H   UNL     1     -12.250   9.981  67.936  1.00  0.00     0.000 HD 
HETATM   21  C   UNL     1     -11.887   9.437  70.771  1.00  0.00    -0.323 A  
HETATM   22  C   UNL     1     -11.348   9.056  72.006  1.00  0.00    -0.395 A  
HETATM   23  C   UNL     1      -9.989   8.756  72.130  1.00  0.00    -0.359 A  
HETATM   24  C   UNL     1      -9.120   8.849  71.036  1.00  0.00    -0.303 A  
HETATM   25  C   UNL     1      -9.685   9.227  69.815  1.00  0.00    -0.189 A  
HETATM   26  N   UNL     1      -9.160   9.400  68.559  1.00  0.00    -0.131 NA 
ENDBRANCH  15  17
ENDBRANCH  14  15
ENDBRANCH   7  14
TORSDOF 5
ENDMDL
MODEL       59
REMARK 921   NORMALIZED FREE ENERGY PREDICTED BY IDOCK:   -6.08 KCAL/MOL
REMARK 922        TOTAL FREE ENERGY PREDICTED BY IDOCK:   -8.62 KCAL/MOL
REMARK 923 INTER-LIGAND FREE ENERGY PREDICTED BY IDOCK:   -7.83 KCAL/MOL
REMARK 924 INTRA-LIGAND FREE ENERGY PREDICTED BY IDOCK:   -0.79 KCAL/MOL
REMARK 927      BINDING AFFINITY PREDICTED BY RF-SCORE:    0.00 PKD
ROOT
HETATM    1  C   UNL     1     -10.704  11.753  69.160  1.00  0.00    -0.169 C  
HETATM    2  C   UNL     1     -10.220  11.028  67.940  1.00  0.00    -0.207 A  
HETATM    3  C   UNL     1     -10.235   9.623  67.850  1.00  0.00    -0.198 A  
HETATM    4  C   UNL     1      -9.963   9.003  66.632  1.00  0.00    -0.349 A  
HETATM    5  N   UNL     1      -9.467  11.130  65.633  1.00  0.00    -0.216 NA 
HETATM    6  C   UNL     1      -9.611   9.792  65.555  1.00  0.00    -0.282 A  
HETATM    7  C   UNL     1      -9.750  11.743  66.816  1.00  0.00    -0.197 A  
ENDROOT
BRANCH   3   8
HETATM    8  O   UNL     1     -10.564   8.740  68.850  1.00  0.00    -0.215 OA 
BRANCH   8   9
HETATM    9  C   UNL     1      -9.479   8.222  69.634  1.00  0.00    -0.163 C  
HETATM   10  C   UNL     1      -9.400   8.829  71.032  1.00  0.00    -0.222 C  
HETATM   11  F   UNL     1      -8.309   9.628  71.155  1.00  0.00    -0.147 F  
HETATM   12  F   UNL     1      -9.275   7.855  71.969  1.00  0.00    -0.152 F  
HETATM   13  F   UNL     1     -10.481   9.568  71.365  1.00  0.00    -0.368 F  
ENDBRANCH   8   9
ENDBRANCH   3   8
BRANCH   7  14
HETATM   14  C   UNL     1      -9.477  13.236  66.831  1.00  0.00    -0.249 C  
BRANCH  14  15
HETATM   15  S   UNL     1     -10.340  14.100  65.505  1.00  0.00    -0.368 S  
HETATM   16  O   UNL     1     -11.749  13.612  65.318  1.00  0.00    -0.317 OA 
BRANCH  15  17
HETATM   17  C   UNL     1     -10.479  15.690  66.189  1.00  0.00    -0.317 A  
HETATM   18  N   UNL     1     -10.356  15.995  67.464  1.00  0.00    -0.280 NA 
HETATM   19  C   UNL     1     -10.298  17.371  67.501  1.00  0.00    -0.351 A  
HETATM   20  H   UNL     1     -10.313  15.352  68.253  1.00  0.00     0.000 HD 
HETATM   21  C   UNL     1     -10.103  18.234  68.591  1.00  0.00    -0.407 A  
HETATM   22  C   UNL     1      -9.975  19.608  68.350  1.00  0.00    -0.543 A  
HETATM   23  C   UNL     1     -10.055  20.116  67.051  1.00  0.00    -0.599 A  
HETATM   24  C   UNL     1     -10.291  19.277  65.955  1.00  0.00    -0.556 A  
HETATM   25  C   UNL     1     -10.411  17.911  66.223  1.00  0.00    -0.364 A  
HETATM   26  N   UNL     1     -10.620  16.818  65.420  1.00  0.00    -0.596 NA 
ENDBRANCH  15  17
ENDBRANCH  14  15
ENDBRANCH   7  14
TORSDOF 5
ENDMDL
MODEL       60
REMARK 921   NORMALIZED FREE ENERGY PREDICTED BY IDOCK:   -6.07 KCAL/MOL
REMARK 922        TOTAL FREE ENERGY PREDICTED BY IDOCK:   -8.62 KCAL/MOL
REMARK 923 INTER-LIGAND FREE ENERGY PREDICTED BY IDOCK:   -7.78 KCAL/MOL
REMARK 924 INTRA-LIGAND FREE ENERGY PREDICTED BY IDOCK:   -0.83 KCAL/MOL
REMARK 927      BINDING AFFINITY PREDICTED BY RF-SCORE:    0.00 PKD
ROOT
HETATM    1  C   UNL     1     -13.719  12.862  72.292  1.00  0.00    -0.553 C  
HETATM    2  C   UNL     1     -12.897  12.691  71.049  1.00  0.00    -0.254 A  
HETATM    3  C   UNL     1     -12.304  11.461  70.709  1.00  0.00    -0.386 A  
HETATM    4  C   UNL     1     -11.718  11.297  69.455  1.00  0.00    -0.415 A  
HETATM    5  N   UNL     1     -12.118  13.608  68.939  1.00  0.00    -0.342 NA 
HETATM    6  C   UNL     1     -11.671  12.381  68.603  1.00  0.00    -0.326 A  
HETATM    7  C   UNL     1     -12.709  13.769  70.156  1.00  0.00    -0.091 A  
ENDROOT
BRANCH   3   8
HETATM    8  O   UNL     1     -12.286  10.319  71.473  1.00  0.00    -0.374 OA 
BRANCH   8   9
HETATM    9  C   UNL     1     -11.125   9.483  71.352  1.00  0.00    -0.368 C  
HETATM   10  C   UNL     1     -11.207   8.210  72.190  1.00  0.00    -0.329 C  
HETATM   11  F   UNL     1     -10.325   8.248  73.222  1.00  0.00    -0.361 F  
HETATM   12  F   UNL     1     -10.883   7.125  71.441  1.00  0.00    -0.234 F  
HETATM   13  F   UNL     1     -12.432   7.982  72.713  1.00  0.00    -0.285 F  
ENDBRANCH   8   9
ENDBRANCH   3   8
BRANCH   7  14
HETATM   14  C   UNL     1     -13.102  15.199  70.479  1.00  0.00    -0.277 C  
BRANCH  14  15
HETATM   15  S   UNL     1     -11.813  16.071  71.390  1.00  0.00    -0.453 S  
HETATM   16  O   UNL     1     -11.216  15.238  72.487  1.00  0.00    -0.367 OA 
BRANCH  15  17
HETATM   17  C   UNL     1     -10.582  16.198  70.171  1.00  0.00    -0.226 A  
HETATM   18  N   UNL     1      -9.663  15.293  69.906  1.00  0.00    -0.470 NA 
HETATM   19  C   UNL     1      -9.079  15.707  68.729  1.00  0.00    -0.208 A  
HETATM   20  H   UNL     1      -9.433  14.465  70.454  1.00  0.00     0.000 HD 
HETATM   21  C   UNL     1      -8.087  15.089  67.951  1.00  0.00    -0.142 A  
HETATM   22  C   UNL     1      -7.733  15.666  66.725  1.00  0.00    -0.169 A  
HETATM   23  C   UNL     1      -8.344  16.845  66.288  1.00  0.00    -0.331 A  
HETATM   24  C   UNL     1      -9.305  17.499  67.068  1.00  0.00    -0.262 A  
HETATM   25  C   UNL     1      -9.641  16.900  68.284  1.00  0.00    -0.258 A  
HETATM   26  N   UNL     1     -10.530  17.236  69.274  1.00  0.00    -0.305 NA 
ENDBRANCH  15  17
ENDBRANCH  14  15
ENDBRANCH   7  14
TORSDOF 5
ENDMDL
MODEL       61
REMARK 921   NORMALIZED FREE ENERGY PREDICTED BY IDOCK:   -6.06 KCAL/MOL
REMARK 922        TOTAL FREE ENERGY PREDICTED BY IDOCK:   -8.60 KCAL/MOL
REMARK 923 INTER-LIGAND FREE ENERGY PREDICTED BY IDOCK:   -7.78 KCAL/MOL
REMARK 924 INTRA-LIGAND FREE ENERGY PREDICTED BY IDOCK:   -0.82 KCAL/MOL
REMARK 927      BINDING AFFINITY PREDICTED BY RF-SCORE:    0.00 PKD
ROOT
HETATM    1  C   UNL     1     -10.894  17.025  68.625  1.00  0.00    -0.284 C  
HETATM    2  C   UNL     1     -11.299  15.606  68.898  1.00  0.00    -0.341 A  
HETATM    3  C   UNL     1     -11.991  15.239  70.068  1.00  0.00    -0.343 A  
HETATM    4  C   UNL     1     -12.518  13.954  70.187  1.00  0.00    -0.355 A  
HETATM    5  N   UNL     1     -11.518  13.324  68.096  1.00  0.00    -0.291 NA 
HETATM    6  C   UNL     1     -12.278  13.047  69.174  1.00  0.00    -0.061 A  
HETATM    7  C   UNL     1     -11.017  14.585  67.965  1.00  0.00    -0.260 A  
ENDROOT
BRANCH   3   8
HETATM    8  O   UNL     1     -12.285  16.050  71.138  1.00  0.00    -0.422 OA 
BRANCH   8   9
HETATM    9  C   UNL     1     -11.592  15.772  72.364  1.00  0.00    -0.409 C  
HETATM   10  C   UNL     1     -12.480  15.893  73.600  1.00  0.00    -0.596 C  
HETATM   11  F   UNL     1     -12.127  16.968  74.350  1.00  0.00    -0.566 F  
HETATM   12  F   UNL     1     -12.341  14.802  74.395  1.00  0.00    -0.639 F  
HETATM   13  F   UNL     1     -13.795  16.014  73.314  1.00  0.00    -0.654 F  
ENDBRANCH   8   9
ENDBRANCH   3   8
BRANCH   7  14
HETATM   14  C   UNL     1     -10.105  14.776  66.767  1.00  0.00    -0.256 C  
BRANCH  14  15
HETATM   15  S   UNL     1      -8.410  14.269  67.112  1.00  0.00    -0.140 S  
HETATM   16  O   UNL     1      -7.845  14.933  68.336  1.00  0.00    -0.111 OA 
BRANCH  15  17
HETATM   17  C   UNL     1      -8.651  12.605  67.548  1.00  0.00    -0.185 A  
HETATM   18  N   UNL     1      -8.799  12.141  68.771  1.00  0.00    -0.381 NA 
HETATM   19  C   UNL     1      -9.200  10.833  68.615  1.00  0.00    -0.184 A  
HETATM   20  H   UNL     1      -8.649  12.643  69.646  1.00  0.00     0.000 HD 
HETATM   21  C   UNL     1      -9.564   9.882  69.581  1.00  0.00    -0.249 A  
HETATM   22  C   UNL     1     -10.043   8.636  69.156  1.00  0.00    -0.203 A  
HETATM   23  C   UNL     1     -10.141   8.336  67.795  1.00  0.00    -0.262 A  
HETATM   24  C   UNL     1      -9.743   9.255  66.816  1.00  0.00    -0.260 A  
HETATM   25  C   UNL     1      -9.273  10.490  67.268  1.00  0.00    -0.143 A  
HETATM   26  N   UNL     1      -8.826  11.613  66.616  1.00  0.00    -0.184 NA 
ENDBRANCH  15  17
ENDBRANCH  14  15
ENDBRANCH   7  14
TORSDOF 5
ENDMDL
MODEL       62
REMARK 921   NORMALIZED FREE ENERGY PREDICTED BY IDOCK:   -6.04 KCAL/MOL
REMARK 922        TOTAL FREE ENERGY PREDICTED BY IDOCK:   -8.57 KCAL/MOL
REMARK 923 INTER-LIGAND FREE ENERGY PREDICTED BY IDOCK:   -7.80 KCAL/MOL
REMARK 924 INTRA-LIGAND FREE ENERGY PREDICTED BY IDOCK:   -0.77 KCAL/MOL
REMARK 927      BINDING AFFINITY PREDICTED BY RF-SCORE:    0.00 PKD
ROOT
HETATM    1  C   UNL     1     -11.616  12.917  67.321  1.00  0.00    -0.416 C  
HETATM    2  C   UNL     1     -11.765  13.534  68.680  1.00  0.00    -0.389 A  
HETATM    3  C   UNL     1     -11.662  14.923  68.885  1.00  0.00    -0.315 A  
HETATM    4  C   UNL     1     -12.002  15.468  70.122  1.00  0.00    -0.389 A  
HETATM    5  N   UNL     1     -12.353  13.269  71.021  1.00  0.00    -0.347 NA 
HETATM    6  C   UNL     1     -12.361  14.612  71.143  1.00  0.00    -0.335 A  
HETATM    7  C   UNL     1     -12.041  12.732  69.809  1.00  0.00    -0.237 A  
ENDROOT
BRANCH   3   8
HETATM    8  O   UNL     1     -11.314  15.868  67.950  1.00  0.00    -0.330 OA 
BRANCH   8   9
HETATM    9  C   UNL     1      -9.911  16.132  67.794  1.00  0.00    -0.232 C  
HETATM   10  C   UNL     1      -9.427  15.997  66.353  1.00  0.00    -0.293 C  
HETATM   11  F   UNL     1      -8.622  14.914  66.209  1.00  0.00    -0.262 F  
HETATM   12  F   UNL     1      -8.691  17.079  65.995  1.00  0.00    -0.296 F  
HETATM   13  F   UNL     1     -10.428  15.880  65.453  1.00  0.00    -0.332 F  
ENDBRANCH   8   9
ENDBRANCH   3   8
BRANCH   7  14
HETATM   14  C   UNL     1     -11.975  11.216  69.792  1.00  0.00    -0.357 C  
BRANCH  14  15
HETATM   15  S   UNL     1     -12.781  10.482  71.228  1.00  0.00    -0.462 S  
HETATM   16  O   UNL     1     -13.993   9.674  70.860  1.00  0.00    -0.111 OA 
BRANCH  15  17
HETATM   17  C   UNL     1     -11.579   9.331  71.723  1.00  0.00    -0.388 A  
HETATM   18  N   UNL     1     -10.291   9.396  71.456  1.00  0.00    -0.289 NA 
HETATM   19  C   UNL     1      -9.710   8.425  72.241  1.00  0.00    -0.316 A  
HETATM   20  H   UNL     1      -9.825  10.029  70.806  1.00  0.00     0.000 HD 
HETATM   21  C   UNL     1      -8.357   8.095  72.410  1.00  0.00    -0.227 A  
HETATM   22  C   UNL     1      -8.010   7.126  73.360  1.00  0.00    -0.122 A  
HETATM   23  C   UNL     1      -8.995   6.485  74.117  1.00  0.00    -0.176 A  
HETATM   24  C   UNL     1     -10.353   6.769  73.935  1.00  0.00    -0.397 A  
HETATM   25  C   UNL     1     -10.670   7.742  72.983  1.00  0.00    -0.384 A  
HETATM   26  N   UNL     1     -11.860   8.280  72.560  1.00  0.00    -0.398 NA 
ENDBRANCH  15  17
ENDBRANCH  14  15
ENDBRANCH   7  14
TORSDOF 5
ENDMDL
MODEL       63
REMARK 921   NORMALIZED FREE ENERGY PREDICTED BY IDOCK:   -6.03 KCAL/MOL
REMARK 922        TOTAL FREE ENERGY PREDICTED BY IDOCK:   -8.57 KCAL/MOL
REMARK 923 INTER-LIGAND FREE ENERGY PREDICTED BY IDOCK:   -8.11 KCAL/MOL
REMARK 924 INTRA-LIGAND FREE ENERGY PREDICTED BY IDOCK:   -0.46 KCAL/MOL
REMARK 927      BINDING AFFINITY PREDICTED BY RF-SCORE:    0.00 PKD
ROOT
HETATM    1  C   UNL     1      -8.680  14.122  66.842  1.00  0.00    -0.187 C  
HETATM    2  C   UNL     1      -9.988  14.336  66.139  1.00  0.00    -0.330 A  
HETATM    3  C   UNL     1     -10.273  15.521  65.436  1.00  0.00    -0.377 A  
HETATM    4  C   UNL     1     -11.413  15.597  64.639  1.00  0.00    -0.306 A  
HETATM    5  N   UNL     1     -12.102  13.418  65.374  1.00  0.00    -0.394 NA 
HETATM    6  C   UNL     1     -12.278  14.521  64.621  1.00  0.00    -0.460 A  
HETATM    7  C   UNL     1     -10.979  13.330  66.141  1.00  0.00    -0.279 A  
ENDROOT
BRANCH   3   8
HETATM    8  O   UNL     1      -9.494  16.652  65.382  1.00  0.00    -0.413 OA 
BRANCH   8   9
HETATM    9  C   UNL     1      -9.503  17.496  66.544  1.00  0.00    -0.272 C  
HETATM   10  C   UNL     1     -10.132  18.863  66.293  1.00  0.00    -0.414 C  
HETATM   11  F   UNL     1      -9.196  19.845  66.333  1.00  0.00    -0.358 F  
HETATM   12  F   UNL     1     -11.042  19.154  67.258  1.00  0.00    -0.536 F  
HETATM   13  F   UNL     1     -10.768  18.959  65.104  1.00  0.00    -0.330 F  
ENDBRANCH   8   9
ENDBRANCH   3   8
BRANCH   7  14
HETATM   14  C   UNL     1     -10.912  12.093  67.017  1.00  0.00    -0.271 C  
BRANCH  14  15
HETATM   15  S   UNL     1     -11.069  12.488  68.769  1.00  0.00    -0.277 S  
HETATM   16  O   UNL     1     -12.291  13.310  69.069  1.00  0.00    -0.184 OA 
BRANCH  15  17
HETATM   17  C   UNL     1     -11.386  10.914  69.431  1.00  0.00    -0.280 A  
HETATM   18  N   UNL     1     -11.022   9.765  68.899  1.00  0.00    -0.367 NA 
HETATM   19  C   UNL     1     -11.266   8.823  69.874  1.00  0.00    -0.051 A  
HETATM   20  H   UNL     1     -10.641   9.608  67.966  1.00  0.00     0.000 HD 
HETATM   21  C   UNL     1     -11.005   7.444  69.877  1.00  0.00    -0.239 A  
HETATM   22  C   UNL     1     -11.252   6.713  71.046  1.00  0.00    -0.349 A  
HETATM   23  C   UNL     1     -11.764   7.339  72.185  1.00  0.00    -0.323 A  
HETATM   24  C   UNL     1     -12.071   8.705  72.189  1.00  0.00    -0.451 A  
HETATM   25  C   UNL     1     -11.811   9.411  71.011  1.00  0.00    -0.322 A  
HETATM   26  N   UNL     1     -11.963  10.730  70.662  1.00  0.00    -0.339 NA 
ENDBRANCH  15  17
ENDBRANCH  14  15
ENDBRANCH   7  14
TORSDOF 5
ENDMDL
MODEL       64
REMARK 921   NORMALIZED FREE ENERGY PREDICTED BY IDOCK:   -6.03 KCAL/MOL
REMARK 922        TOTAL FREE ENERGY PREDICTED BY IDOCK:   -8.57 KCAL/MOL
REMARK 923 INTER-LIGAND FREE ENERGY PREDICTED BY IDOCK:   -7.95 KCAL/MOL
REMARK 924 INTRA-LIGAND FREE ENERGY PREDICTED BY IDOCK:   -0.61 KCAL/MOL
REMARK 927      BINDING AFFINITY PREDICTED BY RF-SCORE:    0.00 PKD
ROOT
HETATM    1  C   UNL     1     -11.242  14.856  69.334  1.00  0.00    -0.302 C  
HETATM    2  C   UNL     1     -11.121  15.489  67.980  1.00  0.00    -0.322 A  
HETATM    3  C   UNL     1     -10.622  16.794  67.808  1.00  0.00    -0.341 A  
HETATM    4  C   UNL     1     -10.343  17.266  66.527  1.00  0.00    -0.308 A  
HETATM    5  N   UNL     1     -11.228  15.252  65.565  1.00  0.00    -0.311 NA 
HETATM    6  C   UNL     1     -10.637  16.458  65.448  1.00  0.00    -0.320 A  
HETATM    7  C   UNL     1     -11.485  14.777  66.817  1.00  0.00    -0.338 A  
ENDROOT
BRANCH   3   8
HETATM    8  O   UNL     1     -10.296  17.687  68.801  1.00  0.00    -0.362 OA 
BRANCH   8   9
HETATM    9  C   UNL     1      -9.621  18.886  68.391  1.00  0.00    -0.369 C  
HETATM   10  C   UNL     1      -8.108  18.822  68.577  1.00  0.00    -0.346 C  
HETATM   11  F   UNL     1      -7.703  19.655  69.570  1.00  0.00    -0.373 F  
HETATM   12  F   UNL     1      -7.472  19.224  67.448  1.00  0.00    -0.235 F  
HETATM   13  F   UNL     1      -7.649  17.586  68.875  1.00  0.00    -0.250 F  
ENDBRANCH   8   9
ENDBRANCH   3   8
BRANCH   7  14
HETATM   14  C   UNL     1     -12.227  13.454  66.846  1.00  0.00    -0.289 C  
BRANCH  14  15
HETATM   15  S   UNL     1     -11.236  12.101  66.183  1.00  0.00    -0.352 S  
HETATM   16  O   UNL     1      -9.827  12.518  65.867  1.00  0.00    -0.256 OA 
BRANCH  15  17
HETATM   17  C   UNL     1     -11.120  11.070  67.576  1.00  0.00    -0.302 A  
HETATM   18  N   UNL     1     -10.039  10.436  67.979  1.00  0.00    -0.158 NA 
HETATM   19  C   UNL     1     -10.350   9.954  69.232  1.00  0.00    -0.219 A  
HETATM   20  H   UNL     1      -9.161  10.325  67.473  1.00  0.00     0.000 HD 
HETATM   21  C   UNL     1      -9.550   9.259  70.152  1.00  0.00    -0.254 A  
HETATM   22  C   UNL     1     -10.074   8.968  71.418  1.00  0.00    -0.399 A  
HETATM   23  C   UNL     1     -11.376   9.346  71.756  1.00  0.00    -0.387 A  
HETATM   24  C   UNL     1     -12.205  10.002  70.838  1.00  0.00    -0.441 A  
HETATM   25  C   UNL     1     -11.655  10.284  69.585  1.00  0.00    -0.201 A  
HETATM   26  N   UNL     1     -12.150  10.913  68.470  1.00  0.00    -0.519 NA 
ENDBRANCH  15  17
ENDBRANCH  14  15
ENDBRANCH   7  14
TORSDOF 5
ENDMDL
MODEL       65
REMARK 921   NORMALIZED FREE ENERGY PREDICTED BY IDOCK:   -6.01 KCAL/MOL
REMARK 922        TOTAL FREE ENERGY PREDICTED BY IDOCK:   -8.53 KCAL/MOL
REMARK 923 INTER-LIGAND FREE ENERGY PREDICTED BY IDOCK:   -7.83 KCAL/MOL
REMARK 924 INTRA-LIGAND FREE ENERGY PREDICTED BY IDOCK:   -0.70 KCAL/MOL
REMARK 927      BINDING AFFINITY PREDICTED BY RF-SCORE:    0.00 PKD
ROOT
HETATM    1  C   UNL     1      -9.722   9.940  69.886  1.00  0.00    -0.274 C  
HETATM    2  C   UNL     1     -11.050   9.897  70.582  1.00  0.00    -0.409 A  
HETATM    3  C   UNL     1     -11.462   8.784  71.338  1.00  0.00    -0.297 A  
HETATM    4  C   UNL     1     -12.609   8.866  72.124  1.00  0.00    -0.467 A  
HETATM    5  N   UNL     1     -13.063  11.066  71.276  1.00  0.00    -0.344 NA 
HETATM    6  C   UNL     1     -13.357  10.025  72.080  1.00  0.00    -0.409 A  
HETATM    7  C   UNL     1     -11.931  10.999  70.519  1.00  0.00    -0.379 A  
ENDROOT
BRANCH   3   8
HETATM    8  O   UNL     1     -10.805   7.583  71.456  1.00  0.00    -0.226 OA 
BRANCH   8   9
HETATM    9  C   UNL     1     -11.416   6.450  70.821  1.00  0.00    -0.353 C  
HETATM   10  C   UNL     1     -10.687   5.998  69.559  1.00  0.00    -0.335 C  
HETATM   11  F   UNL     1     -11.427   6.254  68.450  1.00  0.00    -0.403 F  
HETATM   12  F   UNL     1     -10.476   4.657  69.584  1.00  0.00    -0.299 F  
HETATM   13  F   UNL     1      -9.483   6.587  69.386  1.00  0.00    -0.143 F  
ENDBRANCH   8   9
ENDBRANCH   3   8
BRANCH   7  14
HETATM   14  C   UNL     1     -11.730  12.178  69.585  1.00  0.00    -0.325 C  
BRANCH  14  15
HETATM   15  S   UNL     1     -12.524  13.676  70.198  1.00  0.00    -0.178 S  
HETATM   16  O   UNL     1     -12.090  14.032  71.591  1.00  0.00    -0.239 OA 
BRANCH  15  17
HETATM   17  C   UNL     1     -11.806  14.871  69.161  1.00  0.00    -0.307 A  
HETATM   18  N   UNL     1     -11.649  16.147  69.448  1.00  0.00    -0.300 NA 
HETATM   19  C   UNL     1     -10.832  16.641  68.455  1.00  0.00    -0.361 A  
HETATM   20  H   UNL     1     -12.046  16.658  70.235  1.00  0.00     0.000 HD 
HETATM   21  C   UNL     1     -10.286  17.924  68.295  1.00  0.00    -0.391 A  
HETATM   22  C   UNL     1      -9.388  18.150  67.244  1.00  0.00    -0.252 A  
HETATM   23  C   UNL     1      -9.052  17.122  66.359  1.00  0.00    -0.285 A  
HETATM   24  C   UNL     1      -9.617  15.847  66.476  1.00  0.00    -0.291 A  
HETATM   25  C   UNL     1     -10.507  15.649  67.535  1.00  0.00    -0.285 A  
HETATM   26  N   UNL     1     -11.220  14.556  67.961  1.00  0.00    -0.279 NA 
ENDBRANCH  15  17
ENDBRANCH  14  15
ENDBRANCH   7  14
TORSDOF 5
ENDMDL
MODEL       66
REMARK 921   NORMALIZED FREE ENERGY PREDICTED BY IDOCK:   -5.99 KCAL/MOL
REMARK 922        TOTAL FREE ENERGY PREDICTED BY IDOCK:   -8.51 KCAL/MOL
REMARK 923 INTER-LIGAND FREE ENERGY PREDICTED BY IDOCK:   -8.03 KCAL/MOL
REMARK 924 INTRA-LIGAND FREE ENERGY PREDICTED BY IDOCK:   -0.48 KCAL/MOL
REMARK 927      BINDING AFFINITY PREDICTED BY RF-SCORE:    0.00 PKD
ROOT
HETATM    1  C   UNL     1      -9.152  11.604  66.659  1.00  0.00    -0.196 C  
HETATM    2  C   UNL     1     -10.008  12.654  67.303  1.00  0.00    -0.212 A  
HETATM    3  C   UNL     1     -11.400  12.709  67.103  1.00  0.00    -0.319 A  
HETATM    4  C   UNL     1     -12.177  13.573  67.872  1.00  0.00    -0.168 A  
HETATM    5  N   UNL     1     -10.202  14.477  68.896  1.00  0.00    -0.234 NA 
HETATM    6  C   UNL     1     -11.542  14.413  68.764  1.00  0.00    -0.315 A  
HETATM    7  C   UNL     1      -9.439  13.620  68.161  1.00  0.00    -0.217 A  
ENDROOT
BRANCH   3   8
HETATM    8  O   UNL     1     -12.138  11.929  66.246  1.00  0.00    -0.535 OA 
BRANCH   8   9
HETATM    9  C   UNL     1     -12.635  12.569  65.060  1.00  0.00    -0.345 C  
HETATM   10  C   UNL     1     -11.942  12.099  63.784  1.00  0.00    -0.513 C  
HETATM   11  F   UNL     1     -11.167  13.083  63.260  1.00  0.00    -0.433 F  
HETATM   12  F   UNL     1     -12.858  11.779  62.835  1.00  0.00    -0.639 F  
HETATM   13  F   UNL     1     -11.154  11.015  63.961  1.00  0.00    -0.437 F  
ENDBRANCH   8   9
ENDBRANCH   3   8
BRANCH   7  14
HETATM   14  C   UNL     1      -7.943  13.824  68.313  1.00  0.00    -0.146 C  
BRANCH  14  15
HETATM   15  S   UNL     1      -7.550  15.182  69.432  1.00  0.00    -0.203 S  
HETATM   16  O   UNL     1      -6.071  15.374  69.613  1.00  0.00    -0.124 OA 
BRANCH  15  17
HETATM   17  C   UNL     1      -8.090  16.542  68.495  1.00  0.00    -0.218 A  
HETATM   18  N   UNL     1      -8.773  16.482  67.371  1.00  0.00    -0.181 NA 
HETATM   19  C   UNL     1      -9.182  17.775  67.128  1.00  0.00    -0.253 A  
HETATM   20  H   UNL     1      -8.959  15.656  66.803  1.00  0.00     0.000 HD 
HETATM   21  C   UNL     1      -9.994  18.284  66.103  1.00  0.00    -0.313 A  
HETATM   22  C   UNL     1     -10.356  19.637  66.136  1.00  0.00    -0.627 A  
HETATM   23  C   UNL     1      -9.904  20.471  67.162  1.00  0.00    -0.567 A  
HETATM   24  C   UNL     1      -9.058  19.993  68.170  1.00  0.00    -0.299 A  
HETATM   25  C   UNL     1      -8.717  18.640  68.114  1.00  0.00    -0.311 A  
HETATM   26  N   UNL     1      -7.946  17.839  68.920  1.00  0.00    -0.225 NA 
ENDBRANCH  15  17
ENDBRANCH  14  15
ENDBRANCH   7  14
TORSDOF 5
ENDMDL
MODEL       67
REMARK 921   NORMALIZED FREE ENERGY PREDICTED BY IDOCK:   -5.98 KCAL/MOL
REMARK 922        TOTAL FREE ENERGY PREDICTED BY IDOCK:   -8.50 KCAL/MOL
REMARK 923 INTER-LIGAND FREE ENERGY PREDICTED BY IDOCK:   -7.84 KCAL/MOL
REMARK 924 INTRA-LIGAND FREE ENERGY PREDICTED BY IDOCK:   -0.67 KCAL/MOL
REMARK 927      BINDING AFFINITY PREDICTED BY RF-SCORE:    0.00 PKD
ROOT
HETATM    1  C   UNL     1     -10.651   6.277  69.558  1.00  0.00    -0.331 C  
HETATM    2  C   UNL     1      -9.906   6.853  70.726  1.00  0.00    -0.190 A  
HETATM    3  C   UNL     1      -9.179   6.045  71.620  1.00  0.00    -0.145 A  
HETATM    4  C   UNL     1      -8.346   6.635  72.568  1.00  0.00    -0.113 A  
HETATM    5  N   UNL     1      -9.090   8.817  71.896  1.00  0.00    -0.331 NA 
HETATM    6  C   UNL     1      -8.316   8.012  72.652  1.00  0.00    -0.166 A  
HETATM    7  C   UNL     1      -9.891   8.246  70.954  1.00  0.00    -0.182 A  
ENDROOT
BRANCH   3   8
HETATM    8  O   UNL     1      -9.134   4.671  71.634  1.00  0.00    -0.129 OA 
BRANCH   8   9
HETATM    9  C   UNL     1      -9.421   4.031  72.887  1.00  0.00    -0.123 C  
HETATM   10  C   UNL     1     -10.843   4.280  73.381  1.00  0.00    -0.253 C  
HETATM   11  F   UNL     1     -10.845   5.078  74.480  1.00  0.00    -0.309 F  
HETATM   12  F   UNL     1     -11.431   3.112  73.748  1.00  0.00    -0.300 F  
HETATM   13  F   UNL     1     -11.645   4.858  72.460  1.00  0.00    -0.210 F  
ENDBRANCH   8   9
ENDBRANCH   3   8
BRANCH   7  14
HETATM   14  C   UNL     1     -10.785   9.224  70.214  1.00  0.00    -0.243 C  
BRANCH  14  15
HETATM   15  S   UNL     1     -12.402   9.393  70.993  1.00  0.00    -0.218 S  
HETATM   16  O   UNL     1     -12.446   8.795  72.370  1.00  0.00    -0.379 OA 
BRANCH  15  17
HETATM   17  C   UNL     1     -12.473  11.113  71.223  1.00  0.00    -0.360 A  
HETATM   18  N   UNL     1     -11.806  12.013  70.531  1.00  0.00    -0.510 NA 
HETATM   19  C   UNL     1     -12.354  13.224  70.891  1.00  0.00    -0.329 A  
HETATM   20  H   UNL     1     -11.048  11.848  69.870  1.00  0.00     0.000 HD 
HETATM   21  C   UNL     1     -12.074  14.515  70.416  1.00  0.00    -0.389 A  
HETATM   22  C   UNL     1     -12.853  15.586  70.872  1.00  0.00    -0.535 A  
HETATM   23  C   UNL     1     -13.881  15.379  71.797  1.00  0.00    -0.620 A  
HETATM   24  C   UNL     1     -14.148  14.106  72.315  1.00  0.00    -0.630 A  
HETATM   25  C   UNL     1     -13.359  13.056  71.840  1.00  0.00    -0.446 A  
HETATM   26  N   UNL     1     -13.346  11.708  72.100  1.00  0.00    -0.394 NA 
ENDBRANCH  15  17
ENDBRANCH  14  15
ENDBRANCH   7  14
TORSDOF 5
ENDMDL
MODEL       68
REMARK 921   NORMALIZED FREE ENERGY PREDICTED BY IDOCK:   -5.96 KCAL/MOL
REMARK 922        TOTAL FREE ENERGY PREDICTED BY IDOCK:   -8.47 KCAL/MOL
REMARK 923 INTER-LIGAND FREE ENERGY PREDICTED BY IDOCK:   -7.86 KCAL/MOL
REMARK 924 INTRA-LIGAND FREE ENERGY PREDICTED BY IDOCK:   -0.61 KCAL/MOL
REMARK 927      BINDING AFFINITY PREDICTED BY RF-SCORE:    0.00 PKD
ROOT
HETATM    1  C   UNL     1     -10.593   9.072  67.365  1.00  0.00    -0.309 C  
HETATM    2  C   UNL     1     -10.979  10.173  68.309  1.00  0.00    -0.299 A  
HETATM    3  C   UNL     1     -11.239  11.482  67.864  1.00  0.00    -0.279 A  
HETATM    4  C   UNL     1     -11.783  12.418  68.741  1.00  0.00    -0.379 A  
HETATM    5  N   UNL     1     -11.633  10.844  70.549  1.00  0.00    -0.328 NA 
HETATM    6  C   UNL     1     -11.983  12.049  70.056  1.00  0.00    -0.324 A  
HETATM    7  C   UNL     1     -11.119   9.919  69.691  1.00  0.00    -0.241 A  
ENDROOT
BRANCH   3   8
HETATM    8  O   UNL     1     -11.077  11.963  66.586  1.00  0.00    -0.280 OA 
BRANCH   8   9
HETATM    9  C   UNL     1     -11.467  13.325  66.358  1.00  0.00    -0.329 C  
HETATM   10  C   UNL     1     -12.476  13.483  65.224  1.00  0.00    -0.482 C  
HETATM   11  F   UNL     1     -11.913  14.100  64.153  1.00  0.00    -0.432 F  
HETATM   12  F   UNL     1     -13.517  14.260  65.617  1.00  0.00    -0.474 F  
HETATM   13  F   UNL     1     -12.993  12.312  64.789  1.00  0.00    -0.542 F  
ENDBRANCH   8   9
ENDBRANCH   3   8
BRANCH   7  14
HETATM   14  C   UNL     1     -10.677   8.627  70.353  1.00  0.00    -0.224 C  
BRANCH  14  15
HETATM   15  S   UNL     1     -11.691   8.212  71.784  1.00  0.00    -0.317 S  
HETATM   16  O   UNL     1     -13.140   8.028  71.432  1.00  0.00    -0.304 OA 
BRANCH  15  17
HETATM   17  C   UNL     1     -11.092   6.624  72.157  1.00  0.00    -0.254 A  
HETATM   18  N   UNL     1     -11.558   5.824  73.094  1.00  0.00    -0.503 NA 
HETATM   19  C   UNL     1     -10.954   4.608  72.863  1.00  0.00    -0.210 A  
HETATM   20  H   UNL     1     -12.224   6.055  73.831  1.00  0.00     0.000 HD 
HETATM   21  C   UNL     1     -11.130   3.378  73.515  1.00  0.00    -0.317 A  
HETATM   22  C   UNL     1     -10.468   2.249  73.017  1.00  0.00    -0.243 A  
HETATM   23  C   UNL     1      -9.632   2.346  71.901  1.00  0.00    -0.203 A  
HETATM   24  C   UNL     1      -9.409   3.571  71.262  1.00  0.00    -0.209 A  
HETATM   25  C   UNL     1     -10.085   4.680  71.777  1.00  0.00    -0.191 A  
HETATM   26  N   UNL     1     -10.125   6.002  71.409  1.00  0.00    -0.189 NA 
ENDBRANCH  15  17
ENDBRANCH  14  15
ENDBRANCH   7  14
TORSDOF 5
ENDMDL
MODEL       69
REMARK 921   NORMALIZED FREE ENERGY PREDICTED BY IDOCK:   -5.94 KCAL/MOL
REMARK 922        TOTAL FREE ENERGY PREDICTED BY IDOCK:   -8.45 KCAL/MOL
REMARK 923 INTER-LIGAND FREE ENERGY PREDICTED BY IDOCK:   -7.64 KCAL/MOL
REMARK 924 INTRA-LIGAND FREE ENERGY PREDICTED BY IDOCK:   -0.81 KCAL/MOL
REMARK 927      BINDING AFFINITY PREDICTED BY RF-SCORE:    0.00 PKD
ROOT
HETATM    1  C   UNL     1     -11.880  13.763  69.856  1.00  0.00    -0.394 C  
HETATM    2  C   UNL     1     -11.690  13.133  68.508  1.00  0.00    -0.387 A  
HETATM    3  C   UNL     1     -11.413  13.897  67.359  1.00  0.00    -0.348 A  
HETATM    4  C   UNL     1     -11.051  13.261  66.174  1.00  0.00    -0.300 A  
HETATM    5  N   UNL     1     -11.425  11.115  67.184  1.00  0.00    -0.473 NA 
HETATM    6  C   UNL     1     -11.048  11.881  66.141  1.00  0.00    -0.326 A  
HETATM    7  C   UNL     1     -11.761  11.732  68.352  1.00  0.00    -0.325 A  
ENDROOT
BRANCH   3   8
HETATM    8  O   UNL     1     -11.390  15.269  67.270  1.00  0.00    -0.332 OA 
BRANCH   8   9
HETATM    9  C   UNL     1     -10.451  15.837  66.345  1.00  0.00    -0.303 C  
HETATM   10  C   UNL     1     -10.283  17.346  66.504  1.00  0.00    -0.329 C  
HETATM   11  F   UNL     1     -10.809  18.009  65.443  1.00  0.00    -0.436 F  
HETATM   12  F   UNL     1      -8.968  17.676  66.557  1.00  0.00    -0.247 F  
HETATM   13  F   UNL     1     -10.864  17.842  67.619  1.00  0.00    -0.385 F  
ENDBRANCH   8   9
ENDBRANCH   3   8
BRANCH   7  14
HETATM   14  C   UNL     1     -12.252  10.794  69.439  1.00  0.00    -0.171 C  
BRANCH  14  15
HETATM   15  S   UNL     1     -10.895   9.972  70.295  1.00  0.00    -0.322 S  
HETATM   16  O   UNL     1     -11.229   9.638  71.722  1.00  0.00    -0.323 OA 
BRANCH  15  17
HETATM   17  C   UNL     1     -10.851   8.453  69.454  1.00  0.00    -0.082 A  
HETATM   18  N   UNL     1     -10.985   8.287  68.154  1.00  0.00    -0.445 NA 
HETATM   19  C   UNL     1     -10.641   6.973  67.922  1.00  0.00    -0.218 A  
HETATM   20  H   UNL     1     -11.280   8.981  67.468  1.00  0.00     0.000 HD 
HETATM   21  C   UNL     1     -10.541   6.270  66.711  1.00  0.00    -0.335 A  
HETATM   22  C   UNL     1     -10.063   4.954  66.732  1.00  0.00    -0.269 A  
HETATM   23  C   UNL     1      -9.706   4.343  67.937  1.00  0.00    -0.186 A  
HETATM   24  C   UNL     1      -9.839   5.012  69.160  1.00  0.00    -0.262 A  
HETATM   25  C   UNL     1     -10.315   6.325  69.110  1.00  0.00    -0.216 A  
HETATM   26  N   UNL     1     -10.549   7.269  70.078  1.00  0.00    -0.228 NA 
ENDBRANCH  15  17
ENDBRANCH  14  15
ENDBRANCH   7  14
TORSDOF 5
ENDMDL
MODEL       70
REMARK 921   NORMALIZED FREE ENERGY PREDICTED BY IDOCK:   -5.93 KCAL/MOL
REMARK 922        TOTAL FREE ENERGY PREDICTED BY IDOCK:   -8.43 KCAL/MOL
REMARK 923 INTER-LIGAND FREE ENERGY PREDICTED BY IDOCK:   -7.16 KCAL/MOL
REMARK 924 INTRA-LIGAND FREE ENERGY PREDICTED BY IDOCK:   -1.26 KCAL/MOL
REMARK 927      BINDING AFFINITY PREDICTED BY RF-SCORE:    0.00 PKD
ROOT
HETATM    1  C   UNL     1     -12.053  13.233  68.988  1.00  0.00    -0.268 C  
HETATM    2  C   UNL     1     -10.630  12.797  68.807  1.00  0.00    -0.216 A  
HETATM    3  C   UNL     1     -10.266  11.438  68.755  1.00  0.00    -0.197 A  
HETATM    4  C   UNL     1      -8.970  11.081  68.390  1.00  0.00    -0.158 A  
HETATM    5  N   UNL     1      -8.327  13.394  68.318  1.00  0.00    -0.159 NA 
HETATM    6  C   UNL     1      -8.050  12.084  68.159  1.00  0.00    -0.160 A  
HETATM    7  C   UNL     1      -9.598  13.749  68.656  1.00  0.00    -0.121 A  
ENDROOT
BRANCH   3   8
HETATM    8  O   UNL     1     -11.089  10.359  68.968  1.00  0.00    -0.226 OA 
BRANCH   8   9
HETATM    9  C   UNL     1     -11.163   9.861  70.312  1.00  0.00    -0.301 C  
HETATM   10  C   UNL     1     -12.533  10.058  70.956  1.00  0.00    -0.362 C  
HETATM   11  F   UNL     1     -12.477  10.985  71.946  1.00  0.00    -0.402 F  
HETATM   12  F   UNL     1     -12.962   8.904  71.527  1.00  0.00    -0.321 F  
HETATM   13  F   UNL     1     -13.490  10.453  70.087  1.00  0.00    -0.254 F  
ENDBRANCH   8   9
ENDBRANCH   3   8
BRANCH   7  14
HETATM   14  C   UNL     1      -9.792  15.235  68.895  1.00  0.00    -0.221 C  
BRANCH  14  15
HETATM   15  S   UNL     1      -9.451  16.213  67.419  1.00  0.00    -0.228 S  
HETATM   16  O   UNL     1      -7.984  16.296  67.106  1.00  0.00    -0.155 OA 
BRANCH  15  17
HETATM   17  C   UNL     1     -10.139  15.196  66.189  1.00  0.00    -0.295 A  
HETATM   18  N   UNL     1      -9.464  14.458  65.333  1.00  0.00    -0.469 NA 
HETATM   19  C   UNL     1     -10.406  13.654  64.730  1.00  0.00    -0.392 A  
HETATM   20  H   UNL     1      -8.460  14.477  65.154  1.00  0.00     0.000 HD 
HETATM   21  C   UNL     1     -10.242  12.629  63.785  1.00  0.00    -0.281 A  
HETATM   22  C   UNL     1     -11.361  11.878  63.402  1.00  0.00    -0.465 A  
HETATM   23  C   UNL     1     -12.623  12.154  63.937  1.00  0.00    -0.545 A  
HETATM   24  C   UNL     1     -12.815  13.198  64.848  1.00  0.00    -0.349 A  
HETATM   25  C   UNL     1     -11.682  13.928  65.216  1.00  0.00    -0.340 A  
HETATM   26  N   UNL     1     -11.489  14.981  66.075  1.00  0.00    -0.279 NA 
ENDBRANCH  15  17
ENDBRANCH  14  15
ENDBRANCH   7  14
TORSDOF 5
ENDMDL
MODEL       71
REMARK 921   NORMALIZED FREE ENERGY PREDICTED BY IDOCK:   -5.92 KCAL/MOL
REMARK 922        TOTAL FREE ENERGY PREDICTED BY IDOCK:   -8.43 KCAL/MOL
REMARK 923 INTER-LIGAND FREE ENERGY PREDICTED BY IDOCK:   -7.82 KCAL/MOL
REMARK 924 INTRA-LIGAND FREE ENERGY PREDICTED BY IDOCK:   -0.60 KCAL/MOL
REMARK 927      BINDING AFFINITY PREDICTED BY RF-SCORE:    0.00 PKD
ROOT
HETATM    1  C   UNL     1     -11.904   6.551  70.552  1.00  0.00    -0.393 C  
HETATM    2  C   UNL     1     -11.083   6.904  71.758  1.00  0.00    -0.275 A  
HETATM    3  C   UNL     1     -10.681   5.935  72.696  1.00  0.00    -0.234 A  
HETATM    4  C   UNL     1      -9.760   6.271  73.687  1.00  0.00    -0.182 A  
HETATM    5  N   UNL     1      -9.777   8.559  72.962  1.00  0.00    -0.119 NA 
HETATM    6  C   UNL     1      -9.322   7.577  73.765  1.00  0.00    -0.279 A  
HETATM    7  C   UNL     1     -10.662   8.233  71.979  1.00  0.00    -0.297 A  
ENDROOT
BRANCH   3   8
HETATM    8  O   UNL     1     -11.051   4.612  72.722  1.00  0.00    -0.200 OA 
BRANCH   8   9
HETATM    9  C   UNL     1      -9.989   3.647  72.765  1.00  0.00    -0.154 C  
HETATM   10  C   UNL     1      -9.637   3.074  71.395  1.00  0.00    -0.157 C  
HETATM   11  F   UNL     1     -10.002   1.769  71.304  1.00  0.00    -0.205 F  
HETATM   12  F   UNL     1      -8.296   3.117  71.190  1.00  0.00    -0.059 F  
HETATM   13  F   UNL     1     -10.220   3.729  70.366  1.00  0.00    -0.189 F  
ENDBRANCH   8   9
ENDBRANCH   3   8
BRANCH   7  14
HETATM   14  C   UNL     1     -11.181   9.417  71.182  1.00  0.00    -0.357 C  
BRANCH  14  15
HETATM   15  S   UNL     1     -12.955   9.657  71.395  1.00  0.00    -0.394 S  
HETATM   16  O   UNL     1     -13.443   9.201  72.741  1.00  0.00    -0.424 OA 
BRANCH  15  17
HETATM   17  C   UNL     1     -13.048  11.391  71.422  1.00  0.00    -0.276 A  
HETATM   18  N   UNL     1     -13.628  12.118  72.355  1.00  0.00    -0.518 NA 
HETATM   19  C   UNL     1     -13.245  13.415  72.091  1.00  0.00    -0.462 A  
HETATM   20  H   UNL     1     -14.230  11.791  73.109  1.00  0.00     0.000 HD 
HETATM   21  C   UNL     1     -13.514  14.595  72.801  1.00  0.00    -0.570 A  
HETATM   22  C   UNL     1     -12.914  15.788  72.381  1.00  0.00    -0.546 A  
HETATM   23  C   UNL     1     -12.074  15.810  71.265  1.00  0.00    -0.487 A  
HETATM   24  C   UNL     1     -11.826  14.653  70.517  1.00  0.00    -0.367 A  
HETATM   25  C   UNL     1     -12.434  13.476  70.961  1.00  0.00    -0.369 A  
HETATM   26  N   UNL     1     -12.405  12.182  70.504  1.00  0.00    -0.312 NA 
ENDBRANCH  15  17
ENDBRANCH  14  15
ENDBRANCH   7  14
TORSDOF 5
ENDMDL
MODEL       72
REMARK 921   NORMALIZED FREE ENERGY PREDICTED BY IDOCK:   -5.92 KCAL/MOL
REMARK 922        TOTAL FREE ENERGY PREDICTED BY IDOCK:   -8.42 KCAL/MOL
REMARK 923 INTER-LIGAND FREE ENERGY PREDICTED BY IDOCK:   -7.48 KCAL/MOL
REMARK 924 INTRA-LIGAND FREE ENERGY PREDICTED BY IDOCK:   -0.94 KCAL/MOL
REMARK 927      BINDING AFFINITY PREDICTED BY RF-SCORE:    0.00 PKD
ROOT
HETATM    1  C   UNL     1      -8.885  12.472  67.040  1.00  0.00    -0.212 C  
HETATM    2  C   UNL     1      -9.023  11.006  66.752  1.00  0.00    -0.163 A  
HETATM    3  C   UNL     1      -9.320  10.523  65.464  1.00  0.00    -0.202 A  
HETATM    4  C   UNL     1      -9.244   9.156  65.202  1.00  0.00    -0.218 A  
HETATM    5  N   UNL     1      -8.779   8.714  67.516  1.00  0.00    -0.134 NA 
HETATM    6  C   UNL     1      -8.949   8.301  66.244  1.00  0.00    -0.183 A  
HETATM    7  C   UNL     1      -8.833  10.051  67.774  1.00  0.00    -0.125 A  
ENDROOT
BRANCH   3   8
HETATM    8  O   UNL     1      -9.628  11.274  64.355  1.00  0.00    -0.234 OA 
BRANCH   8   9
HETATM    9  C   UNL     1     -11.022  11.409  64.037  1.00  0.00    -0.355 C  
HETATM   10  C   UNL     1     -11.543  12.835  64.192  1.00  0.00    -0.396 C  
HETATM   11  F   UNL     1     -12.396  12.930  65.244  1.00  0.00    -0.424 F  
HETATM   12  F   UNL     1     -12.241  13.210  63.091  1.00  0.00    -0.610 F  
HETATM   13  F   UNL     1     -10.568  13.752  64.379  1.00  0.00    -0.404 F  
ENDBRANCH   8   9
ENDBRANCH   3   8
BRANCH   7  14
HETATM   14  C   UNL     1      -8.716  10.411  69.243  1.00  0.00    -0.150 C  
BRANCH  14  15
HETATM   15  S   UNL     1      -8.453   8.962  70.282  1.00  0.00    -0.179 S  
HETATM   16  O   UNL     1      -7.530   9.236  71.436  1.00  0.00    -0.316 OA 
BRANCH  15  17
HETATM   17  C   UNL     1     -10.033   8.770  70.978  1.00  0.00    -0.234 A  
HETATM   18  N   UNL     1     -10.838   9.745  71.347  1.00  0.00    -0.236 NA 
HETATM   19  C   UNL     1     -12.047   9.137  71.604  1.00  0.00    -0.362 A  
HETATM   20  H   UNL     1     -10.614  10.737  71.424  1.00  0.00     0.000 HD 
HETATM   21  C   UNL     1     -13.279   9.703  71.968  1.00  0.00    -0.546 A  
HETATM   22  C   UNL     1     -14.400   8.870  72.070  1.00  0.00    -0.406 A  
HETATM   23  C   UNL     1     -14.295   7.497  71.831  1.00  0.00    -0.520 A  
HETATM   24  C   UNL     1     -13.067   6.907  71.508  1.00  0.00    -0.341 A  
HETATM   25  C   UNL     1     -11.966   7.761  71.410  1.00  0.00    -0.306 A  
HETATM   26  N   UNL     1     -10.645   7.548  71.103  1.00  0.00    -0.221 NA 
ENDBRANCH  15  17
ENDBRANCH  14  15
ENDBRANCH   7  14
TORSDOF 5
ENDMDL
MODEL       73
REMARK 921   NORMALIZED FREE ENERGY PREDICTED BY IDOCK:   -5.92 KCAL/MOL
REMARK 922        TOTAL FREE ENERGY PREDICTED BY IDOCK:   -8.42 KCAL/MOL
REMARK 923 INTER-LIGAND FREE ENERGY PREDICTED BY IDOCK:   -7.77 KCAL/MOL
REMARK 924 INTRA-LIGAND FREE ENERGY PREDICTED BY IDOCK:   -0.65 KCAL/MOL
REMARK 927      BINDING AFFINITY PREDICTED BY RF-SCORE:    0.00 PKD
ROOT
HETATM    1  C   UNL     1     -10.026  20.066  68.288  1.00  0.00    -0.508 C  
HETATM    2  C   UNL     1      -8.835  19.158  68.381  1.00  0.00    -0.386 A  
HETATM    3  C   UNL     1      -7.540  19.586  68.031  1.00  0.00    -0.296 A  
HETATM    4  C   UNL     1      -6.442  18.779  68.319  1.00  0.00    -0.235 A  
HETATM    5  N   UNL     1      -7.896  17.042  69.114  1.00  0.00    -0.157 NA 
HETATM    6  C   UNL     1      -6.665  17.537  68.877  1.00  0.00    -0.239 A  
HETATM    7  C   UNL     1      -8.973  17.835  68.853  1.00  0.00    -0.120 A  
ENDROOT
BRANCH   3   8
HETATM    8  O   UNL     1      -7.198  20.793  67.470  1.00  0.00    -0.331 OA 
BRANCH   8   9
HETATM    9  C   UNL     1      -6.232  20.758  66.409  1.00  0.00    -0.246 C  
HETATM   10  C   UNL     1      -6.806  20.261  65.085  1.00  0.00    -0.264 C  
HETATM   11  F   UNL     1      -6.305  19.040  64.765  1.00  0.00    -0.304 F  
HETATM   12  F   UNL     1      -6.465  21.098  64.073  1.00  0.00    -0.345 F  
HETATM   13  F   UNL     1      -8.153  20.158  65.082  1.00  0.00    -0.121 F  
ENDBRANCH   8   9
ENDBRANCH   3   8
BRANCH   7  14
HETATM   14  C   UNL     1     -10.316  17.162  69.070  1.00  0.00    -0.331 C  
BRANCH  14  15
HETATM   15  S   UNL     1     -10.737  16.031  67.730  1.00  0.00    -0.322 S  
HETATM   16  O   UNL     1      -9.524  15.445  67.065  1.00  0.00    -0.210 OA 
BRANCH  15  17
HETATM   17  C   UNL     1     -11.463  14.728  68.619  1.00  0.00    -0.302 A  
HETATM   18  N   UNL     1     -11.281  13.444  68.393  1.00  0.00    -0.262 NA 
HETATM   19  C   UNL     1     -11.845  12.804  69.474  1.00  0.00    -0.316 A  
HETATM   20  H   UNL     1     -10.821  13.015  67.590  1.00  0.00     0.000 HD 
HETATM   21  C   UNL     1     -11.883  11.437  69.791  1.00  0.00    -0.435 A  
HETATM   22  C   UNL     1     -12.431  11.043  71.019  1.00  0.00    -0.512 A  
HETATM   23  C   UNL     1     -12.947  11.990  71.907  1.00  0.00    -0.428 A  
HETATM   24  C   UNL     1     -12.957  13.354  71.592  1.00  0.00    -0.445 A  
HETATM   25  C   UNL     1     -12.401  13.719  70.363  1.00  0.00    -0.353 A  
HETATM   26  N   UNL     1     -12.224  14.931  69.743  1.00  0.00    -0.305 NA 
ENDBRANCH  15  17
ENDBRANCH  14  15
ENDBRANCH   7  14
TORSDOF 5
ENDMDL
MODEL       74
REMARK 921   NORMALIZED FREE ENERGY PREDICTED BY IDOCK:   -5.90 KCAL/MOL
REMARK 922        TOTAL FREE ENERGY PREDICTED BY IDOCK:   -8.40 KCAL/MOL
REMARK 923 INTER-LIGAND FREE ENERGY PREDICTED BY IDOCK:   -7.63 KCAL/MOL
REMARK 924 INTRA-LIGAND FREE ENERGY PREDICTED BY IDOCK:   -0.76 KCAL/MOL
REMARK 927      BINDING AFFINITY PREDICTED BY RF-SCORE:    0.00 PKD
ROOT
HETATM    1  C   UNL     1     -10.903   9.820  70.591  1.00  0.00    -0.396 C  
HETATM    2  C   UNL     1     -10.517   9.201  69.280  1.00  0.00    -0.231 A  
HETATM    3  C   UNL     1     -10.638   7.819  69.042  1.00  0.00    -0.166 A  
HETATM    4  C   UNL     1     -10.456   7.318  67.754  1.00  0.00    -0.292 A  
HETATM    5  N   UNL     1      -9.841   9.502  66.967  1.00  0.00    -0.178 NA 
HETATM    6  C   UNL     1     -10.085   8.193  66.754  1.00  0.00    -0.295 A  
HETATM    7  C   UNL     1     -10.036  10.000  68.220  1.00  0.00    -0.153 A  
ENDROOT
BRANCH   3   8
HETATM    8  O   UNL     1     -10.996   6.856  69.955  1.00  0.00    -0.250 OA 
BRANCH   8   9
HETATM    9  C   UNL     1      -9.941   6.309  70.760  1.00  0.00    -0.187 C  
HETATM   10  C   UNL     1      -9.628   4.851  70.437  1.00  0.00    -0.190 C  
HETATM   11  F   UNL     1     -10.006   4.034  71.453  1.00  0.00    -0.239 F  
HETATM   12  F   UNL     1      -8.292   4.675  70.273  1.00  0.00    -0.071 F  
HETATM   13  F   UNL     1     -10.231   4.402  69.313  1.00  0.00    -0.257 F  
ENDBRANCH   8   9
ENDBRANCH   3   8
BRANCH   7  14
HETATM   14  C   UNL     1      -9.654  11.460  68.382  1.00  0.00    -0.197 C  
BRANCH  14  15
HETATM   15  S   UNL     1     -10.967  12.572  67.844  1.00  0.00    -0.241 S  
HETATM   16  O   UNL     1     -12.200  11.838  67.399  1.00  0.00    -0.501 OA 
BRANCH  15  17
HETATM   17  C   UNL     1     -11.387  13.332  69.348  1.00  0.00    -0.219 A  
HETATM   18  N   UNL     1     -10.890  14.461  69.808  1.00  0.00    -0.444 NA 
HETATM   19  C   UNL     1     -11.679  14.790  70.887  1.00  0.00    -0.307 A  
HETATM   20  H   UNL     1     -10.092  14.981  69.442  1.00  0.00     0.000 HD 
HETATM   21  C   UNL     1     -11.647  15.924  71.713  1.00  0.00    -0.541 A  
HETATM   22  C   UNL     1     -12.638  16.076  72.692  1.00  0.00    -0.551 A  
HETATM   23  C   UNL     1     -13.634  15.108  72.855  1.00  0.00    -0.557 A  
HETATM   24  C   UNL     1     -13.659  13.950  72.070  1.00  0.00    -0.566 A  
HETATM   25  C   UNL     1     -12.661  13.826  71.100  1.00  0.00    -0.373 A  
HETATM   26  N   UNL     1     -12.388  12.863  70.161  1.00  0.00    -0.232 NA 
ENDBRANCH  15  17
ENDBRANCH  14  15
ENDBRANCH   7  14
TORSDOF 5
ENDMDL
MODEL       75
REMARK 921   NORMALIZED FREE ENERGY PREDICTED BY IDOCK:   -5.89 KCAL/MOL
REMARK 922        TOTAL FREE ENERGY PREDICTED BY IDOCK:   -8.38 KCAL/MOL
REMARK 923 INTER-LIGAND FREE ENERGY PREDICTED BY IDOCK:   -7.46 KCAL/MOL
REMARK 924 INTRA-LIGAND FREE ENERGY PREDICTED BY IDOCK:   -0.92 KCAL/MOL
REMARK 927      BINDING AFFINITY PREDICTED BY RF-SCORE:    0.00 PKD
ROOT
HETATM    1  C   UNL     1     -10.419  19.551  67.738  1.00  0.00    -0.574 C  
HETATM    2  C   UNL     1      -9.282  18.636  68.082  1.00  0.00    -0.340 A  
HETATM    3  C   UNL     1      -7.956  19.097  68.186  1.00  0.00    -0.304 A  
HETATM    4  C   UNL     1      -6.968  18.259  68.699  1.00  0.00    -0.270 A  
HETATM    5  N   UNL     1      -8.538  16.446  68.824  1.00  0.00    -0.239 NA 
HETATM    6  C   UNL     1      -7.309  16.962  69.023  1.00  0.00    -0.231 A  
HETATM    7  C   UNL     1      -9.513  17.267  68.342  1.00  0.00    -0.283 A  
ENDROOT
BRANCH   3   8
HETATM    8  O   UNL     1      -7.501  20.360  67.890  1.00  0.00    -0.284 OA 
BRANCH   8   9
HETATM    9  C   UNL     1      -6.423  20.450  66.946  1.00  0.00    -0.225 C  
HETATM   10  C   UNL     1      -6.853  20.170  65.509  1.00  0.00    -0.298 C  
HETATM   11  F   UNL     1      -6.339  18.994  65.067  1.00  0.00    -0.279 F  
HETATM   12  F   UNL     1      -6.389  21.136  64.676  1.00  0.00    -0.300 F  
HETATM   13  F   UNL     1      -8.193  20.112  65.345  1.00  0.00    -0.249 F  
ENDBRANCH   8   9
ENDBRANCH   3   8
BRANCH   7  14
HETATM   14  C   UNL     1     -10.837  16.577  68.071  1.00  0.00    -0.337 C  
BRANCH  14  15
HETATM   15  S   UNL     1     -11.004  16.074  66.348  1.00  0.00     0.025 S  
HETATM   16  O   UNL     1      -9.772  16.366  65.538  1.00  0.00    -0.505 OA 
BRANCH  15  17
HETATM   17  C   UNL     1     -11.058  14.346  66.517  1.00  0.00    -0.331 A  
HETATM   18  N   UNL     1     -10.296  13.484  65.877  1.00  0.00    -0.293 NA 
HETATM   19  C   UNL     1     -10.518  12.275  66.500  1.00  0.00    -0.227 A  
HETATM   20  H   UNL     1      -9.675  13.671  65.090  1.00  0.00     0.000 HD 
HETATM   21  C   UNL     1      -9.922  11.024  66.274  1.00  0.00    -0.269 A  
HETATM   22  C   UNL     1     -10.247   9.958  67.123  1.00  0.00    -0.285 A  
HETATM   23  C   UNL     1     -11.161  10.130  68.167  1.00  0.00    -0.290 A  
HETATM   24  C   UNL     1     -11.797  11.358  68.383  1.00  0.00    -0.344 A  
HETATM   25  C   UNL     1     -11.452  12.405  67.524  1.00  0.00    -0.346 A  
HETATM   26  N   UNL     1     -11.847  13.717  67.447  1.00  0.00    -0.380 NA 
ENDBRANCH  15  17
ENDBRANCH  14  15
ENDBRANCH   7  14
TORSDOF 5
ENDMDL
MODEL       76
REMARK 921   NORMALIZED FREE ENERGY PREDICTED BY IDOCK:   -5.87 KCAL/MOL
REMARK 922        TOTAL FREE ENERGY PREDICTED BY IDOCK:   -8.36 KCAL/MOL
REMARK 923 INTER-LIGAND FREE ENERGY PREDICTED BY IDOCK:   -7.70 KCAL/MOL
REMARK 924 INTRA-LIGAND FREE ENERGY PREDICTED BY IDOCK:   -0.66 KCAL/MOL
REMARK 927      BINDING AFFINITY PREDICTED BY RF-SCORE:    0.00 PKD
ROOT
HETATM    1  C   UNL     1     -11.071  11.558  68.987  1.00  0.00    -0.302 C  
HETATM    2  C   UNL     1     -11.815  11.022  70.174  1.00  0.00    -0.441 A  
HETATM    3  C   UNL     1     -12.571  11.855  71.020  1.00  0.00    -0.283 A  
HETATM    4  C   UNL     1     -13.401  11.291  71.988  1.00  0.00    -0.386 A  
HETATM    5  N   UNL     1     -12.599   9.097  71.430  1.00  0.00    -0.320 NA 
HETATM    6  C   UNL     1     -13.399   9.919  72.138  1.00  0.00    -0.399 A  
HETATM    7  C   UNL     1     -11.800   9.642  70.470  1.00  0.00    -0.215 A  
ENDROOT
BRANCH   3   8
HETATM    8  O   UNL     1     -12.649  13.226  70.968  1.00  0.00    -0.356 OA 
BRANCH   8   9
HETATM    9  C   UNL     1     -13.053  13.894  72.173  1.00  0.00    -0.406 C  
HETATM   10  C   UNL     1     -13.064  15.415  72.047  1.00  0.00    -0.413 C  
HETATM   11  F   UNL     1     -12.074  15.972  72.790  1.00  0.00    -0.448 F  
HETATM   12  F   UNL     1     -14.233  15.924  72.513  1.00  0.00    -0.604 F  
HETATM   13  F   UNL     1     -12.915  15.856  70.778  1.00  0.00    -0.488 F  
ENDBRANCH   8   9
ENDBRANCH   3   8
BRANCH   7  14
HETATM   14  C   UNL     1     -10.876   8.651  69.786  1.00  0.00    -0.183 C  
BRANCH  14  15
HETATM   15  S   UNL     1      -9.438   8.251  70.798  1.00  0.00    -0.166 S  
HETATM   16  O   UNL     1      -9.400   9.030  72.082  1.00  0.00    -0.356 OA 
BRANCH  15  17
HETATM   17  C   UNL     1      -9.804   6.614  71.251  1.00  0.00    -0.177 A  
HETATM   18  N   UNL     1      -9.181   5.537  70.822  1.00  0.00    -0.148 NA 
HETATM   19  C   UNL     1      -9.640   4.513  71.620  1.00  0.00    -0.159 A  
HETATM   20  H   UNL     1      -8.504   5.475  70.062  1.00  0.00     0.000 HD 
HETATM   21  C   UNL     1      -9.266   3.160  71.652  1.00  0.00    -0.186 A  
HETATM   22  C   UNL     1      -9.811   2.332  72.641  1.00  0.00    -0.188 A  
HETATM   23  C   UNL     1     -10.723   2.837  73.572  1.00  0.00    -0.280 A  
HETATM   24  C   UNL     1     -11.140   4.172  73.532  1.00  0.00    -0.359 A  
HETATM   25  C   UNL     1     -10.579   4.977  72.537  1.00  0.00    -0.219 A  
HETATM   26  N   UNL     1     -10.731   6.302  72.213  1.00  0.00    -0.220 NA 
ENDBRANCH  15  17
ENDBRANCH  14  15
ENDBRANCH   7  14
TORSDOF 5
ENDMDL
MODEL       77
REMARK 921   NORMALIZED FREE ENERGY PREDICTED BY IDOCK:   -5.87 KCAL/MOL
REMARK 922        TOTAL FREE ENERGY PREDICTED BY IDOCK:   -8.35 KCAL/MOL
REMARK 923 INTER-LIGAND FREE ENERGY PREDICTED BY IDOCK:   -7.64 KCAL/MOL
REMARK 924 INTRA-LIGAND FREE ENERGY PREDICTED BY IDOCK:   -0.71 KCAL/MOL
REMARK 927      BINDING AFFINITY PREDICTED BY RF-SCORE:    0.00 PKD
ROOT
HETATM    1  C   UNL     1     -13.036  11.038  71.778  1.00  0.00    -0.544 C  
HETATM    2  C   UNL     1     -12.488  12.006  70.772  1.00  0.00    -0.372 A  
HETATM    3  C   UNL     1     -12.726  13.390  70.861  1.00  0.00    -0.272 A  
HETATM    4  C   UNL     1     -12.039  14.267  70.024  1.00  0.00    -0.400 A  
HETATM    5  N   UNL     1     -11.031  12.416  68.873  1.00  0.00    -0.233 NA 
HETATM    6  C   UNL     1     -11.192  13.740  69.071  1.00  0.00    -0.272 A  
HETATM    7  C   UNL     1     -11.685  11.555  69.702  1.00  0.00    -0.351 A  
ENDROOT
BRANCH   3   8
HETATM    8  O   UNL     1     -13.546  14.027  71.762  1.00  0.00    -0.356 OA 
BRANCH   8   9
HETATM    9  C   UNL     1     -13.412  15.453  71.858  1.00  0.00    -0.475 C  
HETATM   10  C   UNL     1     -12.842  15.918  73.194  1.00  0.00    -0.537 C  
HETATM   11  F   UNL     1     -13.784  16.565  73.927  1.00  0.00    -0.306 F  
HETATM   12  F   UNL     1     -11.828  16.800  72.999  1.00  0.00    -0.588 F  
HETATM   13  F   UNL     1     -12.356  14.914  73.957  1.00  0.00    -0.611 F  
ENDBRANCH   8   9
ENDBRANCH   3   8
BRANCH   7  14
HETATM   14  C   UNL     1     -11.510  10.089  69.349  1.00  0.00    -0.083 C  
BRANCH  14  15
HETATM   15  S   UNL     1      -9.925   9.437  69.911  1.00  0.00    -0.228 S  
HETATM   16  O   UNL     1      -9.958   8.996  71.347  1.00  0.00    -0.276 OA 
BRANCH  15  17
HETATM   17  C   UNL     1      -9.822   7.979  68.972  1.00  0.00    -0.178 A  
HETATM   18  N   UNL     1     -10.815   7.407  68.324  1.00  0.00    -0.425 NA 
HETATM   19  C   UNL     1     -10.225   6.440  67.541  1.00  0.00    -0.170 A  
HETATM   20  H   UNL     1     -11.808   7.631  68.389  1.00  0.00     0.000 HD 
HETATM   21  C   UNL     1     -10.798   5.572  66.598  1.00  0.00    -0.257 A  
HETATM   22  C   UNL     1      -9.957   4.742  65.846  1.00  0.00    -0.245 A  
HETATM   23  C   UNL     1      -8.573   4.764  66.038  1.00  0.00    -0.117 A  
HETATM   24  C   UNL     1      -7.986   5.592  67.002  1.00  0.00    -0.102 A  
HETATM   25  C   UNL     1      -8.847   6.411  67.736  1.00  0.00    -0.112 A  
HETATM   26  N   UNL     1      -8.634   7.340  68.724  1.00  0.00    -0.129 NA 
ENDBRANCH  15  17
ENDBRANCH  14  15
ENDBRANCH   7  14
TORSDOF 5
ENDMDL
MODEL       78
REMARK 921   NORMALIZED FREE ENERGY PREDICTED BY IDOCK:   -5.83 KCAL/MOL
REMARK 922        TOTAL FREE ENERGY PREDICTED BY IDOCK:   -8.30 KCAL/MOL
REMARK 923 INTER-LIGAND FREE ENERGY PREDICTED BY IDOCK:   -7.07 KCAL/MOL
REMARK 924 INTRA-LIGAND FREE ENERGY PREDICTED BY IDOCK:   -1.23 KCAL/MOL
REMARK 927      BINDING AFFINITY PREDICTED BY RF-SCORE:    0.00 PKD
ROOT
HETATM    1  C   UNL     1      -8.260  12.412  67.728  1.00  0.00    -0.163 C  
HETATM    2  C   UNL     1      -9.253  12.130  66.639  1.00  0.00    -0.206 A  
HETATM    3  C   UNL     1     -10.071  13.137  66.095  1.00  0.00    -0.291 A  
HETATM    4  C   UNL     1     -10.832  12.874  64.958  1.00  0.00    -0.323 A  
HETATM    5  N   UNL     1     -10.142  10.575  64.999  1.00  0.00    -0.316 NA 
HETATM    6  C   UNL     1     -10.817  11.596  64.436  1.00  0.00    -0.339 A  
HETATM    7  C   UNL     1      -9.381  10.831  66.100  1.00  0.00    -0.183 A  
ENDROOT
BRANCH   3   8
HETATM    8  O   UNL     1     -10.172  14.438  66.529  1.00  0.00    -0.263 OA 
BRANCH   8   9
HETATM    9  C   UNL     1     -11.458  14.858  67.009  1.00  0.00    -0.326 C  
HETATM   10  C   UNL     1     -11.628  14.684  68.515  1.00  0.00    -0.317 C  
HETATM   11  F   UNL     1     -12.519  13.699  68.795  1.00  0.00    -0.357 F  
HETATM   12  F   UNL     1     -12.116  15.820  69.075  1.00  0.00    -0.378 F  
HETATM   13  F   UNL     1     -10.479  14.384  69.161  1.00  0.00    -0.231 F  
ENDBRANCH   8   9
ENDBRANCH   3   8
BRANCH   7  14
HETATM   14  C   UNL     1      -8.728   9.605  66.712  1.00  0.00    -0.134 C  
BRANCH  14  15
HETATM   15  S   UNL     1      -9.924   8.306  67.077  1.00  0.00    -0.283 S  
HETATM   16  O   UNL     1      -9.272   6.987  67.379  1.00  0.00    -0.124 OA 
BRANCH  15  17
HETATM   17  C   UNL     1     -10.567   8.872  68.588  1.00  0.00    -0.147 A  
HETATM   18  N   UNL     1     -11.322   9.938  68.755  1.00  0.00    -0.481 NA 
HETATM   19  C   UNL     1     -11.785   9.852  70.050  1.00  0.00    -0.124 A  
HETATM   20  H   UNL     1     -11.521  10.669  68.073  1.00  0.00     0.000 HD 
HETATM   21  C   UNL     1     -12.680  10.683  70.742  1.00  0.00    -0.468 A  
HETATM   22  C   UNL     1     -13.079  10.318  72.034  1.00  0.00    -0.529 A  
HETATM   23  C   UNL     1     -12.583   9.156  72.633  1.00  0.00    -0.204 A  
HETATM   24  C   UNL     1     -11.658   8.337  71.976  1.00  0.00    -0.403 A  
HETATM   25  C   UNL     1     -11.280   8.722  70.688  1.00  0.00    -0.257 A  
HETATM   26  N   UNL     1     -10.433   8.170  69.760  1.00  0.00    -0.224 NA 
ENDBRANCH  15  17
ENDBRANCH  14  15
ENDBRANCH   7  14
TORSDOF 5
ENDMDL
MODEL       79
REMARK 921   NORMALIZED FREE ENERGY PREDICTED BY IDOCK:   -5.83 KCAL/MOL
REMARK 922        TOTAL FREE ENERGY PREDICTED BY IDOCK:   -8.30 KCAL/MOL
REMARK 923 INTER-LIGAND FREE ENERGY PREDICTED BY IDOCK:   -7.96 KCAL/MOL
REMARK 924 INTRA-LIGAND FREE ENERGY PREDICTED BY IDOCK:   -0.34 KCAL/MOL
REMARK 927      BINDING AFFINITY PREDICTED BY RF-SCORE:    0.00 PKD
ROOT
HETATM    1  C   UNL     1     -12.374  13.560  68.766  1.00  0.00     0.013 C  
HETATM    2  C   UNL     1     -11.661  14.389  67.739  1.00  0.00    -0.407 A  
HETATM    3  C   UNL     1     -11.276  15.719  67.988  1.00  0.00    -0.338 A  
HETATM    4  C   UNL     1     -10.447  16.381  67.085  1.00  0.00    -0.297 A  
HETATM    5  N   UNL     1     -10.534  14.503  65.591  1.00  0.00    -0.316 NA 
HETATM    6  C   UNL     1     -10.086  15.731  65.922  1.00  0.00    -0.356 A  
HETATM    7  C   UNL     1     -11.329  13.843  66.479  1.00  0.00    -0.331 A  
ENDROOT
BRANCH   3   8
HETATM    8  O   UNL     1     -11.576  16.466  69.102  1.00  0.00    -0.256 OA 
BRANCH   8   9
HETATM    9  C   UNL     1     -10.805  16.198  70.283  1.00  0.00    -0.297 C  
HETATM   10  C   UNL     1     -11.664  15.912  71.512  1.00  0.00    -0.475 C  
HETATM   11  F   UNL     1     -11.573  16.921  72.415  1.00  0.00    -0.533 F  
HETATM   12  F   UNL     1     -11.236  14.788  72.141  1.00  0.00    -0.354 F  
HETATM   13  F   UNL     1     -12.974  15.738  71.231  1.00  0.00    -0.464 F  
ENDBRANCH   8   9
ENDBRANCH   3   8
BRANCH   7  14
HETATM   14  C   UNL     1     -11.852  12.508  65.983  1.00  0.00    -0.418 C  
BRANCH  14  15
HETATM   15  S   UNL     1     -10.550  11.265  65.870  1.00  0.00    -0.228 S  
HETATM   16  O   UNL     1      -9.173  11.863  65.934  1.00  0.00    -0.217 OA 
BRANCH  15  17
HETATM   17  C   UNL     1     -10.771  10.427  67.375  1.00  0.00    -0.283 A  
HETATM   18  N   UNL     1     -10.005   9.461  67.840  1.00  0.00    -0.173 NA 
HETATM   19  C   UNL     1     -10.408   9.278  69.144  1.00  0.00    -0.211 A  
HETATM   20  H   UNL     1      -9.271   8.959  67.341  1.00  0.00     0.000 HD 
HETATM   21  C   UNL     1      -9.894   8.424  70.132  1.00  0.00    -0.183 A  
HETATM   22  C   UNL     1     -10.418   8.500  71.430  1.00  0.00    -0.305 A  
HETATM   23  C   UNL     1     -11.445   9.398  71.733  1.00  0.00    -0.413 A  
HETATM   24  C   UNL     1     -11.999  10.229  70.752  1.00  0.00    -0.456 A  
HETATM   25  C   UNL     1     -11.456  10.134  69.468  1.00  0.00    -0.168 A  
HETATM   26  N   UNL     1     -11.726  10.787  68.291  1.00  0.00    -0.494 NA 
ENDBRANCH  15  17
ENDBRANCH  14  15
ENDBRANCH   7  14
TORSDOF 5
ENDMDL
MODEL       80
REMARK 921   NORMALIZED FREE ENERGY PREDICTED BY IDOCK:   -5.82 KCAL/MOL
REMARK 922        TOTAL FREE ENERGY PREDICTED BY IDOCK:   -8.29 KCAL/MOL
REMARK 923 INTER-LIGAND FREE ENERGY PREDICTED BY IDOCK:   -6.96 KCAL/MOL
REMARK 924 INTRA-LIGAND FREE ENERGY PREDICTED BY IDOCK:   -1.33 KCAL/MOL
REMARK 927      BINDING AFFINITY PREDICTED BY RF-SCORE:    0.00 PKD
ROOT
HETATM    1  C   UNL     1      -8.932   9.168  70.687  1.00  0.00    -0.292 C  
HETATM    2  C   UNL     1     -10.371   9.588  70.744  1.00  0.00    -0.377 A  
HETATM    3  C   UNL     1     -11.279   9.021  71.658  1.00  0.00    -0.361 A  
HETATM    4  C   UNL     1     -12.548   9.576  71.809  1.00  0.00    -0.490 A  
HETATM    5  N   UNL     1     -12.110  11.122  70.025  1.00  0.00    -0.338 NA 
HETATM    6  C   UNL     1     -12.907  10.631  70.995  1.00  0.00    -0.402 A  
HETATM    7  C   UNL     1     -10.861  10.596  69.886  1.00  0.00    -0.241 A  
ENDROOT
BRANCH   3   8
HETATM    8  O   UNL     1     -11.037   7.972  72.513  1.00  0.00    -0.319 OA 
BRANCH   8   9
HETATM    9  C   UNL     1     -11.680   6.727  72.202  1.00  0.00    -0.297 C  
HETATM   10  C   UNL     1     -10.834   5.813  71.320  1.00  0.00    -0.247 C  
HETATM   11  F   UNL     1     -11.369   5.704  70.077  1.00  0.00    -0.395 F  
HETATM   12  F   UNL     1     -10.792   4.559  71.837  1.00  0.00    -0.184 F  
HETATM   13  F   UNL     1      -9.556   6.229  71.175  1.00  0.00    -0.171 F  
ENDBRANCH   8   9
ENDBRANCH   3   8
BRANCH   7  14
HETATM   14  C   UNL     1     -10.072  11.153  68.715  1.00  0.00    -0.201 C  
BRANCH  14  15
HETATM   15  S   UNL     1     -10.789  10.689  67.127  1.00  0.00    -0.240 S  
HETATM   16  O   UNL     1     -10.135  11.390  65.971  1.00  0.00    -0.218 OA 
BRANCH  15  17
HETATM   17  C   UNL     1     -10.287   9.030  67.017  1.00  0.00    -0.269 A  
HETATM   18  N   UNL     1     -11.025   7.979  67.309  1.00  0.00    -0.480 NA 
HETATM   19  C   UNL     1     -10.311   6.896  66.845  1.00  0.00    -0.262 A  
HETATM   20  H   UNL     1     -11.930   7.969  67.779  1.00  0.00     0.000 HD 
HETATM   21  C   UNL     1     -10.650   5.535  66.829  1.00  0.00    -0.360 A  
HETATM   22  C   UNL     1      -9.787   4.630  66.197  1.00  0.00    -0.240 A  
HETATM   23  C   UNL     1      -8.601   5.071  65.605  1.00  0.00    -0.135 A  
HETATM   24  C   UNL     1      -8.223   6.419  65.646  1.00  0.00    -0.140 A  
HETATM   25  C   UNL     1      -9.104   7.299  66.280  1.00  0.00    -0.149 A  
HETATM   26  N   UNL     1      -9.076   8.655  66.490  1.00  0.00    -0.154 NA 
ENDBRANCH  15  17
ENDBRANCH  14  15
ENDBRANCH   7  14
TORSDOF 5
ENDMDL
MODEL       81
REMARK 921   NORMALIZED FREE ENERGY PREDICTED BY IDOCK:   -5.82 KCAL/MOL
REMARK 922        TOTAL FREE ENERGY PREDICTED BY IDOCK:   -8.29 KCAL/MOL
REMARK 923 INTER-LIGAND FREE ENERGY PREDICTED BY IDOCK:   -7.50 KCAL/MOL
REMARK 924 INTRA-LIGAND FREE ENERGY PREDICTED BY IDOCK:   -0.79 KCAL/MOL
REMARK 927      BINDING AFFINITY PREDICTED BY RF-SCORE:    0.00 PKD
ROOT
HETATM    1  C   UNL     1      -8.380   8.870  70.891  1.00  0.00    -0.219 C  
HETATM    2  C   UNL     1      -9.572   9.642  70.408  1.00  0.00    -0.292 A  
HETATM    3  C   UNL     1     -10.801   9.626  71.093  1.00  0.00    -0.334 A  
HETATM    4  C   UNL     1     -11.813  10.508  70.722  1.00  0.00    -0.465 A  
HETATM    5  N   UNL     1     -10.490  11.288  68.876  1.00  0.00    -0.207 NA 
HETATM    6  C   UNL     1     -11.605  11.329  69.633  1.00  0.00    -0.330 A  
HETATM    7  C   UNL     1      -9.489  10.442  69.247  1.00  0.00    -0.198 A  
ENDROOT
BRANCH   3   8
HETATM    8  O   UNL     1     -11.123   8.854  72.183  1.00  0.00    -0.362 OA 
BRANCH   8   9
HETATM    9  C   UNL     1     -12.110   7.831  71.978  1.00  0.00    -0.311 C  
HETATM   10  C   UNL     1     -11.515   6.430  71.868  1.00  0.00    -0.304 C  
HETATM   11  F   UNL     1     -11.631   5.949  70.604  1.00  0.00    -0.359 F  
HETATM   12  F   UNL     1     -12.179   5.565  72.676  1.00  0.00    -0.337 F  
HETATM   13  F   UNL     1     -10.207   6.367  72.206  1.00  0.00    -0.189 F  
ENDBRANCH   8   9
ENDBRANCH   3   8
BRANCH   7  14
HETATM   14  C   UNL     1      -8.313  10.404  68.289  1.00  0.00    -0.119 C  
BRANCH  14  15
HETATM   15  S   UNL     1      -7.672  12.050  67.930  1.00  0.00    -0.146 S  
HETATM   16  O   UNL     1      -6.296  12.016  67.326  1.00  0.00    -0.122 OA 
BRANCH  15  17
HETATM   17  C   UNL     1      -8.737  12.542  66.649  1.00  0.00    -0.100 A  
HETATM   18  N   UNL     1      -9.179  11.774  65.675  1.00  0.00    -0.392 NA 
HETATM   19  C   UNL     1     -10.166  12.509  65.056  1.00  0.00    -0.279 A  
HETATM   20  H   UNL     1      -8.860  10.837  65.432  1.00  0.00     0.000 HD 
HETATM   21  C   UNL     1     -11.020  12.158  63.999  1.00  0.00    -0.438 A  
HETATM   22  C   UNL     1     -12.024  13.056  63.615  1.00  0.00    -0.608 A  
HETATM   23  C   UNL     1     -12.165  14.288  64.261  1.00  0.00    -0.451 A  
HETATM   24  C   UNL     1     -11.298  14.674  65.289  1.00  0.00    -0.354 A  
HETATM   25  C   UNL     1     -10.308  13.758  65.654  1.00  0.00    -0.311 A  
HETATM   26  N   UNL     1      -9.318  13.784  66.605  1.00  0.00    -0.275 NA 
ENDBRANCH  15  17
ENDBRANCH  14  15
ENDBRANCH   7  14
TORSDOF 5
ENDMDL
MODEL       82
REMARK 921   NORMALIZED FREE ENERGY PREDICTED BY IDOCK:   -5.76 KCAL/MOL
REMARK 922        TOTAL FREE ENERGY PREDICTED BY IDOCK:   -8.21 KCAL/MOL
REMARK 923 INTER-LIGAND FREE ENERGY PREDICTED BY IDOCK:   -7.52 KCAL/MOL
REMARK 924 INTRA-LIGAND FREE ENERGY PREDICTED BY IDOCK:   -0.68 KCAL/MOL
REMARK 927      BINDING AFFINITY PREDICTED BY RF-SCORE:    0.00 PKD
ROOT
HETATM    1  C   UNL     1     -11.181  11.092  66.904  1.00  0.00    -0.258 C  
HETATM    2  C   UNL     1     -10.387  10.532  65.761  1.00  0.00    -0.270 A  
HETATM    3  C   UNL     1     -10.485  11.052  64.457  1.00  0.00    -0.342 A  
HETATM    4  C   UNL     1      -9.589  10.635  63.475  1.00  0.00    -0.366 A  
HETATM    5  N   UNL     1      -8.623   9.048  64.996  1.00  0.00    -0.174 NA 
HETATM    6  C   UNL     1      -8.669   9.657  63.795  1.00  0.00    -0.223 A  
HETATM    7  C   UNL     1      -9.484   9.466  65.967  1.00  0.00    -0.241 A  
ENDROOT
BRANCH   3   8
HETATM    8  O   UNL     1     -11.359  12.020  64.022  1.00  0.00    -0.347 OA 
BRANCH   8   9
HETATM    9  C   UNL     1     -10.955  13.384  64.213  1.00  0.00    -0.369 C  
HETATM   10  C   UNL     1     -12.012  14.236  64.909  1.00  0.00    -0.425 C  
HETATM   11  F   UNL     1     -12.543  15.148  64.055  1.00  0.00    -0.490 F  
HETATM   12  F   UNL     1     -11.462  14.937  65.933  1.00  0.00    -0.344 F  
HETATM   13  F   UNL     1     -13.037  13.519  65.422  1.00  0.00    -0.510 F  
ENDBRANCH   8   9
ENDBRANCH   3   8
BRANCH   7  14
HETATM   14  C   UNL     1      -9.415   8.666  67.254  1.00  0.00    -0.156 C  
BRANCH  14  15
HETATM   15  S   UNL     1     -10.638   7.342  67.299  1.00  0.00    -0.327 S  
HETATM   16  O   UNL     1     -10.185   6.111  66.566  1.00  0.00    -0.173 OA 
BRANCH  15  17
HETATM   17  C   UNL     1     -10.605   6.925  68.985  1.00  0.00    -0.217 A  
HETATM   18  N   UNL     1     -11.631   6.962  69.810  1.00  0.00    -0.588 NA 
HETATM   19  C   UNL     1     -11.198   6.326  70.952  1.00  0.00    -0.324 A  
HETATM   20  H   UNL     1     -12.548   7.373  69.639  1.00  0.00     0.000 HD 
HETATM   21  C   UNL     1     -11.897   6.020  72.131  1.00  0.00    -0.304 A  
HETATM   22  C   UNL     1     -11.255   5.263  73.119  1.00  0.00    -0.382 A  
HETATM   23  C   UNL     1      -9.936   4.833  72.945  1.00  0.00    -0.195 A  
HETATM   24  C   UNL     1      -9.208   5.164  71.796  1.00  0.00    -0.168 A  
HETATM   25  C   UNL     1      -9.874   5.916  70.825  1.00  0.00    -0.183 A  
HETATM   26  N   UNL     1      -9.496   6.396  69.596  1.00  0.00    -0.147 NA 
ENDBRANCH  15  17
ENDBRANCH  14  15
ENDBRANCH   7  14
TORSDOF 5
ENDMDL
MODEL       83
REMARK 921   NORMALIZED FREE ENERGY PREDICTED BY IDOCK:   -5.75 KCAL/MOL
REMARK 922        TOTAL FREE ENERGY PREDICTED BY IDOCK:   -8.20 KCAL/MOL
REMARK 923 INTER-LIGAND FREE ENERGY PREDICTED BY IDOCK:   -7.31 KCAL/MOL
REMARK 924 INTRA-LIGAND FREE ENERGY PREDICTED BY IDOCK:   -0.88 KCAL/MOL
REMARK 927      BINDING AFFINITY PREDICTED BY RF-SCORE:    0.00 PKD
ROOT
HETATM    1  C   UNL     1     -11.175  10.286  69.232  1.00  0.00    -0.281 C  
HETATM    2  C   UNL     1     -10.200   9.242  69.691  1.00  0.00    -0.219 A  
HETATM    3  C   UNL     1     -10.607   8.107  70.417  1.00  0.00    -0.224 A  
HETATM    4  C   UNL     1      -9.704   7.072  70.650  1.00  0.00    -0.174 A  
HETATM    5  N   UNL     1      -7.943   8.349  69.633  1.00  0.00    -0.104 NA 
HETATM    6  C   UNL     1      -8.401   7.227  70.222  1.00  0.00    -0.135 A  
HETATM    7  C   UNL     1      -8.826   9.356  69.385  1.00  0.00    -0.159 A  
ENDROOT
BRANCH   3   8
HETATM    8  O   UNL     1     -11.870   7.846  70.894  1.00  0.00    -0.287 OA 
BRANCH   8   9
HETATM    9  C   UNL     1     -12.205   8.414  72.169  1.00  0.00    -0.374 C  
HETATM   10  C   UNL     1     -13.428   9.325  72.122  1.00  0.00    -0.473 C  
HETATM   11  F   UNL     1     -13.077  10.622  72.316  1.00  0.00    -0.545 F  
HETATM   12  F   UNL     1     -14.299   9.006  73.113  1.00  0.00    -0.277 F  
HETATM   13  F   UNL     1     -14.109   9.261  70.956  1.00  0.00    -0.384 F  
ENDBRANCH   8   9
ENDBRANCH   3   8
BRANCH   7  14
HETATM   14  C   UNL     1      -8.202  10.609  68.799  1.00  0.00    -0.142 C  
BRANCH  14  15
HETATM   15  S   UNL     1      -7.621  10.355  67.111  1.00  0.00    -0.097 S  
HETATM   16  O   UNL     1      -7.786   8.935  66.650  1.00  0.00    -0.098 OA 
BRANCH  15  17
HETATM   17  C   UNL     1      -8.793  11.279  66.221  1.00  0.00    -0.191 A  
HETATM   18  N   UNL     1      -9.036  11.179  64.931  1.00  0.00    -0.361 NA 
HETATM   19  C   UNL     1     -10.185  11.909  64.723  1.00  0.00    -0.276 A  
HETATM   20  H   UNL     1      -8.490  10.672  64.235  1.00  0.00     0.000 HD 
HETATM   21  C   UNL     1     -10.934  12.093  63.550  1.00  0.00    -0.521 A  
HETATM   22  C   UNL     1     -12.139  12.803  63.623  1.00  0.00    -0.624 A  
HETATM   23  C   UNL     1     -12.584  13.333  64.837  1.00  0.00    -0.444 A  
HETATM   24  C   UNL     1     -11.832  13.196  66.010  1.00  0.00    -0.457 A  
HETATM   25  C   UNL     1     -10.635  12.481  65.909  1.00  0.00    -0.265 A  
HETATM   26  N   UNL     1      -9.674  12.139  66.827  1.00  0.00    -0.203 NA 
ENDBRANCH  15  17
ENDBRANCH  14  15
ENDBRANCH   7  14
TORSDOF 5
ENDMDL
MODEL       84
REMARK 921   NORMALIZED FREE ENERGY PREDICTED BY IDOCK:   -5.74 KCAL/MOL
REMARK 922        TOTAL FREE ENERGY PREDICTED BY IDOCK:   -8.19 KCAL/MOL
REMARK 923 INTER-LIGAND FREE ENERGY PREDICTED BY IDOCK:   -7.60 KCAL/MOL
REMARK 924 INTRA-LIGAND FREE ENERGY PREDICTED BY IDOCK:   -0.59 KCAL/MOL
REMARK 927      BINDING AFFINITY PREDICTED BY RF-SCORE:    0.00 PKD
ROOT
HETATM    1  C   UNL     1     -11.812  13.705  67.267  1.00  0.00    -0.429 C  
HETATM    2  C   UNL     1     -11.867  14.075  68.720  1.00  0.00    -0.396 A  
HETATM    3  C   UNL     1     -11.756  15.409  69.156  1.00  0.00    -0.345 A  
HETATM    4  C   UNL     1     -12.010  15.726  70.489  1.00  0.00    -0.401 A  
HETATM    5  N   UNL     1     -12.287  13.400  71.015  1.00  0.00    -0.358 NA 
HETATM    6  C   UNL     1     -12.292  14.701  71.368  1.00  0.00    -0.348 A  
HETATM    7  C   UNL     1     -12.060  13.086  69.708  1.00  0.00    -0.258 A  
ENDROOT
BRANCH   3   8
HETATM    8  O   UNL     1     -11.478  16.507  68.377  1.00  0.00    -0.301 OA 
BRANCH   8   9
HETATM    9  C   UNL     1     -10.278  17.230  68.690  1.00  0.00    -0.351 C  
HETATM   10  C   UNL     1     -10.268  18.652  68.137  1.00  0.00    -0.382 C  
HETATM   11  F   UNL     1      -9.361  18.779  67.135  1.00  0.00    -0.282 F  
HETATM   12  F   UNL     1      -9.906  19.536  69.102  1.00  0.00    -0.449 F  
HETATM   13  F   UNL     1     -11.463  19.056  67.653  1.00  0.00    -0.295 F  
ENDBRANCH   8   9
ENDBRANCH   3   8
BRANCH   7  14
HETATM   14  C   UNL     1     -11.989  11.597  69.424  1.00  0.00    -0.316 C  
BRANCH  14  15
HETATM   15  S   UNL     1     -12.081  10.610  70.930  1.00  0.00    -0.390 S  
HETATM   16  O   UNL     1     -13.450  10.038  71.165  1.00  0.00    -0.357 OA 
BRANCH  15  17
HETATM   17  C   UNL     1     -11.075   9.261  70.498  1.00  0.00    -0.265 A  
HETATM   18  N   UNL     1     -11.496   8.054  70.183  1.00  0.00    -0.466 NA 
HETATM   19  C   UNL     1     -10.388   7.404  69.685  1.00  0.00    -0.223 A  
HETATM   20  H   UNL     1     -12.439   7.681  70.287  1.00  0.00     0.000 HD 
HETATM   21  C   UNL     1     -10.270   6.117  69.139  1.00  0.00    -0.242 A  
HETATM   22  C   UNL     1      -9.040   5.723  68.597  1.00  0.00    -0.116 A  
HETATM   23  C   UNL     1      -7.943   6.588  68.612  1.00  0.00    -0.114 A  
HETATM   24  C   UNL     1      -8.028   7.861  69.190  1.00  0.00    -0.118 A  
HETATM   25  C   UNL     1      -9.267   8.229  69.720  1.00  0.00    -0.154 A  
HETATM   26  N   UNL     1      -9.717   9.373  70.331  1.00  0.00    -0.244 NA 
ENDBRANCH  15  17
ENDBRANCH  14  15
ENDBRANCH   7  14
TORSDOF 5
ENDMDL
MODEL       85
REMARK 921   NORMALIZED FREE ENERGY PREDICTED BY IDOCK:   -5.74 KCAL/MOL
REMARK 922        TOTAL FREE ENERGY PREDICTED BY IDOCK:   -8.18 KCAL/MOL
REMARK 923 INTER-LIGAND FREE ENERGY PREDICTED BY IDOCK:   -7.07 KCAL/MOL
REMARK 924 INTRA-LIGAND FREE ENERGY PREDICTED BY IDOCK:   -1.11 KCAL/MOL
REMARK 927      BINDING AFFINITY PREDICTED BY RF-SCORE:    0.00 PKD
ROOT
HETATM    1  C   UNL     1      -9.812  14.435  66.006  1.00  0.00    -0.342 C  
HETATM    2  C   UNL     1      -9.374  13.097  66.522  1.00  0.00    -0.222 A  
HETATM    3  C   UNL     1      -9.367  11.948  65.709  1.00  0.00    -0.155 A  
HETATM    4  C   UNL     1      -8.769  10.776  66.169  1.00  0.00    -0.186 A  
HETATM    5  N   UNL     1      -8.359  11.796  68.304  1.00  0.00    -0.154 NA 
HETATM    6  C   UNL     1      -8.262  10.755  67.453  1.00  0.00    -0.116 A  
HETATM    7  C   UNL     1      -8.925  12.950  67.853  1.00  0.00    -0.193 A  
ENDROOT
BRANCH   3   8
HETATM    8  O   UNL     1      -9.843  11.849  64.423  1.00  0.00    -0.241 OA 
BRANCH   8   9
HETATM    9  C   UNL     1     -11.133  11.241  64.260  1.00  0.00    -0.222 C  
HETATM   10  C   UNL     1     -12.202  12.213  63.769  1.00  0.00    -0.531 C  
HETATM   11  F   UNL     1     -13.115  12.465  64.741  1.00  0.00    -0.547 F  
HETATM   12  F   UNL     1     -12.884  11.681  62.723  1.00  0.00    -0.537 F  
HETATM   13  F   UNL     1     -11.707  13.402  63.360  1.00  0.00    -0.459 F  
ENDBRANCH   8   9
ENDBRANCH   3   8
BRANCH   7  14
HETATM   14  C   UNL     1      -9.067  14.033  68.907  1.00  0.00     0.050 C  
BRANCH  14  15
HETATM   15  S   UNL     1      -7.550  14.985  69.115  1.00  0.00    -0.187 S  
HETATM   16  O   UNL     1      -6.556  14.737  68.015  1.00  0.00    -0.117 OA 
BRANCH  15  17
HETATM   17  C   UNL     1      -8.140  16.599  68.861  1.00  0.00    -0.235 A  
HETATM   18  N   UNL     1      -7.400  17.679  68.728  1.00  0.00    -0.260 NA 
HETATM   19  C   UNL     1      -8.269  18.662  68.309  1.00  0.00    -0.323 A  
HETATM   20  H   UNL     1      -6.399  17.769  68.900  1.00  0.00     0.000 HD 
HETATM   21  C   UNL     1      -8.014  19.995  67.949  1.00  0.00    -0.306 A  
HETATM   22  C   UNL     1      -9.065  20.773  67.448  1.00  0.00    -0.321 A  
HETATM   23  C   UNL     1     -10.351  20.239  67.322  1.00  0.00    -0.420 A  
HETATM   24  C   UNL     1     -10.635  18.926  67.714  1.00  0.00    -0.471 A  
HETATM   25  C   UNL     1      -9.567  18.171  68.207  1.00  0.00    -0.317 A  
HETATM   26  N   UNL     1      -9.468  16.878  68.657  1.00  0.00    -0.261 NA 
ENDBRANCH  15  17
ENDBRANCH  14  15
ENDBRANCH   7  14
TORSDOF 5
ENDMDL
MODEL       86
REMARK 921   NORMALIZED FREE ENERGY PREDICTED BY IDOCK:   -5.73 KCAL/MOL
REMARK 922        TOTAL FREE ENERGY PREDICTED BY IDOCK:   -8.17 KCAL/MOL
REMARK 923 INTER-LIGAND FREE ENERGY PREDICTED BY IDOCK:   -7.45 KCAL/MOL
REMARK 924 INTRA-LIGAND FREE ENERGY PREDICTED BY IDOCK:   -0.71 KCAL/MOL
REMARK 927      BINDING AFFINITY PREDICTED BY RF-SCORE:    0.00 PKD
ROOT
HETATM    1  C   UNL     1     -10.126  10.228  69.233  1.00  0.00    -0.244 C  
HETATM    2  C   UNL     1     -10.100  10.663  67.798  1.00  0.00    -0.203 A  
HETATM    3  C   UNL     1      -9.926   9.748  66.743  1.00  0.00    -0.218 A  
HETATM    4  C   UNL     1     -10.105  10.165  65.426  1.00  0.00    -0.342 A  
HETATM    5  N   UNL     1     -10.430  12.427  66.162  1.00  0.00    -0.243 NA 
HETATM    6  C   UNL     1     -10.377  11.497  65.188  1.00  0.00    -0.278 A  
HETATM    7  C   UNL     1     -10.276  12.021  67.453  1.00  0.00    -0.200 A  
ENDROOT
BRANCH   3   8
HETATM    8  O   UNL     1      -9.651   8.406  66.857  1.00  0.00    -0.170 OA 
BRANCH   8   9
HETATM    9  C   UNL     1     -10.779   7.524  66.960  1.00  0.00    -0.297 C  
HETATM   10  C   UNL     1     -10.628   6.473  68.055  1.00  0.00    -0.251 C  
HETATM   11  F   UNL     1     -10.475   5.233  67.523  1.00  0.00    -0.217 F  
HETATM   12  F   UNL     1     -11.741   6.429  68.831  1.00  0.00    -0.373 F  
HETATM   13  F   UNL     1      -9.577   6.692  68.877  1.00  0.00    -0.132 F  
ENDBRANCH   8   9
ENDBRANCH   3   8
BRANCH   7  14
HETATM   14  C   UNL     1     -10.266  13.148  68.469  1.00  0.00    -0.215 C  
BRANCH  14  15
HETATM   15  S   UNL     1     -11.725  14.199  68.335  1.00  0.00    -0.353 S  
HETATM   16  O   UNL     1     -12.422  14.392  69.653  1.00  0.00    -0.288 OA 
BRANCH  15  17
HETATM   17  C   UNL     1     -10.991  15.729  67.962  1.00  0.00    -0.330 A  
HETATM   18  N   UNL     1     -10.822  16.230  66.756  1.00  0.00    -0.197 NA 
HETATM   19  C   UNL     1     -10.436  17.536  66.959  1.00  0.00    -0.293 A  
HETATM   20  H   UNL     1     -10.951  15.753  65.864  1.00  0.00     0.000 HD 
HETATM   21  C   UNL     1     -10.185  18.556  66.028  1.00  0.00    -0.371 A  
HETATM   22  C   UNL     1      -9.905  19.845  66.496  1.00  0.00    -0.567 A  
HETATM   23  C   UNL     1      -9.860  20.113  67.868  1.00  0.00    -0.525 A  
HETATM   24  C   UNL     1     -10.066  19.101  68.813  1.00  0.00    -0.445 A  
HETATM   25  C   UNL     1     -10.346  17.825  68.318  1.00  0.00    -0.385 A  
HETATM   26  N   UNL     1     -10.614  16.626  68.930  1.00  0.00    -0.315 NA 
ENDBRANCH  15  17
ENDBRANCH  14  15
ENDBRANCH   7  14
TORSDOF 5
ENDMDL
MODEL       87
REMARK 921   NORMALIZED FREE ENERGY PREDICTED BY IDOCK:   -5.72 KCAL/MOL
REMARK 922        TOTAL FREE ENERGY PREDICTED BY IDOCK:   -8.16 KCAL/MOL
REMARK 923 INTER-LIGAND FREE ENERGY PREDICTED BY IDOCK:   -7.50 KCAL/MOL
REMARK 924 INTRA-LIGAND FREE ENERGY PREDICTED BY IDOCK:   -0.66 KCAL/MOL
REMARK 927      BINDING AFFINITY PREDICTED BY RF-SCORE:    0.00 PKD
ROOT
HETATM    1  C   UNL     1     -10.847   9.358  68.393  1.00  0.00    -0.156 C  
HETATM    2  C   UNL     1     -10.487   9.993  67.083  1.00  0.00    -0.305 A  
HETATM    3  C   UNL     1      -9.750   9.310  66.098  1.00  0.00    -0.279 A  
HETATM    4  C   UNL     1      -9.609   9.864  64.827  1.00  0.00    -0.339 A  
HETATM    5  N   UNL     1     -10.748  11.853  65.543  1.00  0.00    -0.275 NA 
HETATM    6  C   UNL     1     -10.141  11.115  64.592  1.00  0.00    -0.302 A  
HETATM    7  C   UNL     1     -10.905  11.308  66.782  1.00  0.00    -0.282 A  
ENDROOT
BRANCH   3   8
HETATM    8  O   UNL     1      -9.173   8.068  66.218  1.00  0.00    -0.178 OA 
BRANCH   8   9
HETATM    9  C   UNL     1      -7.827   8.028  66.715  1.00  0.00    -0.103 C  
HETATM   10  C   UNL     1      -7.688   7.255  68.023  1.00  0.00    -0.117 C  
HETATM   11  F   UNL     1      -7.401   8.090  69.055  1.00  0.00    -0.074 F  
HETATM   12  F   UNL     1      -6.665   6.367  67.946  1.00  0.00    -0.053 F  
HETATM   13  F   UNL     1      -8.796   6.559  68.363  1.00  0.00    -0.124 F  
ENDBRANCH   8   9
ENDBRANCH   3   8
BRANCH   7  14
HETATM   14  C   UNL     1     -11.520  12.244  67.806  1.00  0.00    -0.329 C  
BRANCH  14  15
HETATM   15  S   UNL     1     -10.561  13.757  68.010  1.00  0.00    -0.258 S  
HETATM   16  O   UNL     1     -10.675  14.678  66.829  1.00  0.00    -0.291 OA 
BRANCH  15  17
HETATM   17  C   UNL     1     -11.440  14.528  69.295  1.00  0.00    -0.288 A  
HETATM   18  N   UNL     1     -12.748  14.531  69.442  1.00  0.00    -0.507 NA 
HETATM   19  C   UNL     1     -12.969  15.039  70.703  1.00  0.00    -0.345 A  
HETATM   20  H   UNL     1     -13.448  14.224  68.767  1.00  0.00     0.000 HD 
HETATM   21  C   UNL     1     -14.171  15.206  71.408  1.00  0.00    -0.597 A  
HETATM   22  C   UNL     1     -14.119  15.652  72.735  1.00  0.00    -0.442 A  
HETATM   23  C   UNL     1     -12.895  15.941  73.344  1.00  0.00    -0.688 A  
HETATM   24  C   UNL     1     -11.688  15.822  72.645  1.00  0.00    -0.542 A  
HETATM   25  C   UNL     1     -11.768  15.372  71.324  1.00  0.00    -0.380 A  
HETATM   26  N   UNL     1     -10.819  15.122  70.365  1.00  0.00    -0.252 NA 
ENDBRANCH  15  17
ENDBRANCH  14  15
ENDBRANCH   7  14
TORSDOF 5
ENDMDL
MODEL       88
REMARK 921   NORMALIZED FREE ENERGY PREDICTED BY IDOCK:   -5.70 KCAL/MOL
REMARK 922        TOTAL FREE ENERGY PREDICTED BY IDOCK:   -8.14 KCAL/MOL
REMARK 923 INTER-LIGAND FREE ENERGY PREDICTED BY IDOCK:   -8.19 KCAL/MOL
REMARK 924 INTRA-LIGAND FREE ENERGY PREDICTED BY IDOCK:    0.05 KCAL/MOL
REMARK 927      BINDING AFFINITY PREDICTED BY RF-SCORE:    0.00 PKD
ROOT
HETATM    1  C   UNL     1     -10.765  18.880  67.123  1.00  0.00    -0.506 C  
HETATM    2  C   UNL     1      -9.680  17.936  67.551  1.00  0.00    -0.278 A  
HETATM    3  C   UNL     1      -8.504  18.384  68.180  1.00  0.00    -0.285 A  
HETATM    4  C   UNL     1      -7.619  17.462  68.735  1.00  0.00    -0.252 A  
HETATM    5  N   UNL     1      -8.940  15.647  67.883  1.00  0.00    -0.179 NA 
HETATM    6  C   UNL     1      -7.889  16.117  68.583  1.00  0.00    -0.188 A  
HETATM    7  C   UNL     1      -9.819  16.544  67.355  1.00  0.00    -0.253 A  
ENDROOT
BRANCH   3   8
HETATM    8  O   UNL     1      -8.129  19.691  68.385  1.00  0.00    -0.330 OA 
BRANCH   8   9
HETATM    9  C   UNL     1      -6.786  20.040  68.017  1.00  0.00    -0.279 C  
HETATM   10  C   UNL     1      -6.598  20.217  66.513  1.00  0.00    -0.212 C  
HETATM   11  F   UNL     1      -5.835  19.219  65.997  1.00  0.00    -0.167 F  
HETATM   12  F   UNL     1      -5.949  21.379  66.247  1.00  0.00    -0.281 F  
HETATM   13  F   UNL     1      -7.757  20.239  65.819  1.00  0.00    -0.307 F  
ENDBRANCH   8   9
ENDBRANCH   3   8
BRANCH   7  14
HETATM   14  C   UNL     1     -10.919  15.925  66.513  1.00  0.00    -0.121 C  
BRANCH  14  15
HETATM   15  S   UNL     1     -11.122  14.164  66.844  1.00  0.00    -0.316 S  
HETATM   16  O   UNL     1      -9.812  13.429  66.887  1.00  0.00    -0.242 OA 
BRANCH  15  17
HETATM   17  C   UNL     1     -11.693  14.206  68.484  1.00  0.00    -0.345 A  
HETATM   18  N   UNL     1     -12.282  15.227  69.071  1.00  0.00    -0.594 NA 
HETATM   19  C   UNL     1     -12.770  14.729  70.258  1.00  0.00    -0.276 A  
HETATM   20  H   UNL     1     -12.360  16.182  68.721  1.00  0.00     0.000 HD 
HETATM   21  C   UNL     1     -13.540  15.358  71.250  1.00  0.00    -0.585 A  
HETATM   22  C   UNL     1     -14.006  14.595  72.328  1.00  0.00    -0.589 A  
HETATM   23  C   UNL     1     -13.700  13.235  72.426  1.00  0.00    -0.678 A  
HETATM   24  C   UNL     1     -12.899  12.599  71.471  1.00  0.00    -0.368 A  
HETATM   25  C   UNL     1     -12.450  13.382  70.404  1.00  0.00    -0.252 A  
HETATM   26  N   UNL     1     -11.683  13.103  69.301  1.00  0.00    -0.305 NA 
ENDBRANCH  15  17
ENDBRANCH  14  15
ENDBRANCH   7  14
TORSDOF 5
ENDMDL
MODEL       89
REMARK 921   NORMALIZED FREE ENERGY PREDICTED BY IDOCK:   -5.70 KCAL/MOL
REMARK 922        TOTAL FREE ENERGY PREDICTED BY IDOCK:   -8.14 KCAL/MOL
REMARK 923 INTER-LIGAND FREE ENERGY PREDICTED BY IDOCK:   -7.24 KCAL/MOL
REMARK 924 INTRA-LIGAND FREE ENERGY PREDICTED BY IDOCK:   -0.90 KCAL/MOL
REMARK 927      BINDING AFFINITY PREDICTED BY RF-SCORE:    0.00 PKD
ROOT
HETATM    1  C   UNL     1     -10.864   7.196  67.039  1.00  0.00    -0.382 C  
HETATM    2  C   UNL     1     -10.647   7.599  68.468  1.00  0.00    -0.162 A  
HETATM    3  C   UNL     1     -10.557   6.653  69.505  1.00  0.00    -0.241 A  
HETATM    4  C   UNL     1     -10.160   7.056  70.779  1.00  0.00    -0.205 A  
HETATM    5  N   UNL     1     -10.132   9.350  70.070  1.00  0.00    -0.210 NA 
HETATM    6  C   UNL     1      -9.938   8.399  71.005  1.00  0.00    -0.190 A  
HETATM    7  C   UNL     1     -10.501   8.959  68.818  1.00  0.00    -0.200 A  
ENDROOT
BRANCH   3   8
HETATM    8  O   UNL     1     -10.758   5.297  69.401  1.00  0.00    -0.233 OA 
BRANCH   8   9
HETATM    9  C   UNL     1      -9.592   4.464  69.497  1.00  0.00    -0.201 C  
HETATM   10  C   UNL     1      -9.343   3.626  68.246  1.00  0.00    -0.170 C  
HETATM   11  F   UNL     1      -9.561   2.309  68.491  1.00  0.00    -0.233 F  
HETATM   12  F   UNL     1      -8.051   3.739  67.846  1.00  0.00    -0.081 F  
HETATM   13  F   UNL     1     -10.118   3.975  67.195  1.00  0.00    -0.230 F  
ENDBRANCH   8   9
ENDBRANCH   3   8
BRANCH   7  14
HETATM   14  C   UNL     1     -10.778  10.102  67.859  1.00  0.00    -0.269 C  
BRANCH  14  15
HETATM   15  S   UNL     1      -9.941  11.622  68.350  1.00  0.00    -0.199 S  
HETATM   16  O   UNL     1      -9.663  12.531  67.186  1.00  0.00    -0.199 OA 
BRANCH  15  17
HETATM   17  C   UNL     1     -11.192  12.401  69.268  1.00  0.00    -0.201 A  
HETATM   18  N   UNL     1     -11.839  11.879  70.290  1.00  0.00    -0.479 NA 
HETATM   19  C   UNL     1     -12.544  12.925  70.843  1.00  0.00    -0.270 A  
HETATM   20  H   UNL     1     -11.821  10.909  70.604  1.00  0.00     0.000 HD 
HETATM   21  C   UNL     1     -13.352  12.958  71.990  1.00  0.00    -0.579 A  
HETATM   22  C   UNL     1     -13.882  14.186  72.408  1.00  0.00    -0.638 A  
HETATM   23  C   UNL     1     -13.626  15.356  71.688  1.00  0.00    -0.603 A  
HETATM   24  C   UNL     1     -12.857  15.337  70.518  1.00  0.00    -0.421 A  
HETATM   25  C   UNL     1     -12.339  14.100  70.126  1.00  0.00    -0.351 A  
HETATM   26  N   UNL     1     -11.547  13.712  69.074  1.00  0.00    -0.289 NA 
ENDBRANCH  15  17
ENDBRANCH  14  15
ENDBRANCH   7  14
TORSDOF 5
ENDMDL
MODEL       90
REMARK 921   NORMALIZED FREE ENERGY PREDICTED BY IDOCK:   -5.69 KCAL/MOL
REMARK 922        TOTAL FREE ENERGY PREDICTED BY IDOCK:   -8.13 KCAL/MOL
REMARK 923 INTER-LIGAND FREE ENERGY PREDICTED BY IDOCK:   -7.02 KCAL/MOL
REMARK 924 INTRA-LIGAND FREE ENERGY PREDICTED BY IDOCK:   -1.11 KCAL/MOL
REMARK 927      BINDING AFFINITY PREDICTED BY RF-SCORE:    0.00 PKD
ROOT
HETATM    1  C   UNL     1      -8.507  13.606  68.318  1.00  0.00    -0.170 C  
HETATM    2  C   UNL     1      -9.888  13.993  68.758  1.00  0.00    -0.141 A  
HETATM    3  C   UNL     1     -10.828  13.040  69.192  1.00  0.00    -0.086 A  
HETATM    4  C   UNL     1     -12.022  13.459  69.775  1.00  0.00    -0.396 A  
HETATM    5  N   UNL     1     -11.464  15.751  69.326  1.00  0.00    -0.341 NA 
HETATM    6  C   UNL     1     -12.283  14.812  69.841  1.00  0.00    -0.311 A  
HETATM    7  C   UNL     1     -10.286  15.347  68.773  1.00  0.00    -0.229 A  
ENDROOT
BRANCH   3   8
HETATM    8  O   UNL     1     -10.681  11.673  69.174  1.00  0.00    -0.208 OA 
BRANCH   8   9
HETATM    9  C   UNL     1     -11.133  10.994  67.992  1.00  0.00    -0.286 C  
HETATM   10  C   UNL     1     -10.128   9.978  67.457  1.00  0.00    -0.198 C  
HETATM   11  F   UNL     1      -9.595  10.394  66.280  1.00  0.00    -0.185 F  
HETATM   12  F   UNL     1     -10.736   8.790  67.210  1.00  0.00    -0.341 F  
HETATM   13  F   UNL     1      -9.101   9.732  68.301  1.00  0.00    -0.122 F  
ENDBRANCH   8   9
ENDBRANCH   3   8
BRANCH   7  14
HETATM   14  C   UNL     1      -9.472  16.464  68.144  1.00  0.00    -0.213 C  
BRANCH  14  15
HETATM   15  S   UNL     1     -10.141  16.982  66.552  1.00  0.00    -0.323 S  
HETATM   16  O   UNL     1      -9.076  17.456  65.605  1.00  0.00    -0.459 OA 
BRANCH  15  17
HETATM   17  C   UNL     1     -10.691  15.460  65.920  1.00  0.00    -0.336 A  
HETATM   18  N   UNL     1     -11.946  15.071  65.828  1.00  0.00    -0.049 NA 
HETATM   19  C   UNL     1     -11.913  13.930  65.057  1.00  0.00    -0.390 A  
HETATM   20  H   UNL     1     -12.764  15.518  66.240  1.00  0.00     0.000 HD 
HETATM   21  C   UNL     1     -12.968  13.133  64.585  1.00  0.00    -0.115 A  
HETATM   22  C   UNL     1     -12.677  12.072  63.719  1.00  0.00    -0.516 A  
HETATM   23  C   UNL     1     -11.360  11.799  63.341  1.00  0.00    -0.437 A  
HETATM   24  C   UNL     1     -10.290  12.555  63.833  1.00  0.00    -0.436 A  
HETATM   25  C   UNL     1     -10.609  13.610  64.693  1.00  0.00    -0.430 A  
HETATM   26  N   UNL     1      -9.845  14.551  65.337  1.00  0.00    -0.303 NA 
ENDBRANCH  15  17
ENDBRANCH  14  15
ENDBRANCH   7  14
TORSDOF 5
ENDMDL
MODEL       91
REMARK 921   NORMALIZED FREE ENERGY PREDICTED BY IDOCK:   -5.69 KCAL/MOL
REMARK 922        TOTAL FREE ENERGY PREDICTED BY IDOCK:   -8.13 KCAL/MOL
REMARK 923 INTER-LIGAND FREE ENERGY PREDICTED BY IDOCK:   -7.23 KCAL/MOL
REMARK 924 INTRA-LIGAND FREE ENERGY PREDICTED BY IDOCK:   -0.89 KCAL/MOL
REMARK 927      BINDING AFFINITY PREDICTED BY RF-SCORE:    0.00 PKD
ROOT
HETATM    1  C   UNL     1     -10.467  10.347  66.598  1.00  0.00    -0.279 C  
HETATM    2  C   UNL     1      -9.953  10.643  65.220  1.00  0.00    -0.356 A  
HETATM    3  C   UNL     1      -8.765  10.071  64.727  1.00  0.00    -0.187 A  
HETATM    4  C   UNL     1      -8.431  10.216  63.382  1.00  0.00    -0.185 A  
HETATM    5  N   UNL     1     -10.326  11.652  63.043  1.00  0.00    -0.303 NA 
HETATM    6  C   UNL     1      -9.247  10.989  62.581  1.00  0.00    -0.333 A  
HETATM    7  C   UNL     1     -10.668  11.498  64.353  1.00  0.00    -0.344 A  
ENDROOT
BRANCH   3   8
HETATM    8  O   UNL     1      -7.877   9.290  65.428  1.00  0.00    -0.097 OA 
BRANCH   8   9
HETATM    9  C   UNL     1      -7.739   7.928  64.997  1.00  0.00    -0.106 C  
HETATM   10  C   UNL     1      -8.268   6.917  66.011  1.00  0.00    -0.125 C  
HETATM   11  F   UNL     1      -7.253   6.207  66.567  1.00  0.00    -0.066 F  
HETATM   12  F   UNL     1      -9.085   6.018  65.405  1.00  0.00    -0.146 F  
HETATM   13  F   UNL     1      -8.971   7.477  67.021  1.00  0.00    -0.119 F  
ENDBRANCH   8   9
ENDBRANCH   3   8
BRANCH   7  14
HETATM   14  C   UNL     1     -11.842  12.348  64.800  1.00  0.00    -0.382 C  
BRANCH  14  15
HETATM   15  S   UNL     1     -11.438  14.105  64.832  1.00  0.00    -0.387 S  
HETATM   16  O   UNL     1     -12.552  14.964  64.303  1.00  0.00    -0.699 OA 
BRANCH  15  17
HETATM   17  C   UNL     1     -11.390  14.397  66.543  1.00  0.00    -0.350 A  
HETATM   18  N   UNL     1     -11.098  15.543  67.123  1.00  0.00    -0.296 NA 
HETATM   19  C   UNL     1     -11.420  15.368  68.450  1.00  0.00    -0.355 A  
HETATM   20  H   UNL     1     -10.715  16.380  66.683  1.00  0.00     0.000 HD 
HETATM   21  C   UNL     1     -11.376  16.282  69.515  1.00  0.00    -0.276 A  
HETATM   22  C   UNL     1     -11.863  15.885  70.767  1.00  0.00    -0.423 A  
HETATM   23  C   UNL     1     -12.370  14.597  70.960  1.00  0.00    -0.403 A  
HETATM   24  C   UNL     1     -12.384  13.658  69.922  1.00  0.00    -0.310 A  
HETATM   25  C   UNL     1     -11.896  14.081  68.684  1.00  0.00    -0.361 A  
HETATM   26  N   UNL     1     -11.775  13.458  67.467  1.00  0.00    -0.346 NA 
ENDBRANCH  15  17
ENDBRANCH  14  15
ENDBRANCH   7  14
TORSDOF 5
ENDMDL
MODEL       92
REMARK 921   NORMALIZED FREE ENERGY PREDICTED BY IDOCK:   -5.67 KCAL/MOL
REMARK 922        TOTAL FREE ENERGY PREDICTED BY IDOCK:   -8.10 KCAL/MOL
REMARK 923 INTER-LIGAND FREE ENERGY PREDICTED BY IDOCK:   -6.99 KCAL/MOL
REMARK 924 INTRA-LIGAND FREE ENERGY PREDICTED BY IDOCK:   -1.11 KCAL/MOL
REMARK 927      BINDING AFFINITY PREDICTED BY RF-SCORE:    0.00 PKD
ROOT
HETATM    1  C   UNL     1     -10.111  10.631  64.326  1.00  0.00    -0.411 C  
HETATM    2  C   UNL     1     -10.014  10.797  65.813  1.00  0.00    -0.306 A  
HETATM    3  C   UNL     1     -10.038   9.698  66.691  1.00  0.00    -0.239 A  
HETATM    4  C   UNL     1      -9.748   9.882  68.042  1.00  0.00    -0.160 A  
HETATM    5  N   UNL     1      -9.605  12.256  67.712  1.00  0.00    -0.194 NA 
HETATM    6  C   UNL     1      -9.517  11.164  68.497  1.00  0.00    -0.193 A  
HETATM    7  C   UNL     1      -9.869  12.080  66.386  1.00  0.00    -0.220 A  
ENDROOT
BRANCH   3   8
HETATM    8  O   UNL     1     -10.260   8.383  66.356  1.00  0.00    -0.265 OA 
BRANCH   8   9
HETATM    9  C   UNL     1      -9.261   7.438  66.766  1.00  0.00    -0.156 C  
HETATM   10  C   UNL     1      -8.297   7.053  65.648  1.00  0.00    -0.136 C  
HETATM   11  F   UNL     1      -8.489   5.766  65.260  1.00  0.00    -0.132 F  
HETATM   12  F   UNL     1      -7.011   7.143  66.074  1.00  0.00    -0.058 F  
HETATM   13  F   UNL     1      -8.407   7.828  64.545  1.00  0.00    -0.149 F  
ENDBRANCH   8   9
ENDBRANCH   3   8
BRANCH   7  14
HETATM   14  C   UNL     1     -10.033  13.369  65.602  1.00  0.00    -0.235 C  
BRANCH  14  15
HETATM   15  S   UNL     1     -11.746  13.931  65.566  1.00  0.00    -0.366 S  
HETATM   16  O   UNL     1     -12.715  12.816  65.295  1.00  0.00    -0.625 OA 
BRANCH  15  17
HETATM   17  C   UNL     1     -11.980  14.366  67.231  1.00  0.00    -0.377 A  
HETATM   18  N   UNL     1     -12.495  13.593  68.165  1.00  0.00    -0.206 NA 
HETATM   19  C   UNL     1     -12.260  14.255  69.350  1.00  0.00    -0.278 A  
HETATM   20  H   UNL     1     -12.965  12.697  68.038  1.00  0.00     0.000 HD 
HETATM   21  C   UNL     1     -12.534  13.862  70.670  1.00  0.00    -0.436 A  
HETATM   22  C   UNL     1     -12.096  14.676  71.722  1.00  0.00    -0.391 A  
HETATM   23  C   UNL     1     -11.412  15.868  71.465  1.00  0.00    -0.484 A  
HETATM   24  C   UNL     1     -11.165  16.298  70.156  1.00  0.00    -0.340 A  
HETATM   25  C   UNL     1     -11.610  15.465  69.126  1.00  0.00    -0.339 A  
HETATM   26  N   UNL     1     -11.531  15.550  67.759  1.00  0.00    -0.292 NA 
ENDBRANCH  15  17
ENDBRANCH  14  15
ENDBRANCH   7  14
TORSDOF 5
ENDMDL
MODEL       93
REMARK 921   NORMALIZED FREE ENERGY PREDICTED BY IDOCK:   -5.67 KCAL/MOL
REMARK 922        TOTAL FREE ENERGY PREDICTED BY IDOCK:   -8.09 KCAL/MOL
REMARK 923 INTER-LIGAND FREE ENERGY PREDICTED BY IDOCK:   -7.36 KCAL/MOL
REMARK 924 INTRA-LIGAND FREE ENERGY PREDICTED BY IDOCK:   -0.73 KCAL/MOL
REMARK 927      BINDING AFFINITY PREDICTED BY RF-SCORE:    0.00 PKD
ROOT
HETATM    1  C   UNL     1     -11.910  12.308  68.814  1.00  0.00    -0.356 C  
HETATM    2  C   UNL     1     -10.581  11.626  68.678  1.00  0.00    -0.236 A  
HETATM    3  C   UNL     1     -10.360  10.319  69.149  1.00  0.00    -0.223 A  
HETATM    4  C   UNL     1      -9.177   9.656  68.827  1.00  0.00    -0.141 A  
HETATM    5  N   UNL     1      -8.338  11.629  67.746  1.00  0.00    -0.136 NA 
HETATM    6  C   UNL     1      -8.215  10.337  68.110  1.00  0.00    -0.114 A  
HETATM    7  C   UNL     1      -9.500  12.276  68.041  1.00  0.00    -0.206 A  
ENDROOT
BRANCH   3   8
HETATM    8  O   UNL     1     -11.238   9.547  69.872  1.00  0.00    -0.234 OA 
BRANCH   8   9
HETATM    9  C   UNL     1     -11.371   9.858  71.267  1.00  0.00    -0.333 C  
HETATM   10  C   UNL     1     -12.813  10.121  71.692  1.00  0.00    -0.454 C  
HETATM   11  F   UNL     1     -12.998  11.430  72.003  1.00  0.00    -0.547 F  
HETATM   12  F   UNL     1     -13.118   9.410  72.807  1.00  0.00    -0.456 F  
HETATM   13  F   UNL     1     -13.725   9.796  70.750  1.00  0.00    -0.394 F  
ENDBRANCH   8   9
ENDBRANCH   3   8
BRANCH   7  14
HETATM   14  C   UNL     1      -9.512  13.747  67.669  1.00  0.00    -0.217 C  
BRANCH  14  15
HETATM   15  S   UNL     1      -9.139  14.810  69.077  1.00  0.00    -0.087 S  
HETATM   16  O   UNL     1      -7.664  14.917  69.345  1.00  0.00    -0.175 OA 
BRANCH  15  17
HETATM   17  C   UNL     1      -9.618  16.358  68.452  1.00  0.00    -0.219 A  
HETATM   18  N   UNL     1      -9.336  17.527  68.987  1.00  0.00    -0.157 NA 
HETATM   19  C   UNL     1      -9.699  18.456  68.037  1.00  0.00    -0.316 A  
HETATM   20  H   UNL     1      -8.935  17.706  69.908  1.00  0.00     0.000 HD 
HETATM   21  C   UNL     1      -9.560  19.853  68.046  1.00  0.00    -0.482 A  
HETATM   22  C   UNL     1      -9.915  20.574  66.898  1.00  0.00    -0.465 A  
HETATM   23  C   UNL     1     -10.413  19.918  65.769  1.00  0.00    -0.518 A  
HETATM   24  C   UNL     1     -10.598  18.531  65.755  1.00  0.00    -0.265 A  
HETATM   25  C   UNL     1     -10.233  17.836  66.911  1.00  0.00    -0.346 A  
HETATM   26  N   UNL     1     -10.255  16.505  67.245  1.00  0.00    -0.282 NA 
ENDBRANCH  15  17
ENDBRANCH  14  15
ENDBRANCH   7  14
TORSDOF 5
ENDMDL
MODEL       94
REMARK 921   NORMALIZED FREE ENERGY PREDICTED BY IDOCK:   -5.66 KCAL/MOL
REMARK 922        TOTAL FREE ENERGY PREDICTED BY IDOCK:   -8.08 KCAL/MOL
REMARK 923 INTER-LIGAND FREE ENERGY PREDICTED BY IDOCK:   -7.30 KCAL/MOL
REMARK 924 INTRA-LIGAND FREE ENERGY PREDICTED BY IDOCK:   -0.78 KCAL/MOL
REMARK 927      BINDING AFFINITY PREDICTED BY RF-SCORE:    0.00 PKD
ROOT
HETATM    1  C   UNL     1      -9.177  13.340  66.949  1.00  0.00    -0.242 C  
HETATM    2  C   UNL     1     -10.213  13.520  65.879  1.00  0.00    -0.306 A  
HETATM    3  C   UNL     1     -10.864  12.427  65.277  1.00  0.00    -0.289 A  
HETATM    4  C   UNL     1     -11.953  12.646  64.436  1.00  0.00    -0.469 A  
HETATM    5  N   UNL     1     -11.643  15.021  64.613  1.00  0.00    -0.410 NA 
HETATM    6  C   UNL     1     -12.317  13.947  64.155  1.00  0.00    -0.335 A  
HETATM    7  C   UNL     1     -10.590  14.813  65.452  1.00  0.00    -0.378 A  
ENDROOT
BRANCH   3   8
HETATM    8  O   UNL     1     -10.589  11.096  65.477  1.00  0.00    -0.263 OA 
BRANCH   8   9
HETATM    9  C   UNL     1     -10.081  10.368  64.349  1.00  0.00    -0.272 C  
HETATM   10  C   UNL     1      -8.667   9.833  64.561  1.00  0.00    -0.198 C  
HETATM   11  F   UNL     1      -7.775  10.486  63.773  1.00  0.00    -0.147 F  
HETATM   12  F   UNL     1      -8.598   8.521  64.221  1.00  0.00    -0.168 F  
HETATM   13  F   UNL     1      -8.233   9.937  65.837  1.00  0.00    -0.115 F  
ENDBRANCH   8   9
ENDBRANCH   3   8
BRANCH   7  14
HETATM   14  C   UNL     1      -9.843  16.073  65.847  1.00  0.00    -0.348 C  
BRANCH  14  15
HETATM   15  S   UNL     1     -10.653  16.951  67.198  1.00  0.00    -0.194 S  
HETATM   16  O   UNL     1     -10.757  16.121  68.446  1.00  0.00    -0.269 OA 
BRANCH  15  17
HETATM   17  C   UNL     1      -9.471  18.176  67.544  1.00  0.00    -0.262 A  
HETATM   18  N   UNL     1      -8.844  18.342  68.690  1.00  0.00    -0.304 NA 
HETATM   19  C   UNL     1      -7.847  19.255  68.427  1.00  0.00    -0.341 A  
HETATM   20  H   UNL     1      -9.052  17.891  69.580  1.00  0.00     0.000 HD 
HETATM   21  C   UNL     1      -6.835  19.749  69.265  1.00  0.00    -0.370 A  
HETATM   22  C   UNL     1      -5.865  20.601  68.723  1.00  0.00    -0.384 A  
HETATM   23  C   UNL     1      -5.909  20.968  67.375  1.00  0.00    -0.352 A  
HETATM   24  C   UNL     1      -6.933  20.520  66.532  1.00  0.00    -0.303 A  
HETATM   25  C   UNL     1      -7.886  19.668  67.098  1.00  0.00    -0.268 A  
HETATM   26  N   UNL     1      -8.990  19.034  66.587  1.00  0.00    -0.314 NA 
ENDBRANCH  15  17
ENDBRANCH  14  15
ENDBRANCH   7  14
TORSDOF 5
ENDMDL
MODEL       95
REMARK 921   NORMALIZED FREE ENERGY PREDICTED BY IDOCK:   -5.65 KCAL/MOL
REMARK 922        TOTAL FREE ENERGY PREDICTED BY IDOCK:   -8.07 KCAL/MOL
REMARK 923 INTER-LIGAND FREE ENERGY PREDICTED BY IDOCK:   -7.52 KCAL/MOL
REMARK 924 INTRA-LIGAND FREE ENERGY PREDICTED BY IDOCK:   -0.56 KCAL/MOL
REMARK 927      BINDING AFFINITY PREDICTED BY RF-SCORE:    0.00 PKD
ROOT
HETATM    1  C   UNL     1     -12.402  14.461  66.881  1.00  0.00    -0.165 C  
HETATM    2  C   UNL     1     -10.918  14.495  67.098  1.00  0.00    -0.304 A  
HETATM    3  C   UNL     1     -10.311  15.413  67.976  1.00  0.00    -0.249 A  
HETATM    4  C   UNL     1      -8.962  15.279  68.295  1.00  0.00    -0.176 A  
HETATM    5  N   UNL     1      -8.748  13.464  66.738  1.00  0.00    -0.139 NA 
HETATM    6  C   UNL     1      -8.233  14.284  67.675  1.00  0.00    -0.185 A  
HETATM    7  C   UNL     1     -10.073  13.577  66.437  1.00  0.00    -0.294 A  
ENDROOT
BRANCH   3   8
HETATM    8  O   UNL     1     -10.931  16.441  68.646  1.00  0.00    -0.313 OA 
BRANCH   8   9
HETATM    9  C   UNL     1     -10.105  17.554  69.021  1.00  0.00    -0.291 C  
HETATM   10  C   UNL     1     -10.176  18.717  68.036  1.00  0.00    -0.386 C  
HETATM   11  F   UNL     1      -9.006  18.855  67.360  1.00  0.00    -0.275 F  
HETATM   12  F   UNL     1     -10.385  19.886  68.693  1.00  0.00    -0.515 F  
HETATM   13  F   UNL     1     -11.160  18.593  67.118  1.00  0.00    -0.427 F  
ENDBRANCH   8   9
ENDBRANCH   3   8
BRANCH   7  14
HETATM   14  C   UNL     1     -10.540  12.672  65.312  1.00  0.00    -0.291 C  
BRANCH  14  15
HETATM   15  S   UNL     1     -10.167  10.938  65.633  1.00  0.00    -0.255 S  
HETATM   16  O   UNL     1      -8.700  10.632  65.522  1.00  0.00    -0.179 OA 
BRANCH  15  17
HETATM   17  C   UNL     1     -10.545  10.831  67.325  1.00  0.00    -0.257 A  
HETATM   18  N   UNL     1     -11.686  11.177  67.884  1.00  0.00    -0.593 NA 
HETATM   19  C   UNL     1     -11.615  10.697  69.173  1.00  0.00    -0.271 A  
HETATM   20  H   UNL     1     -12.455  11.690  67.455  1.00  0.00     0.000 HD 
HETATM   21  C   UNL     1     -12.576  10.721  70.196  1.00  0.00    -0.309 A  
HETATM   22  C   UNL     1     -12.297  10.063  71.401  1.00  0.00    -0.512 A  
HETATM   23  C   UNL     1     -11.078   9.406  71.590  1.00  0.00    -0.409 A  
HETATM   24  C   UNL     1     -10.090   9.406  70.598  1.00  0.00    -0.356 A  
HETATM   25  C   UNL     1     -10.396  10.067  69.406  1.00  0.00    -0.227 A  
HETATM   26  N   UNL     1      -9.699  10.253  68.238  1.00  0.00    -0.140 NA 
ENDBRANCH  15  17
ENDBRANCH  14  15
ENDBRANCH   7  14
TORSDOF 5
ENDMDL
MODEL       96
REMARK 921   NORMALIZED FREE ENERGY PREDICTED BY IDOCK:   -5.65 KCAL/MOL
REMARK 922        TOTAL FREE ENERGY PREDICTED BY IDOCK:   -8.07 KCAL/MOL
REMARK 923 INTER-LIGAND FREE ENERGY PREDICTED BY IDOCK:   -7.45 KCAL/MOL
REMARK 924 INTRA-LIGAND FREE ENERGY PREDICTED BY IDOCK:   -0.61 KCAL/MOL
REMARK 927      BINDING AFFINITY PREDICTED BY RF-SCORE:    0.00 PKD
ROOT
HETATM    1  C   UNL     1     -12.953  13.160  71.647  1.00  0.00    -0.429 C  
HETATM    2  C   UNL     1     -12.258  12.508  70.489  1.00  0.00    -0.382 A  
HETATM    3  C   UNL     1     -11.946  11.136  70.481  1.00  0.00    -0.380 A  
HETATM    4  C   UNL     1     -11.482  10.537  69.312  1.00  0.00    -0.323 A  
HETATM    5  N   UNL     1     -11.438  12.669  68.209  1.00  0.00    -0.289 NA 
HETATM    6  C   UNL     1     -11.268  11.332  68.204  1.00  0.00    -0.286 A  
HETATM    7  C   UNL     1     -11.911  13.257  69.344  1.00  0.00    -0.329 A  
ENDROOT
BRANCH   3   8
HETATM    8  O   UNL     1     -12.113  10.249  71.518  1.00  0.00    -0.370 OA 
BRANCH   8   9
HETATM    9  C   UNL     1     -11.106   9.236  71.666  1.00  0.00    -0.368 C  
HETATM   10  C   UNL     1     -11.660   7.901  72.155  1.00  0.00    -0.328 C  
HETATM   11  F   UNL     1     -11.251   7.637  73.422  1.00  0.00    -0.431 F  
HETATM   12  F   UNL     1     -11.204   6.884  71.380  1.00  0.00    -0.258 F  
HETATM   13  F   UNL     1     -13.010   7.836  72.144  1.00  0.00    -0.303 F  
ENDBRANCH   8   9
ENDBRANCH   3   8
BRANCH   7  14
HETATM   14  C   UNL     1     -11.988  14.772  69.281  1.00  0.00    -0.294 C  
BRANCH  14  15
HETATM   15  S   UNL     1     -10.593  15.560  70.108  1.00  0.00    -0.295 S  
HETATM   16  O   UNL     1      -9.379  14.677  70.163  1.00  0.00     0.513 OA 
BRANCH  15  17
HETATM   17  C   UNL     1     -10.210  16.818  68.973  1.00  0.00    -0.310 A  
HETATM   18  N   UNL     1     -11.079  17.597  68.364  1.00  0.00    -0.138 NA 
HETATM   19  C   UNL     1     -10.323  18.581  67.765  1.00  0.00    -0.402 A  
HETATM   20  H   UNL     1     -12.093  17.495  68.339  1.00  0.00     0.000 HD 
HETATM   21  C   UNL     1     -10.729  19.711  67.039  1.00  0.00    -0.575 A  
HETATM   22  C   UNL     1      -9.758  20.629  66.619  1.00  0.00    -0.291 A  
HETATM   23  C   UNL     1      -8.406  20.418  66.902  1.00  0.00    -0.313 A  
HETATM   24  C   UNL     1      -7.976  19.276  67.589  1.00  0.00    -0.311 A  
HETATM   25  C   UNL     1      -8.965  18.379  67.999  1.00  0.00    -0.290 A  
HETATM   26  N   UNL     1      -8.921  17.195  68.692  1.00  0.00    -0.270 NA 
ENDBRANCH  15  17
ENDBRANCH  14  15
ENDBRANCH   7  14
TORSDOF 5
ENDMDL
MODEL       97
REMARK 921   NORMALIZED FREE ENERGY PREDICTED BY IDOCK:   -5.64 KCAL/MOL
REMARK 922        TOTAL FREE ENERGY PREDICTED BY IDOCK:   -8.06 KCAL/MOL
REMARK 923 INTER-LIGAND FREE ENERGY PREDICTED BY IDOCK:   -7.33 KCAL/MOL
REMARK 924 INTRA-LIGAND FREE ENERGY PREDICTED BY IDOCK:   -0.73 KCAL/MOL
REMARK 927      BINDING AFFINITY PREDICTED BY RF-SCORE:    0.00 PKD
ROOT
HETATM    1  C   UNL     1     -11.706   8.632  71.130  1.00  0.00    -0.334 C  
HETATM    2  C   UNL     1     -10.264   8.650  71.540  1.00  0.00    -0.345 A  
HETATM    3  C   UNL     1      -9.820   8.058  72.737  1.00  0.00    -0.282 A  
HETATM    4  C   UNL     1      -8.454   7.925  72.981  1.00  0.00    -0.233 A  
HETATM    5  N   UNL     1      -7.954   9.135  70.968  1.00  0.00    -0.253 NA 
HETATM    6  C   UNL     1      -7.567   8.453  72.064  1.00  0.00    -0.117 A  
HETATM    7  C   UNL     1      -9.288   9.250  70.715  1.00  0.00    -0.258 A  
ENDROOT
BRANCH   3   8
HETATM    8  O   UNL     1     -10.605   7.504  73.720  1.00  0.00    -0.309 OA 
BRANCH   8   9
HETATM    9  C   UNL     1     -10.243   6.188  74.167  1.00  0.00    -0.309 C  
HETATM   10  C   UNL     1     -10.750   5.078  73.252  1.00  0.00    -0.258 C  
HETATM   11  F   UNL     1     -11.728   4.356  73.857  1.00  0.00    -0.218 F  
HETATM   12  F   UNL     1      -9.750   4.208  72.958  1.00  0.00    -0.137 F  
HETATM   13  F   UNL     1     -11.247   5.526  72.077  1.00  0.00    -0.301 F  
ENDBRANCH   8   9
ENDBRANCH   3   8
BRANCH   7  14
HETATM   14  C   UNL     1      -9.626  10.105  69.507  1.00  0.00    -0.221 C  
BRANCH  14  15
HETATM   15  S   UNL     1      -9.527   9.177  67.965  1.00  0.00    -0.143 S  
HETATM   16  O   UNL     1     -10.553   8.083  67.881  1.00  0.00    -0.209 OA 
BRANCH  15  17
HETATM   17  C   UNL     1     -10.031  10.386  66.824  1.00  0.00    -0.206 A  
HETATM   18  N   UNL     1      -9.920  10.305  65.515  1.00  0.00    -0.286 NA 
HETATM   19  C   UNL     1     -10.660  11.359  65.025  1.00  0.00    -0.299 A  
HETATM   20  H   UNL     1      -9.399   9.612  64.979  1.00  0.00     0.000 HD 
HETATM   21  C   UNL     1     -10.945  11.718  63.698  1.00  0.00    -0.513 A  
HETATM   22  C   UNL     1     -11.821  12.785  63.460  1.00  0.00    -0.618 A  
HETATM   23  C   UNL     1     -12.389  13.492  64.523  1.00  0.00    -0.406 A  
HETATM   24  C   UNL     1     -12.085  13.177  65.853  1.00  0.00    -0.501 A  
HETATM   25  C   UNL     1     -11.212  12.106  66.061  1.00  0.00    -0.336 A  
HETATM   26  N   UNL     1     -10.715  11.516  67.196  1.00  0.00    -0.240 NA 
ENDBRANCH  15  17
ENDBRANCH  14  15
ENDBRANCH   7  14
TORSDOF 5
ENDMDL
MODEL       98
REMARK 921   NORMALIZED FREE ENERGY PREDICTED BY IDOCK:   -5.61 KCAL/MOL
REMARK 922        TOTAL FREE ENERGY PREDICTED BY IDOCK:   -8.02 KCAL/MOL
REMARK 923 INTER-LIGAND FREE ENERGY PREDICTED BY IDOCK:   -7.25 KCAL/MOL
REMARK 924 INTRA-LIGAND FREE ENERGY PREDICTED BY IDOCK:   -0.77 KCAL/MOL
REMARK 927      BINDING AFFINITY PREDICTED BY RF-SCORE:    0.00 PKD
ROOT
HETATM    1  C   UNL     1     -10.413  11.060  63.940  1.00  0.00    -0.422 C  
HETATM    2  C   UNL     1      -9.481  10.998  65.114  1.00  0.00    -0.265 A  
HETATM    3  C   UNL     1      -8.173  10.491  65.004  1.00  0.00    -0.120 A  
HETATM    4  C   UNL     1      -7.282  10.635  66.065  1.00  0.00    -0.131 A  
HETATM    5  N   UNL     1      -9.015  11.596  67.421  1.00  0.00    -0.162 NA 
HETATM    6  C   UNL     1      -7.737  11.210  67.234  1.00  0.00    -0.130 A  
HETATM    7  C   UNL     1      -9.885  11.476  66.380  1.00  0.00    -0.205 A  
ENDROOT
BRANCH   3   8
HETATM    8  O   UNL     1      -7.612   9.898  63.898  1.00  0.00    -0.132 OA 
BRANCH   8   9
HETATM    9  C   UNL     1      -6.936   8.650  64.110  1.00  0.00    -0.089 C  
HETATM   10  C   UNL     1      -7.607   7.472  63.409  1.00  0.00    -0.118 C  
HETATM   11  F   UNL     1      -8.171   6.626  64.308  1.00  0.00    -0.123 F  
HETATM   12  F   UNL     1      -6.693   6.748  62.714  1.00  0.00    -0.042 F  
HETATM   13  F   UNL     1      -8.573   7.837  62.537  1.00  0.00    -0.131 F  
ENDBRANCH   8   9
ENDBRANCH   3   8
BRANCH   7  14
HETATM   14  C   UNL     1     -11.317  11.856  66.711  1.00  0.00    -0.330 C  
BRANCH  14  15
HETATM   15  S   UNL     1     -11.570  13.641  66.695  1.00  0.00    -0.385 S  
HETATM   16  O   UNL     1     -12.832  14.039  65.984  1.00  0.00    -0.438 OA 
BRANCH  15  17
HETATM   17  C   UNL     1     -11.863  13.943  68.380  1.00  0.00    -0.374 A  
HETATM   18  N   UNL     1     -12.113  15.117  68.921  1.00  0.00    -0.572 NA 
HETATM   19  C   UNL     1     -12.514  14.842  70.210  1.00  0.00    -0.336 A  
HETATM   20  H   UNL     1     -12.028  16.033  68.481  1.00  0.00     0.000 HD 
HETATM   21  C   UNL     1     -12.965  15.710  71.216  1.00  0.00    -0.556 A  
HETATM   22  C   UNL     1     -13.422  15.166  72.423  1.00  0.00    -0.551 A  
HETATM   23  C   UNL     1     -13.415  13.784  72.631  1.00  0.00    -0.638 A  
HETATM   24  C   UNL     1     -12.930  12.904  71.657  1.00  0.00    -0.410 A  
HETATM   25  C   UNL     1     -12.484  13.473  70.461  1.00  0.00    -0.302 A  
HETATM   26  N   UNL     1     -11.974  12.936  69.305  1.00  0.00    -0.287 NA 
ENDBRANCH  15  17
ENDBRANCH  14  15
ENDBRANCH   7  14
TORSDOF 5
ENDMDL
MODEL       99
REMARK 921   NORMALIZED FREE ENERGY PREDICTED BY IDOCK:   -5.60 KCAL/MOL
REMARK 922        TOTAL FREE ENERGY PREDICTED BY IDOCK:   -8.01 KCAL/MOL
REMARK 923 INTER-LIGAND FREE ENERGY PREDICTED BY IDOCK:   -7.16 KCAL/MOL
REMARK 924 INTRA-LIGAND FREE ENERGY PREDICTED BY IDOCK:   -0.85 KCAL/MOL
REMARK 927      BINDING AFFINITY PREDICTED BY RF-SCORE:    0.00 PKD
ROOT
HETATM    1  C   UNL     1     -10.493  17.518  68.250  1.00  0.00    -0.383 C  
HETATM    2  C   UNL     1      -9.490  16.411  68.114  1.00  0.00    -0.213 A  
HETATM    3  C   UNL     1      -8.135  16.661  67.829  1.00  0.00    -0.176 A  
HETATM    4  C   UNL     1      -7.207  15.625  67.908  1.00  0.00    -0.152 A  
HETATM    5  N   UNL     1      -8.965  14.052  68.353  1.00  0.00    -0.192 NA 
HETATM    6  C   UNL     1      -7.661  14.354  68.194  1.00  0.00    -0.131 A  
HETATM    7  C   UNL     1      -9.875  15.065  68.296  1.00  0.00    -0.219 A  
ENDROOT
BRANCH   3   8
HETATM    8  O   UNL     1      -7.569  17.878  67.530  1.00  0.00    -0.205 OA 
BRANCH   8   9
HETATM    9  C   UNL     1      -7.828  18.402  66.218  1.00  0.00    -0.242 C  
HETATM   10  C   UNL     1      -8.171  19.889  66.219  1.00  0.00    -0.329 C  
HETATM   11  F   UNL     1      -9.475  20.089  65.896  1.00  0.00    -0.429 F  
HETATM   12  F   UNL     1      -7.435  20.549  65.289  1.00  0.00    -0.259 F  
HETATM   13  F   UNL     1      -7.952  20.497  67.407  1.00  0.00    -0.335 F  
ENDBRANCH   8   9
ENDBRANCH   3   8
BRANCH   7  14
HETATM   14  C   UNL     1     -11.321  14.617  68.401  1.00  0.00    -0.292 C  
BRANCH  14  15
HETATM   15  S   UNL     1     -12.029  14.215  66.792  1.00  0.00    -0.441 S  
HETATM   16  O   UNL     1     -11.335  14.923  65.662  1.00  0.00    -0.343 OA 
BRANCH  15  17
HETATM   17  C   UNL     1     -11.579  12.543  66.647  1.00  0.00    -0.380 A  
HETATM   18  N   UNL     1     -11.006  11.986  65.601  1.00  0.00    -0.288 NA 
HETATM   19  C   UNL     1     -10.622  10.733  66.025  1.00  0.00    -0.156 A  
HETATM   20  H   UNL     1     -10.874  12.394  64.676  1.00  0.00     0.000 HD 
HETATM   21  C   UNL     1      -9.910   9.732  65.345  1.00  0.00    -0.365 A  
HETATM   22  C   UNL     1      -9.547   8.572  66.040  1.00  0.00    -0.236 A  
HETATM   23  C   UNL     1      -9.900   8.402  67.382  1.00  0.00    -0.249 A  
HETATM   24  C   UNL     1     -10.646   9.370  68.065  1.00  0.00    -0.278 A  
HETATM   25  C   UNL     1     -10.992  10.519  67.350  1.00  0.00    -0.288 A  
HETATM   26  N   UNL     1     -11.683  11.655  67.688  1.00  0.00    -0.574 NA 
ENDBRANCH  15  17
ENDBRANCH  14  15
ENDBRANCH   7  14
TORSDOF 5
ENDMDL
MODEL      100
REMARK 921   NORMALIZED FREE ENERGY PREDICTED BY IDOCK:   -5.60 KCAL/MOL
REMARK 922        TOTAL FREE ENERGY PREDICTED BY IDOCK:   -8.00 KCAL/MOL
REMARK 923 INTER-LIGAND FREE ENERGY PREDICTED BY IDOCK:   -7.05 KCAL/MOL
REMARK 924 INTRA-LIGAND FREE ENERGY PREDICTED BY IDOCK:   -0.95 KCAL/MOL
REMARK 927      BINDING AFFINITY PREDICTED BY RF-SCORE:    0.00 PKD
ROOT
HETATM    1  C   UNL     1     -10.427   8.055  66.972  1.00  0.00    -0.410 C  
HETATM    2  C   UNL     1      -9.669   8.975  67.883  1.00  0.00    -0.185 A  
HETATM    3  C   UNL     1      -9.212   8.564  69.148  1.00  0.00    -0.150 A  
HETATM    4  C   UNL     1      -8.348   9.382  69.873  1.00  0.00    -0.174 A  
HETATM    5  N   UNL     1      -8.536  11.099  68.205  1.00  0.00    -0.140 NA 
HETATM    6  C   UNL     1      -8.022  10.619  69.355  1.00  0.00    -0.111 A  
HETATM    7  C   UNL     1      -9.366  10.295  67.483  1.00  0.00    -0.148 A  
ENDROOT
BRANCH   3   8
HETATM    8  O   UNL     1      -9.472   7.363  69.765  1.00  0.00    -0.160 OA 
BRANCH   8   9
HETATM    9  C   UNL     1     -10.185   7.421  71.010  1.00  0.00    -0.191 C  
HETATM   10  C   UNL     1     -11.617   6.905  70.910  1.00  0.00    -0.337 C  
HETATM   11  F   UNL     1     -12.511   7.918  71.048  1.00  0.00    -0.309 F  
HETATM   12  F   UNL     1     -11.876   6.020  71.907  1.00  0.00    -0.344 F  
HETATM   13  F   UNL     1     -11.890   6.281  69.743  1.00  0.00    -0.494 F  
ENDBRANCH   8   9
ENDBRANCH   3   8
BRANCH   7  14
HETATM   14  C   UNL     1      -9.961  10.952  66.251  1.00  0.00    -0.227 C  
BRANCH  14  15
HETATM   15  S   UNL     1     -11.442  11.906  66.634  1.00  0.00    -0.253 S  
HETATM   16  O   UNL     1     -12.064  11.507  67.942  1.00  0.00    -0.630 OA 
BRANCH  15  17
HETATM   17  C   UNL     1     -10.756  13.480  66.899  1.00  0.00    -0.274 A  
HETATM   18  N   UNL     1      -9.858  14.068  66.136  1.00  0.00    -0.301 NA 
HETATM   19  C   UNL     1      -9.800  15.369  66.586  1.00  0.00    -0.255 A  
HETATM   20  H   UNL     1      -9.322  13.651  65.375  1.00  0.00     0.000 HD 
HETATM   21  C   UNL     1      -9.061  16.458  66.097  1.00  0.00    -0.362 A  
HETATM   22  C   UNL     1      -9.258  17.720  66.671  1.00  0.00    -0.280 A  
HETATM   23  C   UNL     1     -10.162  17.892  67.724  1.00  0.00    -0.372 A  
HETATM   24  C   UNL     1     -10.877  16.812  68.253  1.00  0.00    -0.366 A  
HETATM   25  C   UNL     1     -10.664  15.565  67.660  1.00  0.00    -0.302 A  
HETATM   26  N   UNL     1     -11.188  14.319  67.895  1.00  0.00    -0.274 NA 
ENDBRANCH  15  17
ENDBRANCH  14  15
ENDBRANCH   7  14
TORSDOF 5
ENDMDL
MODEL      101
REMARK 921   NORMALIZED FREE ENERGY PREDICTED BY IDOCK:   -5.60 KCAL/MOL
REMARK 922        TOTAL FREE ENERGY PREDICTED BY IDOCK:   -8.00 KCAL/MOL
REMARK 923 INTER-LIGAND FREE ENERGY PREDICTED BY IDOCK:   -7.16 KCAL/MOL
REMARK 924 INTRA-LIGAND FREE ENERGY PREDICTED BY IDOCK:   -0.84 KCAL/MOL
REMARK 927      BINDING AFFINITY PREDICTED BY RF-SCORE:    0.00 PKD
ROOT
HETATM    1  C   UNL     1      -7.804  14.882  67.467  1.00  0.00    -0.206 C  
HETATM    2  C   UNL     1      -9.219  14.830  67.962  1.00  0.00    -0.194 A  
HETATM    3  C   UNL     1      -9.886  15.973  68.439  1.00  0.00    -0.213 A  
HETATM    4  C   UNL     1     -11.254  15.918  68.702  1.00  0.00    -0.360 A  
HETATM    5  N   UNL     1     -11.277  13.566  68.219  1.00  0.00    -0.260 NA 
HETATM    6  C   UNL     1     -11.905  14.711  68.556  1.00  0.00    -0.311 A  
HETATM    7  C   UNL     1      -9.944  13.618  67.942  1.00  0.00    -0.244 A  
ENDROOT
BRANCH   3   8
HETATM    8  O   UNL     1      -9.344  17.222  68.628  1.00  0.00    -0.261 OA 
BRANCH   8   9
HETATM    9  C   UNL     1     -10.246  18.335  68.535  1.00  0.00    -0.379 C  
HETATM   10  C   UNL     1      -9.976  19.233  67.331  1.00  0.00    -0.368 C  
HETATM   11  F   UNL     1      -9.489  20.439  67.722  1.00  0.00    -0.451 F  
HETATM   12  F   UNL     1     -11.126  19.480  66.653  1.00  0.00    -0.518 F  
HETATM   13  F   UNL     1      -9.097  18.709  66.448  1.00  0.00    -0.289 F  
ENDBRANCH   8   9
ENDBRANCH   3   8
BRANCH   7  14
HETATM   14  C   UNL     1      -9.309  12.269  67.656  1.00  0.00    -0.186 C  
BRANCH  14  15
HETATM   15  S   UNL     1     -10.508  11.066  67.051  1.00  0.00    -0.252 S  
HETATM   16  O   UNL     1      -9.945  10.178  65.978  1.00  0.00    -0.229 OA 
BRANCH  15  17
HETATM   17  C   UNL     1     -10.690  10.055  68.452  1.00  0.00    -0.234 A  
HETATM   18  N   UNL     1     -11.432  10.324  69.506  1.00  0.00    -0.362 NA 
HETATM   19  C   UNL     1     -11.463   9.154  70.233  1.00  0.00    -0.146 A  
HETATM   20  H   UNL     1     -11.887  11.207  69.735  1.00  0.00     0.000 HD 
HETATM   21  C   UNL     1     -12.158   8.846  71.413  1.00  0.00    -0.381 A  
HETATM   22  C   UNL     1     -12.108   7.535  71.903  1.00  0.00    -0.338 A  
HETATM   23  C   UNL     1     -11.367   6.552  71.241  1.00  0.00    -0.355 A  
HETATM   24  C   UNL     1     -10.633   6.849  70.086  1.00  0.00    -0.249 A  
HETATM   25  C   UNL     1     -10.703   8.163  69.617  1.00  0.00    -0.195 A  
HETATM   26  N   UNL     1     -10.147   8.798  68.534  1.00  0.00    -0.184 NA 
ENDBRANCH  15  17
ENDBRANCH  14  15
ENDBRANCH   7  14
TORSDOF 5
ENDMDL
MODEL      102
REMARK 921   NORMALIZED FREE ENERGY PREDICTED BY IDOCK:   -5.57 KCAL/MOL
REMARK 922        TOTAL FREE ENERGY PREDICTED BY IDOCK:   -7.97 KCAL/MOL
REMARK 923 INTER-LIGAND FREE ENERGY PREDICTED BY IDOCK:   -7.35 KCAL/MOL
REMARK 924 INTRA-LIGAND FREE ENERGY PREDICTED BY IDOCK:   -0.62 KCAL/MOL
REMARK 927      BINDING AFFINITY PREDICTED BY RF-SCORE:    0.00 PKD
ROOT
HETATM    1  C   UNL     1     -10.617   9.826  67.330  1.00  0.00    -0.330 C  
HETATM    2  C   UNL     1     -10.007   9.896  65.961  1.00  0.00    -0.338 A  
HETATM    3  C   UNL     1      -9.013   8.994  65.540  1.00  0.00    -0.204 A  
HETATM    4  C   UNL     1      -8.619   8.971  64.203  1.00  0.00    -0.165 A  
HETATM    5  N   UNL     1     -10.034  10.852  63.729  1.00  0.00    -0.322 NA 
HETATM    6  C   UNL     1      -9.170   9.894  63.338  1.00  0.00    -0.240 A  
HETATM    7  C   UNL     1     -10.437  10.867  65.031  1.00  0.00    -0.261 A  
ENDROOT
BRANCH   3   8
HETATM    8  O   UNL     1      -8.392   8.038  66.307  1.00  0.00    -0.109 OA 
BRANCH   8   9
HETATM    9  C   UNL     1      -8.733   6.671  66.030  1.00  0.00    -0.147 C  
HETATM   10  C   UNL     1      -9.705   6.073  67.043  1.00  0.00    -0.138 C  
HETATM   11  F   UNL     1      -9.095   5.132  67.808  1.00  0.00    -0.109 F  
HETATM   12  F   UNL     1     -10.732   5.452  66.408  1.00  0.00    -0.286 F  
HETATM   13  F   UNL     1     -10.247   6.985  67.880  1.00  0.00    -0.165 F  
ENDBRANCH   8   9
ENDBRANCH   3   8
BRANCH   7  14
HETATM   14  C   UNL     1     -11.341  12.031  65.395  1.00  0.00    -0.321 C  
BRANCH  14  15
HETATM   15  S   UNL     1     -11.175  13.409  64.245  1.00  0.00    -0.357 S  
HETATM   16  O   UNL     1     -12.416  13.635  63.429  1.00  0.00    -0.784 OA 
BRANCH  15  17
HETATM   17  C   UNL     1     -11.088  14.746  65.351  1.00  0.00    -0.357 A  
HETATM   18  N   UNL     1     -10.963  14.659  66.658  1.00  0.00    -0.316 NA 
HETATM   19  C   UNL     1     -10.693  15.942  67.081  1.00  0.00    -0.301 A  
HETATM   20  H   UNL     1     -11.048  13.822  67.234  1.00  0.00     0.000 HD 
HETATM   21  C   UNL     1     -10.404  16.424  68.367  1.00  0.00    -0.282 A  
HETATM   22  C   UNL     1     -10.056  17.771  68.522  1.00  0.00    -0.377 A  
HETATM   23  C   UNL     1     -10.011  18.628  67.419  1.00  0.00    -0.364 A  
HETATM   24  C   UNL     1     -10.336  18.178  66.134  1.00  0.00    -0.394 A  
HETATM   25  C   UNL     1     -10.676  16.829  66.008  1.00  0.00    -0.138 A  
HETATM   26  N   UNL     1     -11.025  16.052  64.931  1.00  0.00    -0.548 NA 
ENDBRANCH  15  17
ENDBRANCH  14  15
ENDBRANCH   7  14
TORSDOF 5
ENDMDL
MODEL      103
REMARK 921   NORMALIZED FREE ENERGY PREDICTED BY IDOCK:   -5.56 KCAL/MOL
REMARK 922        TOTAL FREE ENERGY PREDICTED BY IDOCK:   -7.96 KCAL/MOL
REMARK 923 INTER-LIGAND FREE ENERGY PREDICTED BY IDOCK:   -6.98 KCAL/MOL
REMARK 924 INTRA-LIGAND FREE ENERGY PREDICTED BY IDOCK:   -0.97 KCAL/MOL
REMARK 927      BINDING AFFINITY PREDICTED BY RF-SCORE:    0.00 PKD
ROOT
HETATM    1  C   UNL     1     -11.383  11.742  67.505  1.00  0.00    -0.377 C  
HETATM    2  C   UNL     1     -10.980  11.665  66.062  1.00  0.00    -0.338 A  
HETATM    3  C   UNL     1     -11.230  12.716  65.159  1.00  0.00    -0.301 A  
HETATM    4  C   UNL     1     -10.667  12.685  63.885  1.00  0.00    -0.465 A  
HETATM    5  N   UNL     1      -9.774  10.496  64.308  1.00  0.00    -0.306 NA 
HETATM    6  C   UNL     1      -9.933  11.575  63.516  1.00  0.00    -0.399 A  
HETATM    7  C   UNL     1     -10.306  10.530  65.562  1.00  0.00    -0.217 A  
ENDROOT
BRANCH   3   8
HETATM    8  O   UNL     1     -11.945  13.863  65.411  1.00  0.00    -0.346 OA 
BRANCH   8   9
HETATM    9  C   UNL     1     -11.332  15.101  65.023  1.00  0.00    -0.380 C  
HETATM   10  C   UNL     1     -10.454  15.709  66.113  1.00  0.00    -0.317 C  
HETATM   11  F   UNL     1     -11.012  16.842  66.612  1.00  0.00    -0.216 F  
HETATM   12  F   UNL     1      -9.244  16.062  65.610  1.00  0.00    -0.344 F  
HETATM   13  F   UNL     1     -10.227  14.878  67.154  1.00  0.00    -0.239 F  
ENDBRANCH   8   9
ENDBRANCH   3   8
BRANCH   7  14
HETATM   14  C   UNL     1     -10.149   9.240  66.345  1.00  0.00    -0.267 C  
BRANCH  14  15
HETATM   15  S   UNL     1      -8.595   9.180  67.257  1.00  0.00    -0.117 S  
HETATM   16  O   UNL     1      -8.020  10.545  67.510  1.00  0.00    -0.106 OA 
BRANCH  15  17
HETATM   17  C   UNL     1      -9.145   8.607  68.801  1.00  0.00    -0.142 A  
HETATM   18  N   UNL     1      -8.417   8.517  69.895  1.00  0.00    -0.123 NA 
HETATM   19  C   UNL     1      -9.315   8.254  70.905  1.00  0.00    -0.159 A  
HETATM   20  H   UNL     1      -7.406   8.621  69.976  1.00  0.00     0.000 HD 
HETATM   21  C   UNL     1      -9.103   8.125  72.287  1.00  0.00    -0.263 A  
HETATM   22  C   UNL     1     -10.211   7.960  73.128  1.00  0.00    -0.358 A  
HETATM   23  C   UNL     1     -11.505   7.907  72.602  1.00  0.00    -0.454 A  
HETATM   24  C   UNL     1     -11.735   7.991  71.224  1.00  0.00    -0.311 A  
HETATM   25  C   UNL     1     -10.612   8.159  70.409  1.00  0.00    -0.224 A  
HETATM   26  N   UNL     1     -10.457   8.295  69.052  1.00  0.00    -0.217 NA 
ENDBRANCH  15  17
ENDBRANCH  14  15
ENDBRANCH   7  14
TORSDOF 5
ENDMDL
MODEL      104
REMARK 921   NORMALIZED FREE ENERGY PREDICTED BY IDOCK:   -5.56 KCAL/MOL
REMARK 922        TOTAL FREE ENERGY PREDICTED BY IDOCK:   -7.96 KCAL/MOL
REMARK 923 INTER-LIGAND FREE ENERGY PREDICTED BY IDOCK:   -7.33 KCAL/MOL
REMARK 924 INTRA-LIGAND FREE ENERGY PREDICTED BY IDOCK:   -0.62 KCAL/MOL
REMARK 927      BINDING AFFINITY PREDICTED BY RF-SCORE:    0.00 PKD
ROOT
HETATM    1  C   UNL     1     -11.658   6.359  70.258  1.00  0.00    -0.451 C  
HETATM    2  C   UNL     1     -11.019   6.831  71.531  1.00  0.00    -0.274 A  
HETATM    3  C   UNL     1     -11.059   6.069  72.714  1.00  0.00    -0.269 A  
HETATM    4  C   UNL     1     -10.289   6.450  73.811  1.00  0.00    -0.326 A  
HETATM    5  N   UNL     1      -9.590   8.438  72.660  1.00  0.00    -0.283 NA 
HETATM    6  C   UNL     1      -9.559   7.618  73.729  1.00  0.00    -0.217 A  
HETATM    7  C   UNL     1     -10.326   8.060  71.577  1.00  0.00    -0.209 A  
ENDROOT
BRANCH   3   8
HETATM    8  O   UNL     1     -11.748   4.896  72.913  1.00  0.00    -0.219 OA 
BRANCH   8   9
HETATM    9  C   UNL     1     -11.038   3.836  73.571  1.00  0.00    -0.234 C  
HETATM   10  C   UNL     1     -10.241   2.956  72.613  1.00  0.00    -0.158 C  
HETATM   11  F   UNL     1     -10.787   1.717  72.521  1.00  0.00    -0.224 F  
HETATM   12  F   UNL     1      -8.971   2.790  73.063  1.00  0.00    -0.081 F  
HETATM   13  F   UNL     1     -10.158   3.455  71.359  1.00  0.00    -0.248 F  
ENDBRANCH   8   9
ENDBRANCH   3   8
BRANCH   7  14
HETATM   14  C   UNL     1     -10.369   9.085  70.458  1.00  0.00    -0.218 C  
BRANCH  14  15
HETATM   15  S   UNL     1     -11.966   9.917  70.357  1.00  0.00    -0.148 S  
HETATM   16  O   UNL     1     -12.252  10.769  71.561  1.00  0.00    -0.311 OA 
BRANCH  15  17
HETATM   17  C   UNL     1     -11.672  11.027  69.053  1.00  0.00    -0.333 A  
HETATM   18  N   UNL     1     -11.662  10.726  67.771  1.00  0.00    -0.684 NA 
HETATM   19  C   UNL     1     -11.634  11.938  67.117  1.00  0.00    -0.290 A  
HETATM   20  H   UNL     1     -11.672   9.796  67.353  1.00  0.00     0.000 HD 
HETATM   21  C   UNL     1     -11.679  12.219  65.743  1.00  0.00    -0.445 A  
HETATM   22  C   UNL     1     -11.746  13.555  65.328  1.00  0.00    -0.341 A  
HETATM   23  C   UNL     1     -11.753  14.593  66.264  1.00  0.00    -0.325 A  
HETATM   24  C   UNL     1     -11.667  14.336  67.637  1.00  0.00    -0.421 A  
HETATM   25  C   UNL     1     -11.604  12.994  68.023  1.00  0.00    -0.343 A  
HETATM   26  N   UNL     1     -11.534  12.378  69.247  1.00  0.00    -0.282 NA 
ENDBRANCH  15  17
ENDBRANCH  14  15
ENDBRANCH   7  14
TORSDOF 5
ENDMDL
MODEL      105
REMARK 921   NORMALIZED FREE ENERGY PREDICTED BY IDOCK:   -5.56 KCAL/MOL
REMARK 922        TOTAL FREE ENERGY PREDICTED BY IDOCK:   -7.95 KCAL/MOL
REMARK 923 INTER-LIGAND FREE ENERGY PREDICTED BY IDOCK:   -7.04 KCAL/MOL
REMARK 924 INTRA-LIGAND FREE ENERGY PREDICTED BY IDOCK:   -0.91 KCAL/MOL
REMARK 927      BINDING AFFINITY PREDICTED BY RF-SCORE:    0.00 PKD
ROOT
HETATM    1  C   UNL     1      -7.660  11.219  66.829  1.00  0.00    -0.151 C  
HETATM    2  C   UNL     1      -9.085  11.179  67.296  1.00  0.00    -0.152 A  
HETATM    3  C   UNL     1      -9.949  12.280  67.152  1.00  0.00    -0.205 A  
HETATM    4  C   UNL     1     -11.309  12.134  67.417  1.00  0.00    -0.393 A  
HETATM    5  N   UNL     1     -10.947   9.878  68.156  1.00  0.00    -0.238 NA 
HETATM    6  C   UNL     1     -11.761  10.919  67.890  1.00  0.00    -0.068 A  
HETATM    7  C   UNL     1      -9.619  10.010  67.880  1.00  0.00    -0.145 A  
ENDROOT
BRANCH   3   8
HETATM    8  O   UNL     1      -9.614  13.533  66.697  1.00  0.00    -0.264 OA 
BRANCH   8   9
HETATM    9  C   UNL     1     -10.166  13.926  65.431  1.00  0.00    -0.337 C  
HETATM   10  C   UNL     1     -11.190  15.053  65.542  1.00  0.00    -0.344 C  
HETATM   11  F   UNL     1     -12.441  14.604  65.263  1.00  0.00    -0.368 F  
HETATM   12  F   UNL     1     -10.919  16.033  64.642  1.00  0.00    -0.441 F  
HETATM   13  F   UNL     1     -11.231  15.632  66.762  1.00  0.00    -0.311 F  
ENDBRANCH   8   9
ENDBRANCH   3   8
BRANCH   7  14
HETATM   14  C   UNL     1      -8.771   8.820  68.292  1.00  0.00    -0.135 C  
BRANCH  14  15
HETATM   15  S   UNL     1      -8.267   8.907  70.021  1.00  0.00    -0.135 S  
HETATM   16  O   UNL     1      -7.724  10.256  70.397  1.00  0.00    -0.194 OA 
BRANCH  15  17
HETATM   17  C   UNL     1      -9.807   8.782  70.815  1.00  0.00    -0.205 A  
HETATM   18  N   UNL     1     -10.531   9.788  71.258  1.00  0.00    -0.233 NA 
HETATM   19  C   UNL     1     -11.752   9.239  71.581  1.00  0.00    -0.392 A  
HETATM   20  H   UNL     1     -10.248  10.764  71.345  1.00  0.00     0.000 HD 
HETATM   21  C   UNL     1     -12.925   9.860  72.038  1.00  0.00    -0.518 A  
HETATM   22  C   UNL     1     -14.082   9.087  72.195  1.00  0.00    -0.461 A  
HETATM   23  C   UNL     1     -14.068   7.717  71.917  1.00  0.00    -0.444 A  
HETATM   24  C   UNL     1     -12.899   7.071  71.501  1.00  0.00    -0.420 A  
HETATM   25  C   UNL     1     -11.760   7.867  71.349  1.00  0.00    -0.281 A  
HETATM   26  N   UNL     1     -10.476   7.591  70.951  1.00  0.00    -0.212 NA 
ENDBRANCH  15  17
ENDBRANCH  14  15
ENDBRANCH   7  14
TORSDOF 5
ENDMDL
MODEL      106
REMARK 921   NORMALIZED FREE ENERGY PREDICTED BY IDOCK:   -5.55 KCAL/MOL
REMARK 922        TOTAL FREE ENERGY PREDICTED BY IDOCK:   -7.94 KCAL/MOL
REMARK 923 INTER-LIGAND FREE ENERGY PREDICTED BY IDOCK:   -7.11 KCAL/MOL
REMARK 924 INTRA-LIGAND FREE ENERGY PREDICTED BY IDOCK:   -0.83 KCAL/MOL
REMARK 927      BINDING AFFINITY PREDICTED BY RF-SCORE:    0.00 PKD
ROOT
HETATM    1  C   UNL     1      -9.112   8.464  69.222  1.00  0.00    -0.150 C  
HETATM    2  C   UNL     1     -10.316   9.332  69.437  1.00  0.00    -0.223 A  
HETATM    3  C   UNL     1     -10.919   9.473  70.700  1.00  0.00    -0.306 A  
HETATM    4  C   UNL     1     -11.907  10.437  70.893  1.00  0.00    -0.475 A  
HETATM    5  N   UNL     1     -11.854  10.994  68.558  1.00  0.00    -0.520 NA 
HETATM    6  C   UNL     1     -12.321  11.183  69.808  1.00  0.00    -0.246 A  
HETATM    7  C   UNL     1     -10.874  10.066  68.367  1.00  0.00    -0.235 A  
ENDROOT
BRANCH   3   8
HETATM    8  O   UNL     1     -10.595   8.788  71.846  1.00  0.00    -0.309 OA 
BRANCH   8   9
HETATM    9  C   UNL     1     -11.654   8.050  72.476  1.00  0.00    -0.403 C  
HETATM   10  C   UNL     1     -12.066   6.802  71.700  1.00  0.00    -0.359 C  
HETATM   11  F   UNL     1     -13.305   6.949  71.164  1.00  0.00    -0.391 F  
HETATM   12  F   UNL     1     -12.124   5.726  72.524  1.00  0.00    -0.355 F  
HETATM   13  F   UNL     1     -11.224   6.487  70.691  1.00  0.00    -0.289 F  
ENDBRANCH   8   9
ENDBRANCH   3   8
BRANCH   7  14
HETATM   14  C   UNL     1     -10.475   9.864  66.917  1.00  0.00    -0.215 C  
BRANCH  14  15
HETATM   15  S   UNL     1      -8.960  10.747  66.498  1.00  0.00    -0.161 S  
HETATM   16  O   UNL     1      -8.716  10.807  65.017  1.00  0.00    -0.191 OA 
BRANCH  15  17
HETATM   17  C   UNL     1      -9.384  12.364  66.972  1.00  0.00    -0.204 A  
HETATM   18  N   UNL     1     -10.543  12.952  66.756  1.00  0.00    -0.256 NA 
HETATM   19  C   UNL     1     -10.506  14.107  67.507  1.00  0.00    -0.249 A  
HETATM   20  H   UNL     1     -11.303  12.623  66.162  1.00  0.00     0.000 HD 
HETATM   21  C   UNL     1     -11.495  15.082  67.706  1.00  0.00    -0.347 A  
HETATM   22  C   UNL     1     -11.247  16.121  68.611  1.00  0.00    -0.369 A  
HETATM   23  C   UNL     1     -10.029  16.198  69.294  1.00  0.00    -0.253 A  
HETATM   24  C   UNL     1      -9.013  15.259  69.077  1.00  0.00    -0.225 A  
HETATM   25  C   UNL     1      -9.289  14.231  68.172  1.00  0.00    -0.206 A  
HETATM   26  N   UNL     1      -8.561  13.153  67.736  1.00  0.00    -0.175 NA 
ENDBRANCH  15  17
ENDBRANCH  14  15
ENDBRANCH   7  14
TORSDOF 5
ENDMDL
MODEL      107
REMARK 921   NORMALIZED FREE ENERGY PREDICTED BY IDOCK:   -5.54 KCAL/MOL
REMARK 922        TOTAL FREE ENERGY PREDICTED BY IDOCK:   -7.93 KCAL/MOL
REMARK 923 INTER-LIGAND FREE ENERGY PREDICTED BY IDOCK:   -7.53 KCAL/MOL
REMARK 924 INTRA-LIGAND FREE ENERGY PREDICTED BY IDOCK:   -0.40 KCAL/MOL
REMARK 927      BINDING AFFINITY PREDICTED BY RF-SCORE:    0.00 PKD
ROOT
HETATM    1  C   UNL     1      -9.208   8.855  70.963  1.00  0.00    -0.307 C  
HETATM    2  C   UNL     1     -10.480   9.645  70.868  1.00  0.00    -0.359 A  
HETATM    3  C   UNL     1     -11.590   9.375  71.689  1.00  0.00    -0.396 A  
HETATM    4  C   UNL     1     -12.672  10.254  71.704  1.00  0.00    -0.561 A  
HETATM    5  N   UNL     1     -11.665  11.560  69.959  1.00  0.00    -0.331 NA 
HETATM    6  C   UNL     1     -12.653  11.335  70.847  1.00  0.00    -0.371 A  
HETATM    7  C   UNL     1     -10.596  10.715  69.954  1.00  0.00    -0.151 A  
ENDROOT
BRANCH   3   8
HETATM    8  O   UNL     1     -11.723   8.332  72.575  1.00  0.00    -0.386 OA 
BRANCH   8   9
HETATM    9  C   UNL     1     -12.154   7.076  72.031  1.00  0.00    -0.294 C  
HETATM   10  C   UNL     1     -11.258   5.906  72.426  1.00  0.00    -0.291 C  
HETATM   11  F   UNL     1     -10.562   5.442  71.357  1.00  0.00    -0.275 F  
HETATM   12  F   UNL     1     -12.003   4.869  72.886  1.00  0.00    -0.315 F  
HETATM   13  F   UNL     1     -10.361   6.211  73.390  1.00  0.00    -0.184 F  
ENDBRANCH   8   9
ENDBRANCH   3   8
BRANCH   7  14
HETATM   14  C   UNL     1      -9.577  10.997  68.865  1.00  0.00    -0.163 C  
BRANCH  14  15
HETATM   15  S   UNL     1     -10.355  11.488  67.314  1.00  0.00    -0.213 S  
HETATM   16  O   UNL     1     -11.798  11.074  67.235  1.00  0.00    -0.468 OA 
BRANCH  15  17
HETATM   17  C   UNL     1     -10.370  13.216  67.490  1.00  0.00    -0.225 A  
HETATM   18  N   UNL     1     -10.084  13.882  68.589  1.00  0.00    -0.282 NA 
HETATM   19  C   UNL     1      -9.988  15.199  68.197  1.00  0.00    -0.221 A  
HETATM   20  H   UNL     1      -9.961  13.505  69.528  1.00  0.00     0.000 HD 
HETATM   21  C   UNL     1      -9.640  16.336  68.943  1.00  0.00    -0.243 A  
HETATM   22  C   UNL     1      -9.508  17.564  68.281  1.00  0.00    -0.296 A  
HETATM   23  C   UNL     1      -9.734  17.661  66.905  1.00  0.00    -0.292 A  
HETATM   24  C   UNL     1     -10.122  16.548  66.151  1.00  0.00    -0.365 A  
HETATM   25  C   UNL     1     -10.243  15.336  66.836  1.00  0.00    -0.268 A  
HETATM   26  N   UNL     1     -10.576  14.066  66.433  1.00  0.00    -0.278 NA 
ENDBRANCH  15  17
ENDBRANCH  14  15
ENDBRANCH   7  14
TORSDOF 5
ENDMDL
MODEL      108
REMARK 921   NORMALIZED FREE ENERGY PREDICTED BY IDOCK:   -5.52 KCAL/MOL
REMARK 922        TOTAL FREE ENERGY PREDICTED BY IDOCK:   -7.90 KCAL/MOL
REMARK 923 INTER-LIGAND FREE ENERGY PREDICTED BY IDOCK:   -6.96 KCAL/MOL
REMARK 924 INTRA-LIGAND FREE ENERGY PREDICTED BY IDOCK:   -0.93 KCAL/MOL
REMARK 927      BINDING AFFINITY PREDICTED BY RF-SCORE:    0.00 PKD
ROOT
HETATM    1  C   UNL     1     -10.541  10.845  67.365  1.00  0.00    -0.285 C  
HETATM    2  C   UNL     1      -9.919  10.172  66.177  1.00  0.00    -0.310 A  
HETATM    3  C   UNL     1     -10.270  10.512  64.858  1.00  0.00    -0.300 A  
HETATM    4  C   UNL     1      -9.530  10.007  63.791  1.00  0.00    -0.267 A  
HETATM    5  N   UNL     1      -8.222   8.673  65.300  1.00  0.00    -0.138 NA 
HETATM    6  C   UNL     1      -8.509   9.117  64.060  1.00  0.00    -0.184 A  
HETATM    7  C   UNL     1      -8.930   9.179  66.348  1.00  0.00    -0.149 A  
ENDROOT
BRANCH   3   8
HETATM    8  O   UNL     1     -11.264  11.379  64.469  1.00  0.00    -0.283 OA 
BRANCH   8   9
HETATM    9  C   UNL     1     -10.845  12.583  63.808  1.00  0.00    -0.446 C  
HETATM   10  C   UNL     1     -11.198  13.851  64.580  1.00  0.00    -0.365 C  
HETATM   11  F   UNL     1     -12.167  14.556  63.941  1.00  0.00    -0.486 F  
HETATM   12  F   UNL     1     -10.119  14.668  64.673  1.00  0.00    -0.398 F  
HETATM   13  F   UNL     1     -11.632  13.617  65.839  1.00  0.00    -0.305 F  
ENDBRANCH   8   9
ENDBRANCH   3   8
BRANCH   7  14
HETATM   14  C   UNL     1      -8.594   8.557  67.691  1.00  0.00    -0.133 C  
BRANCH  14  15
HETATM   15  S   UNL     1      -9.463   7.000  67.958  1.00  0.00    -0.125 S  
HETATM   16  O   UNL     1      -8.549   5.898  68.412  1.00  0.00    -0.114 OA 
BRANCH  15  17
HETATM   17  C   UNL     1     -10.437   7.404  69.339  1.00  0.00    -0.217 A  
HETATM   18  N   UNL     1     -10.354   8.513  70.044  1.00  0.00    -0.205 NA 
HETATM   19  C   UNL     1     -11.460   8.501  70.865  1.00  0.00    -0.267 A  
HETATM   20  H   UNL     1      -9.628   9.226  69.993  1.00  0.00     0.000 HD 
HETATM   21  C   UNL     1     -11.912   9.466  71.779  1.00  0.00    -0.452 A  
HETATM   22  C   UNL     1     -13.139   9.262  72.424  1.00  0.00    -0.481 A  
HETATM   23  C   UNL     1     -13.893   8.112  72.177  1.00  0.00    -0.304 A  
HETATM   24  C   UNL     1     -13.440   7.118  71.302  1.00  0.00    -0.309 A  
HETATM   25  C   UNL     1     -12.216   7.348  70.669  1.00  0.00    -0.090 A  
HETATM   26  N   UNL     1     -11.486   6.626  69.758  1.00  0.00    -0.349 NA 
ENDBRANCH  15  17
ENDBRANCH  14  15
ENDBRANCH   7  14
TORSDOF 5
ENDMDL
MODEL      109
REMARK 921   NORMALIZED FREE ENERGY PREDICTED BY IDOCK:   -5.51 KCAL/MOL
REMARK 922        TOTAL FREE ENERGY PREDICTED BY IDOCK:   -7.89 KCAL/MOL
REMARK 923 INTER-LIGAND FREE ENERGY PREDICTED BY IDOCK:   -7.12 KCAL/MOL
REMARK 924 INTRA-LIGAND FREE ENERGY PREDICTED BY IDOCK:   -0.77 KCAL/MOL
REMARK 927      BINDING AFFINITY PREDICTED BY RF-SCORE:    0.00 PKD
ROOT
HETATM    1  C   UNL     1      -9.737  10.199  65.569  1.00  0.00    -0.344 C  
HETATM    2  C   UNL     1     -10.445  10.637  66.817  1.00  0.00    -0.303 A  
HETATM    3  C   UNL     1     -11.140  11.858  66.893  1.00  0.00    -0.305 A  
HETATM    4  C   UNL     1     -11.943  12.132  67.998  1.00  0.00    -0.233 A  
HETATM    5  N   UNL     1     -11.231  10.095  69.050  1.00  0.00    -0.205 NA 
HETATM    6  C   UNL     1     -11.976  11.218  69.031  1.00  0.00    -0.325 A  
HETATM    7  C   UNL     1     -10.458   9.813  67.964  1.00  0.00    -0.226 A  
ENDROOT
BRANCH   3   8
HETATM    8  O   UNL     1     -11.179  12.842  65.933  1.00  0.00    -0.283 OA 
BRANCH   8   9
HETATM    9  C   UNL     1     -12.397  12.959  65.182  1.00  0.00    -0.493 C  
HETATM   10  C   UNL     1     -12.234  12.608  63.706  1.00  0.00    -0.514 C  
HETATM   11  F   UNL     1     -12.357  13.712  62.926  1.00  0.00    -0.516 F  
HETATM   12  F   UNL     1     -13.202  11.743  63.312  1.00  0.00    -0.614 F  
HETATM   13  F   UNL     1     -11.044  12.037  63.412  1.00  0.00    -0.406 F  
ENDBRANCH   8   9
ENDBRANCH   3   8
BRANCH   7  14
HETATM   14  C   UNL     1      -9.593   8.575  68.113  1.00  0.00    -0.143 C  
BRANCH  14  15
HETATM   15  S   UNL     1      -8.370   8.753  69.425  1.00  0.00    -0.119 S  
HETATM   16  O   UNL     1      -8.196  10.179  69.865  1.00  0.00    -0.177 OA 
BRANCH  15  17
HETATM   17  C   UNL     1      -9.180   7.951  70.736  1.00  0.00    -0.157 A  
HETATM   18  N   UNL     1     -10.219   7.149  70.626  1.00  0.00    -0.195 NA 
HETATM   19  C   UNL     1     -10.359   6.568  71.867  1.00  0.00    -0.200 A  
HETATM   20  H   UNL     1     -10.795   6.992  69.800  1.00  0.00     0.000 HD 
HETATM   21  C   UNL     1     -11.260   5.585  72.304  1.00  0.00    -0.281 A  
HETATM   22  C   UNL     1     -11.129   5.077  73.602  1.00  0.00    -0.336 A  
HETATM   23  C   UNL     1     -10.129   5.550  74.456  1.00  0.00    -0.293 A  
HETATM   24  C   UNL     1      -9.247   6.560  74.055  1.00  0.00    -0.185 A  
HETATM   25  C   UNL     1      -9.398   7.046  72.754  1.00  0.00    -0.135 A  
HETATM   26  N   UNL     1      -8.722   7.995  72.029  1.00  0.00    -0.133 NA 
ENDBRANCH  15  17
ENDBRANCH  14  15
ENDBRANCH   7  14
TORSDOF 5
ENDMDL
MODEL      110
REMARK 921   NORMALIZED FREE ENERGY PREDICTED BY IDOCK:   -5.50 KCAL/MOL
REMARK 922        TOTAL FREE ENERGY PREDICTED BY IDOCK:   -7.88 KCAL/MOL
REMARK 923 INTER-LIGAND FREE ENERGY PREDICTED BY IDOCK:   -6.72 KCAL/MOL
REMARK 924 INTRA-LIGAND FREE ENERGY PREDICTED BY IDOCK:   -1.16 KCAL/MOL
REMARK 927      BINDING AFFINITY PREDICTED BY RF-SCORE:    0.00 PKD
ROOT
HETATM    1  C   UNL     1      -8.821  13.308  67.691  1.00  0.00    -0.200 C  
HETATM    2  C   UNL     1      -9.191  12.215  66.732  1.00  0.00    -0.207 A  
HETATM    3  C   UNL     1      -8.848  10.870  66.964  1.00  0.00    -0.140 A  
HETATM    4  C   UNL     1      -9.379   9.869  66.153  1.00  0.00    -0.232 A  
HETATM    5  N   UNL     1     -10.427  11.520  64.760  1.00  0.00    -0.282 NA 
HETATM    6  C   UNL     1     -10.175  10.237  65.088  1.00  0.00    -0.224 A  
HETATM    7  C   UNL     1      -9.926  12.502  65.561  1.00  0.00    -0.234 A  
ENDROOT
BRANCH   3   8
HETATM    8  O   UNL     1      -8.065  10.386  67.985  1.00  0.00    -0.108 OA 
BRANCH   8   9
HETATM    9  C   UNL     1      -8.527   9.194  68.640  1.00  0.00    -0.127 C  
HETATM   10  C   UNL     1      -9.565   9.464  69.725  1.00  0.00    -0.201 C  
HETATM   11  F   UNL     1      -9.056   9.218  70.959  1.00  0.00    -0.256 F  
HETATM   12  F   UNL     1     -10.635   8.642  69.575  1.00  0.00    -0.214 F  
HETATM   13  F   UNL     1     -10.033  10.732  69.727  1.00  0.00    -0.206 F  
ENDBRANCH   8   9
ENDBRANCH   3   8
BRANCH   7  14
HETATM   14  C   UNL     1     -10.189  13.912  65.065  1.00  0.00    -0.358 C  
BRANCH  14  15
HETATM   15  S   UNL     1     -11.925  14.375  65.215  1.00  0.00    -0.372 S  
HETATM   16  O   UNL     1     -12.855  13.225  64.950  1.00  0.00    -0.695 OA 
BRANCH  15  17
HETATM   17  C   UNL     1     -12.033  14.686  66.921  1.00  0.00    -0.272 A  
HETATM   18  N   UNL     1     -12.400  13.819  67.841  1.00  0.00    -0.398 NA 
HETATM   19  C   UNL     1     -12.103  14.422  69.043  1.00  0.00    -0.263 A  
HETATM   20  H   UNL     1     -12.815  12.899  67.695  1.00  0.00     0.000 HD 
HETATM   21  C   UNL     1     -12.224  13.928  70.351  1.00  0.00    -0.438 A  
HETATM   22  C   UNL     1     -11.748  14.707  71.414  1.00  0.00    -0.298 A  
HETATM   23  C   UNL     1     -11.178  15.962  71.181  1.00  0.00    -0.360 A  
HETATM   24  C   UNL     1     -11.087  16.490  69.888  1.00  0.00    -0.241 A  
HETATM   25  C   UNL     1     -11.565  15.691  68.846  1.00  0.00    -0.383 A  
HETATM   26  N   UNL     1     -11.622  15.866  67.486  1.00  0.00    -0.011 NA 
ENDBRANCH  15  17
ENDBRANCH  14  15
ENDBRANCH   7  14
TORSDOF 5
ENDMDL
MODEL      111
REMARK 921   NORMALIZED FREE ENERGY PREDICTED BY IDOCK:   -5.49 KCAL/MOL
REMARK 922        TOTAL FREE ENERGY PREDICTED BY IDOCK:   -7.86 KCAL/MOL
REMARK 923 INTER-LIGAND FREE ENERGY PREDICTED BY IDOCK:   -7.78 KCAL/MOL
REMARK 924 INTRA-LIGAND FREE ENERGY PREDICTED BY IDOCK:   -0.09 KCAL/MOL
REMARK 927      BINDING AFFINITY PREDICTED BY RF-SCORE:    0.00 PKD
ROOT
HETATM    1  C   UNL     1     -10.615  13.363  68.077  1.00  0.00    -0.252 C  
HETATM    2  C   UNL     1     -10.277  12.185  67.211  1.00  0.00    -0.216 A  
HETATM    3  C   UNL     1     -11.086  11.799  66.126  1.00  0.00    -0.307 A  
HETATM    4  C   UNL     1     -10.634  10.828  65.235  1.00  0.00    -0.230 A  
HETATM    5  N   UNL     1      -8.679  10.468  66.582  1.00  0.00    -0.132 NA 
HETATM    6  C   UNL     1      -9.425  10.213  65.488  1.00  0.00    -0.230 A  
HETATM    7  C   UNL     1      -9.107  11.430  67.447  1.00  0.00    -0.160 A  
ENDROOT
BRANCH   3   8
HETATM    8  O   UNL     1     -12.303  12.334  65.778  1.00  0.00    -0.622 OA 
BRANCH   8   9
HETATM    9  C   UNL     1     -12.408  13.766  65.804  1.00  0.00    -0.486 C  
HETATM   10  C   UNL     1     -11.878  14.434  64.538  1.00  0.00    -0.449 C  
HETATM   11  F   UNL     1     -10.732  15.118  64.791  1.00  0.00    -0.383 F  
HETATM   12  F   UNL     1     -12.773  15.337  64.064  1.00  0.00    -0.420 F  
HETATM   13  F   UNL     1     -11.617  13.566  63.535  1.00  0.00    -0.392 F  
ENDBRANCH   8   9
ENDBRANCH   3   8
BRANCH   7  14
HETATM   14  C   UNL     1      -8.249  11.586  68.688  1.00  0.00    -0.124 C  
BRANCH  14  15
HETATM   15  S   UNL     1      -7.904  10.004  69.481  1.00  0.00    -0.169 S  
HETATM   16  O   UNL     1      -6.987  10.137  70.663  1.00  0.00    -0.298 OA 
BRANCH  15  17
HETATM   17  C   UNL     1      -9.467   9.622  70.138  1.00  0.00    -0.253 A  
HETATM   18  N   UNL     1      -9.767   8.550  70.841  1.00  0.00    -0.177 NA 
HETATM   19  C   UNL     1     -11.026   8.791  71.345  1.00  0.00    -0.289 A  
HETATM   20  H   UNL     1      -9.192   7.720  70.981  1.00  0.00     0.000 HD 
HETATM   21  C   UNL     1     -11.810   8.017  72.216  1.00  0.00    -0.424 A  
HETATM   22  C   UNL     1     -13.028   8.538  72.671  1.00  0.00    -0.214 A  
HETATM   23  C   UNL     1     -13.465   9.798  72.256  1.00  0.00    -0.443 A  
HETATM   24  C   UNL     1     -12.719  10.568  71.356  1.00  0.00    -0.547 A  
HETATM   25  C   UNL     1     -11.507  10.026  70.920  1.00  0.00    -0.371 A  
HETATM   26  N   UNL     1     -10.529  10.489  70.076  1.00  0.00    -0.189 NA 
ENDBRANCH  15  17
ENDBRANCH  14  15
ENDBRANCH   7  14
TORSDOF 5
ENDMDL
MODEL      112
REMARK 921   NORMALIZED FREE ENERGY PREDICTED BY IDOCK:   -5.49 KCAL/MOL
REMARK 922        TOTAL FREE ENERGY PREDICTED BY IDOCK:   -7.86 KCAL/MOL
REMARK 923 INTER-LIGAND FREE ENERGY PREDICTED BY IDOCK:   -7.04 KCAL/MOL
REMARK 924 INTRA-LIGAND FREE ENERGY PREDICTED BY IDOCK:   -0.82 KCAL/MOL
REMARK 927      BINDING AFFINITY PREDICTED BY RF-SCORE:    0.00 PKD
ROOT
HETATM    1  C   UNL     1     -10.743   5.490  69.403  1.00  0.00    -0.312 C  
HETATM    2  C   UNL     1     -11.021   6.837  70.001  1.00  0.00    -0.344 A  
HETATM    3  C   UNL     1     -11.472   6.987  71.325  1.00  0.00    -0.286 A  
HETATM    4  C   UNL     1     -11.528   8.256  71.899  1.00  0.00    -0.372 A  
HETATM    5  N   UNL     1     -10.887   9.254  69.812  1.00  0.00    -0.232 NA 
HETATM    6  C   UNL     1     -11.205   9.347  71.118  1.00  0.00    -0.357 A  
HETATM    7  C   UNL     1     -10.812   8.015  69.251  1.00  0.00    -0.059 A  
ENDROOT
BRANCH   3   8
HETATM    8  O   UNL     1     -11.823   5.981  72.193  1.00  0.00    -0.312 OA 
BRANCH   8   9
HETATM    9  C   UNL     1     -10.981   5.801  73.343  1.00  0.00    -0.222 C  
HETATM   10  C   UNL     1     -10.366   4.407  73.429  1.00  0.00    -0.175 C  
HETATM   11  F   UNL     1     -10.897   3.703  74.461  1.00  0.00    -0.246 F  
HETATM   12  F   UNL     1      -9.031   4.488  73.660  1.00  0.00    -0.104 F  
HETATM   13  F   UNL     1     -10.533   3.669  72.309  1.00  0.00    -0.244 F  
ENDBRANCH   8   9
ENDBRANCH   3   8
BRANCH   7  14
HETATM   14  C   UNL     1     -10.531   8.016  67.759  1.00  0.00    -0.214 C  
BRANCH  14  15
HETATM   15  S   UNL     1      -9.030   8.926  67.349  1.00  0.00    -0.132 S  
HETATM   16  O   UNL     1      -8.126   8.162  66.424  1.00  0.00    -0.101 OA 
BRANCH  15  17
HETATM   17  C   UNL     1      -9.685  10.226  66.401  1.00  0.00    -0.201 A  
HETATM   18  N   UNL     1      -9.613  10.338  65.091  1.00  0.00    -0.252 NA 
HETATM   19  C   UNL     1     -10.465  11.372  64.771  1.00  0.00    -0.308 A  
HETATM   20  H   UNL     1      -9.048   9.780  64.452  1.00  0.00     0.000 HD 
HETATM   21  C   UNL     1     -10.829  11.881  63.515  1.00  0.00    -0.502 A  
HETATM   22  C   UNL     1     -11.809  12.880  63.449  1.00  0.00    -0.576 A  
HETATM   23  C   UNL     1     -12.403  13.375  64.613  1.00  0.00    -0.433 A  
HETATM   24  C   UNL     1     -12.024  12.910  65.877  1.00  0.00    -0.504 A  
HETATM   25  C   UNL     1     -11.048  11.912  65.914  1.00  0.00    -0.316 A  
HETATM   26  N   UNL     1     -10.458  11.222  66.944  1.00  0.00    -0.234 NA 
ENDBRANCH  15  17
ENDBRANCH  14  15
ENDBRANCH   7  14
TORSDOF 5
ENDMDL
MODEL      113
REMARK 921   NORMALIZED FREE ENERGY PREDICTED BY IDOCK:   -5.47 KCAL/MOL
REMARK 922        TOTAL FREE ENERGY PREDICTED BY IDOCK:   -7.83 KCAL/MOL
REMARK 923 INTER-LIGAND FREE ENERGY PREDICTED BY IDOCK:   -6.88 KCAL/MOL
REMARK 924 INTRA-LIGAND FREE ENERGY PREDICTED BY IDOCK:   -0.95 KCAL/MOL
REMARK 927      BINDING AFFINITY PREDICTED BY RF-SCORE:    0.00 PKD
ROOT
HETATM    1  C   UNL     1     -13.158  10.907  71.828  1.00  0.00    -0.564 C  
HETATM    2  C   UNL     1     -12.505  11.748  70.771  1.00  0.00    -0.405 A  
HETATM    3  C   UNL     1     -12.747  13.130  70.660  1.00  0.00    -0.130 A  
HETATM    4  C   UNL     1     -11.973  13.902  69.797  1.00  0.00    -0.398 A  
HETATM    5  N   UNL     1     -10.854  11.933  69.000  1.00  0.00    -0.214 NA 
HETATM    6  C   UNL     1     -11.031  13.269  69.011  1.00  0.00    -0.206 A  
HETATM    7  C   UNL     1     -11.595  11.175  69.856  1.00  0.00    -0.337 A  
ENDROOT
BRANCH   3   8
HETATM    8  O   UNL     1     -13.656  13.865  71.384  1.00  0.00    -0.303 OA 
BRANCH   8   9
HETATM    9  C   UNL     1     -13.415  15.278  71.472  1.00  0.00    -0.489 C  
HETATM   10  C   UNL     1     -12.934  15.723  72.850  1.00  0.00    -0.500 C  
HETATM   11  F   UNL     1     -13.883  16.459  73.483  1.00  0.00    -0.604 F  
HETATM   12  F   UNL     1     -11.838  16.516  72.739  1.00  0.00    -0.563 F  
HETATM   13  F   UNL     1     -12.604  14.699  73.668  1.00  0.00    -0.555 F  
ENDBRANCH   8   9
ENDBRANCH   3   8
BRANCH   7  14
HETATM   14  C   UNL     1     -11.387   9.679  69.710  1.00  0.00    -0.120 C  
BRANCH  14  15
HETATM   15  S   UNL     1      -9.998   9.084  70.694  1.00  0.00    -0.254 S  
HETATM   16  O   UNL     1      -9.903   7.585  70.713  1.00  0.00    -0.179 OA 
BRANCH  15  17
HETATM   17  C   UNL     1      -8.660   9.629  69.730  1.00  0.00    -0.199 A  
HETATM   18  N   UNL     1      -8.600   9.613  68.414  1.00  0.00    -0.119 NA 
HETATM   19  C   UNL     1      -7.481  10.352  68.096  1.00  0.00    -0.090 A  
HETATM   20  H   UNL     1      -9.243   9.154  67.770  1.00  0.00     0.000 HD 
HETATM   21  C   UNL     1      -6.973  10.719  66.840  1.00  0.00    -0.109 A  
HETATM   22  C   UNL     1      -5.865  11.574  66.784  1.00  0.00    -0.143 A  
HETATM   23  C   UNL     1      -5.264  12.043  67.955  1.00  0.00    -0.053 A  
HETATM   24  C   UNL     1      -5.730  11.655  69.217  1.00  0.00    -0.057 A  
HETATM   25  C   UNL     1      -6.838  10.804  69.245  1.00  0.00    -0.092 A  
HETATM   26  N   UNL     1      -7.561  10.247  70.270  1.00  0.00    -0.197 NA 
ENDBRANCH  15  17
ENDBRANCH  14  15
ENDBRANCH   7  14
TORSDOF 5
ENDMDL
MODEL      114
REMARK 921   NORMALIZED FREE ENERGY PREDICTED BY IDOCK:   -5.44 KCAL/MOL
REMARK 922        TOTAL FREE ENERGY PREDICTED BY IDOCK:   -7.80 KCAL/MOL
REMARK 923 INTER-LIGAND FREE ENERGY PREDICTED BY IDOCK:   -6.90 KCAL/MOL
REMARK 924 INTRA-LIGAND FREE ENERGY PREDICTED BY IDOCK:   -0.90 KCAL/MOL
REMARK 927      BINDING AFFINITY PREDICTED BY RF-SCORE:    0.00 PKD
ROOT
HETATM    1  C   UNL     1     -10.813  12.734  65.391  1.00  0.00    -0.313 C  
HETATM    2  C   UNL     1     -11.217  13.077  66.794  1.00  0.00    -0.333 A  
HETATM    3  C   UNL     1     -11.419  14.406  67.210  1.00  0.00    -0.359 A  
HETATM    4  C   UNL     1     -11.982  14.664  68.458  1.00  0.00    -0.298 A  
HETATM    5  N   UNL     1     -11.967  12.320  68.977  1.00  0.00    -0.284 NA 
HETATM    6  C   UNL     1     -12.258  13.598  69.290  1.00  0.00    -0.238 A  
HETATM    7  C   UNL     1     -11.434  12.060  67.749  1.00  0.00    -0.325 A  
ENDROOT
BRANCH   3   8
HETATM    8  O   UNL     1     -11.178  15.542  66.475  1.00  0.00    -0.243 OA 
BRANCH   8   9
HETATM    9  C   UNL     1     -10.550  16.633  67.165  1.00  0.00    -0.264 C  
HETATM   10  C   UNL     1      -9.050  16.730  66.903  1.00  0.00    -0.229 C  
HETATM   11  F   UNL     1      -8.340  16.412  68.016  1.00  0.00    -0.167 F  
HETATM   12  F   UNL     1      -8.705  18.000  66.571  1.00  0.00    -0.249 F  
HETATM   13  F   UNL     1      -8.619  15.926  65.905  1.00  0.00    -0.348 F  
ENDBRANCH   8   9
ENDBRANCH   3   8
BRANCH   7  14
HETATM   14  C   UNL     1     -11.062  10.606  67.522  1.00  0.00    -0.300 C  
BRANCH  14  15
HETATM   15  S   UNL     1      -9.500  10.171  68.311  1.00  0.00    -0.143 S  
HETATM   16  O   UNL     1      -8.785  11.366  68.876  1.00  0.00    -0.116 OA 
BRANCH  15  17
HETATM   17  C   UNL     1     -10.069   9.271  69.683  1.00  0.00    -0.197 A  
HETATM   18  N   UNL     1     -10.984   8.324  69.659  1.00  0.00    -0.415 NA 
HETATM   19  C   UNL     1     -10.931   7.740  70.906  1.00  0.00    -0.250 A  
HETATM   20  H   UNL     1     -11.600   8.077  68.885  1.00  0.00     0.000 HD 
HETATM   21  C   UNL     1     -11.638   6.639  71.414  1.00  0.00    -0.362 A  
HETATM   22  C   UNL     1     -11.323   6.167  72.695  1.00  0.00    -0.298 A  
HETATM   23  C   UNL     1     -10.334   6.789  73.462  1.00  0.00    -0.342 A  
HETATM   24  C   UNL     1      -9.647   7.914  72.990  1.00  0.00    -0.341 A  
HETATM   25  C   UNL     1      -9.979   8.361  71.709  1.00  0.00    -0.241 A  
HETATM   26  N   UNL     1      -9.514   9.393  70.932  1.00  0.00    -0.246 NA 
ENDBRANCH  15  17
ENDBRANCH  14  15
ENDBRANCH   7  14
TORSDOF 5
ENDMDL
MODEL      115
REMARK 921   NORMALIZED FREE ENERGY PREDICTED BY IDOCK:   -5.43 KCAL/MOL
REMARK 922        TOTAL FREE ENERGY PREDICTED BY IDOCK:   -7.78 KCAL/MOL
REMARK 923 INTER-LIGAND FREE ENERGY PREDICTED BY IDOCK:   -6.99 KCAL/MOL
REMARK 924 INTRA-LIGAND FREE ENERGY PREDICTED BY IDOCK:   -0.80 KCAL/MOL
REMARK 927      BINDING AFFINITY PREDICTED BY RF-SCORE:    0.00 PKD
ROOT
HETATM    1  C   UNL     1     -12.031  13.145  69.155  1.00  0.00    -0.329 C  
HETATM    2  C   UNL     1     -11.542  13.487  67.779  1.00  0.00    -0.374 A  
HETATM    3  C   UNL     1     -11.520  12.540  66.737  1.00  0.00    -0.362 A  
HETATM    4  C   UNL     1     -11.247  12.950  65.434  1.00  0.00    -0.314 A  
HETATM    5  N   UNL     1     -10.821  15.185  66.200  1.00  0.00    -0.326 NA 
HETATM    6  C   UNL     1     -10.929  14.275  65.213  1.00  0.00    -0.343 A  
HETATM    7  C   UNL     1     -11.106  14.795  67.474  1.00  0.00    -0.319 A  
ENDROOT
BRANCH   3   8
HETATM    8  O   UNL     1     -11.813  11.201  66.838  1.00  0.00    -0.339 OA 
BRANCH   8   9
HETATM    9  C   UNL     1     -10.791  10.359  67.392  1.00  0.00    -0.286 C  
HETATM   10  C   UNL     1     -10.081   9.503  66.347  1.00  0.00    -0.258 C  
HETATM   11  F   UNL     1     -10.397   8.190  66.496  1.00  0.00    -0.349 F  
HETATM   12  F   UNL     1      -8.735   9.598  66.488  1.00  0.00    -0.129 F  
HETATM   13  F   UNL     1     -10.374   9.846  65.073  1.00  0.00    -0.376 F  
ENDBRANCH   8   9
ENDBRANCH   3   8
BRANCH   7  14
HETATM   14  C   UNL     1     -10.873  15.864  68.526  1.00  0.00    -0.298 C  
BRANCH  14  15
HETATM   15  S   UNL     1      -9.243  15.731  69.284  1.00  0.00    -0.261 S  
HETATM   16  O   UNL     1      -8.495  14.506  68.838  1.00  0.00    -0.163 OA 
BRANCH  15  17
HETATM   17  C   UNL     1      -8.429  17.075  68.543  1.00  0.00    -0.257 A  
HETATM   18  N   UNL     1      -7.141  17.338  68.626  1.00  0.00    -0.217 NA 
HETATM   19  C   UNL     1      -6.917  18.334  67.701  1.00  0.00    -0.204 A  
HETATM   20  H   UNL     1      -6.458  16.900  69.242  1.00  0.00     0.000 HD 
HETATM   21  C   UNL     1      -5.717  18.951  67.316  1.00  0.00    -0.162 A  
HETATM   22  C   UNL     1      -5.738  19.874  66.263  1.00  0.00    -0.180 A  
HETATM   23  C   UNL     1      -6.936  20.189  65.615  1.00  0.00    -0.322 A  
HETATM   24  C   UNL     1      -8.150  19.617  66.010  1.00  0.00    -0.322 A  
HETATM   25  C   UNL     1      -8.099  18.697  67.061  1.00  0.00    -0.252 A  
HETATM   26  N   UNL     1      -9.059  17.943  67.687  1.00  0.00    -0.249 NA 
ENDBRANCH  15  17
ENDBRANCH  14  15
ENDBRANCH   7  14
TORSDOF 5
ENDMDL
MODEL      116
REMARK 921   NORMALIZED FREE ENERGY PREDICTED BY IDOCK:   -5.42 KCAL/MOL
REMARK 922        TOTAL FREE ENERGY PREDICTED BY IDOCK:   -7.77 KCAL/MOL
REMARK 923 INTER-LIGAND FREE ENERGY PREDICTED BY IDOCK:   -7.15 KCAL/MOL
REMARK 924 INTRA-LIGAND FREE ENERGY PREDICTED BY IDOCK:   -0.62 KCAL/MOL
REMARK 927      BINDING AFFINITY PREDICTED BY RF-SCORE:    0.00 PKD
ROOT
HETATM    1  C   UNL     1     -11.304  14.782  66.401  1.00  0.00    -0.339 C  
HETATM    2  C   UNL     1      -9.846  14.658  66.731  1.00  0.00    -0.262 A  
HETATM    3  C   UNL     1      -8.936  15.707  66.503  1.00  0.00    -0.308 A  
HETATM    4  C   UNL     1      -7.638  15.621  67.004  1.00  0.00    -0.245 A  
HETATM    5  N   UNL     1      -8.061  13.389  67.781  1.00  0.00    -0.158 NA 
HETATM    6  C   UNL     1      -7.257  14.463  67.651  1.00  0.00    -0.184 A  
HETATM    7  C   UNL     1      -9.337  13.475  67.311  1.00  0.00    -0.233 A  
ENDROOT
BRANCH   3   8
HETATM    8  O   UNL     1      -9.198  16.900  65.872  1.00  0.00    -0.500 OA 
BRANCH   8   9
HETATM    9  C   UNL     1      -9.199  18.076  66.694  1.00  0.00    -0.284 C  
HETATM   10  C   UNL     1     -10.225  19.118  66.258  1.00  0.00    -0.452 C  
HETATM   11  F   UNL     1      -9.615  20.216  65.741  1.00  0.00    -0.457 F  
HETATM   12  F   UNL     1     -10.955  19.543  67.320  1.00  0.00    -0.561 F  
HETATM   13  F   UNL     1     -11.097  18.666  65.329  1.00  0.00    -0.383 F  
ENDBRANCH   8   9
ENDBRANCH   3   8
BRANCH   7  14
HETATM   14  C   UNL     1     -10.137  12.190  67.426  1.00  0.00    -0.199 C  
BRANCH  14  15
HETATM   15  S   UNL     1     -10.515  11.774  69.139  1.00  0.00     0.063 S  
HETATM   16  O   UNL     1     -11.845  12.311  69.584  1.00  0.00    -0.312 OA 
BRANCH  15  17
HETATM   17  C   UNL     1     -10.719  10.053  69.017  1.00  0.00    -0.220 A  
HETATM   18  N   UNL     1     -10.595   9.337  67.919  1.00  0.00    -0.342 NA 
HETATM   19  C   UNL     1     -10.600   8.026  68.341  1.00  0.00    -0.102 A  
HETATM   20  H   UNL     1     -10.514   9.679  66.962  1.00  0.00     0.000 HD 
HETATM   21  C   UNL     1     -10.433   6.843  67.605  1.00  0.00    -0.290 A  
HETATM   22  C   UNL     1     -10.371   5.623  68.291  1.00  0.00    -0.253 A  
HETATM   23  C   UNL     1     -10.490   5.579  69.682  1.00  0.00    -0.379 A  
HETATM   24  C   UNL     1     -10.699   6.743  70.432  1.00  0.00    -0.281 A  
HETATM   25  C   UNL     1     -10.753   7.946  69.723  1.00  0.00    -0.233 A  
HETATM   26  N   UNL     1     -10.921   9.251  70.113  1.00  0.00    -0.241 NA 
ENDBRANCH  15  17
ENDBRANCH  14  15
ENDBRANCH   7  14
TORSDOF 5
ENDMDL
MODEL      117
REMARK 921   NORMALIZED FREE ENERGY PREDICTED BY IDOCK:   -5.41 KCAL/MOL
REMARK 922        TOTAL FREE ENERGY PREDICTED BY IDOCK:   -7.76 KCAL/MOL
REMARK 923 INTER-LIGAND FREE ENERGY PREDICTED BY IDOCK:   -7.27 KCAL/MOL
REMARK 924 INTRA-LIGAND FREE ENERGY PREDICTED BY IDOCK:   -0.49 KCAL/MOL
REMARK 927      BINDING AFFINITY PREDICTED BY RF-SCORE:    0.00 PKD
ROOT
HETATM    1  C   UNL     1     -10.704  19.039  67.427  1.00  0.00    -0.559 C  
HETATM    2  C   UNL     1      -9.610  18.181  67.990  1.00  0.00    -0.304 A  
HETATM    3  C   UNL     1      -8.298  18.660  68.163  1.00  0.00    -0.307 A  
HETATM    4  C   UNL     1      -7.369  17.899  68.868  1.00  0.00    -0.251 A  
HETATM    5  N   UNL     1      -8.952  16.104  69.064  1.00  0.00    -0.239 NA 
HETATM    6  C   UNL     1      -7.745  16.649  69.316  1.00  0.00    -0.110 A  
HETATM    7  C   UNL     1      -9.872  16.853  68.393  1.00  0.00    -0.266 A  
ENDROOT
BRANCH   3   8
HETATM    8  O   UNL     1      -7.810  19.880  67.759  1.00  0.00    -0.283 OA 
BRANCH   8   9
HETATM    9  C   UNL     1      -6.463  19.901  67.260  1.00  0.00    -0.198 C  
HETATM   10  C   UNL     1      -6.378  19.747  65.745  1.00  0.00    -0.209 C  
HETATM   11  F   UNL     1      -5.841  18.547  65.406  1.00  0.00    -0.192 F  
HETATM   12  F   UNL     1      -5.567  20.699  65.215  1.00  0.00    -0.198 F  
HETATM   13  F   UNL     1      -7.572  19.847  65.120  1.00  0.00    -0.237 F  
ENDBRANCH   8   9
ENDBRANCH   3   8
BRANCH   7  14
HETATM   14  C   UNL     1     -11.167  16.126  68.083  1.00  0.00    -0.311 C  
BRANCH  14  15
HETATM   15  S   UNL     1     -10.881  14.525  67.303  1.00  0.00    -0.304 S  
HETATM   16  O   UNL     1      -9.432  14.288  66.985  1.00  0.00    -0.234 OA 
BRANCH  15  17
HETATM   17  C   UNL     1     -11.258  13.452  68.616  1.00  0.00    -0.269 A  
HETATM   18  N   UNL     1     -11.942  13.765  69.697  1.00  0.00    -0.324 NA 
HETATM   19  C   UNL     1     -12.197  12.565  70.323  1.00  0.00    -0.267 A  
HETATM   20  H   UNL     1     -12.223  14.696  70.004  1.00  0.00     0.000 HD 
HETATM   21  C   UNL     1     -12.943  12.295  71.480  1.00  0.00    -0.390 A  
HETATM   22  C   UNL     1     -13.144  10.961  71.858  1.00  0.00    -0.537 A  
HETATM   23  C   UNL     1     -12.598   9.916  71.107  1.00  0.00    -0.464 A  
HETATM   24  C   UNL     1     -11.816  10.166  69.974  1.00  0.00    -0.253 A  
HETATM   25  C   UNL     1     -11.634  11.505  69.618  1.00  0.00    -0.333 A  
HETATM   26  N   UNL     1     -10.963  12.112  68.586  1.00  0.00    -0.233 NA 
ENDBRANCH  15  17
ENDBRANCH  14  15
ENDBRANCH   7  14
TORSDOF 5
ENDMDL
MODEL      118
REMARK 921   NORMALIZED FREE ENERGY PREDICTED BY IDOCK:   -5.40 KCAL/MOL
REMARK 922        TOTAL FREE ENERGY PREDICTED BY IDOCK:   -7.75 KCAL/MOL
REMARK 923 INTER-LIGAND FREE ENERGY PREDICTED BY IDOCK:   -6.89 KCAL/MOL
REMARK 924 INTRA-LIGAND FREE ENERGY PREDICTED BY IDOCK:   -0.85 KCAL/MOL
REMARK 927      BINDING AFFINITY PREDICTED BY RF-SCORE:    0.00 PKD
ROOT
HETATM    1  C   UNL     1     -12.015  13.653  69.275  1.00  0.00    -0.384 C  
HETATM    2  C   UNL     1     -12.129  12.433  70.140  1.00  0.00    -0.366 A  
HETATM    3  C   UNL     1     -12.977  12.388  71.262  1.00  0.00    -0.203 A  
HETATM    4  C   UNL     1     -13.199  11.177  71.916  1.00  0.00    -0.488 A  
HETATM    5  N   UNL     1     -11.602  10.088  70.491  1.00  0.00    -0.301 NA 
HETATM    6  C   UNL     1     -12.514  10.060  71.483  1.00  0.00    -0.419 A  
HETATM    7  C   UNL     1     -11.395  11.265  69.836  1.00  0.00    -0.249 A  
ENDROOT
BRANCH   3   8
HETATM    8  O   UNL     1     -13.704  13.431  71.784  1.00  0.00    -0.362 OA 
BRANCH   8   9
HETATM    9  C   UNL     1     -13.125  14.124  72.900  1.00  0.00    -0.444 C  
HETATM   10  C   UNL     1     -12.847  15.598  72.618  1.00  0.00    -0.445 C  
HETATM   11  F   UNL     1     -11.512  15.838  72.553  1.00  0.00    -0.489 F  
HETATM   12  F   UNL     1     -13.333  16.374  73.619  1.00  0.00    -0.596 F  
HETATM   13  F   UNL     1     -13.395  16.043  71.466  1.00  0.00    -0.507 F  
ENDBRANCH   8   9
ENDBRANCH   3   8
BRANCH   7  14
HETATM   14  C   UNL     1     -10.292  11.218  68.795  1.00  0.00    -0.205 C  
BRANCH  14  15
HETATM   15  S   UNL     1     -10.634  10.020  67.492  1.00  0.00    -0.285 S  
HETATM   16  O   UNL     1     -10.200  10.501  66.136  1.00  0.00    -0.235 OA 
BRANCH  15  17
HETATM   17  C   UNL     1      -9.527   8.751  67.918  1.00  0.00    -0.142 A  
HETATM   18  N   UNL     1      -8.215   8.853  67.958  1.00  0.00    -0.110 NA 
HETATM   19  C   UNL     1      -7.782   7.698  68.572  1.00  0.00    -0.119 A  
HETATM   20  H   UNL     1      -7.642   9.621  67.610  1.00  0.00     0.000 HD 
HETATM   21  C   UNL     1      -6.485   7.304  68.935  1.00  0.00    -0.040 A  
HETATM   22  C   UNL     1      -6.317   6.113  69.653  1.00  0.00    -0.034 A  
HETATM   23  C   UNL     1      -7.418   5.321  69.990  1.00  0.00    -0.064 A  
HETATM   24  C   UNL     1      -8.715   5.675  69.601  1.00  0.00    -0.110 A  
HETATM   25  C   UNL     1      -8.854   6.869  68.889  1.00  0.00    -0.129 A  
HETATM   26  N   UNL     1      -9.944   7.526  68.374  1.00  0.00    -0.165 NA 
ENDBRANCH  15  17
ENDBRANCH  14  15
ENDBRANCH   7  14
TORSDOF 5
ENDMDL
MODEL      119
REMARK 921   NORMALIZED FREE ENERGY PREDICTED BY IDOCK:   -5.39 KCAL/MOL
REMARK 922        TOTAL FREE ENERGY PREDICTED BY IDOCK:   -7.73 KCAL/MOL
REMARK 923 INTER-LIGAND FREE ENERGY PREDICTED BY IDOCK:   -6.80 KCAL/MOL
REMARK 924 INTRA-LIGAND FREE ENERGY PREDICTED BY IDOCK:   -0.94 KCAL/MOL
REMARK 927      BINDING AFFINITY PREDICTED BY RF-SCORE:    0.00 PKD
ROOT
HETATM    1  C   UNL     1      -8.241   9.613  70.296  1.00  0.00    -0.217 C  
HETATM    2  C   UNL     1      -8.860   9.013  69.068  1.00  0.00    -0.136 A  
HETATM    3  C   UNL     1      -9.839   8.005  69.141  1.00  0.00    -0.178 A  
HETATM    4  C   UNL     1     -10.524   7.619  67.991  1.00  0.00    -0.247 A  
HETATM    5  N   UNL     1      -9.152   9.069  66.658  1.00  0.00    -0.153 NA 
HETATM    6  C   UNL     1     -10.166   8.191  66.787  1.00  0.00    -0.302 A  
HETATM    7  C   UNL     1      -8.491   9.465  67.782  1.00  0.00    -0.116 A  
ENDROOT
BRANCH   3   8
HETATM    8  O   UNL     1     -10.274   7.363  70.276  1.00  0.00    -0.196 OA 
BRANCH   8   9
HETATM    9  C   UNL     1     -11.561   7.751  70.780  1.00  0.00    -0.255 C  
HETATM   10  C   UNL     1     -11.490   8.493  72.112  1.00  0.00    -0.376 C  
HETATM   11  F   UNL     1     -11.997   7.736  73.119  1.00  0.00    -0.254 F  
HETATM   12  F   UNL     1     -12.234   9.627  72.066  1.00  0.00    -0.429 F  
HETATM   13  F   UNL     1     -10.237   8.852  72.468  1.00  0.00    -0.357 F  
ENDBRANCH   8   9
ENDBRANCH   3   8
BRANCH   7  14
HETATM   14  C   UNL     1      -7.313  10.387  67.526  1.00  0.00    -0.092 C  
BRANCH  14  15
HETATM   15  S   UNL     1      -7.738  12.121  67.777  1.00  0.00    -0.153 S  
HETATM   16  O   UNL     1      -6.614  13.050  67.415  1.00  0.00    -0.164 OA 
BRANCH  15  17
HETATM   17  C   UNL     1      -8.945  12.341  66.547  1.00  0.00    -0.161 A  
HETATM   18  N   UNL     1      -8.914  11.827  65.335  1.00  0.00    -0.414 NA 
HETATM   19  C   UNL     1     -10.167  12.060  64.813  1.00  0.00    -0.279 A  
HETATM   20  H   UNL     1      -8.131  11.358  64.881  1.00  0.00     0.000 HD 
HETATM   21  C   UNL     1     -10.715  11.671  63.580  1.00  0.00    -0.500 A  
HETATM   22  C   UNL     1     -12.065  11.943  63.325  1.00  0.00    -0.466 A  
HETATM   23  C   UNL     1     -12.852  12.604  64.272  1.00  0.00    -0.306 A  
HETATM   24  C   UNL     1     -12.314  13.038  65.490  1.00  0.00    -0.527 A  
HETATM   25  C   UNL     1     -10.967  12.750  65.720  1.00  0.00    -0.277 A  
HETATM   26  N   UNL     1     -10.128  12.997  66.778  1.00  0.00    -0.242 NA 
ENDBRANCH  15  17
ENDBRANCH  14  15
ENDBRANCH   7  14
TORSDOF 5
ENDMDL
MODEL      120
REMARK 921   NORMALIZED FREE ENERGY PREDICTED BY IDOCK:   -5.38 KCAL/MOL
REMARK 922        TOTAL FREE ENERGY PREDICTED BY IDOCK:   -7.72 KCAL/MOL
REMARK 923 INTER-LIGAND FREE ENERGY PREDICTED BY IDOCK:   -7.12 KCAL/MOL
REMARK 924 INTRA-LIGAND FREE ENERGY PREDICTED BY IDOCK:   -0.60 KCAL/MOL
REMARK 927      BINDING AFFINITY PREDICTED BY RF-SCORE:    0.00 PKD
ROOT
HETATM    1  C   UNL     1     -10.336  10.803  63.954  1.00  0.00    -0.329 C  
HETATM    2  C   UNL     1     -10.181  10.877  65.444  1.00  0.00    -0.339 A  
HETATM    3  C   UNL     1      -9.305  10.029  66.147  1.00  0.00    -0.173 A  
HETATM    4  C   UNL     1      -9.046  10.264  67.496  1.00  0.00    -0.146 A  
HETATM    5  N   UNL     1     -10.659  12.043  67.520  1.00  0.00    -0.217 NA 
HETATM    6  C   UNL     1      -9.723  11.288  68.128  1.00  0.00    -0.185 A  
HETATM    7  C   UNL     1     -10.901  11.830  66.196  1.00  0.00    -0.291 A  
ENDROOT
BRANCH   3   8
HETATM    8  O   UNL     1      -8.582   8.981  65.628  1.00  0.00    -0.146 OA 
BRANCH   8   9
HETATM    9  C   UNL     1      -8.323   7.879  66.511  1.00  0.00    -0.127 C  
HETATM   10  C   UNL     1      -8.436   6.519  65.828  1.00  0.00    -0.148 C  
HETATM   11  F   UNL     1      -9.522   5.837  66.276  1.00  0.00    -0.153 F  
HETATM   12  F   UNL     1      -7.352   5.752  66.110  1.00  0.00    -0.071 F  
HETATM   13  F   UNL     1      -8.534   6.593  64.482  1.00  0.00    -0.104 F  
ENDBRANCH   8   9
ENDBRANCH   3   8
BRANCH   7  14
HETATM   14  C   UNL     1     -12.029  12.668  65.622  1.00  0.00    -0.452 C  
BRANCH  14  15
HETATM   15  S   UNL     1     -11.427  13.946  64.502  1.00  0.00    -0.369 S  
HETATM   16  O   UNL     1     -12.488  14.433  63.557  1.00  0.00    -0.770 OA 
BRANCH  15  17
HETATM   17  C   UNL     1     -11.153  15.251  65.616  1.00  0.00    -0.308 A  
HETATM   18  N   UNL     1     -11.356  15.211  66.916  1.00  0.00    -0.307 NA 
HETATM   19  C   UNL     1     -10.780  16.363  67.407  1.00  0.00    -0.278 A  
HETATM   20  H   UNL     1     -11.836  14.484  67.446  1.00  0.00     0.000 HD 
HETATM   21  C   UNL     1     -10.642  16.806  68.731  1.00  0.00    -0.348 A  
HETATM   22  C   UNL     1      -9.914  17.976  68.979  1.00  0.00    -0.292 A  
HETATM   23  C   UNL     1      -9.348  18.702  67.927  1.00  0.00    -0.323 A  
HETATM   24  C   UNL     1      -9.511  18.300  66.596  1.00  0.00    -0.308 A  
HETATM   25  C   UNL     1     -10.238  17.127  66.378  1.00  0.00    -0.328 A  
HETATM   26  N   UNL     1     -10.575  16.437  65.240  1.00  0.00    -0.609 NA 
ENDBRANCH  15  17
ENDBRANCH  14  15
ENDBRANCH   7  14
TORSDOF 5
ENDMDL
MODEL      121
REMARK 921   NORMALIZED FREE ENERGY PREDICTED BY IDOCK:   -5.37 KCAL/MOL
REMARK 922        TOTAL FREE ENERGY PREDICTED BY IDOCK:   -7.70 KCAL/MOL
REMARK 923 INTER-LIGAND FREE ENERGY PREDICTED BY IDOCK:   -7.16 KCAL/MOL
REMARK 924 INTRA-LIGAND FREE ENERGY PREDICTED BY IDOCK:   -0.54 KCAL/MOL
REMARK 927      BINDING AFFINITY PREDICTED BY RF-SCORE:    0.00 PKD
ROOT
HETATM    1  C   UNL     1      -8.174  14.821  67.235  1.00  0.00    -0.237 C  
HETATM    2  C   UNL     1      -9.416  14.868  66.394  1.00  0.00    -0.327 A  
HETATM    3  C   UNL     1      -9.932  16.077  65.891  1.00  0.00    -0.352 A  
HETATM    4  C   UNL     1     -10.966  16.054  64.958  1.00  0.00    -0.393 A  
HETATM    5  N   UNL     1     -11.125  13.667  65.155  1.00  0.00    -0.308 NA 
HETATM    6  C   UNL     1     -11.509  14.835  64.605  1.00  0.00    -0.381 A  
HETATM    7  C   UNL     1     -10.101  13.681  66.054  1.00  0.00    -0.312 A  
ENDROOT
BRANCH   3   8
HETATM    8  O   UNL     1      -9.478  17.344  66.171  1.00  0.00    -0.409 OA 
BRANCH   8   9
HETATM    9  C   UNL     1     -10.027  17.982  67.335  1.00  0.00    -0.326 C  
HETATM   10  C   UNL     1      -9.445  19.368  67.594  1.00  0.00    -0.313 C  
HETATM   11  F   UNL     1      -8.666  19.369  68.706  1.00  0.00    -0.376 F  
HETATM   12  F   UNL     1     -10.438  20.268  67.815  1.00  0.00    -0.505 F  
HETATM   13  F   UNL     1      -8.696  19.843  66.575  1.00  0.00    -0.320 F  
ENDBRANCH   8   9
ENDBRANCH   3   8
BRANCH   7  14
HETATM   14  C   UNL     1      -9.796  12.333  66.681  1.00  0.00    -0.220 C  
BRANCH  14  15
HETATM   15  S   UNL     1     -10.774  12.036  68.167  1.00  0.00    -0.227 S  
HETATM   16  O   UNL     1     -12.124  11.451  67.863  1.00  0.00    -0.646 OA 
BRANCH  15  17
HETATM   17  C   UNL     1      -9.861  10.756  68.907  1.00  0.00    -0.199 A  
HETATM   18  N   UNL     1      -8.629  10.408  68.597  1.00  0.00    -0.126 NA 
HETATM   19  C   UNL     1      -8.242   9.533  69.588  1.00  0.00    -0.141 A  
HETATM   20  H   UNL     1      -8.081  10.719  67.795  1.00  0.00     0.000 HD 
HETATM   21  C   UNL     1      -7.006   8.903  69.798  1.00  0.00    -0.050 A  
HETATM   22  C   UNL     1      -6.829   8.131  70.953  1.00  0.00    -0.042 A  
HETATM   23  C   UNL     1      -7.868   7.977  71.875  1.00  0.00    -0.127 A  
HETATM   24  C   UNL     1      -9.122   8.563  71.663  1.00  0.00    -0.296 A  
HETATM   25  C   UNL     1      -9.269   9.330  70.504  1.00  0.00    -0.261 A  
HETATM   26  N   UNL     1     -10.319  10.050  69.990  1.00  0.00    -0.267 NA 
ENDBRANCH  15  17
ENDBRANCH  14  15
ENDBRANCH   7  14
TORSDOF 5
ENDMDL
MODEL      122
REMARK 921   NORMALIZED FREE ENERGY PREDICTED BY IDOCK:   -5.36 KCAL/MOL
REMARK 922        TOTAL FREE ENERGY PREDICTED BY IDOCK:   -7.70 KCAL/MOL
REMARK 923 INTER-LIGAND FREE ENERGY PREDICTED BY IDOCK:   -6.84 KCAL/MOL
REMARK 924 INTRA-LIGAND FREE ENERGY PREDICTED BY IDOCK:   -0.85 KCAL/MOL
REMARK 927      BINDING AFFINITY PREDICTED BY RF-SCORE:    0.00 PKD
ROOT
HETATM    1  C   UNL     1     -10.598  10.892  65.884  1.00  0.00    -0.244 C  
HETATM    2  C   UNL     1      -9.324  11.418  66.476  1.00  0.00    -0.204 A  
HETATM    3  C   UNL     1      -8.146  10.649  66.520  1.00  0.00    -0.140 A  
HETATM    4  C   UNL     1      -6.943  11.243  66.895  1.00  0.00    -0.137 A  
HETATM    5  N   UNL     1      -8.082  13.300  67.378  1.00  0.00    -0.178 NA 
HETATM    6  C   UNL     1      -6.956  12.565  67.289  1.00  0.00    -0.112 A  
HETATM    7  C   UNL     1      -9.259  12.730  66.994  1.00  0.00    -0.221 A  
ENDROOT
BRANCH   3   8
HETATM    8  O   UNL     1      -8.013   9.330  66.156  1.00  0.00    -0.105 OA 
BRANCH   8   9
HETATM    9  C   UNL     1      -7.541   8.428  67.169  1.00  0.00    -0.093 C  
HETATM   10  C   UNL     1      -8.658   7.629  67.836  1.00  0.00    -0.122 C  
HETATM   11  F   UNL     1      -8.836   8.022  69.123  1.00  0.00    -0.139 F  
HETATM   12  F   UNL     1      -8.344   6.309  67.871  1.00  0.00    -0.114 F  
HETATM   13  F   UNL     1      -9.851   7.739  67.211  1.00  0.00    -0.176 F  
ENDBRANCH   8   9
ENDBRANCH   3   8
BRANCH   7  14
HETATM   14  C   UNL     1     -10.480  13.605  67.209  1.00  0.00    -0.260 C  
BRANCH  14  15
HETATM   15  S   UNL     1     -10.065  15.175  67.992  1.00  0.00    -0.224 S  
HETATM   16  O   UNL     1     -10.633  16.355  67.257  1.00  0.00    -0.314 OA 
BRANCH  15  17
HETATM   17  C   UNL     1     -10.976  15.055  69.466  1.00  0.00    -0.269 A  
HETATM   18  N   UNL     1     -10.499  15.212  70.683  1.00  0.00    -0.511 NA 
HETATM   19  C   UNL     1     -11.607  15.271  71.500  1.00  0.00    -0.396 A  
HETATM   20  H   UNL     1      -9.520  15.276  70.961  1.00  0.00     0.000 HD 
HETATM   21  C   UNL     1     -11.694  15.495  72.883  1.00  0.00    -0.521 A  
HETATM   22  C   UNL     1     -12.961  15.617  73.469  1.00  0.00    -0.679 A  
HETATM   23  C   UNL     1     -14.119  15.502  72.695  1.00  0.00    -0.536 A  
HETATM   24  C   UNL     1     -14.054  15.237  71.322  1.00  0.00    -0.527 A  
HETATM   25  C   UNL     1     -12.779  15.124  70.763  1.00  0.00    -0.405 A  
HETATM   26  N   UNL     1     -12.339  14.893  69.484  1.00  0.00    -0.217 NA 
ENDBRANCH  15  17
ENDBRANCH  14  15
ENDBRANCH   7  14
TORSDOF 5
ENDMDL
MODEL      123
REMARK 921   NORMALIZED FREE ENERGY PREDICTED BY IDOCK:   -5.36 KCAL/MOL
REMARK 922        TOTAL FREE ENERGY PREDICTED BY IDOCK:   -7.69 KCAL/MOL
REMARK 923 INTER-LIGAND FREE ENERGY PREDICTED BY IDOCK:   -6.83 KCAL/MOL
REMARK 924 INTRA-LIGAND FREE ENERGY PREDICTED BY IDOCK:   -0.86 KCAL/MOL
REMARK 927      BINDING AFFINITY PREDICTED BY RF-SCORE:    0.00 PKD
ROOT
HETATM    1  C   UNL     1      -9.379  11.373  68.645  1.00  0.00    -0.155 C  
HETATM    2  C   UNL     1      -9.354  10.793  67.262  1.00  0.00    -0.165 A  
HETATM    3  C   UNL     1     -10.401  11.001  66.345  1.00  0.00    -0.250 A  
HETATM    4  C   UNL     1     -10.246  10.613  65.016  1.00  0.00    -0.380 A  
HETATM    5  N   UNL     1      -8.113   9.634  65.525  1.00  0.00    -0.118 NA 
HETATM    6  C   UNL     1      -9.086   9.960  64.651  1.00  0.00    -0.242 A  
HETATM    7  C   UNL     1      -8.251  10.029  66.822  1.00  0.00    -0.121 A  
ENDROOT
BRANCH   3   8
HETATM    8  O   UNL     1     -11.597  11.632  66.593  1.00  0.00    -0.493 OA 
BRANCH   8   9
HETATM    9  C   UNL     1     -11.646  13.043  66.332  1.00  0.00    -0.363 C  
HETATM   10  C   UNL     1     -12.530  13.407  65.143  1.00  0.00    -0.459 C  
HETATM   11  F   UNL     1     -11.784  13.854  64.100  1.00  0.00    -0.393 F  
HETATM   12  F   UNL     1     -13.381  14.413  65.472  1.00  0.00    -0.470 F  
HETATM   13  F   UNL     1     -13.283  12.380  64.690  1.00  0.00    -0.503 F  
ENDBRANCH   8   9
ENDBRANCH   3   8
BRANCH   7  14
HETATM   14  C   UNL     1      -7.149   9.543  67.746  1.00  0.00    -0.081 C  
BRANCH  14  15
HETATM   15  S   UNL     1      -7.230   7.764  68.027  1.00  0.00    -0.089 S  
HETATM   16  O   UNL     1      -5.988   7.225  68.678  1.00  0.00    -0.025 OA 
BRANCH  15  17
HETATM   17  C   UNL     1      -8.471   7.682  69.239  1.00  0.00    -0.138 A  
HETATM   18  N   UNL     1      -8.704   8.587  70.168  1.00  0.00    -0.133 NA 
HETATM   19  C   UNL     1      -9.908   8.224  70.730  1.00  0.00    -0.179 A  
HETATM   20  H   UNL     1      -8.119   9.384  70.417  1.00  0.00     0.000 HD 
HETATM   21  C   UNL     1     -10.669   8.867  71.719  1.00  0.00    -0.432 A  
HETATM   22  C   UNL     1     -11.927   8.347  72.048  1.00  0.00    -0.419 A  
HETATM   23  C   UNL     1     -12.413   7.199  71.415  1.00  0.00    -0.427 A  
HETATM   24  C   UNL     1     -11.653   6.520  70.456  1.00  0.00    -0.455 A  
HETATM   25  C   UNL     1     -10.403   7.062  70.144  1.00  0.00    -0.197 A  
HETATM   26  N   UNL     1      -9.418   6.690  69.264  1.00  0.00    -0.142 NA 
ENDBRANCH  15  17
ENDBRANCH  14  15
ENDBRANCH   7  14
TORSDOF 5
ENDMDL
MODEL      124
REMARK 921   NORMALIZED FREE ENERGY PREDICTED BY IDOCK:   -5.35 KCAL/MOL
REMARK 922        TOTAL FREE ENERGY PREDICTED BY IDOCK:   -7.68 KCAL/MOL
REMARK 923 INTER-LIGAND FREE ENERGY PREDICTED BY IDOCK:   -7.09 KCAL/MOL
REMARK 924 INTRA-LIGAND FREE ENERGY PREDICTED BY IDOCK:   -0.59 KCAL/MOL
REMARK 927      BINDING AFFINITY PREDICTED BY RF-SCORE:    0.00 PKD
ROOT
HETATM    1  C   UNL     1     -10.187   9.823  65.956  1.00  0.00    -0.263 C  
HETATM    2  C   UNL     1     -10.611   9.452  67.346  1.00  0.00    -0.326 A  
HETATM    3  C   UNL     1     -10.384   8.170  67.880  1.00  0.00    -0.220 A  
HETATM    4  C   UNL     1     -10.614   7.931  69.233  1.00  0.00    -0.195 A  
HETATM    5  N   UNL     1     -11.481  10.154  69.503  1.00  0.00    -0.205 NA 
HETATM    6  C   UNL     1     -11.136   8.951  70.003  1.00  0.00    -0.170 A  
HETATM    7  C   UNL     1     -11.239  10.400  68.184  1.00  0.00    -0.268 A  
ENDROOT
BRANCH   3   8
HETATM    8  O   UNL     1      -9.874   7.081  67.213  1.00  0.00    -0.147 OA 
BRANCH   8   9
HETATM    9  C   UNL     1     -10.396   5.797  67.586  1.00  0.00    -0.217 C  
HETATM   10  C   UNL     1      -9.386   4.664  67.422  1.00  0.00    -0.143 C  
HETATM   11  F   UNL     1      -9.742   3.839  66.404  1.00  0.00    -0.194 F  
HETATM   12  F   UNL     1      -9.340   3.901  68.543  1.00  0.00    -0.163 F  
HETATM   13  F   UNL     1      -8.127   5.089  67.176  1.00  0.00    -0.104 F  
ENDBRANCH   8   9
ENDBRANCH   3   8
BRANCH   7  14
HETATM   14  C   UNL     1     -11.739  11.747  67.695  1.00  0.00    -0.250 C  
BRANCH  14  15
HETATM   15  S   UNL     1     -10.567  13.074  68.038  1.00  0.00    -0.241 S  
HETATM   16  O   UNL     1     -10.687  14.215  67.069  1.00  0.00    -0.281 OA 
BRANCH  15  17
HETATM   17  C   UNL     1     -11.185  13.670  69.548  1.00  0.00    -0.146 A  
HETATM   18  N   UNL     1     -10.635  14.609  70.290  1.00  0.00    -0.463 NA 
HETATM   19  C   UNL     1     -11.582  14.917  71.241  1.00  0.00    -0.308 A  
HETATM   20  H   UNL     1      -9.708  15.019  70.183  1.00  0.00     0.000 HD 
HETATM   21  C   UNL     1     -11.559  15.893  72.250  1.00  0.00    -0.501 A  
HETATM   22  C   UNL     1     -12.705  16.082  73.033  1.00  0.00    -0.593 A  
HETATM   23  C   UNL     1     -13.847  15.303  72.827  1.00  0.00    -0.541 A  
HETATM   24  C   UNL     1     -13.876  14.296  71.855  1.00  0.00    -0.545 A  
HETATM   25  C   UNL     1     -12.721  14.132  71.086  1.00  0.00    -0.361 A  
HETATM   26  N   UNL     1     -12.399  13.282  70.057  1.00  0.00    -0.248 NA 
ENDBRANCH  15  17
ENDBRANCH  14  15
ENDBRANCH   7  14
TORSDOF 5
ENDMDL
MODEL      125
REMARK 921   NORMALIZED FREE ENERGY PREDICTED BY IDOCK:   -5.32 KCAL/MOL
REMARK 922        TOTAL FREE ENERGY PREDICTED BY IDOCK:   -7.64 KCAL/MOL
REMARK 923 INTER-LIGAND FREE ENERGY PREDICTED BY IDOCK:   -7.01 KCAL/MOL
REMARK 924 INTRA-LIGAND FREE ENERGY PREDICTED BY IDOCK:   -0.63 KCAL/MOL
REMARK 927      BINDING AFFINITY PREDICTED BY RF-SCORE:    0.00 PKD
ROOT
HETATM    1  C   UNL     1     -12.616  10.883  70.234  1.00  0.00    -0.342 C  
HETATM    2  C   UNL     1     -11.354  10.664  69.453  1.00  0.00    -0.348 A  
HETATM    3  C   UNL     1     -11.215  11.100  68.122  1.00  0.00    -0.292 A  
HETATM    4  C   UNL     1      -9.967  11.053  67.504  1.00  0.00    -0.199 A  
HETATM    5  N   UNL     1      -9.029   9.966  69.428  1.00  0.00    -0.181 NA 
HETATM    6  C   UNL     1      -8.908  10.505  68.199  1.00  0.00    -0.134 A  
HETATM    7  C   UNL     1     -10.242  10.027  70.045  1.00  0.00    -0.255 A  
ENDROOT
BRANCH   3   8
HETATM    8  O   UNL     1     -12.193  11.657  67.333  1.00  0.00    -0.458 OA 
BRANCH   8   9
HETATM    9  C   UNL     1     -12.002  13.025  66.942  1.00  0.00    -0.352 C  
HETATM   10  C   UNL     1     -12.496  13.325  65.530  1.00  0.00    -0.474 C  
HETATM   11  F   UNL     1     -11.457  13.575  64.693  1.00  0.00    -0.318 F  
HETATM   12  F   UNL     1     -13.276  14.436  65.523  1.00  0.00    -0.491 F  
HETATM   13  F   UNL     1     -13.223  12.324  64.984  1.00  0.00    -0.314 F  
ENDBRANCH   8   9
ENDBRANCH   3   8
BRANCH   7  14
HETATM   14  C   UNL     1     -10.301   9.320  71.386  1.00  0.00    -0.321 C  
BRANCH  14  15
HETATM   15  S   UNL     1      -8.809   8.365  71.720  1.00  0.00    -0.213 S  
HETATM   16  O   UNL     1      -8.196   8.698  73.051  1.00  0.00    -0.402 OA 
BRANCH  15  17
HETATM   17  C   UNL     1      -9.475   6.770  71.894  1.00  0.00    -0.145 A  
HETATM   18  N   UNL     1      -8.988   5.669  71.361  1.00  0.00    -0.139 NA 
HETATM   19  C   UNL     1      -9.684   4.641  71.959  1.00  0.00    -0.168 A  
HETATM   20  H   UNL     1      -8.255   5.593  70.657  1.00  0.00     0.000 HD 
HETATM   21  C   UNL     1      -9.535   3.253  71.819  1.00  0.00    -0.215 A  
HETATM   22  C   UNL     1     -10.304   2.406  72.627  1.00  0.00    -0.234 A  
HETATM   23  C   UNL     1     -11.216   2.931  73.547  1.00  0.00    -0.301 A  
HETATM   24  C   UNL     1     -11.410   4.311  73.672  1.00  0.00    -0.278 A  
HETATM   25  C   UNL     1     -10.628   5.133  72.856  1.00  0.00    -0.232 A  
HETATM   26  N   UNL     1     -10.534   6.495  72.722  1.00  0.00    -0.205 NA 
ENDBRANCH  15  17
ENDBRANCH  14  15
ENDBRANCH   7  14
TORSDOF 5
ENDMDL
MODEL      126
REMARK 921   NORMALIZED FREE ENERGY PREDICTED BY IDOCK:   -5.31 KCAL/MOL
REMARK 922        TOTAL FREE ENERGY PREDICTED BY IDOCK:   -7.64 KCAL/MOL
REMARK 923 INTER-LIGAND FREE ENERGY PREDICTED BY IDOCK:   -7.07 KCAL/MOL
REMARK 924 INTRA-LIGAND FREE ENERGY PREDICTED BY IDOCK:   -0.57 KCAL/MOL
REMARK 927      BINDING AFFINITY PREDICTED BY RF-SCORE:    0.00 PKD
ROOT
HETATM    1  C   UNL     1     -11.986  15.939  69.157  1.00  0.00    -0.268 C  
HETATM    2  C   UNL     1     -10.589  15.619  68.714  1.00  0.00    -0.238 A  
HETATM    3  C   UNL     1      -9.588  16.604  68.628  1.00  0.00    -0.248 A  
HETATM    4  C   UNL     1      -8.265  16.230  68.405  1.00  0.00    -0.185 A  
HETATM    5  N   UNL     1      -8.930  13.937  68.150  1.00  0.00    -0.180 NA 
HETATM    6  C   UNL     1      -7.983  14.895  68.197  1.00  0.00    -0.130 A  
HETATM    7  C   UNL     1     -10.224  14.295  68.387  1.00  0.00    -0.245 A  
ENDROOT
BRANCH   3   8
HETATM    8  O   UNL     1      -9.749  17.957  68.812  1.00  0.00    -0.329 OA 
BRANCH   8   9
HETATM    9  C   UNL     1      -9.032  18.818  67.913  1.00  0.00    -0.295 C  
HETATM   10  C   UNL     1      -9.945  19.628  66.997  1.00  0.00    -0.392 C  
HETATM   11  F   UNL     1      -9.842  19.207  65.711  1.00  0.00    -0.348 F  
HETATM   12  F   UNL     1      -9.588  20.938  67.007  1.00  0.00    -0.550 F  
HETATM   13  F   UNL     1     -11.251  19.568  67.339  1.00  0.00    -0.578 F  
ENDBRANCH   8   9
ENDBRANCH   3   8
BRANCH   7  14
HETATM   14  C   UNL     1     -11.226  13.166  68.228  1.00  0.00    -0.274 C  
BRANCH  14  15
HETATM   15  S   UNL     1     -11.318  12.570  66.529  1.00  0.00    -0.355 S  
HETATM   16  O   UNL     1     -10.375  13.294  65.611  1.00  0.00    -0.278 OA 
BRANCH  15  17
HETATM   17  C   UNL     1     -10.665  10.971  66.710  1.00  0.00    -0.266 A  
HETATM   18  N   UNL     1     -11.200   9.994  67.412  1.00  0.00    -0.384 NA 
HETATM   19  C   UNL     1     -10.483   8.869  67.070  1.00  0.00    -0.256 A  
HETATM   20  H   UNL     1     -11.978  10.057  68.068  1.00  0.00     0.000 HD 
HETATM   21  C   UNL     1     -10.660   7.534  67.465  1.00  0.00    -0.331 A  
HETATM   22  C   UNL     1      -9.854   6.545  66.887  1.00  0.00    -0.211 A  
HETATM   23  C   UNL     1      -8.878   6.881  65.945  1.00  0.00    -0.125 A  
HETATM   24  C   UNL     1      -8.656   8.211  65.569  1.00  0.00    -0.173 A  
HETATM   25  C   UNL     1      -9.477   9.176  66.158  1.00  0.00    -0.245 A  
HETATM   26  N   UNL     1      -9.559  10.539  66.022  1.00  0.00    -0.184 NA 
ENDBRANCH  15  17
ENDBRANCH  14  15
ENDBRANCH   7  14
TORSDOF 5
ENDMDL
MODEL      127
REMARK 921   NORMALIZED FREE ENERGY PREDICTED BY IDOCK:   -5.31 KCAL/MOL
REMARK 922        TOTAL FREE ENERGY PREDICTED BY IDOCK:   -7.63 KCAL/MOL
REMARK 923 INTER-LIGAND FREE ENERGY PREDICTED BY IDOCK:   -6.99 KCAL/MOL
REMARK 924 INTRA-LIGAND FREE ENERGY PREDICTED BY IDOCK:   -0.64 KCAL/MOL
REMARK 927      BINDING AFFINITY PREDICTED BY RF-SCORE:    0.00 PKD
ROOT
HETATM    1  C   UNL     1     -11.491  14.503  66.363  1.00  0.00    -0.362 C  
HETATM    2  C   UNL     1     -11.033  15.354  67.510  1.00  0.00    -0.315 A  
HETATM    3  C   UNL     1      -9.992  16.291  67.376  1.00  0.00    -0.249 A  
HETATM    4  C   UNL     1      -9.734  17.194  68.406  1.00  0.00    -0.284 A  
HETATM    5  N   UNL     1     -11.388  16.131  69.784  1.00  0.00    -0.335 NA 
HETATM    6  C   UNL     1     -10.467  17.092  69.570  1.00  0.00    -0.182 A  
HETATM    7  C   UNL     1     -11.658  15.258  68.773  1.00  0.00    -0.362 A  
ENDROOT
BRANCH   3   8
HETATM    8  O   UNL     1      -9.196  16.482  66.272  1.00  0.00    -0.271 OA 
BRANCH   8   9
HETATM    9  C   UNL     1      -7.791  16.650  66.513  1.00  0.00    -0.307 C  
HETATM   10  C   UNL     1      -7.282  18.047  66.172  1.00  0.00    -0.290 C  
HETATM   11  F   UNL     1      -6.475  18.019  65.081  1.00  0.00    -0.251 F  
HETATM   12  F   UNL     1      -6.539  18.546  67.192  1.00  0.00    -0.186 F  
HETATM   13  F   UNL     1      -8.267  18.939  65.923  1.00  0.00    -0.286 F  
ENDBRANCH   8   9
ENDBRANCH   3   8
BRANCH   7  14
HETATM   14  C   UNL     1     -12.645  14.163  69.136  1.00  0.00     0.254 C  
BRANCH  14  15
HETATM   15  S   UNL     1     -12.944  14.076  70.911  1.00  0.00    -0.232 S  
HETATM   16  O   UNL     1     -14.392  14.268  71.264  1.00  0.00    -0.262 OA 
BRANCH  15  17
HETATM   17  C   UNL     1     -12.602  12.401  71.217  1.00  0.00    -0.230 A  
HETATM   18  N   UNL     1     -13.247  11.623  72.062  1.00  0.00    -0.495 NA 
HETATM   19  C   UNL     1     -12.800  10.349  71.793  1.00  0.00    -0.456 A  
HETATM   20  H   UNL     1     -13.929  11.905  72.765  1.00  0.00     0.000 HD 
HETATM   21  C   UNL     1     -13.195   9.121  72.345  1.00  0.00    -0.512 A  
HETATM   22  C   UNL     1     -12.658   7.939  71.820  1.00  0.00    -0.353 A  
HETATM   23  C   UNL     1     -11.732   7.979  70.774  1.00  0.00    -0.215 A  
HETATM   24  C   UNL     1     -11.292   9.194  70.237  1.00  0.00    -0.217 A  
HETATM   25  C   UNL     1     -11.847  10.358  70.778  1.00  0.00    -0.368 A  
HETATM   26  N   UNL     1     -11.675  11.690  70.498  1.00  0.00    -0.222 NA 
ENDBRANCH  15  17
ENDBRANCH  14  15
ENDBRANCH   7  14
TORSDOF 5
ENDMDL
MODEL      128
REMARK 921   NORMALIZED FREE ENERGY PREDICTED BY IDOCK:   -5.29 KCAL/MOL
REMARK 922        TOTAL FREE ENERGY PREDICTED BY IDOCK:   -7.61 KCAL/MOL
REMARK 923 INTER-LIGAND FREE ENERGY PREDICTED BY IDOCK:   -6.68 KCAL/MOL
REMARK 924 INTRA-LIGAND FREE ENERGY PREDICTED BY IDOCK:   -0.93 KCAL/MOL
REMARK 927      BINDING AFFINITY PREDICTED BY RF-SCORE:    0.00 PKD
ROOT
HETATM    1  C   UNL     1     -11.005  10.332  66.665  1.00  0.00    -0.030 C  
HETATM    2  C   UNL     1     -10.215  10.435  65.393  1.00  0.00    -0.329 A  
HETATM    3  C   UNL     1      -8.945   9.846  65.253  1.00  0.00    -0.191 A  
HETATM    4  C   UNL     1      -8.338   9.797  64.000  1.00  0.00    -0.169 A  
HETATM    5  N   UNL     1     -10.132  11.083  63.054  1.00  0.00    -0.294 NA 
HETATM    6  C   UNL     1      -8.974  10.403  62.935  1.00  0.00    -0.255 A  
HETATM    7  C   UNL     1     -10.740  11.116  64.273  1.00  0.00    -0.333 A  
ENDROOT
BRANCH   3   8
HETATM    8  O   UNL     1      -8.216   9.220  66.236  1.00  0.00    -0.106 OA 
BRANCH   8   9
HETATM    9  C   UNL     1      -7.728   7.903  65.935  1.00  0.00    -0.093 C  
HETATM   10  C   UNL     1      -8.714   6.796  66.297  1.00  0.00    -0.146 C  
HETATM   11  F   UNL     1      -8.262   6.065  67.349  1.00  0.00    -0.104 F  
HETATM   12  F   UNL     1      -8.864   5.933  65.260  1.00  0.00    -0.157 F  
HETATM   13  F   UNL     1      -9.946   7.249  66.621  1.00  0.00    -0.244 F  
ENDBRANCH   8   9
ENDBRANCH   3   8
BRANCH   7  14
HETATM   14  C   UNL     1     -11.990  11.974  64.328  1.00  0.00    -0.335 C  
BRANCH  14  15
HETATM   15  S   UNL     1     -11.613  13.735  64.244  1.00  0.00    -0.339 S  
HETATM   16  O   UNL     1     -12.656  14.516  63.496  1.00  0.00    -0.746 OA 
BRANCH  15  17
HETATM   17  C   UNL     1     -11.792  14.186  65.912  1.00  0.00    -0.384 A  
HETATM   18  N   UNL     1     -12.320  13.441  66.861  1.00  0.00    -0.279 NA 
HETATM   19  C   UNL     1     -12.031  14.096  68.037  1.00  0.00    -0.337 A  
HETATM   20  H   UNL     1     -12.833  12.567  66.748  1.00  0.00     0.000 HD 
HETATM   21  C   UNL     1     -12.295  13.721  69.364  1.00  0.00    -0.219 A  
HETATM   22  C   UNL     1     -11.799  14.520  70.403  1.00  0.00    -0.378 A  
HETATM   23  C   UNL     1     -11.068  15.679  70.126  1.00  0.00    -0.347 A  
HETATM   24  C   UNL     1     -10.831  16.092  68.810  1.00  0.00    -0.310 A  
HETATM   25  C   UNL     1     -11.333  15.276  67.794  1.00  0.00    -0.326 A  
HETATM   26  N   UNL     1     -11.280  15.352  66.424  1.00  0.00    -0.231 NA 
ENDBRANCH  15  17
ENDBRANCH  14  15
ENDBRANCH   7  14
TORSDOF 5
ENDMDL
MODEL      129
REMARK 921   NORMALIZED FREE ENERGY PREDICTED BY IDOCK:   -5.28 KCAL/MOL
REMARK 922        TOTAL FREE ENERGY PREDICTED BY IDOCK:   -7.59 KCAL/MOL
REMARK 923 INTER-LIGAND FREE ENERGY PREDICTED BY IDOCK:   -7.36 KCAL/MOL
REMARK 924 INTRA-LIGAND FREE ENERGY PREDICTED BY IDOCK:   -0.23 KCAL/MOL
REMARK 927      BINDING AFFINITY PREDICTED BY RF-SCORE:    0.00 PKD
ROOT
HETATM    1  C   UNL     1     -12.312  14.180  66.598  1.00  0.00    -0.375 C  
HETATM    2  C   UNL     1     -10.909  14.236  67.124  1.00  0.00    -0.296 A  
HETATM    3  C   UNL     1     -10.543  15.080  68.189  1.00  0.00    -0.248 A  
HETATM    4  C   UNL     1      -9.283  14.955  68.772  1.00  0.00    -0.193 A  
HETATM    5  N   UNL     1      -8.664  13.308  67.138  1.00  0.00    -0.214 NA 
HETATM    6  C   UNL     1      -8.395  14.047  68.233  1.00  0.00    -0.162 A  
HETATM    7  C   UNL     1      -9.901  13.412  66.576  1.00  0.00    -0.286 A  
ENDROOT
BRANCH   3   8
HETATM    8  O   UNL     1     -11.337  16.019  68.803  1.00  0.00    -0.344 OA 
BRANCH   8   9
HETATM    9  C   UNL     1     -12.513  15.532  69.467  1.00  0.00    -0.048 C  
HETATM   10  C   UNL     1     -12.353  15.427  70.980  1.00  0.00    -0.392 C  
HETATM   11  F   UNL     1     -12.328  14.129  71.379  1.00  0.00    -0.370 F  
HETATM   12  F   UNL     1     -13.405  16.007  71.612  1.00  0.00    -0.508 F  
HETATM   13  F   UNL     1     -11.231  16.016  71.451  1.00  0.00    -0.376 F  
ENDBRANCH   8   9
ENDBRANCH   3   8
BRANCH   7  14
HETATM   14  C   UNL     1     -10.081  12.608  65.302  1.00  0.00    -0.253 C  
BRANCH  14  15
HETATM   15  S   UNL     1     -10.081  10.832  65.611  1.00  0.00    -0.271 S  
HETATM   16  O   UNL     1      -8.700  10.240  65.583  1.00  0.00    -0.150 OA 
BRANCH  15  17
HETATM   17  C   UNL     1     -10.578  10.791  67.275  1.00  0.00    -0.257 A  
HETATM   18  N   UNL     1     -11.764  11.134  67.734  1.00  0.00    -0.602 NA 
HETATM   19  C   UNL     1     -11.777  10.712  69.046  1.00  0.00    -0.234 A  
HETATM   20  H   UNL     1     -12.511  11.609  67.229  1.00  0.00     0.000 HD 
HETATM   21  C   UNL     1     -12.810  10.759  69.995  1.00  0.00    -0.075 A  
HETATM   22  C   UNL     1     -12.607  10.161  71.245  1.00  0.00    -0.508 A  
HETATM   23  C   UNL     1     -11.391   9.542  71.551  1.00  0.00    -0.456 A  
HETATM   24  C   UNL     1     -10.334   9.522  70.634  1.00  0.00    -0.369 A  
HETATM   25  C   UNL     1     -10.566  10.122  69.394  1.00  0.00    -0.237 A  
HETATM   26  N   UNL     1      -9.790  10.273  68.271  1.00  0.00    -0.144 NA 
ENDBRANCH  15  17
ENDBRANCH  14  15
ENDBRANCH   7  14
TORSDOF 5
ENDMDL
MODEL      130
REMARK 921   NORMALIZED FREE ENERGY PREDICTED BY IDOCK:   -5.28 KCAL/MOL
REMARK 922        TOTAL FREE ENERGY PREDICTED BY IDOCK:   -7.59 KCAL/MOL
REMARK 923 INTER-LIGAND FREE ENERGY PREDICTED BY IDOCK:   -7.08 KCAL/MOL
REMARK 924 INTRA-LIGAND FREE ENERGY PREDICTED BY IDOCK:   -0.52 KCAL/MOL
REMARK 927      BINDING AFFINITY PREDICTED BY RF-SCORE:    0.00 PKD
ROOT
HETATM    1  C   UNL     1     -11.969  15.408  69.076  1.00  0.00    -0.313 C  
HETATM    2  C   UNL     1     -11.339  15.060  67.760  1.00  0.00    -0.340 A  
HETATM    3  C   UNL     1     -10.771  16.037  66.922  1.00  0.00    -0.262 A  
HETATM    4  C   UNL     1     -10.026  15.648  65.810  1.00  0.00    -0.390 A  
HETATM    5  N   UNL     1     -10.562  13.345  66.227  1.00  0.00    -0.287 NA 
HETATM    6  C   UNL     1      -9.931  14.303  65.519  1.00  0.00    -0.312 A  
HETATM    7  C   UNL     1     -11.275  13.718  67.326  1.00  0.00    -0.311 A  
ENDROOT
BRANCH   3   8
HETATM    8  O   UNL     1     -10.803  17.398  67.108  1.00  0.00    -0.238 OA 
BRANCH   8   9
HETATM    9  C   UNL     1      -9.702  18.147  66.571  1.00  0.00    -0.344 C  
HETATM   10  C   UNL     1      -8.882  18.865  67.640  1.00  0.00    -0.288 C  
HETATM   11  F   UNL     1      -9.048  20.210  67.560  1.00  0.00    -0.381 F  
HETATM   12  F   UNL     1      -7.557  18.626  67.464  1.00  0.00    -0.222 F  
HETATM   13  F   UNL     1      -9.190  18.493  68.902  1.00  0.00    -0.328 F  
ENDBRANCH   8   9
ENDBRANCH   3   8
BRANCH   7  14
HETATM   14  C   UNL     1     -12.018  12.583  68.007  1.00  0.00    -0.223 C  
BRANCH  14  15
HETATM   15  S   UNL     1     -11.304  12.164  69.609  1.00  0.00    -0.088 S  
HETATM   16  O   UNL     1     -12.317  12.191  70.718  1.00  0.00    -0.376 OA 
BRANCH  15  17
HETATM   17  C   UNL     1     -10.916  10.489  69.364  1.00  0.00    -0.250 A  
HETATM   18  N   UNL     1     -10.880   9.561  70.298  1.00  0.00    -0.249 NA 
HETATM   19  C   UNL     1     -10.773   8.369  69.617  1.00  0.00    -0.198 A  
HETATM   20  H   UNL     1     -10.921   9.696  71.308  1.00  0.00     0.000 HD 
HETATM   21  C   UNL     1     -10.760   7.052  70.104  1.00  0.00    -0.265 A  
HETATM   22  C   UNL     1     -10.750   5.993  69.188  1.00  0.00    -0.399 A  
HETATM   23  C   UNL     1     -10.736   6.239  67.812  1.00  0.00    -0.383 A  
HETATM   24  C   UNL     1     -10.706   7.544  67.306  1.00  0.00    -0.365 A  
HETATM   25  C   UNL     1     -10.721   8.581  68.242  1.00  0.00    -0.036 A  
HETATM   26  N   UNL     1     -10.718   9.948  68.119  1.00  0.00    -0.228 NA 
ENDBRANCH  15  17
ENDBRANCH  14  15
ENDBRANCH   7  14
TORSDOF 5
ENDMDL
MODEL      131
REMARK 921   NORMALIZED FREE ENERGY PREDICTED BY IDOCK:   -5.28 KCAL/MOL
REMARK 922        TOTAL FREE ENERGY PREDICTED BY IDOCK:   -7.59 KCAL/MOL
REMARK 923 INTER-LIGAND FREE ENERGY PREDICTED BY IDOCK:   -6.84 KCAL/MOL
REMARK 924 INTRA-LIGAND FREE ENERGY PREDICTED BY IDOCK:   -0.75 KCAL/MOL
REMARK 927      BINDING AFFINITY PREDICTED BY RF-SCORE:    0.00 PKD
ROOT
HETATM    1  C   UNL     1     -11.502   7.174  69.992  1.00  0.00    -0.200 C  
HETATM    2  C   UNL     1     -10.653   6.119  69.348  1.00  0.00    -0.349 A  
HETATM    3  C   UNL     1     -10.150   5.020  70.070  1.00  0.00    -0.272 A  
HETATM    4  C   UNL     1      -9.536   3.968  69.395  1.00  0.00    -0.257 A  
HETATM    5  N   UNL     1      -9.727   5.159  67.318  1.00  0.00    -0.145 NA 
HETATM    6  C   UNL     1      -9.370   4.070  68.028  1.00  0.00    -0.169 A  
HETATM    7  C   UNL     1     -10.346   6.182  67.971  1.00  0.00    -0.199 A  
ENDROOT
BRANCH   3   8
HETATM    8  O   UNL     1     -10.252   4.812  71.425  1.00  0.00    -0.199 OA 
BRANCH   8   9
HETATM    9  C   UNL     1      -9.348   5.552  72.260  1.00  0.00    -0.145 C  
HETATM   10  C   UNL     1     -10.050   6.554  73.172  1.00  0.00    -0.193 C  
HETATM   11  F   UNL     1      -9.784   7.829  72.791  1.00  0.00    -0.204 F  
HETATM   12  F   UNL     1      -9.606   6.429  74.449  1.00  0.00    -0.171 F  
HETATM   13  F   UNL     1     -11.394   6.413  73.202  1.00  0.00    -0.250 F  
ENDBRANCH   8   9
ENDBRANCH   3   8
BRANCH   7  14
HETATM   14  C   UNL     1     -10.632   7.396  67.107  1.00  0.00    -0.342 C  
BRANCH  14  15
HETATM   15  S   UNL     1      -9.143   8.350  66.757  1.00  0.00    -0.167 S  
HETATM   16  O   UNL     1      -8.311   7.743  65.663  1.00  0.00    -0.128 OA 
BRANCH  15  17
HETATM   17  C   UNL     1      -9.833   9.793  66.078  1.00  0.00    -0.274 A  
HETATM   18  N   UNL     1      -9.983  10.047  64.795  1.00  0.00    -0.385 NA 
HETATM   19  C   UNL     1     -10.780  11.170  64.741  1.00  0.00    -0.264 A  
HETATM   20  H   UNL     1      -9.594   9.525  64.011  1.00  0.00     0.000 HD 
HETATM   21  C   UNL     1     -11.311  11.842  63.629  1.00  0.00    -0.536 A  
HETATM   22  C   UNL     1     -12.191  12.911  63.844  1.00  0.00    -0.525 A  
HETATM   23  C   UNL     1     -12.523  13.313  65.140  1.00  0.00    -0.525 A  
HETATM   24  C   UNL     1     -11.971  12.683  66.262  1.00  0.00    -0.439 A  
HETATM   25  C   UNL     1     -11.100  11.618  66.019  1.00  0.00    -0.270 A  
HETATM   26  N   UNL     1     -10.403  10.775  66.849  1.00  0.00    -0.231 NA 
ENDBRANCH  15  17
ENDBRANCH  14  15
ENDBRANCH   7  14
TORSDOF 5
ENDMDL
MODEL      132
REMARK 921   NORMALIZED FREE ENERGY PREDICTED BY IDOCK:   -5.26 KCAL/MOL
REMARK 922        TOTAL FREE ENERGY PREDICTED BY IDOCK:   -7.57 KCAL/MOL
REMARK 923 INTER-LIGAND FREE ENERGY PREDICTED BY IDOCK:   -7.02 KCAL/MOL
REMARK 924 INTRA-LIGAND FREE ENERGY PREDICTED BY IDOCK:   -0.55 KCAL/MOL
REMARK 927      BINDING AFFINITY PREDICTED BY RF-SCORE:    0.00 PKD
ROOT
HETATM    1  C   UNL     1      -8.023  15.097  66.844  1.00  0.00    -0.155 C  
HETATM    2  C   UNL     1      -9.330  15.128  66.108  1.00  0.00    -0.346 A  
HETATM    3  C   UNL     1      -9.957  16.336  65.748  1.00  0.00    -0.323 A  
HETATM    4  C   UNL     1     -11.061  16.318  64.898  1.00  0.00    -0.301 A  
HETATM    5  N   UNL     1     -11.063  13.917  64.912  1.00  0.00    -0.350 NA 
HETATM    6  C   UNL     1     -11.559  15.097  64.491  1.00  0.00    -0.329 A  
HETATM    7  C   UNL     1      -9.971  13.929  65.727  1.00  0.00    -0.284 A  
ENDROOT
BRANCH   3   8
HETATM    8  O   UNL     1      -9.556  17.604  66.094  1.00  0.00    -0.440 OA 
BRANCH   8   9
HETATM    9  C   UNL     1     -10.473  18.375  66.885  1.00  0.00    -0.389 C  
HETATM   10  C   UNL     1      -9.841  19.618  67.504  1.00  0.00    -0.378 C  
HETATM   11  F   UNL     1      -9.731  19.490  68.851  1.00  0.00    -0.419 F  
HETATM   12  F   UNL     1     -10.616  20.710  67.280  1.00  0.00    -0.351 F  
HETATM   13  F   UNL     1      -8.609  19.898  67.024  1.00  0.00    -0.309 F  
ENDBRANCH   8   9
ENDBRANCH   3   8
BRANCH   7  14
HETATM   14  C   UNL     1      -9.537  12.559  66.216  1.00  0.00    -0.245 C  
BRANCH  14  15
HETATM   15  S   UNL     1     -10.363  11.225  65.327  1.00  0.00    -0.286 S  
HETATM   16  O   UNL     1      -9.503  10.631  64.247  1.00  0.00    -0.225 OA 
BRANCH  15  17
HETATM   17  C   UNL     1     -10.458  10.016  66.571  1.00  0.00    -0.153 A  
HETATM   18  N   UNL     1     -10.366   8.715  66.391  1.00  0.00    -0.358 NA 
HETATM   19  C   UNL     1     -10.252   8.183  67.657  1.00  0.00    -0.234 A  
HETATM   20  H   UNL     1     -10.376   8.210  65.505  1.00  0.00     0.000 HD 
HETATM   21  C   UNL     1     -10.059   6.852  68.059  1.00  0.00    -0.193 A  
HETATM   22  C   UNL     1      -9.866   6.579  69.419  1.00  0.00    -0.161 A  
HETATM   23  C   UNL     1      -9.882   7.610  70.364  1.00  0.00    -0.183 A  
HETATM   24  C   UNL     1     -10.115   8.938  69.988  1.00  0.00    -0.207 A  
HETATM   25  C   UNL     1     -10.300   9.182  68.625  1.00  0.00    -0.209 A  
HETATM   26  N   UNL     1     -10.527  10.329  67.905  1.00  0.00    -0.196 NA 
ENDBRANCH  15  17
ENDBRANCH  14  15
ENDBRANCH   7  14
TORSDOF 5
ENDMDL
MODEL      133
REMARK 921   NORMALIZED FREE ENERGY PREDICTED BY IDOCK:   -5.23 KCAL/MOL
REMARK 922        TOTAL FREE ENERGY PREDICTED BY IDOCK:   -7.53 KCAL/MOL
REMARK 923 INTER-LIGAND FREE ENERGY PREDICTED BY IDOCK:   -6.84 KCAL/MOL
REMARK 924 INTRA-LIGAND FREE ENERGY PREDICTED BY IDOCK:   -0.68 KCAL/MOL
REMARK 927      BINDING AFFINITY PREDICTED BY RF-SCORE:    0.00 PKD
ROOT
HETATM    1  C   UNL     1     -11.779  13.416  67.195  1.00  0.00    -0.424 C  
HETATM    2  C   UNL     1     -11.642  14.129  68.508  1.00  0.00    -0.351 A  
HETATM    3  C   UNL     1     -11.314  15.495  68.586  1.00  0.00    -0.344 A  
HETATM    4  C   UNL     1     -11.391  16.158  69.809  1.00  0.00    -0.323 A  
HETATM    5  N   UNL     1     -11.919  14.096  70.920  1.00  0.00    -0.323 NA 
HETATM    6  C   UNL     1     -11.718  15.429  70.934  1.00  0.00    -0.354 A  
HETATM    7  C   UNL     1     -11.864  13.446  69.724  1.00  0.00    -0.326 A  
ENDROOT
BRANCH   3   8
HETATM    8  O   UNL     1     -10.972  16.319  67.540  1.00  0.00    -0.296 OA 
BRANCH   8   9
HETATM    9  C   UNL     1      -9.657  16.893  67.577  1.00  0.00    -0.245 C  
HETATM   10  C   UNL     1      -8.826  16.582  66.336  1.00  0.00    -0.310 C  
HETATM   11  F   UNL     1      -7.806  15.737  66.631  1.00  0.00    -0.247 F  
HETATM   12  F   UNL     1      -8.262  17.715  65.844  1.00  0.00    -0.257 F  
HETATM   13  F   UNL     1      -9.537  16.022  65.332  1.00  0.00    -0.325 F  
ENDBRANCH   8   9
ENDBRANCH   3   8
BRANCH   7  14
HETATM   14  C   UNL     1     -12.018  11.940  69.820  1.00  0.00    -0.307 C  
BRANCH  14  15
HETATM   15  S   UNL     1     -12.317  11.392  71.512  1.00  0.00     0.061 S  
HETATM   16  O   UNL     1     -13.779  11.255  71.826  1.00  0.00    -0.038 OA 
BRANCH  15  17
HETATM   17  C   UNL     1     -11.696   9.771  71.443  1.00  0.00    -0.398 A  
HETATM   18  N   UNL     1     -12.194   8.726  72.071  1.00  0.00    -0.353 NA 
HETATM   19  C   UNL     1     -11.541   7.638  71.535  1.00  0.00    -0.274 A  
HETATM   20  H   UNL     1     -12.909   8.724  72.798  1.00  0.00     0.000 HD 
HETATM   21  C   UNL     1     -11.721   6.269  71.785  1.00  0.00    -0.355 A  
HETATM   22  C   UNL     1     -10.997   5.342  71.024  1.00  0.00    -0.120 A  
HETATM   23  C   UNL     1     -10.098   5.771  70.043  1.00  0.00    -0.279 A  
HETATM   24  C   UNL     1      -9.873   7.133  69.807  1.00  0.00    -0.173 A  
HETATM   25  C   UNL     1     -10.611   8.035  70.578  1.00  0.00    -0.220 A  
HETATM   26  N   UNL     1     -10.667   9.406  70.611  1.00  0.00    -0.264 NA 
ENDBRANCH  15  17
ENDBRANCH  14  15
ENDBRANCH   7  14
TORSDOF 5
ENDMDL
MODEL      134
REMARK 921   NORMALIZED FREE ENERGY PREDICTED BY IDOCK:   -5.22 KCAL/MOL
REMARK 922        TOTAL FREE ENERGY PREDICTED BY IDOCK:   -7.52 KCAL/MOL
REMARK 923 INTER-LIGAND FREE ENERGY PREDICTED BY IDOCK:   -6.89 KCAL/MOL
REMARK 924 INTRA-LIGAND FREE ENERGY PREDICTED BY IDOCK:   -0.64 KCAL/MOL
REMARK 927      BINDING AFFINITY PREDICTED BY RF-SCORE:    0.00 PKD
ROOT
HETATM    1  C   UNL     1     -11.848  12.979  68.250  1.00  0.00    -0.381 C  
HETATM    2  C   UNL     1     -12.077  12.164  69.488  1.00  0.00    -0.263 A  
HETATM    3  C   UNL     1     -12.640  12.717  70.654  1.00  0.00    -0.160 A  
HETATM    4  C   UNL     1     -13.015  11.883  71.705  1.00  0.00    -0.455 A  
HETATM    5  N   UNL     1     -12.104   9.983  70.556  1.00  0.00    -0.269 NA 
HETATM    6  C   UNL     1     -12.751  10.533  71.602  1.00  0.00    -0.445 A  
HETATM    7  C   UNL     1     -11.752  10.790  69.516  1.00  0.00    -0.312 A  
ENDROOT
BRANCH   3   8
HETATM    8  O   UNL     1     -12.943  14.040  70.871  1.00  0.00    -0.324 OA 
BRANCH   8   9
HETATM    9  C   UNL     1     -13.791  14.329  71.994  1.00  0.00    -0.472 C  
HETATM   10  C   UNL     1     -13.205  15.374  72.940  1.00  0.00    -0.518 C  
HETATM   11  F   UNL     1     -12.850  14.814  74.124  1.00  0.00    -0.517 F  
HETATM   12  F   UNL     1     -14.126  16.330  73.222  1.00  0.00    -0.685 F  
HETATM   13  F   UNL     1     -12.116  16.003  72.447  1.00  0.00    -0.433 F  
ENDBRANCH   8   9
ENDBRANCH   3   8
BRANCH   7  14
HETATM   14  C   UNL     1     -10.954  10.098  68.426  1.00  0.00    -0.244 C  
BRANCH  14  15
HETATM   15  S   UNL     1      -9.178  10.323  68.635  1.00  0.00    -0.167 S  
HETATM   16  O   UNL     1      -8.689   9.849  69.974  1.00  0.00    -0.201 OA 
BRANCH  15  17
HETATM   17  C   UNL     1      -8.567   9.179  67.479  1.00  0.00    -0.116 A  
HETATM   18  N   UNL     1      -8.771   7.878  67.498  1.00  0.00    -0.125 NA 
HETATM   19  C   UNL     1      -8.316   7.424  66.280  1.00  0.00    -0.132 A  
HETATM   20  H   UNL     1      -9.179   7.327  68.252  1.00  0.00     0.000 HD 
HETATM   21  C   UNL     1      -8.348   6.132  65.733  1.00  0.00    -0.143 A  
HETATM   22  C   UNL     1      -7.912   5.945  64.415  1.00  0.00    -0.129 A  
HETATM   23  C   UNL     1      -7.439   7.022  63.660  1.00  0.00    -0.096 A  
HETATM   24  C   UNL     1      -7.360   8.311  64.201  1.00  0.00    -0.098 A  
HETATM   25  C   UNL     1      -7.804   8.469  65.516  1.00  0.00    -0.104 A  
HETATM   26  N   UNL     1      -7.892   9.559  66.346  1.00  0.00    -0.097 NA 
ENDBRANCH  15  17
ENDBRANCH  14  15
ENDBRANCH   7  14
TORSDOF 5
ENDMDL
MODEL      135
REMARK 921   NORMALIZED FREE ENERGY PREDICTED BY IDOCK:   -5.21 KCAL/MOL
REMARK 922        TOTAL FREE ENERGY PREDICTED BY IDOCK:   -7.50 KCAL/MOL
REMARK 923 INTER-LIGAND FREE ENERGY PREDICTED BY IDOCK:   -6.68 KCAL/MOL
REMARK 924 INTRA-LIGAND FREE ENERGY PREDICTED BY IDOCK:   -0.82 KCAL/MOL
REMARK 927      BINDING AFFINITY PREDICTED BY RF-SCORE:    0.00 PKD
ROOT
HETATM    1  C   UNL     1     -11.034   7.007  67.137  1.00  0.00    -0.393 C  
HETATM    2  C   UNL     1      -9.710   7.709  67.197  1.00  0.00    -0.239 A  
HETATM    3  C   UNL     1      -8.502   7.052  66.900  1.00  0.00    -0.119 A  
HETATM    4  C   UNL     1      -7.325   7.788  66.777  1.00  0.00    -0.089 A  
HETATM    5  N   UNL     1      -8.479   9.789  67.432  1.00  0.00    -0.121 NA 
HETATM    6  C   UNL     1      -7.367   9.145  67.026  1.00  0.00    -0.090 A  
HETATM    7  C   UNL     1      -9.637   9.078  67.535  1.00  0.00    -0.144 A  
ENDROOT
BRANCH   3   8
HETATM    8  O   UNL     1      -8.338   5.713  66.638  1.00  0.00    -0.111 OA 
BRANCH   8   9
HETATM    9  C   UNL     1      -8.071   4.865  67.765  1.00  0.00    -0.094 C  
HETATM   10  C   UNL     1      -9.127   3.782  67.970  1.00  0.00    -0.144 C  
HETATM   11  F   UNL     1      -9.857   4.019  69.089  1.00  0.00    -0.250 F  
HETATM   12  F   UNL     1      -8.540   2.570  68.137  1.00  0.00    -0.079 F  
HETATM   13  F   UNL     1      -9.994   3.667  66.939  1.00  0.00    -0.223 F  
ENDBRANCH   8   9
ENDBRANCH   3   8
BRANCH   7  14
HETATM   14  C   UNL     1     -10.812   9.869  68.080  1.00  0.00    -0.234 C  
BRANCH  14  15
HETATM   15  S   UNL     1     -11.032   9.628  69.853  1.00  0.00    -0.250 S  
HETATM   16  O   UNL     1      -9.734   9.674  70.609  1.00  0.00    -0.257 OA 
BRANCH  15  17
HETATM   17  C   UNL     1     -11.876  11.086  70.277  1.00  0.00    -0.367 A  
HETATM   18  N   UNL     1     -12.721  11.226  71.277  1.00  0.00    -0.415 NA 
HETATM   19  C   UNL     1     -12.943  12.582  71.374  1.00  0.00    -0.251 A  
HETATM   20  H   UNL     1     -13.125  10.489  71.854  1.00  0.00     0.000 HD 
HETATM   21  C   UNL     1     -13.707  13.303  72.305  1.00  0.00    -0.686 A  
HETATM   22  C   UNL     1     -13.688  14.703  72.254  1.00  0.00    -0.565 A  
HETATM   23  C   UNL     1     -12.935  15.372  71.285  1.00  0.00    -0.541 A  
HETATM   24  C   UNL     1     -12.200  14.671  70.322  1.00  0.00    -0.389 A  
HETATM   25  C   UNL     1     -12.234  13.276  70.398  1.00  0.00    -0.332 A  
HETATM   26  N   UNL     1     -11.639  12.287  69.656  1.00  0.00    -0.295 NA 
ENDBRANCH  15  17
ENDBRANCH  14  15
ENDBRANCH   7  14
TORSDOF 5
ENDMDL
MODEL      136
REMARK 921   NORMALIZED FREE ENERGY PREDICTED BY IDOCK:   -5.20 KCAL/MOL
REMARK 922        TOTAL FREE ENERGY PREDICTED BY IDOCK:   -7.49 KCAL/MOL
REMARK 923 INTER-LIGAND FREE ENERGY PREDICTED BY IDOCK:   -6.85 KCAL/MOL
REMARK 924 INTRA-LIGAND FREE ENERGY PREDICTED BY IDOCK:   -0.64 KCAL/MOL
REMARK 927      BINDING AFFINITY PREDICTED BY RF-SCORE:    0.00 PKD
ROOT
HETATM    1  C   UNL     1     -12.903  10.841  71.237  1.00  0.00    -0.540 C  
HETATM    2  C   UNL     1     -11.692  10.380  70.481  1.00  0.00    -0.434 A  
HETATM    3  C   UNL     1     -11.342  10.920  69.230  1.00  0.00    -0.277 A  
HETATM    4  C   UNL     1     -10.110  10.606  68.659  1.00  0.00    -0.194 A  
HETATM    5  N   UNL     1      -9.645   9.073  70.448  1.00  0.00    -0.192 NA 
HETATM    6  C   UNL     1      -9.293   9.705  69.311  1.00  0.00    -0.180 A  
HETATM    7  C   UNL     1     -10.840   9.391  71.021  1.00  0.00    -0.336 A  
ENDROOT
BRANCH   3   8
HETATM    8  O   UNL     1     -12.072  11.819  68.490  1.00  0.00    -0.454 OA 
BRANCH   8   9
HETATM    9  C   UNL     1     -11.423  13.055  68.155  1.00  0.00    -0.319 C  
HETATM   10  C   UNL     1     -11.609  13.460  66.696  1.00  0.00    -0.362 C  
HETATM   11  F   UNL     1     -10.441  13.362  66.011  1.00  0.00    -0.274 F  
HETATM   12  F   UNL     1     -12.004  14.756  66.607  1.00  0.00    -0.371 F  
HETATM   13  F   UNL     1     -12.527  12.717  66.038  1.00  0.00    -0.466 F  
ENDBRANCH   8   9
ENDBRANCH   3   8
BRANCH   7  14
HETATM   14  C   UNL     1     -11.187   8.569  72.248  1.00  0.00    -0.362 C  
BRANCH  14  15
HETATM   15  S   UNL     1      -9.766   7.659  72.883  1.00  0.00    -0.252 S  
HETATM   16  O   UNL     1      -9.954   7.211  74.305  1.00  0.00    -0.273 OA 
BRANCH  15  17
HETATM   17  C   UNL     1      -9.846   6.216  71.919  1.00  0.00    -0.156 A  
HETATM   18  N   UNL     1     -10.087   6.165  70.626  1.00  0.00    -0.188 NA 
HETATM   19  C   UNL     1      -9.813   4.865  70.260  1.00  0.00    -0.236 A  
HETATM   20  H   UNL     1     -10.408   6.923  70.025  1.00  0.00     0.000 HD 
HETATM   21  C   UNL     1      -9.835   4.264  68.992  1.00  0.00    -0.148 A  
HETATM   22  C   UNL     1      -9.408   2.936  68.866  1.00  0.00    -0.226 A  
HETATM   23  C   UNL     1      -8.981   2.215  69.984  1.00  0.00    -0.150 A  
HETATM   24  C   UNL     1      -8.992   2.782  71.264  1.00  0.00    -0.161 A  
HETATM   25  C   UNL     1      -9.419   4.109  71.360  1.00  0.00    -0.160 A  
HETATM   26  N   UNL     1      -9.541   4.975  72.418  1.00  0.00    -0.143 NA 
ENDBRANCH  15  17
ENDBRANCH  14  15
ENDBRANCH   7  14
TORSDOF 5
ENDMDL
MODEL      137
REMARK 921   NORMALIZED FREE ENERGY PREDICTED BY IDOCK:   -5.20 KCAL/MOL
REMARK 922        TOTAL FREE ENERGY PREDICTED BY IDOCK:   -7.49 KCAL/MOL
REMARK 923 INTER-LIGAND FREE ENERGY PREDICTED BY IDOCK:   -6.83 KCAL/MOL
REMARK 924 INTRA-LIGAND FREE ENERGY PREDICTED BY IDOCK:   -0.67 KCAL/MOL
REMARK 927      BINDING AFFINITY PREDICTED BY RF-SCORE:    0.00 PKD
ROOT
HETATM    1  C   UNL     1      -8.983  13.341  68.321  1.00  0.00    -0.176 C  
HETATM    2  C   UNL     1     -10.115  13.272  67.339  1.00  0.00    -0.233 A  
HETATM    3  C   UNL     1     -11.242  14.109  67.437  1.00  0.00    -0.318 A  
HETATM    4  C   UNL     1     -12.169  14.149  66.398  1.00  0.00    -0.473 A  
HETATM    5  N   UNL     1     -10.993  12.398  65.250  1.00  0.00    -0.290 NA 
HETATM    6  C   UNL     1     -11.992  13.300  65.324  1.00  0.00    -0.388 A  
HETATM    7  C   UNL     1     -10.072  12.369  66.254  1.00  0.00    -0.240 A  
ENDROOT
BRANCH   3   8
HETATM    8  O   UNL     1     -11.525  14.989  68.454  1.00  0.00    -0.295 OA 
BRANCH   8   9
HETATM    9  C   UNL     1     -12.178  14.445  69.612  1.00  0.00    -0.307 C  
HETATM   10  C   UNL     1     -12.065  15.338  70.844  1.00  0.00    -0.344 C  
HETATM   11  F   UNL     1     -11.260  14.776  71.782  1.00  0.00    -0.364 F  
HETATM   12  F   UNL     1     -13.281  15.505  71.425  1.00  0.00    -0.426 F  
HETATM   13  F   UNL     1     -11.578  16.571  70.580  1.00  0.00    -0.346 F  
ENDBRANCH   8   9
ENDBRANCH   3   8
BRANCH   7  14
HETATM   14  C   UNL     1      -9.038  11.266  66.126  1.00  0.00    -0.204 C  
BRANCH  14  15
HETATM   15  S   UNL     1      -9.538   9.995  64.949  1.00  0.00    -0.294 S  
HETATM   16  O   UNL     1      -8.407   9.543  64.070  1.00  0.00    -0.147 OA 
BRANCH  15  17
HETATM   17  C   UNL     1      -9.861   8.668  66.022  1.00  0.00    -0.113 A  
HETATM   18  N   UNL     1      -9.371   7.450  65.912  1.00  0.00    -0.398 NA 
HETATM   19  C   UNL     1      -9.696   6.824  67.095  1.00  0.00    -0.151 A  
HETATM   20  H   UNL     1      -8.862   7.057  65.122  1.00  0.00     0.000 HD 
HETATM   21  C   UNL     1      -9.369   5.537  67.550  1.00  0.00    -0.114 A  
HETATM   22  C   UNL     1      -9.732   5.168  68.852  1.00  0.00    -0.220 A  
HETATM   23  C   UNL     1     -10.424   6.057  69.679  1.00  0.00    -0.325 A  
HETATM   24  C   UNL     1     -10.796   7.330  69.229  1.00  0.00    -0.177 A  
HETATM   25  C   UNL     1     -10.418   7.673  67.929  1.00  0.00    -0.207 A  
HETATM   26  N   UNL     1     -10.588   8.809  67.177  1.00  0.00    -0.279 NA 
ENDBRANCH  15  17
ENDBRANCH  14  15
ENDBRANCH   7  14
TORSDOF 5
ENDMDL
MODEL      138
REMARK 921   NORMALIZED FREE ENERGY PREDICTED BY IDOCK:   -5.20 KCAL/MOL
REMARK 922        TOTAL FREE ENERGY PREDICTED BY IDOCK:   -7.49 KCAL/MOL
REMARK 923 INTER-LIGAND FREE ENERGY PREDICTED BY IDOCK:   -6.47 KCAL/MOL
REMARK 924 INTRA-LIGAND FREE ENERGY PREDICTED BY IDOCK:   -1.02 KCAL/MOL
REMARK 927      BINDING AFFINITY PREDICTED BY RF-SCORE:    0.00 PKD
ROOT
HETATM    1  C   UNL     1      -9.063   9.768  69.587  1.00  0.00    -0.235 C  
HETATM    2  C   UNL     1     -10.407  10.198  70.097  1.00  0.00    -0.280 A  
HETATM    3  C   UNL     1     -11.153   9.409  70.992  1.00  0.00    -0.344 A  
HETATM    4  C   UNL     1     -12.297   9.932  71.591  1.00  0.00    -0.496 A  
HETATM    5  N   UNL     1     -12.093  11.936  70.283  1.00  0.00    -0.344 NA 
HETATM    6  C   UNL     1     -12.711  11.198  71.227  1.00  0.00    -0.426 A  
HETATM    7  C   UNL     1     -10.962  11.437  69.709  1.00  0.00    -0.051 A  
ENDROOT
BRANCH   3   8
HETATM    8  O   UNL     1     -10.844   8.141  71.424  1.00  0.00    -0.225 OA 
BRANCH   8   9
HETATM    9  C   UNL     1     -11.597   7.063  70.848  1.00  0.00    -0.328 C  
HETATM   10  C   UNL     1     -10.732   6.050  70.104  1.00  0.00    -0.311 C  
HETATM   11  F   UNL     1     -10.949   6.114  68.766  1.00  0.00    -0.286 F  
HETATM   12  F   UNL     1     -11.041   4.786  70.489  1.00  0.00     0.045 F  
HETATM   13  F   UNL     1      -9.406   6.216  70.306  1.00  0.00    -0.153 F  
ENDBRANCH   8   9
ENDBRANCH   3   8
BRANCH   7  14
HETATM   14  C   UNL     1     -10.387  12.299  68.601  1.00  0.00    -0.188 C  
BRANCH  14  15
HETATM   15  S   UNL     1     -11.511  12.448  67.200  1.00  0.00    -0.369 S  
HETATM   16  O   UNL     1     -11.465  13.808  66.562  1.00  0.00    -0.324 OA 
BRANCH  15  17
HETATM   17  C   UNL     1     -10.760  11.369  66.064  1.00  0.00    -0.263 A  
HETATM   18  N   UNL     1     -10.504  11.636  64.800  1.00  0.00    -0.279 NA 
HETATM   19  C   UNL     1      -9.699  10.604  64.370  1.00  0.00    -0.311 A  
HETATM   20  H   UNL     1     -10.832  12.434  64.257  1.00  0.00     0.000 HD 
HETATM   21  C   UNL     1      -9.075  10.407  63.128  1.00  0.00    -0.274 A  
HETATM   22  C   UNL     1      -8.209   9.317  62.973  1.00  0.00    -0.177 A  
HETATM   23  C   UNL     1      -7.982   8.430  64.028  1.00  0.00    -0.151 A  
HETATM   24  C   UNL     1      -8.627   8.584  65.261  1.00  0.00    -0.192 A  
HETATM   25  C   UNL     1      -9.482   9.681  65.390  1.00  0.00    -0.278 A  
HETATM   26  N   UNL     1     -10.248  10.149  66.428  1.00  0.00    -0.233 NA 
ENDBRANCH  15  17
ENDBRANCH  14  15
ENDBRANCH   7  14
TORSDOF 5
ENDMDL
MODEL      139
REMARK 921   NORMALIZED FREE ENERGY PREDICTED BY IDOCK:   -5.19 KCAL/MOL
REMARK 922        TOTAL FREE ENERGY PREDICTED BY IDOCK:   -7.48 KCAL/MOL
REMARK 923 INTER-LIGAND FREE ENERGY PREDICTED BY IDOCK:   -6.66 KCAL/MOL
REMARK 924 INTRA-LIGAND FREE ENERGY PREDICTED BY IDOCK:   -0.82 KCAL/MOL
REMARK 927      BINDING AFFINITY PREDICTED BY RF-SCORE:    0.00 PKD
ROOT
HETATM    1  C   UNL     1     -12.306  14.427  69.992  1.00  0.00    -0.391 C  
HETATM    2  C   UNL     1     -11.951  13.238  69.150  1.00  0.00    -0.343 A  
HETATM    3  C   UNL     1     -11.909  11.934  69.679  1.00  0.00    -0.337 A  
HETATM    4  C   UNL     1     -11.769  10.843  68.823  1.00  0.00    -0.355 A  
HETATM    5  N   UNL     1     -11.511  12.318  66.946  1.00  0.00    -0.339 NA 
HETATM    6  C   UNL     1     -11.599  11.081  67.475  1.00  0.00    -0.080 A  
HETATM    7  C   UNL     1     -11.667  13.388  67.775  1.00  0.00    -0.359 A  
ENDROOT
BRANCH   3   8
HETATM    8  O   UNL     1     -12.062  11.576  70.997  1.00  0.00    -0.307 OA 
BRANCH   8   9
HETATM    9  C   UNL     1     -13.027  10.551  71.278  1.00  0.00    -0.433 C  
HETATM   10  C   UNL     1     -12.408   9.276  71.844  1.00  0.00    -0.382 C  
HETATM   11  F   UNL     1     -12.484   8.258  70.949  1.00  0.00    -0.270 F  
HETATM   12  F   UNL     1     -13.080   8.871  72.951  1.00  0.00    -0.470 F  
HETATM   13  F   UNL     1     -11.109   9.412  72.192  1.00  0.00    -0.406 F  
ENDBRANCH   8   9
ENDBRANCH   3   8
BRANCH   7  14
HETATM   14  C   UNL     1     -11.467  14.735  67.106  1.00  0.00    -0.364 C  
BRANCH  14  15
HETATM   15  S   UNL     1      -9.747  15.273  67.157  1.00  0.00    -0.219 S  
HETATM   16  O   UNL     1      -9.428  16.075  68.387  1.00  0.00    -0.199 OA 
BRANCH  15  17
HETATM   17  C   UNL     1      -8.936  13.751  67.364  1.00  0.00    -0.224 A  
HETATM   18  N   UNL     1      -8.662  12.886  66.409  1.00  0.00    -0.424 NA 
HETATM   19  C   UNL     1      -7.815  11.967  66.988  1.00  0.00    -0.152 A  
HETATM   20  H   UNL     1      -9.005  12.895  65.449  1.00  0.00     0.000 HD 
HETATM   21  C   UNL     1      -7.158  10.866  66.417  1.00  0.00    -0.133 A  
HETATM   22  C   UNL     1      -6.253  10.138  67.201  1.00  0.00    -0.062 A  
HETATM   23  C   UNL     1      -6.019  10.490  68.533  1.00  0.00    -0.043 A  
HETATM   24  C   UNL     1      -6.695  11.559  69.133  1.00  0.00    -0.108 A  
HETATM   25  C   UNL     1      -7.589  12.269  68.327  1.00  0.00    -0.133 A  
HETATM   26  N   UNL     1      -8.392  13.357  68.561  1.00  0.00    -0.127 NA 
ENDBRANCH  15  17
ENDBRANCH  14  15
ENDBRANCH   7  14
TORSDOF 5
ENDMDL
MODEL      140
REMARK 921   NORMALIZED FREE ENERGY PREDICTED BY IDOCK:   -5.17 KCAL/MOL
REMARK 922        TOTAL FREE ENERGY PREDICTED BY IDOCK:   -7.46 KCAL/MOL
REMARK 923 INTER-LIGAND FREE ENERGY PREDICTED BY IDOCK:   -6.64 KCAL/MOL
REMARK 924 INTRA-LIGAND FREE ENERGY PREDICTED BY IDOCK:   -0.82 KCAL/MOL
REMARK 927      BINDING AFFINITY PREDICTED BY RF-SCORE:    0.00 PKD
ROOT
HETATM    1  C   UNL     1     -11.492   6.711  69.746  1.00  0.00    -0.388 C  
HETATM    2  C   UNL     1     -10.769   7.209  70.963  1.00  0.00    -0.252 A  
HETATM    3  C   UNL     1     -10.447   6.363  72.039  1.00  0.00    -0.208 A  
HETATM    4  C   UNL     1      -9.607   6.819  73.053  1.00  0.00    -0.168 A  
HETATM    5  N   UNL     1      -9.557   9.005  72.060  1.00  0.00    -0.313 NA 
HETATM    6  C   UNL     1      -9.172   8.128  73.008  1.00  0.00    -0.273 A  
HETATM    7  C   UNL     1     -10.362   8.558  71.055  1.00  0.00    -0.209 A  
ENDROOT
BRANCH   3   8
HETATM    8  O   UNL     1     -10.823   5.050  72.194  1.00  0.00    -0.193 OA 
BRANCH   8   9
HETATM    9  C   UNL     1      -9.765   4.090  72.336  1.00  0.00    -0.151 C  
HETATM   10  C   UNL     1      -9.448   3.343  71.044  1.00  0.00    -0.157 C  
HETATM   11  F   UNL     1      -9.822   2.041  71.129  1.00  0.00    -0.206 F  
HETATM   12  F   UNL     1      -8.112   3.349  70.805  1.00  0.00    -0.054 F  
HETATM   13  F   UNL     1     -10.051   3.865  69.953  1.00  0.00    -0.272 F  
ENDBRANCH   8   9
ENDBRANCH   3   8
BRANCH   7  14
HETATM   14  C   UNL     1     -10.811   9.635  70.085  1.00  0.00    -0.280 C  
BRANCH  14  15
HETATM   15  S   UNL     1      -9.469  10.194  69.019  1.00  0.00    -0.200 S  
HETATM   16  O   UNL     1      -8.664   9.057  68.456  1.00  0.00    -0.132 OA 
BRANCH  15  17
HETATM   17  C   UNL     1     -10.365  10.844  67.681  1.00  0.00    -0.197 A  
HETATM   18  N   UNL     1     -11.166  11.889  67.723  1.00  0.00    -0.247 NA 
HETATM   19  C   UNL     1     -11.454  12.176  66.407  1.00  0.00    -0.370 A  
HETATM   20  H   UNL     1     -11.501  12.379  68.552  1.00  0.00     0.000 HD 
HETATM   21  C   UNL     1     -12.207  13.226  65.859  1.00  0.00    -0.497 A  
HETATM   22  C   UNL     1     -12.264  13.362  64.466  1.00  0.00    -0.450 A  
HETATM   23  C   UNL     1     -11.596  12.460  63.633  1.00  0.00    -0.580 A  
HETATM   24  C   UNL     1     -10.875  11.381  64.158  1.00  0.00    -0.431 A  
HETATM   25  C   UNL     1     -10.832  11.272  65.550  1.00  0.00    -0.179 A  
HETATM   26  N   UNL     1     -10.223  10.380  66.397  1.00  0.00    -0.232 NA 
ENDBRANCH  15  17
ENDBRANCH  14  15
ENDBRANCH   7  14
TORSDOF 5
ENDMDL
MODEL      141
REMARK 921   NORMALIZED FREE ENERGY PREDICTED BY IDOCK:   -5.15 KCAL/MOL
REMARK 922        TOTAL FREE ENERGY PREDICTED BY IDOCK:   -7.43 KCAL/MOL
REMARK 923 INTER-LIGAND FREE ENERGY PREDICTED BY IDOCK:   -6.51 KCAL/MOL
REMARK 924 INTRA-LIGAND FREE ENERGY PREDICTED BY IDOCK:   -0.92 KCAL/MOL
REMARK 927      BINDING AFFINITY PREDICTED BY RF-SCORE:    0.00 PKD
ROOT
HETATM    1  C   UNL     1      -8.884   8.213  67.984  1.00  0.00    -0.131 C  
HETATM    2  C   UNL     1      -9.063   7.388  69.224  1.00  0.00    -0.135 A  
HETATM    3  C   UNL     1      -8.846   5.998  69.233  1.00  0.00    -0.123 A  
HETATM    4  C   UNL     1      -8.831   5.306  70.443  1.00  0.00    -0.146 A  
HETATM    5  N   UNL     1      -9.440   7.308  71.622  1.00  0.00    -0.152 NA 
HETATM    6  C   UNL     1      -9.107   6.002  71.602  1.00  0.00    -0.142 A  
HETATM    7  C   UNL     1      -9.437   7.993  70.444  1.00  0.00    -0.166 A  
ENDROOT
BRANCH   3   8
HETATM    8  O   UNL     1      -8.567   5.202  68.147  1.00  0.00    -0.103 OA 
BRANCH   8   9
HETATM    9  C   UNL     1      -9.673   4.493  67.568  1.00  0.00    -0.169 C  
HETATM   10  C   UNL     1     -10.071   5.017  66.191  1.00  0.00    -0.236 C  
HETATM   11  F   UNL     1     -11.277   5.639  66.236  1.00  0.00    -0.274 F  
HETATM   12  F   UNL     1     -10.195   3.992  65.309  1.00  0.00    -0.190 F  
HETATM   13  F   UNL     1      -9.185   5.891  65.664  1.00  0.00    -0.164 F  
ENDBRANCH   8   9
ENDBRANCH   3   8
BRANCH   7  14
HETATM   14  C   UNL     1      -9.906   9.432  70.553  1.00  0.00    -0.270 C  
BRANCH  14  15
HETATM   15  S   UNL     1     -11.704   9.566  70.532  1.00  0.00    -0.180 S  
HETATM   16  O   UNL     1     -12.292   9.671  71.910  1.00  0.00    -0.375 OA 
BRANCH  15  17
HETATM   17  C   UNL     1     -11.905  11.134  69.812  1.00  0.00    -0.349 A  
HETATM   18  N   UNL     1     -11.799  12.289  70.436  1.00  0.00    -0.532 NA 
HETATM   19  C   UNL     1     -11.793  13.238  69.439  1.00  0.00    -0.329 A  
HETATM   20  H   UNL     1     -11.737  12.446  71.442  1.00  0.00     0.000 HD 
HETATM   21  C   UNL     1     -11.635  14.631  69.523  1.00  0.00    -0.350 A  
HETATM   22  C   UNL     1     -11.557  15.375  68.339  1.00  0.00    -0.368 A  
HETATM   23  C   UNL     1     -11.650  14.747  67.094  1.00  0.00    -0.373 A  
HETATM   24  C   UNL     1     -11.849  13.365  66.989  1.00  0.00    -0.443 A  
HETATM   25  C   UNL     1     -11.920  12.647  68.185  1.00  0.00    -0.222 A  
HETATM   26  N   UNL     1     -12.084  11.313  68.464  1.00  0.00    -0.591 NA 
ENDBRANCH  15  17
ENDBRANCH  14  15
ENDBRANCH   7  14
TORSDOF 5
ENDMDL
MODEL      142
REMARK 921   NORMALIZED FREE ENERGY PREDICTED BY IDOCK:   -5.15 KCAL/MOL
REMARK 922        TOTAL FREE ENERGY PREDICTED BY IDOCK:   -7.42 KCAL/MOL
REMARK 923 INTER-LIGAND FREE ENERGY PREDICTED BY IDOCK:   -6.95 KCAL/MOL
REMARK 924 INTRA-LIGAND FREE ENERGY PREDICTED BY IDOCK:   -0.47 KCAL/MOL
REMARK 927      BINDING AFFINITY PREDICTED BY RF-SCORE:    0.00 PKD
ROOT
HETATM    1  C   UNL     1      -9.424  12.427  68.296  1.00  0.00    -0.203 C  
HETATM    2  C   UNL     1     -10.418  13.395  68.867  1.00  0.00    -0.135 A  
HETATM    3  C   UNL     1     -11.662  12.977  69.375  1.00  0.00    -0.326 A  
HETATM    4  C   UNL     1     -12.465  13.877  70.071  1.00  0.00    -0.325 A  
HETATM    5  N   UNL     1     -10.920  15.655  69.601  1.00  0.00    -0.262 NA 
HETATM    6  C   UNL     1     -12.045  15.188  70.178  1.00  0.00    -0.343 A  
HETATM    7  C   UNL     1     -10.122  14.774  68.936  1.00  0.00    -0.237 A  
ENDROOT
BRANCH   3   8
HETATM    8  O   UNL     1     -12.184  11.706  69.325  1.00  0.00    -0.271 OA 
BRANCH   8   9
HETATM    9  C   UNL     1     -12.129  10.940  70.538  1.00  0.00    -0.371 C  
HETATM   10  C   UNL     1     -11.269   9.684  70.421  1.00  0.00    -0.283 C  
HETATM   11  F   UNL     1     -12.035   8.564  70.462  1.00  0.00    -0.242 F  
HETATM   12  F   UNL     1     -10.403   9.601  71.462  1.00  0.00    -0.373 F  
HETATM   13  F   UNL     1     -10.537   9.631  69.286  1.00  0.00    -0.191 F  
ENDBRANCH   8   9
ENDBRANCH   3   8
BRANCH   7  14
HETATM   14  C   UNL     1      -8.925  15.407  68.249  1.00  0.00    -0.185 C  
BRANCH  14  15
HETATM   15  S   UNL     1      -9.407  16.428  66.844  1.00  0.00    -0.239 S  
HETATM   16  O   UNL     1     -10.681  17.186  67.090  1.00  0.00    -0.284 OA 
BRANCH  15  17
HETATM   17  C   UNL     1      -8.141  17.617  66.856  1.00  0.00    -0.224 A  
HETATM   18  N   UNL     1      -7.508  18.080  65.798  1.00  0.00    -0.547 NA 
HETATM   19  C   UNL     1      -6.781  19.157  66.257  1.00  0.00    -0.209 A  
HETATM   20  H   UNL     1      -7.547  17.720  64.845  1.00  0.00     0.000 HD 
HETATM   21  C   UNL     1      -5.974  20.064  65.552  1.00  0.00    -0.219 A  
HETATM   22  C   UNL     1      -5.419  21.150  66.240  1.00  0.00    -0.271 A  
HETATM   23  C   UNL     1      -5.649  21.323  67.607  1.00  0.00    -0.399 A  
HETATM   24  C   UNL     1      -6.416  20.407  68.337  1.00  0.00    -0.340 A  
HETATM   25  C   UNL     1      -6.960  19.334  67.626  1.00  0.00    -0.217 A  
HETATM   26  N   UNL     1      -7.758  18.280  67.994  1.00  0.00    -0.252 NA 
ENDBRANCH  15  17
ENDBRANCH  14  15
ENDBRANCH   7  14
TORSDOF 5
ENDMDL
MODEL      143
REMARK 921   NORMALIZED FREE ENERGY PREDICTED BY IDOCK:   -5.13 KCAL/MOL
REMARK 922        TOTAL FREE ENERGY PREDICTED BY IDOCK:   -7.40 KCAL/MOL
REMARK 923 INTER-LIGAND FREE ENERGY PREDICTED BY IDOCK:   -7.14 KCAL/MOL
REMARK 924 INTRA-LIGAND FREE ENERGY PREDICTED BY IDOCK:   -0.26 KCAL/MOL
REMARK 927      BINDING AFFINITY PREDICTED BY RF-SCORE:    0.00 PKD
ROOT
HETATM    1  C   UNL     1     -11.092  11.151  67.551  1.00  0.00    -0.353 C  
HETATM    2  C   UNL     1     -11.651  12.303  68.331  1.00  0.00    -0.377 A  
HETATM    3  C   UNL     1     -11.850  12.237  69.723  1.00  0.00    -0.318 A  
HETATM    4  C   UNL     1     -12.183  13.389  70.432  1.00  0.00    -0.415 A  
HETATM    5  N   UNL     1     -12.322  14.637  68.385  1.00  0.00    -0.066 NA 
HETATM    6  C   UNL     1     -12.383  14.560  69.730  1.00  0.00    -0.272 A  
HETATM    7  C   UNL     1     -11.978  13.517  67.689  1.00  0.00    -0.336 A  
ENDROOT
BRANCH   3   8
HETATM    8  O   UNL     1     -11.685  11.132  70.524  1.00  0.00    -0.333 OA 
BRANCH   8   9
HETATM    9  C   UNL     1     -12.876  10.415  70.885  1.00  0.00    -0.392 C  
HETATM   10  C   UNL     1     -12.597   9.130  71.658  1.00  0.00    -0.360 C  
HETATM   11  F   UNL     1     -12.893   8.037  70.909  1.00  0.00    -0.213 F  
HETATM   12  F   UNL     1     -13.374   9.062  72.768  1.00  0.00    -0.476 F  
HETATM   13  F   UNL     1     -11.313   9.006  72.061  1.00  0.00    -0.392 F  
ENDBRANCH   8   9
ENDBRANCH   3   8
BRANCH   7  14
HETATM   14  C   UNL     1     -12.019  13.679  66.180  1.00  0.00    -0.416 C  
BRANCH  14  15
HETATM   15  S   UNL     1     -10.578  14.562  65.550  1.00  0.00    -0.378 S  
HETATM   16  O   UNL     1     -10.736  16.054  65.625  1.00  0.00    -0.349 OA 
BRANCH  15  17
HETATM   17  C   UNL     1      -9.394  14.152  66.753  1.00  0.00    -0.282 A  
HETATM   18  N   UNL     1      -8.505  13.185  66.662  1.00  0.00    -0.427 NA 
HETATM   19  C   UNL     1      -7.641  13.389  67.715  1.00  0.00    -0.157 A  
HETATM   20  H   UNL     1      -8.465  12.443  65.963  1.00  0.00     0.000 HD 
HETATM   21  C   UNL     1      -6.470  12.699  68.066  1.00  0.00    -0.093 A  
HETATM   22  C   UNL     1      -5.700  13.175  69.135  1.00  0.00    -0.076 A  
HETATM   23  C   UNL     1      -6.096  14.307  69.852  1.00  0.00    -0.141 A  
HETATM   24  C   UNL     1      -7.281  14.985  69.546  1.00  0.00    -0.199 A  
HETATM   25  C   UNL     1      -8.028  14.491  68.473  1.00  0.00    -0.142 A  
HETATM   26  N   UNL     1      -9.202  14.898  67.889  1.00  0.00    -0.181 NA 
ENDBRANCH  15  17
ENDBRANCH  14  15
ENDBRANCH   7  14
TORSDOF 5
ENDMDL
MODEL      144
REMARK 921   NORMALIZED FREE ENERGY PREDICTED BY IDOCK:   -5.11 KCAL/MOL
REMARK 922        TOTAL FREE ENERGY PREDICTED BY IDOCK:   -7.38 KCAL/MOL
REMARK 923 INTER-LIGAND FREE ENERGY PREDICTED BY IDOCK:   -6.82 KCAL/MOL
REMARK 924 INTRA-LIGAND FREE ENERGY PREDICTED BY IDOCK:   -0.56 KCAL/MOL
REMARK 927      BINDING AFFINITY PREDICTED BY RF-SCORE:    0.00 PKD
ROOT
HETATM    1  C   UNL     1     -11.442  11.415  69.062  1.00  0.00    -0.366 C  
HETATM    2  C   UNL     1     -11.173  11.060  67.629  1.00  0.00    -0.373 A  
HETATM    3  C   UNL     1     -11.588  11.883  66.565  1.00  0.00    -0.255 A  
HETATM    4  C   UNL     1     -11.147  11.617  65.270  1.00  0.00    -0.298 A  
HETATM    5  N   UNL     1     -10.052   9.619  66.028  1.00  0.00    -0.276 NA 
HETATM    6  C   UNL     1     -10.369  10.498  65.056  1.00  0.00    -0.240 A  
HETATM    7  C   UNL     1     -10.464   9.885  67.299  1.00  0.00    -0.258 A  
ENDROOT
BRANCH   3   8
HETATM    8  O   UNL     1     -12.361  13.016  66.656  1.00  0.00    -0.381 OA 
BRANCH   8   9
HETATM    9  C   UNL     1     -11.815  14.215  66.086  1.00  0.00    -0.407 C  
HETATM   10  C   UNL     1     -10.799  14.905  66.991  1.00  0.00    -0.315 C  
HETATM   11  F   UNL     1     -11.289  16.078  67.469  1.00  0.00    -0.293 F  
HETATM   12  F   UNL     1      -9.672  15.209  66.298  1.00  0.00    -0.237 F  
HETATM   13  F   UNL     1     -10.424  14.160  68.055  1.00  0.00    -0.227 F  
ENDBRANCH   8   9
ENDBRANCH   3   8
BRANCH   7  14
HETATM   14  C   UNL     1     -10.134   8.798  68.306  1.00  0.00    -0.188 C  
BRANCH  14  15
HETATM   15  S   UNL     1     -10.679   7.170  67.755  1.00  0.00    -0.190 S  
HETATM   16  O   UNL     1      -9.629   6.448  66.958  1.00  0.00    -0.132 OA 
BRANCH  15  17
HETATM   17  C   UNL     1     -10.780   6.330  69.272  1.00  0.00    -0.305 A  
HETATM   18  N   UNL     1     -10.147   5.217  69.581  1.00  0.00    -0.234 NA 
HETATM   19  C   UNL     1     -10.332   5.063  70.938  1.00  0.00    -0.190 A  
HETATM   20  H   UNL     1      -9.631   4.603  68.953  1.00  0.00     0.000 HD 
HETATM   21  C   UNL     1      -9.824   4.087  71.809  1.00  0.00    -0.249 A  
HETATM   22  C   UNL     1     -10.076   4.211  73.182  1.00  0.00    -0.204 A  
HETATM   23  C   UNL     1     -10.832   5.277  73.676  1.00  0.00    -0.347 A  
HETATM   24  C   UNL     1     -11.383   6.237  72.819  1.00  0.00    -0.236 A  
HETATM   25  C   UNL     1     -11.114   6.092  71.456  1.00  0.00    -0.276 A  
HETATM   26  N   UNL     1     -11.461   6.831  70.352  1.00  0.00    -0.345 NA 
ENDBRANCH  15  17
ENDBRANCH  14  15
ENDBRANCH   7  14
TORSDOF 5
ENDMDL
MODEL      145
REMARK 921   NORMALIZED FREE ENERGY PREDICTED BY IDOCK:   -5.10 KCAL/MOL
REMARK 922        TOTAL FREE ENERGY PREDICTED BY IDOCK:   -7.37 KCAL/MOL
REMARK 923 INTER-LIGAND FREE ENERGY PREDICTED BY IDOCK:   -6.51 KCAL/MOL
REMARK 924 INTRA-LIGAND FREE ENERGY PREDICTED BY IDOCK:   -0.86 KCAL/MOL
REMARK 927      BINDING AFFINITY PREDICTED BY RF-SCORE:    0.00 PKD
ROOT
HETATM    1  C   UNL     1     -10.908   6.947  69.375  1.00  0.00    -0.283 C  
HETATM    2  C   UNL     1      -9.844   7.899  69.835  1.00  0.00    -0.182 A  
HETATM    3  C   UNL     1      -8.985   7.597  70.909  1.00  0.00    -0.148 A  
HETATM    4  C   UNL     1      -7.891   8.418  71.173  1.00  0.00    -0.117 A  
HETATM    5  N   UNL     1      -8.590   9.944  69.455  1.00  0.00    -0.170 NA 
HETATM    6  C   UNL     1      -7.722   9.557  70.411  1.00  0.00    -0.163 A  
HETATM    7  C   UNL     1      -9.652   9.135  69.180  1.00  0.00    -0.161 A  
ENDROOT
BRANCH   3   8
HETATM    8  O   UNL     1      -9.056   6.501  71.734  1.00  0.00    -0.142 OA 
BRANCH   8   9
HETATM    9  C   UNL     1     -10.011   6.561  72.804  1.00  0.00    -0.172 C  
HETATM   10  C   UNL     1     -10.952   5.361  72.843  1.00  0.00    -0.287 C  
HETATM   11  F   UNL     1     -12.216   5.721  72.504  1.00  0.00    -0.350 F  
HETATM   12  F   UNL     1     -11.018   4.847  74.098  1.00  0.00    -0.328 F  
HETATM   13  F   UNL     1     -10.584   4.355  72.019  1.00  0.00    -0.248 F  
ENDBRANCH   8   9
ENDBRANCH   3   8
BRANCH   7  14
HETATM   14  C   UNL     1     -10.618   9.694  68.152  1.00  0.00    -0.226 C  
BRANCH  14  15
HETATM   15  S   UNL     1     -11.874  10.749  68.899  1.00  0.00    -0.125 S  
HETATM   16  O   UNL     1     -11.606  11.027  70.351  1.00  0.00    -0.308 OA 
BRANCH  15  17
HETATM   17  C   UNL     1     -11.576  12.247  68.070  1.00  0.00    -0.349 A  
HETATM   18  N   UNL     1     -10.663  13.139  68.392  1.00  0.00    -0.247 NA 
HETATM   19  C   UNL     1     -10.630  14.019  67.333  1.00  0.00    -0.278 A  
HETATM   20  H   UNL     1     -10.101  13.171  69.242  1.00  0.00     0.000 HD 
HETATM   21  C   UNL     1      -9.797  15.127  67.110  1.00  0.00    -0.228 A  
HETATM   22  C   UNL     1      -9.891  15.807  65.889  1.00  0.00    -0.381 A  
HETATM   23  C   UNL     1     -10.809  15.404  64.916  1.00  0.00    -0.445 A  
HETATM   24  C   UNL     1     -11.677  14.328  65.136  1.00  0.00    -0.368 A  
HETATM   25  C   UNL     1     -11.560  13.665  66.360  1.00  0.00    -0.350 A  
HETATM   26  N   UNL     1     -12.212  12.586  66.902  1.00  0.00    -0.456 NA 
ENDBRANCH  15  17
ENDBRANCH  14  15
ENDBRANCH   7  14
TORSDOF 5
ENDMDL
MODEL      146
REMARK 921   NORMALIZED FREE ENERGY PREDICTED BY IDOCK:   -5.05 KCAL/MOL
REMARK 922        TOTAL FREE ENERGY PREDICTED BY IDOCK:   -7.30 KCAL/MOL
REMARK 923 INTER-LIGAND FREE ENERGY PREDICTED BY IDOCK:   -6.44 KCAL/MOL
REMARK 924 INTRA-LIGAND FREE ENERGY PREDICTED BY IDOCK:   -0.85 KCAL/MOL
REMARK 927      BINDING AFFINITY PREDICTED BY RF-SCORE:    0.00 PKD
ROOT
HETATM    1  C   UNL     1     -10.426   9.030  67.026  1.00  0.00    -0.316 C  
HETATM    2  C   UNL     1     -10.762   9.567  68.386  1.00  0.00    -0.230 A  
HETATM    3  C   UNL     1     -11.597  10.686  68.563  1.00  0.00    -0.207 A  
HETATM    4  C   UNL     1     -12.039  11.027  69.839  1.00  0.00    -0.435 A  
HETATM    5  N   UNL     1     -10.683   9.292  70.798  1.00  0.00    -0.258 NA 
HETATM    6  C   UNL     1     -11.579  10.293  70.914  1.00  0.00    -0.365 A  
HETATM    7  C   UNL     1     -10.263   8.942  69.550  1.00  0.00    -0.204 A  
ENDROOT
BRANCH   3   8
HETATM    8  O   UNL     1     -12.113  11.490  67.574  1.00  0.00    -0.614 OA 
BRANCH   8   9
HETATM    9  C   UNL     1     -11.400  12.704  67.296  1.00  0.00    -0.318 C  
HETATM   10  C   UNL     1     -11.607  13.214  65.872  1.00  0.00    -0.354 C  
HETATM   11  F   UNL     1     -10.470  13.091  65.140  1.00  0.00    -0.285 F  
HETATM   12  F   UNL     1     -11.924  14.533  65.880  1.00  0.00    -0.364 F  
HETATM   13  F   UNL     1     -12.590  12.571  65.203  1.00  0.00    -0.514 F  
ENDBRANCH   8   9
ENDBRANCH   3   8
BRANCH   7  14
HETATM   14  C   UNL     1      -9.193   7.865  69.527  1.00  0.00    -0.152 C  
BRANCH  14  15
HETATM   15  S   UNL     1      -9.896   6.205  69.553  1.00  0.00    -0.165 S  
HETATM   16  O   UNL     1     -11.399   6.214  69.561  1.00  0.00    -0.418 OA 
BRANCH  15  17
HETATM   17  C   UNL     1      -9.437   5.632  67.979  1.00  0.00    -0.110 A  
HETATM   18  N   UNL     1     -10.081   4.732  67.267  1.00  0.00    -0.172 NA 
HETATM   19  C   UNL     1      -9.502   4.778  66.018  1.00  0.00    -0.165 A  
HETATM   20  H   UNL     1     -10.845   4.130  67.574  1.00  0.00     0.000 HD 
HETATM   21  C   UNL     1      -9.836   4.081  64.846  1.00  0.00    -0.203 A  
HETATM   22  C   UNL     1      -9.153   4.386  63.661  1.00  0.00    -0.136 A  
HETATM   23  C   UNL     1      -8.146   5.356  63.647  1.00  0.00    -0.117 A  
HETATM   24  C   UNL     1      -7.770   6.032  64.814  1.00  0.00    -0.101 A  
HETATM   25  C   UNL     1      -8.470   5.710  65.980  1.00  0.00    -0.132 A  
HETATM   26  N   UNL     1      -8.391   6.170  67.271  1.00  0.00    -0.106 NA 
ENDBRANCH  15  17
ENDBRANCH  14  15
ENDBRANCH   7  14
TORSDOF 5
ENDMDL
MODEL      147
REMARK 921   NORMALIZED FREE ENERGY PREDICTED BY IDOCK:   -5.04 KCAL/MOL
REMARK 922        TOTAL FREE ENERGY PREDICTED BY IDOCK:   -7.28 KCAL/MOL
REMARK 923 INTER-LIGAND FREE ENERGY PREDICTED BY IDOCK:   -6.51 KCAL/MOL
REMARK 924 INTRA-LIGAND FREE ENERGY PREDICTED BY IDOCK:   -0.77 KCAL/MOL
REMARK 927      BINDING AFFINITY PREDICTED BY RF-SCORE:    0.00 PKD
ROOT
HETATM    1  C   UNL     1      -8.814   8.912  67.746  1.00  0.00    -0.136 C  
HETATM    2  C   UNL     1      -8.712   7.991  68.925  1.00  0.00    -0.131 A  
HETATM    3  C   UNL     1      -8.143   6.708  68.825  1.00  0.00    -0.119 A  
HETATM    4  C   UNL     1      -7.890   5.969  69.978  1.00  0.00    -0.105 A  
HETATM    5  N   UNL     1      -8.937   7.663  71.321  1.00  0.00    -0.133 NA 
HETATM    6  C   UNL     1      -8.279   6.493  71.195  1.00  0.00    -0.121 A  
HETATM    7  C   UNL     1      -9.169   8.398  70.198  1.00  0.00    -0.159 A  
ENDROOT
BRANCH   3   8
HETATM    8  O   UNL     1      -7.721   6.085  67.674  1.00  0.00    -0.095 OA 
BRANCH   8   9
HETATM    9  C   UNL     1      -8.158   4.731  67.480  1.00  0.00    -0.101 C  
HETATM   10  C   UNL     1      -9.527   4.627  66.814  1.00  0.00    -0.162 C  
HETATM   11  F   UNL     1     -10.459   4.163  67.685  1.00  0.00    -0.002 F  
HETATM   12  F   UNL     1      -9.489   3.748  65.780  1.00  0.00    -0.145 F  
HETATM   13  F   UNL     1      -9.983   5.801  66.322  1.00  0.00    -0.178 F  
ENDBRANCH   8   9
ENDBRANCH   3   8
BRANCH   7  14
HETATM   14  C   UNL     1      -9.988   9.655  70.429  1.00  0.00    -0.271 C  
BRANCH  14  15
HETATM   15  S   UNL     1     -11.678   9.283  70.935  1.00  0.00    -0.291 S  
HETATM   16  O   UNL     1     -11.756   8.733  72.331  1.00  0.00    -0.353 OA 
BRANCH  15  17
HETATM   17  C   UNL     1     -12.352  10.882  71.021  1.00  0.00    -0.393 A  
HETATM   18  N   UNL     1     -13.158  11.330  71.960  1.00  0.00    -0.496 NA 
HETATM   19  C   UNL     1     -13.231  12.690  71.754  1.00  0.00    -0.359 A  
HETATM   20  H   UNL     1     -13.628  10.787  72.684  1.00  0.00     0.000 HD 
HETATM   21  C   UNL     1     -13.895  13.679  72.497  1.00  0.00    -0.620 A  
HETATM   22  C   UNL     1     -13.726  15.022  72.138  1.00  0.00    -0.559 A  
HETATM   23  C   UNL     1     -12.924  15.374  71.048  1.00  0.00    -0.556 A  
HETATM   24  C   UNL     1     -12.287  14.401  70.269  1.00  0.00    -0.410 A  
HETATM   25  C   UNL     1     -12.470  13.070  70.652  1.00  0.00    -0.268 A  
HETATM   26  N   UNL     1     -11.998  11.882  70.151  1.00  0.00    -0.346 NA 
ENDBRANCH  15  17
ENDBRANCH  14  15
ENDBRANCH   7  14
TORSDOF 5
ENDMDL
MODEL      148
REMARK 921   NORMALIZED FREE ENERGY PREDICTED BY IDOCK:   -5.03 KCAL/MOL
REMARK 922        TOTAL FREE ENERGY PREDICTED BY IDOCK:   -7.27 KCAL/MOL
REMARK 923 INTER-LIGAND FREE ENERGY PREDICTED BY IDOCK:   -6.06 KCAL/MOL
REMARK 924 INTRA-LIGAND FREE ENERGY PREDICTED BY IDOCK:   -1.21 KCAL/MOL
REMARK 927      BINDING AFFINITY PREDICTED BY RF-SCORE:    0.00 PKD
ROOT
HETATM    1  C   UNL     1     -10.773   7.628  67.621  1.00  0.00    -0.246 C  
HETATM    2  C   UNL     1      -9.800   8.380  68.481  1.00  0.00    -0.186 A  
HETATM    3  C   UNL     1     -10.105   8.751  69.804  1.00  0.00    -0.196 A  
HETATM    4  C   UNL     1      -9.107   9.270  70.626  1.00  0.00    -0.309 A  
HETATM    5  N   UNL     1      -7.554   9.249  68.794  1.00  0.00    -0.079 NA 
HETATM    6  C   UNL     1      -7.852   9.477  70.089  1.00  0.00    -0.160 A  
HETATM    7  C   UNL     1      -8.521   8.723  67.991  1.00  0.00    -0.126 A  
ENDROOT
BRANCH   3   8
HETATM    8  O   UNL     1     -11.312   8.598  70.443  1.00  0.00    -0.257 OA 
BRANCH   8   9
HETATM    9  C   UNL     1     -11.600   9.521  71.505  1.00  0.00    -0.395 C  
HETATM   10  C   UNL     1     -12.628  10.581  71.122  1.00  0.00    -0.417 C  
HETATM   11  F   UNL     1     -12.052  11.807  71.028  1.00  0.00    -0.429 F  
HETATM   12  F   UNL     1     -13.592  10.676  72.073  1.00  0.00    -0.449 F  
HETATM   13  F   UNL     1     -13.249  10.336  69.947  1.00  0.00    -0.180 F  
ENDBRANCH   8   9
ENDBRANCH   3   8
BRANCH   7  14
HETATM   14  C   UNL     1      -8.120   8.582  66.534  1.00  0.00    -0.103 C  
BRANCH  14  15
HETATM   15  S   UNL     1      -7.385  10.093  65.880  1.00  0.00    -0.127 S  
HETATM   16  O   UNL     1      -7.436  10.158  64.380  1.00  0.00    -0.141 OA 
BRANCH  15  17
HETATM   17  C   UNL     1      -8.524  11.278  66.442  1.00  0.00    -0.169 A  
HETATM   18  N   UNL     1      -9.836  11.174  66.389  1.00  0.00    -0.205 NA 
HETATM   19  C   UNL     1     -10.311  12.214  67.156  1.00  0.00    -0.214 A  
HETATM   20  H   UNL     1     -10.382  10.474  65.888  1.00  0.00     0.000 HD 
HETATM   21  C   UNL     1     -11.630  12.547  67.503  1.00  0.00    -0.424 A  
HETATM   22  C   UNL     1     -11.848  13.605  68.394  1.00  0.00    -0.407 A  
HETATM   23  C   UNL     1     -10.773  14.329  68.919  1.00  0.00    -0.268 A  
HETATM   24  C   UNL     1      -9.453  14.041  68.554  1.00  0.00    -0.191 A  
HETATM   25  C   UNL     1      -9.265  12.978  67.666  1.00  0.00    -0.200 A  
HETATM   26  N   UNL     1      -8.143  12.411  67.115  1.00  0.00    -0.181 NA 
ENDBRANCH  15  17
ENDBRANCH  14  15
ENDBRANCH   7  14
TORSDOF 5
ENDMDL
MODEL      149
REMARK 921   NORMALIZED FREE ENERGY PREDICTED BY IDOCK:   -5.00 KCAL/MOL
REMARK 922        TOTAL FREE ENERGY PREDICTED BY IDOCK:   -7.23 KCAL/MOL
REMARK 923 INTER-LIGAND FREE ENERGY PREDICTED BY IDOCK:   -6.47 KCAL/MOL
REMARK 924 INTRA-LIGAND FREE ENERGY PREDICTED BY IDOCK:   -0.77 KCAL/MOL
REMARK 927      BINDING AFFINITY PREDICTED BY RF-SCORE:    0.00 PKD
ROOT
HETATM    1  C   UNL     1     -10.525   8.941  67.353  1.00  0.00    -0.347 C  
HETATM    2  C   UNL     1     -10.946   9.765  68.534  1.00  0.00    -0.195 A  
HETATM    3  C   UNL     1     -11.597  11.004  68.385  1.00  0.00    -0.302 A  
HETATM    4  C   UNL     1     -12.144  11.638  69.499  1.00  0.00    -0.336 A  
HETATM    5  N   UNL     1     -11.242   9.940  70.938  1.00  0.00    -0.340 NA 
HETATM    6  C   UNL     1     -11.964  11.061  70.740  1.00  0.00    -0.333 A  
HETATM    7  C   UNL     1     -10.722   9.306  69.850  1.00  0.00    -0.234 A  
ENDROOT
BRANCH   3   8
HETATM    8  O   UNL     1     -11.832  11.673  67.208  1.00  0.00    -0.609 OA 
BRANCH   8   9
HETATM    9  C   UNL     1     -11.990  13.097  67.297  1.00  0.00    -0.335 C  
HETATM   10  C   UNL     1     -10.757  13.872  66.839  1.00  0.00    -0.284 C  
HETATM   11  F   UNL     1     -10.147  14.482  67.887  1.00  0.00    -0.218 F  
HETATM   12  F   UNL     1     -11.108  14.853  65.969  1.00  0.00    -0.316 F  
HETATM   13  F   UNL     1      -9.831  13.104  66.223  1.00  0.00    -0.258 F  
ENDBRANCH   8   9
ENDBRANCH   3   8
BRANCH   7  14
HETATM   14  C   UNL     1      -9.856   8.103  70.178  1.00  0.00    -0.184 C  
BRANCH  14  15
HETATM   15  S   UNL     1     -10.813   6.743  70.874  1.00  0.00    -0.261 S  
HETATM   16  O   UNL     1     -12.294   6.937  70.714  1.00  0.00    -0.376 OA 
BRANCH  15  17
HETATM   17  C   UNL     1     -10.386   5.456  69.789  1.00  0.00    -0.305 A  
HETATM   18  N   UNL     1     -10.373   5.528  68.474  1.00  0.00    -0.187 NA 
HETATM   19  C   UNL     1      -9.747   4.374  68.057  1.00  0.00    -0.123 A  
HETATM   20  H   UNL     1     -10.745   6.277  67.891  1.00  0.00     0.000 HD 
HETATM   21  C   UNL     1      -9.403   3.955  66.762  1.00  0.00    -0.203 A  
HETATM   22  C   UNL     1      -8.667   2.774  66.608  1.00  0.00    -0.128 A  
HETATM   23  C   UNL     1      -8.295   2.013  67.720  1.00  0.00    -0.081 A  
HETATM   24  C   UNL     1      -8.665   2.391  69.016  1.00  0.00    -0.131 A  
HETATM   25  C   UNL     1      -9.395   3.576  69.141  1.00  0.00    -0.172 A  
HETATM   26  N   UNL     1      -9.901   4.249  70.225  1.00  0.00    -0.208 NA 
ENDBRANCH  15  17
ENDBRANCH  14  15
ENDBRANCH   7  14
TORSDOF 5
ENDMDL
MODEL      150
REMARK 921   NORMALIZED FREE ENERGY PREDICTED BY IDOCK:   -5.00 KCAL/MOL
REMARK 922        TOTAL FREE ENERGY PREDICTED BY IDOCK:   -7.23 KCAL/MOL
REMARK 923 INTER-LIGAND FREE ENERGY PREDICTED BY IDOCK:   -6.48 KCAL/MOL
REMARK 924 INTRA-LIGAND FREE ENERGY PREDICTED BY IDOCK:   -0.75 KCAL/MOL
REMARK 927      BINDING AFFINITY PREDICTED BY RF-SCORE:    0.00 PKD
ROOT
HETATM    1  C   UNL     1      -8.071  14.173  67.556  1.00  0.00    -0.199 C  
HETATM    2  C   UNL     1      -9.546  13.994  67.761  1.00  0.00    -0.216 A  
HETATM    3  C   UNL     1     -10.365  15.032  68.242  1.00  0.00    -0.236 A  
HETATM    4  C   UNL     1     -11.750  14.885  68.230  1.00  0.00    -0.342 A  
HETATM    5  N   UNL     1     -11.527  12.622  67.459  1.00  0.00    -0.318 NA 
HETATM    6  C   UNL     1     -12.282  13.683  67.811  1.00  0.00    -0.166 A  
HETATM    7  C   UNL     1     -10.172  12.767  67.450  1.00  0.00    -0.222 A  
ENDROOT
BRANCH   3   8
HETATM    8  O   UNL     1      -9.951  16.266  68.686  1.00  0.00    -0.217 OA 
BRANCH   8   9
HETATM    9  C   UNL     1     -10.429  17.406  67.956  1.00  0.00    -0.383 C  
HETATM   10  C   UNL     1      -9.326  18.394  67.589  1.00  0.00    -0.267 C  
HETATM   11  F   UNL     1      -9.455  19.550  68.291  1.00  0.00    -0.360 F  
HETATM   12  F   UNL     1      -9.401  18.727  66.276  1.00  0.00    -0.306 F  
HETATM   13  F   UNL     1      -8.078  17.924  67.812  1.00  0.00    -0.217 F  
ENDBRANCH   8   9
ENDBRANCH   3   8
BRANCH   7  14
HETATM   14  C   UNL     1      -9.407  11.498  67.124  1.00  0.00    -0.172 C  
BRANCH  14  15
HETATM   15  S   UNL     1     -10.445  10.265  66.315  1.00  0.00    -0.092 S  
HETATM   16  O   UNL     1      -9.718   9.516  65.234  1.00  0.00    -0.293 OA 
BRANCH  15  17
HETATM   17  C   UNL     1     -10.668   9.128  67.609  1.00  0.00    -0.189 A  
HETATM   18  N   UNL     1     -10.828   7.827  67.474  1.00  0.00    -0.519 NA 
HETATM   19  C   UNL     1     -10.721   7.317  68.749  1.00  0.00    -0.139 A  
HETATM   20  H   UNL     1     -10.995   7.310  66.611  1.00  0.00     0.000 HD 
HETATM   21  C   UNL     1     -10.744   5.985  69.190  1.00  0.00    -0.399 A  
HETATM   22  C   UNL     1     -10.505   5.717  70.543  1.00  0.00    -0.347 A  
HETATM   23  C   UNL     1     -10.264   6.757  71.445  1.00  0.00    -0.216 A  
HETATM   24  C   UNL     1     -10.278   8.095  71.034  1.00  0.00    -0.221 A  
HETATM   25  C   UNL     1     -10.515   8.333  69.678  1.00  0.00    -0.221 A  
HETATM   26  N   UNL     1     -10.581   9.483  68.931  1.00  0.00    -0.219 NA 
ENDBRANCH  15  17
ENDBRANCH  14  15
ENDBRANCH   7  14
TORSDOF 5
ENDMDL
MODEL      151
REMARK 921   NORMALIZED FREE ENERGY PREDICTED BY IDOCK:   -4.99 KCAL/MOL
REMARK 922        TOTAL FREE ENERGY PREDICTED BY IDOCK:   -7.22 KCAL/MOL
REMARK 923 INTER-LIGAND FREE ENERGY PREDICTED BY IDOCK:   -6.56 KCAL/MOL
REMARK 924 INTRA-LIGAND FREE ENERGY PREDICTED BY IDOCK:   -0.67 KCAL/MOL
REMARK 927      BINDING AFFINITY PREDICTED BY RF-SCORE:    0.00 PKD
ROOT
HETATM    1  C   UNL     1     -11.067   8.461  68.614  1.00  0.00     0.299 C  
HETATM    2  C   UNL     1     -10.393   9.178  67.482  1.00  0.00    -0.324 A  
HETATM    3  C   UNL     1      -9.356   8.587  66.736  1.00  0.00    -0.182 A  
HETATM    4  C   UNL     1      -8.896   9.207  65.576  1.00  0.00    -0.229 A  
HETATM    5  N   UNL     1     -10.333  11.088  65.983  1.00  0.00    -0.251 NA 
HETATM    6  C   UNL     1      -9.427  10.433  65.230  1.00  0.00    -0.237 A  
HETATM    7  C   UNL     1     -10.800  10.477  67.108  1.00  0.00    -0.259 A  
ENDROOT
BRANCH   3   8
HETATM    8  O   UNL     1      -8.751   7.378  66.984  1.00  0.00    -0.119 OA 
BRANCH   8   9
HETATM    9  C   UNL     1      -9.269   6.242  66.277  1.00  0.00    -0.145 C  
HETATM   10  C   UNL     1      -8.224   5.537  65.417  1.00  0.00    -0.133 C  
HETATM   11  F   UNL     1      -8.480   5.714  64.095  1.00  0.00    -0.133 F  
HETATM   12  F   UNL     1      -8.247   4.198  65.641  1.00  0.00    -0.104 F  
HETATM   13  F   UNL     1      -6.960   5.958  65.644  1.00  0.00    -0.059 F  
ENDBRANCH   8   9
ENDBRANCH   3   8
BRANCH   7  14
HETATM   14  C   UNL     1     -11.749  11.325  67.935  1.00  0.00    -0.214 C  
BRANCH  14  15
HETATM   15  S   UNL     1     -11.521  13.089  67.640  1.00  0.00    -0.345 S  
HETATM   16  O   UNL     1     -12.651  13.696  66.857  1.00  0.00    -0.233 OA 
BRANCH  15  17
HETATM   17  C   UNL     1     -11.678  13.712  69.254  1.00  0.00    -0.325 A  
HETATM   18  N   UNL     1     -11.235  14.877  69.678  1.00  0.00    -0.263 NA 
HETATM   19  C   UNL     1     -11.792  15.041  70.927  1.00  0.00    -0.324 A  
HETATM   20  H   UNL     1     -10.614  15.519  69.187  1.00  0.00     0.000 HD 
HETATM   21  C   UNL     1     -11.715  16.130  71.810  1.00  0.00    -0.568 A  
HETATM   22  C   UNL     1     -12.468  16.096  72.991  1.00  0.00    -0.590 A  
HETATM   23  C   UNL     1     -13.270  14.993  73.295  1.00  0.00    -0.537 A  
HETATM   24  C   UNL     1     -13.329  13.880  72.448  1.00  0.00    -0.629 A  
HETATM   25  C   UNL     1     -12.571  13.941  71.276  1.00  0.00    -0.371 A  
HETATM   26  N   UNL     1     -12.401  13.071  70.228  1.00  0.00    -0.284 NA 
ENDBRANCH  15  17
ENDBRANCH  14  15
ENDBRANCH   7  14
TORSDOF 5
ENDMDL
MODEL      152
REMARK 921   NORMALIZED FREE ENERGY PREDICTED BY IDOCK:   -4.99 KCAL/MOL
REMARK 922        TOTAL FREE ENERGY PREDICTED BY IDOCK:   -7.22 KCAL/MOL
REMARK 923 INTER-LIGAND FREE ENERGY PREDICTED BY IDOCK:   -6.49 KCAL/MOL
REMARK 924 INTRA-LIGAND FREE ENERGY PREDICTED BY IDOCK:   -0.73 KCAL/MOL
REMARK 927      BINDING AFFINITY PREDICTED BY RF-SCORE:    0.00 PKD
ROOT
HETATM    1  C   UNL     1     -10.361   8.200  68.248  1.00  0.00    -0.241 C  
HETATM    2  C   UNL     1      -9.752   8.870  67.053  1.00  0.00    -0.249 A  
HETATM    3  C   UNL     1      -9.151   8.139  66.012  1.00  0.00    -0.167 A  
HETATM    4  C   UNL     1      -8.777   8.787  64.835  1.00  0.00    -0.161 A  
HETATM    5  N   UNL     1      -9.400  10.906  65.776  1.00  0.00    -0.195 NA 
HETATM    6  C   UNL     1      -8.942  10.155  64.756  1.00  0.00    -0.203 A  
HETATM    7  C   UNL     1      -9.785  10.276  66.922  1.00  0.00    -0.186 A  
ENDROOT
BRANCH   3   8
HETATM    8  O   UNL     1      -8.933   6.783  65.980  1.00  0.00    -0.153 OA 
BRANCH   8   9
HETATM    9  C   UNL     1      -7.780   6.299  66.686  1.00  0.00    -0.100 C  
HETATM   10  C   UNL     1      -8.128   5.389  67.860  1.00  0.00    -0.100 C  
HETATM   11  F   UNL     1      -7.849   5.992  69.044  1.00  0.00    -0.089 F  
HETATM   12  F   UNL     1      -7.386   4.253  67.818  1.00  0.00    -0.064 F  
HETATM   13  F   UNL     1      -9.427   5.016  67.892  1.00  0.00    -0.123 F  
ENDBRANCH   8   9
ENDBRANCH   3   8
BRANCH   7  14
HETATM   14  C   UNL     1     -10.205  11.210  68.042  1.00  0.00    -0.181 C  
BRANCH  14  15
HETATM   15  S   UNL     1     -11.147  12.622  67.434  1.00  0.00    -0.289 S  
HETATM   16  O   UNL     1     -12.370  12.213  66.664  1.00  0.00    -0.453 OA 
BRANCH  15  17
HETATM   17  C   UNL     1     -11.732  13.289  68.928  1.00  0.00    -0.327 A  
HETATM   18  N   UNL     1     -11.957  14.564  69.168  1.00  0.00    -0.411 NA 
HETATM   19  C   UNL     1     -12.632  14.591  70.368  1.00  0.00    -0.346 A  
HETATM   20  H   UNL     1     -11.689  15.360  68.590  1.00  0.00     0.000 HD 
HETATM   21  C   UNL     1     -13.177  15.678  71.070  1.00  0.00    -0.435 A  
HETATM   22  C   UNL     1     -13.918  15.429  72.232  1.00  0.00    -0.661 A  
HETATM   23  C   UNL     1     -14.101  14.124  72.696  1.00  0.00    -0.287 A  
HETATM   24  C   UNL     1     -13.531  13.030  72.035  1.00  0.00    -0.584 A  
HETATM   25  C   UNL     1     -12.799  13.306  70.877  1.00  0.00    -0.181 A  
HETATM   26  N   UNL     1     -12.132  12.507  69.982  1.00  0.00    -0.301 NA 
ENDBRANCH  15  17
ENDBRANCH  14  15
ENDBRANCH   7  14
TORSDOF 5
ENDMDL
MODEL      153
REMARK 921   NORMALIZED FREE ENERGY PREDICTED BY IDOCK:   -4.97 KCAL/MOL
REMARK 922        TOTAL FREE ENERGY PREDICTED BY IDOCK:   -7.20 KCAL/MOL
REMARK 923 INTER-LIGAND FREE ENERGY PREDICTED BY IDOCK:   -6.65 KCAL/MOL
REMARK 924 INTRA-LIGAND FREE ENERGY PREDICTED BY IDOCK:   -0.55 KCAL/MOL
REMARK 927      BINDING AFFINITY PREDICTED BY RF-SCORE:    0.00 PKD
ROOT
HETATM    1  C   UNL     1     -11.077   6.402  67.230  1.00  0.00    -0.416 C  
HETATM    2  C   UNL     1      -9.932   7.147  67.849  1.00  0.00    -0.186 A  
HETATM    3  C   UNL     1      -9.306   6.707  69.031  1.00  0.00    -0.133 A  
HETATM    4  C   UNL     1      -8.128   7.315  69.459  1.00  0.00    -0.129 A  
HETATM    5  N   UNL     1      -8.281   8.920  67.679  1.00  0.00    -0.110 NA 
HETATM    6  C   UNL     1      -7.645   8.392  68.744  1.00  0.00    -0.101 A  
HETATM    7  C   UNL     1      -9.423   8.317  67.244  1.00  0.00    -0.151 A  
ENDROOT
BRANCH   3   8
HETATM    8  O   UNL     1      -9.695   5.654  69.823  1.00  0.00    -0.151 OA 
BRANCH   8   9
HETATM    9  C   UNL     1     -10.987   5.757  70.441  1.00  0.00    -0.262 C  
HETATM   10  C   UNL     1     -10.928   6.241  71.887  1.00  0.00    -0.256 C  
HETATM   11  F   UNL     1     -11.267   5.247  72.748  1.00  0.00    -0.277 F  
HETATM   12  F   UNL     1     -11.815   7.249  72.089  1.00  0.00    -0.288 F  
HETATM   13  F   UNL     1      -9.712   6.700  72.258  1.00  0.00    -0.152 F  
ENDBRANCH   8   9
ENDBRANCH   3   8
BRANCH   7  14
HETATM   14  C   UNL     1     -10.111   9.031  66.095  1.00  0.00    -0.172 C  
BRANCH  14  15
HETATM   15  S   UNL     1      -9.971  10.823  66.224  1.00  0.00    -0.230 S  
HETATM   16  O   UNL     1     -10.609  11.538  65.067  1.00  0.00    -0.277 OA 
BRANCH  15  17
HETATM   17  C   UNL     1     -10.995  11.133  67.592  1.00  0.00    -0.269 A  
HETATM   18  N   UNL     1     -11.525  10.221  68.382  1.00  0.00    -0.557 NA 
HETATM   19  C   UNL     1     -12.043  10.924  69.447  1.00  0.00    -0.290 A  
HETATM   20  H   UNL     1     -11.546   9.212  68.236  1.00  0.00     0.000 HD 
HETATM   21  C   UNL     1     -12.663  10.457  70.616  1.00  0.00    -0.417 A  
HETATM   22  C   UNL     1     -13.013  11.381  71.610  1.00  0.00    -0.523 A  
HETATM   23  C   UNL     1     -12.764  12.745  71.437  1.00  0.00    -0.353 A  
HETATM   24  C   UNL     1     -12.185  13.235  70.260  1.00  0.00    -0.391 A  
HETATM   25  C   UNL     1     -11.844  12.293  69.287  1.00  0.00    -0.306 A  
HETATM   26  N   UNL     1     -11.257  12.399  68.051  1.00  0.00    -0.248 NA 
ENDBRANCH  15  17
ENDBRANCH  14  15
ENDBRANCH   7  14
TORSDOF 5
ENDMDL
MODEL      154
REMARK 921   NORMALIZED FREE ENERGY PREDICTED BY IDOCK:   -4.97 KCAL/MOL
REMARK 922        TOTAL FREE ENERGY PREDICTED BY IDOCK:   -7.19 KCAL/MOL
REMARK 923 INTER-LIGAND FREE ENERGY PREDICTED BY IDOCK:   -6.35 KCAL/MOL
REMARK 924 INTRA-LIGAND FREE ENERGY PREDICTED BY IDOCK:   -0.84 KCAL/MOL
REMARK 927      BINDING AFFINITY PREDICTED BY RF-SCORE:    0.00 PKD
ROOT
HETATM    1  C   UNL     1      -8.014  12.753  67.840  1.00  0.00    -0.158 C  
HETATM    2  C   UNL     1      -9.412  12.624  67.310  1.00  0.00    -0.199 A  
HETATM    3  C   UNL     1     -10.496  13.309  67.888  1.00  0.00    -0.240 A  
HETATM    4  C   UNL     1     -11.734  13.316  67.247  1.00  0.00    -0.424 A  
HETATM    5  N   UNL     1     -10.900  11.812  65.571  1.00  0.00    -0.291 NA 
HETATM    6  C   UNL     1     -11.880  12.579  66.089  1.00  0.00    -0.397 A  
HETATM    7  C   UNL     1      -9.683  11.817  66.183  1.00  0.00    -0.229 A  
ENDROOT
BRANCH   3   8
HETATM    8  O   UNL     1     -10.472  14.068  69.034  1.00  0.00    -0.227 OA 
BRANCH   8   9
HETATM    9  C   UNL     1      -9.904  15.382  68.922  1.00  0.00    -0.216 C  
HETATM   10  C   UNL     1     -10.947  16.476  68.714  1.00  0.00    -0.330 C  
HETATM   11  F   UNL     1     -10.866  16.995  67.462  1.00  0.00    -0.337 F  
HETATM   12  F   UNL     1     -10.738  17.505  69.574  1.00  0.00    -0.290 F  
HETATM   13  F   UNL     1     -12.219  16.056  68.895  1.00  0.00    -0.363 F  
ENDBRANCH   8   9
ENDBRANCH   3   8
BRANCH   7  14
HETATM   14  C   UNL     1      -8.672  10.860  65.579  1.00  0.00    -0.171 C  
BRANCH  14  15
HETATM   15  S   UNL     1      -9.276   9.161  65.548  1.00  0.00    -0.201 S  
HETATM   16  O   UNL     1      -8.214   8.177  65.148  1.00  0.00    -0.141 OA 
BRANCH  15  17
HETATM   17  C   UNL     1      -9.561   8.886  67.239  1.00  0.00    -0.164 A  
HETATM   18  N   UNL     1      -8.666   8.484  68.117  1.00  0.00    -0.141 NA 
HETATM   19  C   UNL     1      -9.269   8.641  69.345  1.00  0.00    -0.150 A  
HETATM   20  H   UNL     1      -7.728   8.131  67.928  1.00  0.00     0.000 HD 
HETATM   21  C   UNL     1      -8.754   8.430  70.634  1.00  0.00    -0.158 A  
HETATM   22  C   UNL     1      -9.544   8.768  71.740  1.00  0.00    -0.371 A  
HETATM   23  C   UNL     1     -10.828   9.292  71.567  1.00  0.00    -0.442 A  
HETATM   24  C   UNL     1     -11.376   9.470  70.292  1.00  0.00    -0.284 A  
HETATM   25  C   UNL     1     -10.566   9.128  69.206  1.00  0.00    -0.216 A  
HETATM   26  N   UNL     1     -10.754   9.184  67.848  1.00  0.00    -0.205 NA 
ENDBRANCH  15  17
ENDBRANCH  14  15
ENDBRANCH   7  14
TORSDOF 5
ENDMDL
MODEL      155
REMARK 921   NORMALIZED FREE ENERGY PREDICTED BY IDOCK:   -4.97 KCAL/MOL
REMARK 922        TOTAL FREE ENERGY PREDICTED BY IDOCK:   -7.19 KCAL/MOL
REMARK 923 INTER-LIGAND FREE ENERGY PREDICTED BY IDOCK:   -7.14 KCAL/MOL
REMARK 924 INTRA-LIGAND FREE ENERGY PREDICTED BY IDOCK:   -0.04 KCAL/MOL
REMARK 927      BINDING AFFINITY PREDICTED BY RF-SCORE:    0.00 PKD
ROOT
HETATM    1  C   UNL     1      -8.990  13.102  68.295  1.00  0.00    -0.175 C  
HETATM    2  C   UNL     1      -9.637  13.669  67.067  1.00  0.00    -0.251 A  
HETATM    3  C   UNL     1     -10.236  12.850  66.092  1.00  0.00    -0.278 A  
HETATM    4  C   UNL     1     -10.994  13.424  65.073  1.00  0.00    -0.328 A  
HETATM    5  N   UNL     1     -10.416  15.622  65.850  1.00  0.00    -0.325 NA 
HETATM    6  C   UNL     1     -11.074  14.800  65.008  1.00  0.00    -0.405 A  
HETATM    7  C   UNL     1      -9.689  15.065  66.859  1.00  0.00    -0.238 A  
ENDROOT
BRANCH   3   8
HETATM    8  O   UNL     1     -10.221  11.476  66.051  1.00  0.00    -0.226 OA 
BRANCH   8   9
HETATM    9  C   UNL     1      -8.945  10.853  65.839  1.00  0.00    -0.192 C  
HETATM   10  C   UNL     1      -8.914   9.938  64.618  1.00  0.00    -0.222 C  
HETATM   11  F   UNL     1      -8.810   8.636  64.987  1.00  0.00    -0.202 F  
HETATM   12  F   UNL     1      -7.832  10.211  63.845  1.00  0.00    -0.143 F  
HETATM   13  F   UNL     1     -10.006  10.048  63.829  1.00  0.00    -0.330 F  
ENDBRANCH   8   9
ENDBRANCH   3   8
BRANCH   7  14
HETATM   14  C   UNL     1      -8.917  16.064  67.701  1.00  0.00    -0.190 C  
BRANCH  14  15
HETATM   15  S   UNL     1      -9.965  17.399  68.308  1.00  0.00    -0.341 S  
HETATM   16  O   UNL     1     -10.860  17.962  67.240  1.00  0.00    -0.312 OA 
BRANCH  15  17
HETATM   17  C   UNL     1     -11.010  16.527  69.387  1.00  0.00    -0.288 A  
HETATM   18  N   UNL     1     -11.756  15.490  69.069  1.00  0.00    -0.367 NA 
HETATM   19  C   UNL     1     -12.210  14.990  70.269  1.00  0.00    -0.340 A  
HETATM   20  H   UNL     1     -11.954  15.133  68.134  1.00  0.00     0.000 HD 
HETATM   21  C   UNL     1     -12.989  13.853  70.534  1.00  0.00    -0.160 A  
HETATM   22  C   UNL     1     -13.231  13.495  71.866  1.00  0.00    -0.510 A  
HETATM   23  C   UNL     1     -12.720  14.263  72.916  1.00  0.00    -0.401 A  
HETATM   24  C   UNL     1     -11.977  15.424  72.674  1.00  0.00    -0.553 A  
HETATM   25  C   UNL     1     -11.747  15.756  71.336  1.00  0.00    -0.445 A  
HETATM   26  N   UNL     1     -11.064  16.783  70.734  1.00  0.00     0.080 NA 
ENDBRANCH  15  17
ENDBRANCH  14  15
ENDBRANCH   7  14
TORSDOF 5
ENDMDL
MODEL      156
REMARK 921   NORMALIZED FREE ENERGY PREDICTED BY IDOCK:   -4.95 KCAL/MOL
REMARK 922        TOTAL FREE ENERGY PREDICTED BY IDOCK:   -7.16 KCAL/MOL
REMARK 923 INTER-LIGAND FREE ENERGY PREDICTED BY IDOCK:   -6.27 KCAL/MOL
REMARK 924 INTRA-LIGAND FREE ENERGY PREDICTED BY IDOCK:   -0.89 KCAL/MOL
REMARK 927      BINDING AFFINITY PREDICTED BY RF-SCORE:    0.00 PKD
ROOT
HETATM    1  C   UNL     1     -10.140   8.197  67.186  1.00  0.00    -0.334 C  
HETATM    2  C   UNL     1      -9.587   8.852  65.955  1.00  0.00    -0.293 A  
HETATM    3  C   UNL     1      -8.594   8.242  65.166  1.00  0.00    -0.105 A  
HETATM    4  C   UNL     1      -8.254   8.792  63.931  1.00  0.00    -0.160 A  
HETATM    5  N   UNL     1      -9.720  10.652  64.330  1.00  0.00    -0.286 NA 
HETATM    6  C   UNL     1      -8.856   9.974  63.549  1.00  0.00    -0.236 A  
HETATM    7  C   UNL     1     -10.070  10.108  65.529  1.00  0.00    -0.268 A  
ENDROOT
BRANCH   3   8
HETATM    8  O   UNL     1      -7.927   7.073  65.444  1.00  0.00    -0.114 OA 
BRANCH   8   9
HETATM    9  C   UNL     1      -8.145   5.977  64.541  1.00  0.00    -0.126 C  
HETATM   10  C   UNL     1      -8.988   4.857  65.142  1.00  0.00    -0.152 C  
HETATM   11  F   UNL     1      -8.241   3.744  65.353  1.00  0.00    -0.097 F  
HETATM   12  F   UNL     1      -9.984   4.501  64.292  1.00  0.00    -0.138 F  
HETATM   13  F   UNL     1      -9.567   5.184  66.319  1.00  0.00    -0.135 F  
ENDBRANCH   8   9
ENDBRANCH   3   8
BRANCH   7  14
HETATM   14  C   UNL     1     -10.979  10.983  66.373  1.00  0.00    -0.137 C  
BRANCH  14  15
HETATM   15  S   UNL     1     -10.060  11.951  67.586  1.00  0.00    -0.194 S  
HETATM   16  O   UNL     1     -10.472  13.396  67.604  1.00  0.00    -0.236 OA 
BRANCH  15  17
HETATM   17  C   UNL     1     -10.661  11.271  69.067  1.00  0.00    -0.217 A  
HETATM   18  N   UNL     1     -11.856  11.476  69.581  1.00  0.00    -0.327 NA 
HETATM   19  C   UNL     1     -11.970  10.560  70.604  1.00  0.00    -0.357 A  
HETATM   20  H   UNL     1     -12.548  12.164  69.286  1.00  0.00     0.000 HD 
HETATM   21  C   UNL     1     -13.057  10.286  71.449  1.00  0.00    -0.512 A  
HETATM   22  C   UNL     1     -12.958   9.220  72.352  1.00  0.00    -0.450 A  
HETATM   23  C   UNL     1     -11.793   8.451  72.424  1.00  0.00    -0.452 A  
HETATM   24  C   UNL     1     -10.683   8.734  71.620  1.00  0.00    -0.397 A  
HETATM   25  C   UNL     1     -10.810   9.800  70.726  1.00  0.00    -0.333 A  
HETATM   26  N   UNL     1      -9.960  10.342  69.794  1.00  0.00    -0.215 NA 
ENDBRANCH  15  17
ENDBRANCH  14  15
ENDBRANCH   7  14
TORSDOF 5
ENDMDL
MODEL      157
REMARK 921   NORMALIZED FREE ENERGY PREDICTED BY IDOCK:   -4.94 KCAL/MOL
REMARK 922        TOTAL FREE ENERGY PREDICTED BY IDOCK:   -7.16 KCAL/MOL
REMARK 923 INTER-LIGAND FREE ENERGY PREDICTED BY IDOCK:   -5.64 KCAL/MOL
REMARK 924 INTRA-LIGAND FREE ENERGY PREDICTED BY IDOCK:   -1.52 KCAL/MOL
REMARK 927      BINDING AFFINITY PREDICTED BY RF-SCORE:    0.00 PKD
ROOT
HETATM    1  C   UNL     1      -7.250   8.820  69.516  1.00  0.00    -0.059 C  
HETATM    2  C   UNL     1      -8.342   8.557  68.522  1.00  0.00    -0.123 A  
HETATM    3  C   UNL     1      -9.402   9.461  68.320  1.00  0.00    -0.133 A  
HETATM    4  C   UNL     1     -10.280   9.273  67.255  1.00  0.00    -0.315 A  
HETATM    5  N   UNL     1      -9.202   7.200  66.701  1.00  0.00    -0.154 NA 
HETATM    6  C   UNL     1     -10.128   8.151  66.466  1.00  0.00    -0.216 A  
HETATM    7  C   UNL     1      -8.328   7.389  67.730  1.00  0.00    -0.118 A  
ENDROOT
BRANCH   3   8
HETATM    8  O   UNL     1      -9.655  10.604  69.040  1.00  0.00    -0.191 OA 
BRANCH   8   9
HETATM    9  C   UNL     1     -10.667  10.515  70.054  1.00  0.00    -0.224 C  
HETATM   10  C   UNL     1     -11.910  11.343  69.743  1.00  0.00    -0.364 C  
HETATM   11  F   UNL     1     -12.014  12.401  70.587  1.00  0.00    -0.423 F  
HETATM   12  F   UNL     1     -13.033  10.599  69.912  1.00  0.00    -0.324 F  
HETATM   13  F   UNL     1     -11.939  11.827  68.482  1.00  0.00    -0.344 F  
ENDBRANCH   8   9
ENDBRANCH   3   8
BRANCH   7  14
HETATM   14  C   UNL     1      -7.381   6.228  67.970  1.00  0.00    -0.089 C  
BRANCH  14  15
HETATM   15  S   UNL     1      -8.237   4.765  68.585  1.00  0.00    -0.083 S  
HETATM   16  O   UNL     1      -7.335   3.853  69.367  1.00  0.00    -0.052 OA 
BRANCH  15  17
HETATM   17  C   UNL     1      -9.309   5.481  69.750  1.00  0.00    -0.142 A  
HETATM   18  N   UNL     1      -8.950   6.042  70.885  1.00  0.00    -0.142 NA 
HETATM   19  C   UNL     1     -10.082   6.674  71.349  1.00  0.00    -0.190 A  
HETATM   20  H   UNL     1      -8.031   6.014  71.327  1.00  0.00     0.000 HD 
HETATM   21  C   UNL     1     -10.262   7.482  72.482  1.00  0.00    -0.283 A  
HETATM   22  C   UNL     1     -11.502   8.103  72.680  1.00  0.00    -0.454 A  
HETATM   23  C   UNL     1     -12.549   7.911  71.774  1.00  0.00    -0.353 A  
HETATM   24  C   UNL     1     -12.404   7.076  70.661  1.00  0.00    -0.239 A  
HETATM   25  C   UNL     1     -11.156   6.472  70.486  1.00  0.00    -0.319 A  
HETATM   26  N   UNL     1     -10.654   5.629  69.526  1.00  0.00    -0.301 NA 
ENDBRANCH  15  17
ENDBRANCH  14  15
ENDBRANCH   7  14
TORSDOF 5
ENDMDL
MODEL      158
REMARK 921   NORMALIZED FREE ENERGY PREDICTED BY IDOCK:   -4.94 KCAL/MOL
REMARK 922        TOTAL FREE ENERGY PREDICTED BY IDOCK:   -7.15 KCAL/MOL
REMARK 923 INTER-LIGAND FREE ENERGY PREDICTED BY IDOCK:   -6.70 KCAL/MOL
REMARK 924 INTRA-LIGAND FREE ENERGY PREDICTED BY IDOCK:   -0.45 KCAL/MOL
REMARK 927      BINDING AFFINITY PREDICTED BY RF-SCORE:    0.00 PKD
ROOT
HETATM    1  C   UNL     1     -10.327   9.609  69.139  1.00  0.00    -0.219 C  
HETATM    2  C   UNL     1     -11.213  10.639  69.778  1.00  0.00    -0.363 A  
HETATM    3  C   UNL     1     -11.791  10.444  71.046  1.00  0.00    -0.361 A  
HETATM    4  C   UNL     1     -12.440  11.500  71.682  1.00  0.00    -0.181 A  
HETATM    5  N   UNL     1     -12.130  12.887  69.746  1.00  0.00    -0.280 NA 
HETATM    6  C   UNL     1     -12.563  12.699  71.009  1.00  0.00    -0.262 A  
HETATM    7  C   UNL     1     -11.477  11.864  69.127  1.00  0.00    -0.296 A  
ENDROOT
BRANCH   3   8
HETATM    8  O   UNL     1     -11.738   9.300  71.806  1.00  0.00    -0.359 OA 
BRANCH   8   9
HETATM    9  C   UNL     1     -12.141   8.081  71.163  1.00  0.00    -0.265 C  
HETATM   10  C   UNL     1     -13.423   7.488  71.740  1.00  0.00    -0.317 C  
HETATM   11  F   UNL     1     -13.168   6.338  72.414  1.00  0.00    -0.184 F  
HETATM   12  F   UNL     1     -14.291   7.172  70.746  1.00  0.00    -0.366 F  
HETATM   13  F   UNL     1     -14.071   8.318  72.588  1.00  0.00    -0.301 F  
ENDBRANCH   8   9
ENDBRANCH   3   8
BRANCH   7  14
HETATM   14  C   UNL     1     -11.104  12.140  67.682  1.00  0.00    -0.268 C  
BRANCH  14  15
HETATM   15  S   UNL     1      -9.397  12.696  67.513  1.00  0.00    -0.196 S  
HETATM   16  O   UNL     1      -8.782  12.286  66.205  1.00  0.00    -0.089 OA 
BRANCH  15  17
HETATM   17  C   UNL     1      -9.625  14.415  67.409  1.00  0.00    -0.216 A  
HETATM   18  N   UNL     1     -10.613  15.097  67.950  1.00  0.00    -0.253 NA 
HETATM   19  C   UNL     1     -10.253  16.420  67.817  1.00  0.00    -0.274 A  
HETATM   20  H   UNL     1     -11.462  14.726  68.375  1.00  0.00     0.000 HD 
HETATM   21  C   UNL     1     -10.900  17.579  68.274  1.00  0.00    -0.223 A  
HETATM   22  C   UNL     1     -10.268  18.817  68.103  1.00  0.00    -0.433 A  
HETATM   23  C   UNL     1      -9.023  18.903  67.474  1.00  0.00    -0.308 A  
HETATM   24  C   UNL     1      -8.381  17.765  66.974  1.00  0.00    -0.242 A  
HETATM   25  C   UNL     1      -9.031  16.542  67.161  1.00  0.00    -0.205 A  
HETATM   26  N   UNL     1      -8.703  15.251  66.830  1.00  0.00    -0.239 NA 
ENDBRANCH  15  17
ENDBRANCH  14  15
ENDBRANCH   7  14
TORSDOF 5
ENDMDL
MODEL      159
REMARK 921   NORMALIZED FREE ENERGY PREDICTED BY IDOCK:   -4.93 KCAL/MOL
REMARK 922        TOTAL FREE ENERGY PREDICTED BY IDOCK:   -7.13 KCAL/MOL
REMARK 923 INTER-LIGAND FREE ENERGY PREDICTED BY IDOCK:   -5.81 KCAL/MOL
REMARK 924 INTRA-LIGAND FREE ENERGY PREDICTED BY IDOCK:   -1.32 KCAL/MOL
REMARK 927      BINDING AFFINITY PREDICTED BY RF-SCORE:    0.00 PKD
ROOT
HETATM    1  C   UNL     1      -7.014   8.982  67.324  1.00  0.00    -0.078 C  
HETATM    2  C   UNL     1      -8.323   8.295  67.579  1.00  0.00    -0.130 A  
HETATM    3  C   UNL     1      -9.482   8.598  66.841  1.00  0.00    -0.180 A  
HETATM    4  C   UNL     1     -10.618   7.802  66.975  1.00  0.00    -0.396 A  
HETATM    5  N   UNL     1      -9.549   6.528  68.707  1.00  0.00    -0.127 NA 
HETATM    6  C   UNL     1     -10.597   6.773  67.894  1.00  0.00    -0.242 A  
HETATM    7  C   UNL     1      -8.429   7.291  68.566  1.00  0.00    -0.125 A  
ENDROOT
BRANCH   3   8
HETATM    8  O   UNL     1      -9.623   9.594  65.904  1.00  0.00    -0.215 OA 
BRANCH   8   9
HETATM    9  C   UNL     1     -10.570  10.631  66.205  1.00  0.00    -0.142 C  
HETATM   10  C   UNL     1      -9.956  11.815  66.946  1.00  0.00    -0.199 C  
HETATM   11  F   UNL     1     -10.402  11.871  68.228  1.00  0.00    -0.177 F  
HETATM   12  F   UNL     1     -10.314  12.984  66.358  1.00  0.00    -0.262 F  
HETATM   13  F   UNL     1      -8.605  11.787  66.990  1.00  0.00    -0.147 F  
ENDBRANCH   8   9
ENDBRANCH   3   8
BRANCH   7  14
HETATM   14  C   UNL     1      -7.338   6.997  69.579  1.00  0.00    -0.094 C  
BRANCH  14  15
HETATM   15  S   UNL     1      -7.402   8.114  70.993  1.00  0.00    -0.063 S  
HETATM   16  O   UNL     1      -6.751   9.439  70.713  1.00  0.00    -0.085 OA 
BRANCH  15  17
HETATM   17  C   UNL     1      -9.107   8.435  71.077  1.00  0.00    -0.165 A  
HETATM   18  N   UNL     1     -10.003   7.689  71.687  1.00  0.00    -0.175 NA 
HETATM   19  C   UNL     1     -11.154   8.447  71.702  1.00  0.00    -0.278 A  
HETATM   20  H   UNL     1      -9.874   6.752  72.068  1.00  0.00     0.000 HD 
HETATM   21  C   UNL     1     -12.403   8.175  72.282  1.00  0.00    -0.371 A  
HETATM   22  C   UNL     1     -13.393   9.165  72.249  1.00  0.00    -0.540 A  
HETATM   23  C   UNL     1     -13.150  10.397  71.636  1.00  0.00    -0.553 A  
HETATM   24  C   UNL     1     -11.926  10.673  71.015  1.00  0.00    -0.442 A  
HETATM   25  C   UNL     1     -10.955   9.669  71.066  1.00  0.00    -0.361 A  
HETATM   26  N   UNL     1      -9.668   9.592  70.596  1.00  0.00    -0.267 NA 
ENDBRANCH  15  17
ENDBRANCH  14  15
ENDBRANCH   7  14
TORSDOF 5
ENDMDL
MODEL      160
REMARK 921   NORMALIZED FREE ENERGY PREDICTED BY IDOCK:   -4.92 KCAL/MOL
REMARK 922        TOTAL FREE ENERGY PREDICTED BY IDOCK:   -7.13 KCAL/MOL
REMARK 923 INTER-LIGAND FREE ENERGY PREDICTED BY IDOCK:   -6.13 KCAL/MOL
REMARK 924 INTRA-LIGAND FREE ENERGY PREDICTED BY IDOCK:   -1.01 KCAL/MOL
REMARK 927      BINDING AFFINITY PREDICTED BY RF-SCORE:    0.00 PKD
ROOT
HETATM    1  C   UNL     1      -9.930   9.967  66.320  1.00  0.00    -0.322 C  
HETATM    2  C   UNL     1      -9.315   9.324  67.528  1.00  0.00    -0.148 A  
HETATM    3  C   UNL     1      -8.883   7.984  67.523  1.00  0.00    -0.128 A  
HETATM    4  C   UNL     1      -8.143   7.490  68.595  1.00  0.00    -0.124 A  
HETATM    5  N   UNL     1      -8.418   9.565  69.772  1.00  0.00    -0.159 NA 
HETATM    6  C   UNL     1      -7.917   8.317  69.676  1.00  0.00    -0.111 A  
HETATM    7  C   UNL     1      -9.126  10.060  68.718  1.00  0.00    -0.148 A  
ENDROOT
BRANCH   3   8
HETATM    8  O   UNL     1      -9.052   7.070  66.510  1.00  0.00    -0.147 OA 
BRANCH   8   9
HETATM    9  C   UNL     1      -8.672   5.716  66.795  1.00  0.00    -0.115 C  
HETATM   10  C   UNL     1      -9.861   4.766  66.911  1.00  0.00    -0.205 C  
HETATM   11  F   UNL     1     -10.029   4.350  68.192  1.00  0.00    -0.208 F  
HETATM   12  F   UNL     1      -9.655   3.652  66.164  1.00  0.00    -0.170 F  
HETATM   13  F   UNL     1     -11.031   5.308  66.506  1.00  0.00    -0.323 F  
ENDBRANCH   8   9
ENDBRANCH   3   8
BRANCH   7  14
HETATM   14  C   UNL     1      -9.720  11.437  68.951  1.00  0.00    -0.090 C  
BRANCH  14  15
HETATM   15  S   UNL     1     -11.457  11.357  69.429  1.00  0.00    -0.339 S  
HETATM   16  O   UNL     1     -12.373  11.178  68.251  1.00  0.00    -0.532 OA 
BRANCH  15  17
HETATM   17  C   UNL     1     -11.490   9.846  70.286  1.00  0.00    -0.281 A  
HETATM   18  N   UNL     1     -11.636   8.655  69.744  1.00  0.00    -0.350 NA 
HETATM   19  C   UNL     1     -11.358   7.763  70.756  1.00  0.00    -0.279 A  
HETATM   20  H   UNL     1     -11.897   8.439  68.782  1.00  0.00     0.000 HD 
HETATM   21  C   UNL     1     -11.295   6.361  70.727  1.00  0.00    -0.411 A  
HETATM   22  C   UNL     1     -10.883   5.679  71.879  1.00  0.00    -0.302 A  
HETATM   23  C   UNL     1     -10.554   6.379  73.043  1.00  0.00    -0.267 A  
HETATM   24  C   UNL     1     -10.650   7.774  73.106  1.00  0.00    -0.415 A  
HETATM   25  C   UNL     1     -11.060   8.428  71.941  1.00  0.00    -0.308 A  
HETATM   26  N   UNL     1     -11.246   9.753  71.633  1.00  0.00    -0.245 NA 
ENDBRANCH  15  17
ENDBRANCH  14  15
ENDBRANCH   7  14
TORSDOF 5
ENDMDL
MODEL      161
REMARK 921   NORMALIZED FREE ENERGY PREDICTED BY IDOCK:   -4.91 KCAL/MOL
REMARK 922        TOTAL FREE ENERGY PREDICTED BY IDOCK:   -7.12 KCAL/MOL
REMARK 923 INTER-LIGAND FREE ENERGY PREDICTED BY IDOCK:   -5.70 KCAL/MOL
REMARK 924 INTRA-LIGAND FREE ENERGY PREDICTED BY IDOCK:   -1.41 KCAL/MOL
REMARK 927      BINDING AFFINITY PREDICTED BY RF-SCORE:    0.00 PKD
ROOT
HETATM    1  C   UNL     1     -11.266   6.238  68.992  1.00  0.00    -0.415 C  
HETATM    2  C   UNL     1     -10.478   6.521  70.237  1.00  0.00    -0.261 A  
HETATM    3  C   UNL     1     -10.919   7.438  71.209  1.00  0.00    -0.242 A  
HETATM    4  C   UNL     1     -10.260   7.522  72.434  1.00  0.00    -0.261 A  
HETATM    5  N   UNL     1      -8.610   5.948  71.680  1.00  0.00    -0.131 NA 
HETATM    6  C   UNL     1      -9.135   6.747  72.630  1.00  0.00    -0.132 A  
HETATM    7  C   UNL     1      -9.262   5.847  70.488  1.00  0.00    -0.152 A  
ENDROOT
BRANCH   3   8
HETATM    8  O   UNL     1     -12.018   8.259  71.124  1.00  0.00    -0.286 OA 
BRANCH   8   9
HETATM    9  C   UNL     1     -11.988   9.457  71.915  1.00  0.00    -0.346 C  
HETATM   10  C   UNL     1     -12.613  10.660  71.214  1.00  0.00    -0.427 C  
HETATM   11  F   UNL     1     -11.669  11.577  70.883  1.00  0.00    -0.382 F  
HETATM   12  F   UNL     1     -13.493  11.286  72.036  1.00  0.00    -0.524 F  
HETATM   13  F   UNL     1     -13.282  10.343  70.083  1.00  0.00    -0.322 F  
ENDBRANCH   8   9
ENDBRANCH   3   8
BRANCH   7  14
HETATM   14  C   UNL     1      -8.551   4.994  69.454  1.00  0.00    -0.088 C  
BRANCH  14  15
HETATM   15  S   UNL     1      -7.130   5.837  68.734  1.00  0.00    -0.075 S  
HETATM   16  O   UNL     1      -6.622   5.158  67.493  1.00  0.00    -0.050 OA 
BRANCH  15  17
HETATM   17  C   UNL     1      -7.867   7.315  68.194  1.00  0.00    -0.118 A  
HETATM   18  N   UNL     1      -8.590   7.463  67.104  1.00  0.00    -0.117 NA 
HETATM   19  C   UNL     1      -9.156   8.714  67.214  1.00  0.00    -0.133 A  
HETATM   20  H   UNL     1      -8.706   6.795  66.342  1.00  0.00     0.000 HD 
HETATM   21  C   UNL     1     -10.070   9.365  66.371  1.00  0.00    -0.332 A  
HETATM   22  C   UNL     1     -10.583  10.608  66.763  1.00  0.00    -0.297 A  
HETATM   23  C   UNL     1     -10.182  11.199  67.965  1.00  0.00    -0.201 A  
HETATM   24  C   UNL     1      -9.241  10.586  68.799  1.00  0.00    -0.177 A  
HETATM   25  C   UNL     1      -8.748   9.345  68.386  1.00  0.00    -0.124 A  
HETATM   26  N   UNL     1      -7.853   8.465  68.941  1.00  0.00    -0.111 NA 
ENDBRANCH  15  17
ENDBRANCH  14  15
ENDBRANCH   7  14
TORSDOF 5
ENDMDL
MODEL      162
REMARK 921   NORMALIZED FREE ENERGY PREDICTED BY IDOCK:   -4.86 KCAL/MOL
REMARK 922        TOTAL FREE ENERGY PREDICTED BY IDOCK:   -7.04 KCAL/MOL
REMARK 923 INTER-LIGAND FREE ENERGY PREDICTED BY IDOCK:   -6.43 KCAL/MOL
REMARK 924 INTRA-LIGAND FREE ENERGY PREDICTED BY IDOCK:   -0.62 KCAL/MOL
REMARK 927      BINDING AFFINITY PREDICTED BY RF-SCORE:    0.00 PKD
ROOT
HETATM    1  C   UNL     1     -11.642  11.916  68.531  1.00  0.00    -0.375 C  
HETATM    2  C   UNL     1     -10.320  11.250  68.288  1.00  0.00    -0.200 A  
HETATM    3  C   UNL     1     -10.055   9.936  68.716  1.00  0.00    -0.174 A  
HETATM    4  C   UNL     1      -8.893   9.291  68.298  1.00  0.00    -0.129 A  
HETATM    5  N   UNL     1      -8.149  11.292  67.199  1.00  0.00    -0.143 NA 
HETATM    6  C   UNL     1      -7.989   9.995  67.528  1.00  0.00    -0.106 A  
HETATM    7  C   UNL     1      -9.293  11.922  67.589  1.00  0.00    -0.183 A  
ENDROOT
BRANCH   3   8
HETATM    8  O   UNL     1     -10.873   9.141  69.484  1.00  0.00    -0.231 OA 
BRANCH   8   9
HETATM    9  C   UNL     1     -10.547   7.744  69.538  1.00  0.00    -0.221 C  
HETATM   10  C   UNL     1     -10.112   7.279  70.925  1.00  0.00    -0.188 C  
HETATM   11  F   UNL     1      -8.790   6.969  70.943  1.00  0.00    -0.142 F  
HETATM   12  F   UNL     1     -10.780   6.153  71.281  1.00  0.00    -0.257 F  
HETATM   13  F   UNL     1     -10.325   8.194  71.897  1.00  0.00    -0.230 F  
ENDBRANCH   8   9
ENDBRANCH   3   8
BRANCH   7  14
HETATM   14  C   UNL     1      -9.344  13.400  67.247  1.00  0.00    -0.233 C  
BRANCH  14  15
HETATM   15  S   UNL     1      -8.176  14.366  68.224  1.00  0.00    -0.157 S  
HETATM   16  O   UNL     1      -6.807  14.414  67.606  1.00  0.00    -0.169 OA 
BRANCH  15  17
HETATM   17  C   UNL     1      -8.835  15.962  68.034  1.00  0.00    -0.178 A  
HETATM   18  N   UNL     1      -8.486  17.027  68.724  1.00  0.00    -0.255 NA 
HETATM   19  C   UNL     1      -9.080  18.087  68.075  1.00  0.00    -0.272 A  
HETATM   20  H   UNL     1      -7.903  17.061  69.559  1.00  0.00     0.000 HD 
HETATM   21  C   UNL     1      -8.994  19.464  68.335  1.00  0.00    -0.403 A  
HETATM   22  C   UNL     1      -9.615  20.358  67.453  1.00  0.00    -0.584 A  
HETATM   23  C   UNL     1     -10.322  19.890  66.342  1.00  0.00    -0.611 A  
HETATM   24  C   UNL     1     -10.455  18.520  66.088  1.00  0.00    -0.447 A  
HETATM   25  C   UNL     1      -9.823  17.651  66.981  1.00  0.00    -0.307 A  
HETATM   26  N   UNL     1      -9.723  16.283  67.039  1.00  0.00    -0.234 NA 
ENDBRANCH  15  17
ENDBRANCH  14  15
ENDBRANCH   7  14
TORSDOF 5
ENDMDL
MODEL      163
REMARK 921   NORMALIZED FREE ENERGY PREDICTED BY IDOCK:   -4.85 KCAL/MOL
REMARK 922        TOTAL FREE ENERGY PREDICTED BY IDOCK:   -7.04 KCAL/MOL
REMARK 923 INTER-LIGAND FREE ENERGY PREDICTED BY IDOCK:   -6.60 KCAL/MOL
REMARK 924 INTRA-LIGAND FREE ENERGY PREDICTED BY IDOCK:   -0.44 KCAL/MOL
REMARK 927      BINDING AFFINITY PREDICTED BY RF-SCORE:    0.00 PKD
ROOT
HETATM    1  C   UNL     1      -9.837   7.832  68.689  1.00  0.00    -0.174 C  
HETATM    2  C   UNL     1     -10.711   8.696  69.548  1.00  0.00    -0.189 A  
HETATM    3  C   UNL     1     -11.132   8.293  70.829  1.00  0.00    -0.258 A  
HETATM    4  C   UNL     1     -11.775   9.203  71.666  1.00  0.00    -0.448 A  
HETATM    5  N   UNL     1     -11.771  10.850  69.918  1.00  0.00    -0.307 NA 
HETATM    6  C   UNL     1     -12.049  10.465  71.180  1.00  0.00    -0.386 A  
HETATM    7  C   UNL     1     -11.125   9.970  69.102  1.00  0.00    -0.190 A  
ENDROOT
BRANCH   3   8
HETATM    8  O   UNL     1     -10.921   7.068  71.415  1.00  0.00    -0.235 OA 
BRANCH   8   9
HETATM    9  C   UNL     1      -9.631   6.853  72.007  1.00  0.00    -0.142 C  
HETATM   10  C   UNL     1      -9.615   7.070  73.518  1.00  0.00    -0.208 C  
HETATM   11  F   UNL     1      -8.907   8.182  73.843  1.00  0.00    -0.304 F  
HETATM   12  F   UNL     1      -9.011   6.028  74.143  1.00  0.00    -0.123 F  
HETATM   13  F   UNL     1     -10.846   7.202  74.061  1.00  0.00    -0.379 F  
ENDBRANCH   8   9
ENDBRANCH   3   8
BRANCH   7  14
HETATM   14  C   UNL     1     -10.933  10.460  67.679  1.00  0.00    -0.312 C  
BRANCH  14  15
HETATM   15  S   UNL     1      -9.212  10.865  67.324  1.00  0.00    -0.151 S  
HETATM   16  O   UNL     1      -8.799  10.467  65.935  1.00  0.00    -0.153 OA 
BRANCH  15  17
HETATM   17  C   UNL     1      -9.281  12.601  67.315  1.00  0.00    -0.195 A  
HETATM   18  N   UNL     1      -8.779  13.388  66.387  1.00  0.00    -0.425 NA 
HETATM   19  C   UNL     1      -9.278  14.641  66.669  1.00  0.00    -0.267 A  
HETATM   20  H   UNL     1      -8.154  13.127  65.625  1.00  0.00     0.000 HD 
HETATM   21  C   UNL     1      -9.125  15.848  65.969  1.00  0.00    -0.363 A  
HETATM   22  C   UNL     1      -9.830  16.976  66.407  1.00  0.00    -0.312 A  
HETATM   23  C   UNL     1     -10.660  16.908  67.530  1.00  0.00    -0.307 A  
HETATM   24  C   UNL     1     -10.793  15.725  68.266  1.00  0.00    -0.305 A  
HETATM   25  C   UNL     1     -10.082  14.615  67.805  1.00  0.00    -0.228 A  
HETATM   26  N   UNL     1      -9.987  13.319  68.247  1.00  0.00    -0.234 NA 
ENDBRANCH  15  17
ENDBRANCH  14  15
ENDBRANCH   7  14
TORSDOF 5
ENDMDL
MODEL      164
REMARK 921   NORMALIZED FREE ENERGY PREDICTED BY IDOCK:   -4.84 KCAL/MOL
REMARK 922        TOTAL FREE ENERGY PREDICTED BY IDOCK:   -7.02 KCAL/MOL
REMARK 923 INTER-LIGAND FREE ENERGY PREDICTED BY IDOCK:   -6.46 KCAL/MOL
REMARK 924 INTRA-LIGAND FREE ENERGY PREDICTED BY IDOCK:   -0.55 KCAL/MOL
REMARK 927      BINDING AFFINITY PREDICTED BY RF-SCORE:    0.00 PKD
ROOT
HETATM    1  C   UNL     1      -8.094  15.038  69.779  1.00  0.00     0.053 C  
HETATM    2  C   UNL     1      -9.374  15.634  69.273  1.00  0.00    -0.267 A  
HETATM    3  C   UNL     1     -10.617  14.998  69.453  1.00  0.00    -0.256 A  
HETATM    4  C   UNL     1     -11.794  15.677  69.145  1.00  0.00    -0.378 A  
HETATM    5  N   UNL     1     -10.529  17.533  68.295  1.00  0.00    -0.379 NA 
HETATM    6  C   UNL     1     -11.702  16.940  68.596  1.00  0.00     0.584 A  
HETATM    7  C   UNL     1      -9.375  16.882  68.612  1.00  0.00    -0.268 A  
ENDROOT
BRANCH   3   8
HETATM    8  O   UNL     1     -10.831  13.749  69.985  1.00  0.00     0.180 OA 
BRANCH   8   9
HETATM    9  C   UNL     1     -12.191  13.292  70.025  1.00  0.00    -0.275 C  
HETATM   10  C   UNL     1     -12.865  13.517  71.376  1.00  0.00    -0.355 C  
HETATM   11  F   UNL     1     -13.087  12.339  72.012  1.00  0.00    -0.520 F  
HETATM   12  F   UNL     1     -14.078  14.105  71.211  1.00  0.00    -0.377 F  
HETATM   13  F   UNL     1     -12.152  14.302  72.214  1.00  0.00    -0.320 F  
ENDBRANCH   8   9
ENDBRANCH   3   8
BRANCH   7  14
HETATM   14  C   UNL     1      -8.111  17.588  68.159  1.00  0.00    -0.249 C  
BRANCH  14  15
HETATM   15  S   UNL     1      -7.571  17.040  66.528  1.00  0.00    -0.315 S  
HETATM   16  O   UNL     1      -6.394  16.107  66.592  1.00  0.00    -0.255 OA 
BRANCH  15  17
HETATM   17  C   UNL     1      -8.923  16.060  66.050  1.00  0.00    -0.310 A  
HETATM   18  N   UNL     1     -10.012  16.489  65.446  1.00  0.00    -0.545 NA 
HETATM   19  C   UNL     1     -10.678  15.349  65.052  1.00  0.00    -0.438 A  
HETATM   20  H   UNL     1     -10.300  17.456  65.302  1.00  0.00     0.000 HD 
HETATM   21  C   UNL     1     -11.862  15.211  64.311  1.00  0.00    -0.263 A  
HETATM   22  C   UNL     1     -12.283  13.926  63.945  1.00  0.00    -0.375 A  
HETATM   23  C   UNL     1     -11.548  12.799  64.323  1.00  0.00    -0.433 A  
HETATM   24  C   UNL     1     -10.388  12.913  65.099  1.00  0.00    -0.320 A  
HETATM   25  C   UNL     1      -9.990  14.206  65.447  1.00  0.00    -0.291 A  
HETATM   26  N   UNL     1      -8.924  14.692  66.163  1.00  0.00    -0.091 NA 
ENDBRANCH  15  17
ENDBRANCH  14  15
ENDBRANCH   7  14
TORSDOF 5
ENDMDL
MODEL      165
REMARK 921   NORMALIZED FREE ENERGY PREDICTED BY IDOCK:   -4.82 KCAL/MOL
REMARK 922        TOTAL FREE ENERGY PREDICTED BY IDOCK:   -7.00 KCAL/MOL
REMARK 923 INTER-LIGAND FREE ENERGY PREDICTED BY IDOCK:   -6.28 KCAL/MOL
REMARK 924 INTRA-LIGAND FREE ENERGY PREDICTED BY IDOCK:   -0.72 KCAL/MOL
REMARK 927      BINDING AFFINITY PREDICTED BY RF-SCORE:    0.00 PKD
ROOT
HETATM    1  C   UNL     1     -10.832  10.874  66.855  1.00  0.00    -0.307 C  
HETATM    2  C   UNL     1      -9.512  11.478  67.233  1.00  0.00    -0.176 A  
HETATM    3  C   UNL     1      -8.428  10.692  67.665  1.00  0.00    -0.118 A  
HETATM    4  C   UNL     1      -7.168  11.269  67.815  1.00  0.00    -0.088 A  
HETATM    5  N   UNL     1      -8.075  13.434  67.309  1.00  0.00    -0.164 NA 
HETATM    6  C   UNL     1      -7.037  12.627  67.604  1.00  0.00    -0.139 A  
HETATM    7  C   UNL     1      -9.305  12.871  67.142  1.00  0.00    -0.229 A  
ENDROOT
BRANCH   3   8
HETATM    8  O   UNL     1      -8.439   9.339  67.909  1.00  0.00    -0.116 OA 
BRANCH   8   9
HETATM    9  C   UNL     1      -8.143   8.482  66.795  1.00  0.00    -0.098 C  
HETATM   10  C   UNL     1      -6.733   7.902  66.837  1.00  0.00    -0.068 C  
HETATM   11  F   UNL     1      -5.958   8.433  65.857  1.00  0.00    -0.044 F  
HETATM   12  F   UNL     1      -6.762   6.561  66.627  1.00  0.00    -0.049 F  
HETATM   13  F   UNL     1      -6.095   8.108  68.011  1.00  0.00    -0.041 F  
ENDBRANCH   8   9
ENDBRANCH   3   8
BRANCH   7  14
HETATM   14  C   UNL     1     -10.423  13.868  66.896  1.00  0.00    -0.276 C  
BRANCH  14  15
HETATM   15  S   UNL     1     -10.402  14.515  65.214  1.00  0.00    -0.417 S  
HETATM   16  O   UNL     1     -11.761  14.501  64.572  1.00  0.00    -0.411 OA 
BRANCH  15  17
HETATM   17  C   UNL     1     -10.040  16.187  65.513  1.00  0.00    -0.276 A  
HETATM   18  N   UNL     1     -10.896  17.186  65.448  1.00  0.00    -0.465 NA 
HETATM   19  C   UNL     1     -10.234  18.264  65.993  1.00  0.00    -0.323 A  
HETATM   20  H   UNL     1     -11.845  17.165  65.075  1.00  0.00     0.000 HD 
HETATM   21  C   UNL     1     -10.689  19.569  66.237  1.00  0.00    -0.530 A  
HETATM   22  C   UNL     1      -9.845  20.464  66.907  1.00  0.00    -0.572 A  
HETATM   23  C   UNL     1      -8.566  20.073  67.311  1.00  0.00    -0.399 A  
HETATM   24  C   UNL     1      -8.077  18.789  67.040  1.00  0.00    -0.266 A  
HETATM   25  C   UNL     1      -8.941  17.916  66.374  1.00  0.00    -0.227 A  
HETATM   26  N   UNL     1      -8.817  16.611  65.969  1.00  0.00    -0.484 NA 
ENDBRANCH  15  17
ENDBRANCH  14  15
ENDBRANCH   7  14
TORSDOF 5
ENDMDL
MODEL      166
REMARK 921   NORMALIZED FREE ENERGY PREDICTED BY IDOCK:   -4.82 KCAL/MOL
REMARK 922        TOTAL FREE ENERGY PREDICTED BY IDOCK:   -7.00 KCAL/MOL
REMARK 923 INTER-LIGAND FREE ENERGY PREDICTED BY IDOCK:   -6.65 KCAL/MOL
REMARK 924 INTRA-LIGAND FREE ENERGY PREDICTED BY IDOCK:   -0.35 KCAL/MOL
REMARK 927      BINDING AFFINITY PREDICTED BY RF-SCORE:    0.00 PKD
ROOT
HETATM    1  C   UNL     1     -10.561   9.380  70.903  1.00  0.00    -0.390 C  
HETATM    2  C   UNL     1     -10.393   9.189  69.425  1.00  0.00    -0.220 A  
HETATM    3  C   UNL     1     -10.325   7.911  68.839  1.00  0.00    -0.213 A  
HETATM    4  C   UNL     1     -10.368   7.781  67.453  1.00  0.00    -0.354 A  
HETATM    5  N   UNL     1     -10.342  10.169  67.203  1.00  0.00    -0.224 NA 
HETATM    6  C   UNL     1     -10.400   8.927  66.684  1.00  0.00    -0.223 A  
HETATM    7  C   UNL     1     -10.320  10.302  68.559  1.00  0.00    -0.178 A  
ENDROOT
BRANCH   3   8
HETATM    8  O   UNL     1     -10.286   6.706  69.499  1.00  0.00    -0.185 OA 
BRANCH   8   9
HETATM    9  C   UNL     1     -11.441   6.363  70.280  1.00  0.00    -0.402 C  
HETATM   10  C   UNL     1     -11.131   6.159  71.760  1.00  0.00    -0.274 C  
HETATM   11  F   UNL     1     -11.257   4.852  72.109  1.00  0.00    -0.211 F  
HETATM   12  F   UNL     1     -12.006   6.853  72.531  1.00  0.00    -0.281 F  
HETATM   13  F   UNL     1      -9.888   6.553  72.114  1.00  0.00    -0.160 F  
ENDBRANCH   8   9
ENDBRANCH   3   8
BRANCH   7  14
HETATM   14  C   UNL     1     -10.169  11.731  69.047  1.00  0.00    -0.021 C  
BRANCH  14  15
HETATM   15  S   UNL     1     -11.731  12.632  69.015  1.00  0.00    -0.312 S  
HETATM   16  O   UNL     1     -12.256  12.928  70.391  1.00  0.00    -0.354 OA 
BRANCH  15  17
HETATM   17  C   UNL     1     -11.212  14.159  68.369  1.00  0.00    -0.265 A  
HETATM   18  N   UNL     1     -11.344  15.330  68.957  1.00  0.00    -0.280 NA 
HETATM   19  C   UNL     1     -10.585  16.198  68.204  1.00  0.00    -0.290 A  
HETATM   20  H   UNL     1     -11.890  15.547  69.790  1.00  0.00     0.000 HD 
HETATM   21  C   UNL     1     -10.310  17.560  68.406  1.00  0.00    -0.378 A  
HETATM   22  C   UNL     1      -9.412  18.203  67.545  1.00  0.00    -0.262 A  
HETATM   23  C   UNL     1      -8.810  17.507  66.492  1.00  0.00    -0.291 A  
HETATM   24  C   UNL     1      -9.104  16.161  66.247  1.00  0.00    -0.373 A  
HETATM   25  C   UNL     1     -10.000  15.543  67.124  1.00  0.00    -0.242 A  
HETATM   26  N   UNL     1     -10.496  14.266  67.204  1.00  0.00    -0.265 NA 
ENDBRANCH  15  17
ENDBRANCH  14  15
ENDBRANCH   7  14
TORSDOF 5
ENDMDL
MODEL      167
REMARK 921   NORMALIZED FREE ENERGY PREDICTED BY IDOCK:   -4.82 KCAL/MOL
REMARK 922        TOTAL FREE ENERGY PREDICTED BY IDOCK:   -7.00 KCAL/MOL
REMARK 923 INTER-LIGAND FREE ENERGY PREDICTED BY IDOCK:   -6.22 KCAL/MOL
REMARK 924 INTRA-LIGAND FREE ENERGY PREDICTED BY IDOCK:   -0.77 KCAL/MOL
REMARK 927      BINDING AFFINITY PREDICTED BY RF-SCORE:    0.00 PKD
ROOT
HETATM    1  C   UNL     1     -11.280  10.482  67.769  1.00  0.00    -0.344 C  
HETATM    2  C   UNL     1     -11.467  11.619  68.729  1.00  0.00    -0.346 A  
HETATM    3  C   UNL     1     -10.819  12.856  68.558  1.00  0.00    -0.257 A  
HETATM    4  C   UNL     1     -11.173  13.942  69.356  1.00  0.00    -0.273 A  
HETATM    5  N   UNL     1     -12.661  12.551  70.628  1.00  0.00    -0.214 NA 
HETATM    6  C   UNL     1     -12.107  13.749  70.353  1.00  0.00    -0.350 A  
HETATM    7  C   UNL     1     -12.332  11.491  69.838  1.00  0.00    -0.180 A  
ENDROOT
BRANCH   3   8
HETATM    8  O   UNL     1      -9.875  13.164  67.607  1.00  0.00    -0.210 OA 
BRANCH   8   9
HETATM    9  C   UNL     1     -10.125  14.329  66.806  1.00  0.00    -0.264 C  
HETATM   10  C   UNL     1     -11.119  14.083  65.675  1.00  0.00    -0.302 C  
HETATM   11  F   UNL     1     -10.502  14.129  64.466  1.00  0.00    -0.427 F  
HETATM   12  F   UNL     1     -12.073  15.048  65.660  1.00  0.00    -0.241 F  
HETATM   13  F   UNL     1     -11.755  12.894  65.759  1.00  0.00    -0.343 F  
ENDBRANCH   8   9
ENDBRANCH   3   8
BRANCH   7  14
HETATM   14  C   UNL     1     -12.937  10.170  70.276  1.00  0.00     0.046 C  
BRANCH  14  15
HETATM   15  S   UNL     1     -12.659   9.840  72.027  1.00  0.00    -0.298 S  
HETATM   16  O   UNL     1     -13.712   8.948  72.622  1.00  0.00    -0.444 OA 
BRANCH  15  17
HETATM   17  C   UNL     1     -11.214   8.879  71.952  1.00  0.00    -0.377 A  
HETATM   18  N   UNL     1     -11.027   7.720  72.548  1.00  0.00    -0.308 NA 
HETATM   19  C   UNL     1      -9.856   7.226  72.015  1.00  0.00    -0.161 A  
HETATM   20  H   UNL     1     -11.620   7.283  73.252  1.00  0.00     0.000 HD 
HETATM   21  C   UNL     1      -9.215   5.998  72.238  1.00  0.00    -0.146 A  
HETATM   22  C   UNL     1      -8.077   5.684  71.484  1.00  0.00    -0.118 A  
HETATM   23  C   UNL     1      -7.576   6.583  70.539  1.00  0.00    -0.096 A  
HETATM   24  C   UNL     1      -8.176   7.831  70.331  1.00  0.00    -0.121 A  
HETATM   25  C   UNL     1      -9.312   8.116  71.094  1.00  0.00    -0.154 A  
HETATM   26  N   UNL     1     -10.151   9.201  71.146  1.00  0.00    -0.294 NA 
ENDBRANCH  15  17
ENDBRANCH  14  15
ENDBRANCH   7  14
TORSDOF 5
ENDMDL
MODEL      168
REMARK 921   NORMALIZED FREE ENERGY PREDICTED BY IDOCK:   -4.82 KCAL/MOL
REMARK 922        TOTAL FREE ENERGY PREDICTED BY IDOCK:   -6.99 KCAL/MOL
REMARK 923 INTER-LIGAND FREE ENERGY PREDICTED BY IDOCK:   -6.09 KCAL/MOL
REMARK 924 INTRA-LIGAND FREE ENERGY PREDICTED BY IDOCK:   -0.91 KCAL/MOL
REMARK 927      BINDING AFFINITY PREDICTED BY RF-SCORE:    0.00 PKD
ROOT
HETATM    1  C   UNL     1     -10.625   9.585  68.093  1.00  0.00    -0.265 C  
HETATM    2  C   UNL     1      -9.577   8.532  68.299  1.00  0.00    -0.156 A  
HETATM    3  C   UNL     1      -9.897   7.238  68.752  1.00  0.00    -0.161 A  
HETATM    4  C   UNL     1      -8.926   6.239  68.740  1.00  0.00    -0.125 A  
HETATM    5  N   UNL     1      -7.270   7.825  68.026  1.00  0.00    -0.085 NA 
HETATM    6  C   UNL     1      -7.644   6.571  68.350  1.00  0.00    -0.104 A  
HETATM    7  C   UNL     1      -8.220   8.801  68.018  1.00  0.00    -0.118 A  
ENDROOT
BRANCH   3   8
HETATM    8  O   UNL     1     -11.131   6.795  69.166  1.00  0.00    -0.250 OA 
BRANCH   8   9
HETATM    9  C   UNL     1     -11.147   5.877  70.270  1.00  0.00    -0.298 C  
HETATM   10  C   UNL     1     -11.135   6.567  71.631  1.00  0.00    -0.259 C  
HETATM   11  F   UNL     1      -9.952   6.369  72.267  1.00  0.00    -0.166 F  
HETATM   12  F   UNL     1     -12.100   6.054  72.434  1.00  0.00    -0.351 F  
HETATM   13  F   UNL     1     -11.339   7.902  71.564  1.00  0.00    -0.250 F  
ENDBRANCH   8   9
ENDBRANCH   3   8
BRANCH   7  14
HETATM   14  C   UNL     1      -7.688  10.192  67.725  1.00  0.00    -0.090 C  
BRANCH  14  15
HETATM   15  S   UNL     1      -7.485  10.487  65.958  1.00  0.00    -0.134 S  
HETATM   16  O   UNL     1      -7.604   9.229  65.145  1.00  0.00    -0.102 OA 
BRANCH  15  17
HETATM   17  C   UNL     1      -8.918  11.407  65.615  1.00  0.00    -0.123 A  
HETATM   18  N   UNL     1      -9.208  12.594  66.104  1.00  0.00    -0.423 NA 
HETATM   19  C   UNL     1     -10.296  13.027  65.378  1.00  0.00    -0.300 A  
HETATM   20  H   UNL     1      -8.731  13.087  66.857  1.00  0.00     0.000 HD 
HETATM   21  C   UNL     1     -10.981  14.251  65.427  1.00  0.00    -0.335 A  
HETATM   22  C   UNL     1     -12.003  14.491  64.499  1.00  0.00    -0.482 A  
HETATM   23  C   UNL     1     -12.346  13.525  63.550  1.00  0.00    -0.343 A  
HETATM   24  C   UNL     1     -11.703  12.283  63.510  1.00  0.00    -0.584 A  
HETATM   25  C   UNL     1     -10.686  12.071  64.445  1.00  0.00    -0.323 A  
HETATM   26  N   UNL     1      -9.847  11.011  64.686  1.00  0.00    -0.261 NA 
ENDBRANCH  15  17
ENDBRANCH  14  15
ENDBRANCH   7  14
TORSDOF 5
ENDMDL
MODEL      169
REMARK 921   NORMALIZED FREE ENERGY PREDICTED BY IDOCK:   -4.82 KCAL/MOL
REMARK 922        TOTAL FREE ENERGY PREDICTED BY IDOCK:   -6.99 KCAL/MOL
REMARK 923 INTER-LIGAND FREE ENERGY PREDICTED BY IDOCK:   -6.13 KCAL/MOL
REMARK 924 INTRA-LIGAND FREE ENERGY PREDICTED BY IDOCK:   -0.87 KCAL/MOL
REMARK 927      BINDING AFFINITY PREDICTED BY RF-SCORE:    0.00 PKD
ROOT
HETATM    1  C   UNL     1      -9.300  14.536  66.335  1.00  0.00    -0.300 C  
HETATM    2  C   UNL     1      -8.970  13.211  66.957  1.00  0.00    -0.228 A  
HETATM    3  C   UNL     1      -9.451  11.998  66.430  1.00  0.00    -0.231 A  
HETATM    4  C   UNL     1      -8.961  10.788  66.918  1.00  0.00    -0.147 A  
HETATM    5  N   UNL     1      -7.673  11.951  68.578  1.00  0.00    -0.133 NA 
HETATM    6  C   UNL     1      -8.064  10.815  67.966  1.00  0.00    -0.114 A  
HETATM    7  C   UNL     1      -8.133  13.138  68.092  1.00  0.00    -0.155 A  
ENDROOT
BRANCH   3   8
HETATM    8  O   UNL     1     -10.342  11.848  65.395  1.00  0.00    -0.247 OA 
BRANCH   8   9
HETATM    9  C   UNL     1     -11.725  12.092  65.696  1.00  0.00    -0.246 C  
HETATM   10  C   UNL     1     -12.445  12.898  64.620  1.00  0.00    -0.434 C  
HETATM   11  F   UNL     1     -12.755  14.142  65.068  1.00  0.00    -0.432 F  
HETATM   12  F   UNL     1     -13.617  12.303  64.283  1.00  0.00    -0.253 F  
HETATM   13  F   UNL     1     -11.731  13.045  63.482  1.00  0.00    -0.469 F  
ENDBRANCH   8   9
ENDBRANCH   3   8
BRANCH   7  14
HETATM   14  C   UNL     1      -7.708  14.353  68.896  1.00  0.00    -0.128 C  
BRANCH  14  15
HETATM   15  S   UNL     1      -6.091  14.972  68.391  1.00  0.00    -0.114 S  
HETATM   16  O   UNL     1      -5.490  14.173  67.270  1.00  0.00    -0.295 OA 
BRANCH  15  17
HETATM   17  C   UNL     1      -6.532  16.502  67.696  1.00  0.00    -0.147 A  
HETATM   18  N   UNL     1      -7.166  17.477  68.314  1.00  0.00    -0.208 NA 
HETATM   19  C   UNL     1      -7.078  18.558  67.466  1.00  0.00    -0.206 A  
HETATM   20  H   UNL     1      -7.623  17.439  69.225  1.00  0.00     0.000 HD 
HETATM   21  C   UNL     1      -7.520  19.879  67.643  1.00  0.00    -0.320 A  
HETATM   22  C   UNL     1      -7.213  20.831  66.663  1.00  0.00    -0.245 A  
HETATM   23  C   UNL     1      -6.494  20.473  65.520  1.00  0.00    -0.284 A  
HETATM   24  C   UNL     1      -6.080  19.153  65.304  1.00  0.00    -0.297 A  
HETATM   25  C   UNL     1      -6.397  18.224  66.299  1.00  0.00    -0.204 A  
HETATM   26  N   UNL     1      -6.145  16.882  66.436  1.00  0.00    -0.289 NA 
ENDBRANCH  15  17
ENDBRANCH  14  15
ENDBRANCH   7  14
TORSDOF 5
ENDMDL
MODEL      170
REMARK 921   NORMALIZED FREE ENERGY PREDICTED BY IDOCK:   -4.81 KCAL/MOL
REMARK 922        TOTAL FREE ENERGY PREDICTED BY IDOCK:   -6.99 KCAL/MOL
REMARK 923 INTER-LIGAND FREE ENERGY PREDICTED BY IDOCK:   -6.58 KCAL/MOL
REMARK 924 INTRA-LIGAND FREE ENERGY PREDICTED BY IDOCK:   -0.41 KCAL/MOL
REMARK 927      BINDING AFFINITY PREDICTED BY RF-SCORE:    0.00 PKD
ROOT
HETATM    1  C   UNL     1     -10.091  11.189  66.634  1.00  0.00    -0.256 C  
HETATM    2  C   UNL     1     -10.669  11.863  67.843  1.00  0.00    -0.239 A  
HETATM    3  C   UNL     1     -11.212  13.160  67.788  1.00  0.00    -0.277 A  
HETATM    4  C   UNL     1     -11.913  13.666  68.881  1.00  0.00    -0.392 A  
HETATM    5  N   UNL     1     -11.379  11.706  70.160  1.00  0.00    -0.114 NA 
HETATM    6  C   UNL     1     -11.990  12.900  70.026  1.00  0.00    -0.309 A  
HETATM    7  C   UNL     1     -10.710  11.197  69.088  1.00  0.00    -0.221 A  
ENDROOT
BRANCH   3   8
HETATM    8  O   UNL     1     -11.195  14.012  66.709  1.00  0.00    -0.301 OA 
BRANCH   8   9
HETATM    9  C   UNL     1     -12.347  13.990  65.853  1.00  0.00    -0.486 C  
HETATM   10  C   UNL     1     -11.999  13.812  64.378  1.00  0.00    -0.445 C  
HETATM   11  F   UNL     1     -12.253  14.947  63.677  1.00  0.00    -0.263 F  
HETATM   12  F   UNL     1     -12.761  12.835  63.823  1.00  0.00    -0.429 F  
HETATM   13  F   UNL     1     -10.707  13.483  64.159  1.00  0.00    -0.394 F  
ENDBRANCH   8   9
ENDBRANCH   3   8
BRANCH   7  14
HETATM   14  C   UNL     1      -9.986   9.892  69.361  1.00  0.00    -0.212 C  
BRANCH  14  15
HETATM   15  S   UNL     1     -10.992   8.741  70.316  1.00  0.00    -0.215 S  
HETATM   16  O   UNL     1     -12.446   9.119  70.331  1.00  0.00     0.115 OA 
BRANCH  15  17
HETATM   17  C   UNL     1     -10.886   7.317  69.326  1.00  0.00    -0.159 A  
HETATM   18  N   UNL     1     -11.269   7.221  68.070  1.00  0.00    -0.468 NA 
HETATM   19  C   UNL     1     -10.776   6.011  67.634  1.00  0.00    -0.296 A  
HETATM   20  H   UNL     1     -11.814   7.897  67.535  1.00  0.00     0.000 HD 
HETATM   21  C   UNL     1     -10.828   5.424  66.360  1.00  0.00    -0.202 A  
HETATM   22  C   UNL     1     -10.150   4.217  66.144  1.00  0.00    -0.210 A  
HETATM   23  C   UNL     1      -9.448   3.598  67.181  1.00  0.00    -0.229 A  
HETATM   24  C   UNL     1      -9.419   4.144  68.469  1.00  0.00    -0.216 A  
HETATM   25  C   UNL     1     -10.100   5.350  68.656  1.00  0.00    -0.179 A  
HETATM   26  N   UNL     1     -10.269   6.166  69.746  1.00  0.00    -0.182 NA 
ENDBRANCH  15  17
ENDBRANCH  14  15
ENDBRANCH   7  14
TORSDOF 5
ENDMDL
MODEL      171
REMARK 921   NORMALIZED FREE ENERGY PREDICTED BY IDOCK:   -4.81 KCAL/MOL
REMARK 922        TOTAL FREE ENERGY PREDICTED BY IDOCK:   -6.98 KCAL/MOL
REMARK 923 INTER-LIGAND FREE ENERGY PREDICTED BY IDOCK:   -5.98 KCAL/MOL
REMARK 924 INTRA-LIGAND FREE ENERGY PREDICTED BY IDOCK:   -1.01 KCAL/MOL
REMARK 927      BINDING AFFINITY PREDICTED BY RF-SCORE:    0.00 PKD
ROOT
HETATM    1  C   UNL     1      -6.749  11.118  67.014  1.00  0.00    -0.115 C  
HETATM    2  C   UNL     1      -8.008  10.307  66.939  1.00  0.00    -0.112 A  
HETATM    3  C   UNL     1      -9.201  10.826  66.401  1.00  0.00    -0.170 A  
HETATM    4  C   UNL     1     -10.284   9.979  66.171  1.00  0.00    -0.283 A  
HETATM    5  N   UNL     1      -9.100   8.151  67.182  1.00  0.00    -0.136 NA 
HETATM    6  C   UNL     1     -10.179   8.657  66.552  1.00  0.00    -0.225 A  
HETATM    7  C   UNL     1      -8.031   8.969  67.391  1.00  0.00    -0.100 A  
ENDROOT
BRANCH   3   8
HETATM    8  O   UNL     1      -9.422  12.118  65.990  1.00  0.00    -0.239 OA 
BRANCH   8   9
HETATM    9  C   UNL     1      -9.898  13.037  66.986  1.00  0.00    -0.238 C  
HETATM   10  C   UNL     1     -11.360  13.431  66.796  1.00  0.00    -0.325 C  
HETATM   11  F   UNL     1     -11.469  14.730  66.415  1.00  0.00    -0.338 F  
HETATM   12  F   UNL     1     -12.042  13.309  67.962  1.00  0.00    -0.368 F  
HETATM   13  F   UNL     1     -12.008  12.684  65.874  1.00  0.00    -0.420 F  
ENDBRANCH   8   9
ENDBRANCH   3   8
BRANCH   7  14
HETATM   14  C   UNL     1      -6.900   8.335  68.180  1.00  0.00    -0.069 C  
BRANCH  14  15
HETATM   15  S   UNL     1      -6.994   8.724  69.938  1.00  0.00    -0.048 S  
HETATM   16  O   UNL     1      -6.734  10.176  70.224  1.00  0.00    -0.117 OA 
BRANCH  15  17
HETATM   17  C   UNL     1      -8.689   8.482  70.235  1.00  0.00    -0.142 A  
HETATM   18  N   UNL     1      -9.290   7.318  70.364  1.00  0.00    -0.159 NA 
HETATM   19  C   UNL     1     -10.554   7.615  70.824  1.00  0.00    -0.221 A  
HETATM   20  H   UNL     1      -8.904   6.395  70.166  1.00  0.00     0.000 HD 
HETATM   21  C   UNL     1     -11.600   6.756  71.198  1.00  0.00    -0.377 A  
HETATM   22  C   UNL     1     -12.767   7.310  71.741  1.00  0.00    -0.370 A  
HETATM   23  C   UNL     1     -12.896   8.693  71.895  1.00  0.00    -0.411 A  
HETATM   24  C   UNL     1     -11.882   9.568  71.490  1.00  0.00    -0.478 A  
HETATM   25  C   UNL     1     -10.729   8.989  70.955  1.00  0.00    -0.253 A  
HETATM   26  N   UNL     1      -9.554   9.518  70.481  1.00  0.00    -0.262 NA 
ENDBRANCH  15  17
ENDBRANCH  14  15
ENDBRANCH   7  14
TORSDOF 5
ENDMDL
MODEL      172
REMARK 921   NORMALIZED FREE ENERGY PREDICTED BY IDOCK:   -4.80 KCAL/MOL
REMARK 922        TOTAL FREE ENERGY PREDICTED BY IDOCK:   -6.97 KCAL/MOL
REMARK 923 INTER-LIGAND FREE ENERGY PREDICTED BY IDOCK:   -6.14 KCAL/MOL
REMARK 924 INTRA-LIGAND FREE ENERGY PREDICTED BY IDOCK:   -0.83 KCAL/MOL
REMARK 927      BINDING AFFINITY PREDICTED BY RF-SCORE:    0.00 PKD
ROOT
HETATM    1  C   UNL     1     -12.266  13.233  69.919  1.00  0.00    -0.313 C  
HETATM    2  C   UNL     1     -11.759  12.291  68.868  1.00  0.00    -0.380 A  
HETATM    3  C   UNL     1     -11.104  11.088  69.195  1.00  0.00    -0.243 A  
HETATM    4  C   UNL     1     -10.828  10.156  68.197  1.00  0.00    -0.310 A  
HETATM    5  N   UNL     1     -11.656  11.665  66.523  1.00  0.00    -0.477 NA 
HETATM    6  C   UNL     1     -11.141  10.475  66.892  1.00  0.00    -0.050 A  
HETATM    7  C   UNL     1     -11.946  12.573  67.497  1.00  0.00    -0.219 A  
ENDROOT
BRANCH   3   8
HETATM    8  O   UNL     1     -10.742  10.666  70.452  1.00  0.00    -0.150 OA 
BRANCH   8   9
HETATM    9  C   UNL     1     -11.705   9.878  71.168  1.00  0.00    -0.396 C  
HETATM   10  C   UNL     1     -11.148   8.546  71.663  1.00  0.00    -0.290 C  
HETATM   11  F   UNL     1     -11.700   7.506  70.987  1.00  0.00    -0.283 F  
HETATM   12  F   UNL     1     -11.449   8.361  72.973  1.00  0.00    -0.401 F  
HETATM   13  F   UNL     1      -9.806   8.440  71.543  1.00  0.00    -0.196 F  
ENDBRANCH   8   9
ENDBRANCH   3   8
BRANCH   7  14
HETATM   14  C   UNL     1     -12.441  13.911  66.980  1.00  0.00    -0.103 C  
BRANCH  14  15
HETATM   15  S   UNL     1     -11.477  14.497  65.573  1.00  0.00    -0.346 S  
HETATM   16  O   UNL     1     -12.236  15.472  64.718  1.00  0.00    -0.052 OA 
BRANCH  15  17
HETATM   17  C   UNL     1     -10.255  15.430  66.382  1.00  0.00    -0.286 A  
HETATM   18  N   UNL     1     -10.328  15.896  67.611  1.00  0.00    -0.274 NA 
HETATM   19  C   UNL     1      -9.059  16.349  67.900  1.00  0.00    -0.201 A  
HETATM   20  H   UNL     1     -11.146  15.917  68.218  1.00  0.00     0.000 HD 
HETATM   21  C   UNL     1      -8.545  16.883  69.092  1.00  0.00    -0.058 A  
HETATM   22  C   UNL     1      -7.177  17.174  69.166  1.00  0.00    -0.197 A  
HETATM   23  C   UNL     1      -6.339  16.952  68.070  1.00  0.00    -0.151 A  
HETATM   24  C   UNL     1      -6.839  16.459  66.859  1.00  0.00    -0.231 A  
HETATM   25  C   UNL     1      -8.207  16.174  66.814  1.00  0.00    -0.269 A  
HETATM   26  N   UNL     1      -9.023  15.674  65.830  1.00  0.00    -0.267 NA 
ENDBRANCH  15  17
ENDBRANCH  14  15
ENDBRANCH   7  14
TORSDOF 5
ENDMDL
MODEL      173
REMARK 921   NORMALIZED FREE ENERGY PREDICTED BY IDOCK:   -4.80 KCAL/MOL
REMARK 922        TOTAL FREE ENERGY PREDICTED BY IDOCK:   -6.97 KCAL/MOL
REMARK 923 INTER-LIGAND FREE ENERGY PREDICTED BY IDOCK:   -5.32 KCAL/MOL
REMARK 924 INTRA-LIGAND FREE ENERGY PREDICTED BY IDOCK:   -1.65 KCAL/MOL
REMARK 927      BINDING AFFINITY PREDICTED BY RF-SCORE:    0.00 PKD
ROOT
HETATM    1  C   UNL     1     -10.758  11.817  68.998  1.00  0.00    -0.209 C  
HETATM    2  C   UNL     1     -11.039  12.260  67.593  1.00  0.00    -0.318 A  
HETATM    3  C   UNL     1     -11.581  13.527  67.303  1.00  0.00    -0.362 A  
HETATM    4  C   UNL     1     -11.640  13.970  65.983  1.00  0.00    -0.362 A  
HETATM    5  N   UNL     1     -10.821  11.850  65.209  1.00  0.00    -0.289 NA 
HETATM    6  C   UNL     1     -11.230  13.114  64.982  1.00  0.00    -0.298 A  
HETATM    7  C   UNL     1     -10.742  11.418  66.499  1.00  0.00    -0.277 A  
ENDROOT
BRANCH   3   8
HETATM    8  O   UNL     1     -12.022  14.458  68.212  1.00  0.00    -0.329 OA 
BRANCH   8   9
HETATM    9  C   UNL     1     -11.476  15.781  68.094  1.00  0.00    -0.302 C  
HETATM   10  C   UNL     1     -10.185  15.974  68.884  1.00  0.00    -0.231 C  
HETATM   11  F   UNL     1     -10.380  16.804  69.941  1.00  0.00    -0.223 F  
HETATM   12  F   UNL     1      -9.232  16.550  68.108  1.00  0.00    -0.203 F  
HETATM   13  F   UNL     1      -9.665  14.823  69.365  1.00  0.00    -0.204 F  
ENDBRANCH   8   9
ENDBRANCH   3   8
BRANCH   7  14
HETATM   14  C   UNL     1     -10.354   9.959  66.650  1.00  0.00    -0.205 C  
BRANCH  14  15
HETATM   15  S   UNL     1      -8.668   9.641  66.094  1.00  0.00    -0.140 S  
HETATM   16  O   UNL     1      -8.494   9.862  64.619  1.00  0.00    -0.148 OA 
BRANCH  15  17
HETATM   17  C   UNL     1      -7.819  10.942  66.870  1.00  0.00    -0.135 A  
HETATM   18  N   UNL     1      -7.722  12.176  66.421  1.00  0.00    -0.343 NA 
HETATM   19  C   UNL     1      -7.181  12.898  67.462  1.00  0.00    -0.148 A  
HETATM   20  H   UNL     1      -7.989  12.523  65.500  1.00  0.00     0.000 HD 
HETATM   21  C   UNL     1      -6.920  14.273  67.564  1.00  0.00    -0.177 A  
HETATM   22  C   UNL     1      -6.460  14.785  68.784  1.00  0.00    -0.087 A  
HETATM   23  C   UNL     1      -6.248  13.941  69.878  1.00  0.00    -0.136 A  
HETATM   24  C   UNL     1      -6.462  12.561  69.784  1.00  0.00    -0.018 A  
HETATM   25  C   UNL     1      -6.924  12.078  68.557  1.00  0.00    -0.090 A  
HETATM   26  N   UNL     1      -7.254  10.821  68.114  1.00  0.00    -0.081 NA 
ENDBRANCH  15  17
ENDBRANCH  14  15
ENDBRANCH   7  14
TORSDOF 5
ENDMDL
MODEL      174
REMARK 921   NORMALIZED FREE ENERGY PREDICTED BY IDOCK:   -4.76 KCAL/MOL
REMARK 922        TOTAL FREE ENERGY PREDICTED BY IDOCK:   -6.92 KCAL/MOL
REMARK 923 INTER-LIGAND FREE ENERGY PREDICTED BY IDOCK:   -6.91 KCAL/MOL
REMARK 924 INTRA-LIGAND FREE ENERGY PREDICTED BY IDOCK:   -0.01 KCAL/MOL
REMARK 927      BINDING AFFINITY PREDICTED BY RF-SCORE:    0.00 PKD
ROOT
HETATM    1  C   UNL     1     -10.842  10.188  70.409  1.00  0.00    -0.365 C  
HETATM    2  C   UNL     1     -10.648   8.941  69.600  1.00  0.00    -0.230 A  
HETATM    3  C   UNL     1     -11.042   7.675  70.071  1.00  0.00    -0.191 A  
HETATM    4  C   UNL     1     -11.025   6.578  69.212  1.00  0.00    -0.389 A  
HETATM    5  N   UNL     1     -10.044   7.921  67.480  1.00  0.00    -0.193 NA 
HETATM    6  C   UNL     1     -10.545   6.753  67.930  1.00  0.00    -0.242 A  
HETATM    7  C   UNL     1     -10.077   9.001  68.309  1.00  0.00    -0.192 A  
ENDROOT
BRANCH   3   8
HETATM    8  O   UNL     1     -11.531   7.380  71.322  1.00  0.00    -0.259 OA 
BRANCH   8   9
HETATM    9  C   UNL     1     -11.111   8.236  72.395  1.00  0.00    -0.377 C  
HETATM   10  C   UNL     1      -9.953   7.662  73.207  1.00  0.00    -0.320 C  
HETATM   11  F   UNL     1     -10.360   7.310  74.454  1.00  0.00    -0.281 F  
HETATM   12  F   UNL     1      -8.975   8.589  73.365  1.00  0.00    -0.300 F  
HETATM   13  F   UNL     1      -9.383   6.572  72.646  1.00  0.00    -0.142 F  
ENDBRANCH   8   9
ENDBRANCH   3   8
BRANCH   7  14
HETATM   14  C   UNL     1      -9.415  10.246  67.747  1.00  0.00    -0.148 C  
BRANCH  14  15
HETATM   15  S   UNL     1     -10.550  11.229  66.748  1.00  0.00    -0.270 S  
HETATM   16  O   UNL     1     -11.951  11.223  67.290  1.00  0.00    -0.529 OA 
BRANCH  15  17
HETATM   17  C   UNL     1      -9.938  12.828  67.041  1.00  0.00    -0.231 A  
HETATM   18  N   UNL     1      -9.603  13.707  66.120  1.00  0.00    -0.432 NA 
HETATM   19  C   UNL     1      -9.414  14.889  66.801  1.00  0.00    -0.252 A  
HETATM   20  H   UNL     1      -9.505  13.547  65.118  1.00  0.00     0.000 HD 
HETATM   21  C   UNL     1      -9.110  16.170  66.313  1.00  0.00    -0.373 A  
HETATM   22  C   UNL     1      -9.073  17.244  67.212  1.00  0.00    -0.231 A  
HETATM   23  C   UNL     1      -9.319  17.044  68.573  1.00  0.00    -0.265 A  
HETATM   24  C   UNL     1      -9.583  15.769  69.086  1.00  0.00    -0.255 A  
HETATM   25  C   UNL     1      -9.617  14.717  68.167  1.00  0.00    -0.213 A  
HETATM   26  N   UNL     1      -9.857  13.372  68.299  1.00  0.00    -0.233 NA 
ENDBRANCH  15  17
ENDBRANCH  14  15
ENDBRANCH   7  14
TORSDOF 5
ENDMDL
MODEL      175
REMARK 921   NORMALIZED FREE ENERGY PREDICTED BY IDOCK:   -4.76 KCAL/MOL
REMARK 922        TOTAL FREE ENERGY PREDICTED BY IDOCK:   -6.92 KCAL/MOL
REMARK 923 INTER-LIGAND FREE ENERGY PREDICTED BY IDOCK:   -6.30 KCAL/MOL
REMARK 924 INTRA-LIGAND FREE ENERGY PREDICTED BY IDOCK:   -0.61 KCAL/MOL
REMARK 927      BINDING AFFINITY PREDICTED BY RF-SCORE:    0.00 PKD
ROOT
HETATM    1  C   UNL     1     -11.023   6.900  67.108  1.00  0.00    -0.427 C  
HETATM    2  C   UNL     1      -9.917   7.837  66.722  1.00  0.00    -0.331 A  
HETATM    3  C   UNL     1      -8.733   7.384  66.111  1.00  0.00    -0.156 A  
HETATM    4  C   UNL     1      -7.824   8.304  65.593  1.00  0.00    -0.104 A  
HETATM    5  N   UNL     1      -9.139  10.122  66.449  1.00  0.00    -0.150 NA 
HETATM    6  C   UNL     1      -8.079   9.650  65.763  1.00  0.00    -0.113 A  
HETATM    7  C   UNL     1     -10.041   9.227  66.940  1.00  0.00    -0.256 A  
ENDROOT
BRANCH   3   8
HETATM    8  O   UNL     1      -8.371   6.077  65.890  1.00  0.00    -0.125 OA 
BRANCH   8   9
HETATM    9  C   UNL     1      -8.130   5.697  64.526  1.00  0.00    -0.131 C  
HETATM   10  C   UNL     1      -6.675   5.331  64.248  1.00  0.00    -0.046 C  
HETATM   11  F   UNL     1      -6.081   6.261  63.459  1.00  0.00    -0.021 F  
HETATM   12  F   UNL     1      -6.600   4.150  63.582  1.00  0.00    -0.036 F  
HETATM   13  F   UNL     1      -5.923   5.207  65.365  1.00  0.00    -0.022 F  
ENDBRANCH   8   9
ENDBRANCH   3   8
BRANCH   7  14
HETATM   14  C   UNL     1     -11.152   9.846  67.769  1.00  0.00    -0.129 C  
BRANCH  14  15
HETATM   15  S   UNL     1     -10.779   9.827  69.532  1.00  0.00    -0.243 S  
HETATM   16  O   UNL     1      -9.348  10.180  69.824  1.00  0.00    -0.211 OA 
BRANCH  15  17
HETATM   17  C   UNL     1     -11.719  11.182  70.078  1.00  0.00    -0.356 A  
HETATM   18  N   UNL     1     -12.475  11.212  71.156  1.00  0.00    -0.396 NA 
HETATM   19  C   UNL     1     -12.821  12.536  71.316  1.00  0.00    -0.241 A  
HETATM   20  H   UNL     1     -12.746  10.425  71.744  1.00  0.00     0.000 HD 
HETATM   21  C   UNL     1     -13.561  13.155  72.336  1.00  0.00    -0.667 A  
HETATM   22  C   UNL     1     -13.686  14.550  72.328  1.00  0.00    -0.559 A  
HETATM   23  C   UNL     1     -13.100  15.314  71.315  1.00  0.00    -0.540 A  
HETATM   24  C   UNL     1     -12.394  14.712  70.266  1.00  0.00    -0.406 A  
HETATM   25  C   UNL     1     -12.281  13.320  70.301  1.00  0.00    -0.321 A  
HETATM   26  N   UNL     1     -11.663  12.414  69.476  1.00  0.00    -0.315 NA 
ENDBRANCH  15  17
ENDBRANCH  14  15
ENDBRANCH   7  14
TORSDOF 5
ENDMDL
MODEL      176
REMARK 921   NORMALIZED FREE ENERGY PREDICTED BY IDOCK:   -4.76 KCAL/MOL
REMARK 922        TOTAL FREE ENERGY PREDICTED BY IDOCK:   -6.92 KCAL/MOL
REMARK 923 INTER-LIGAND FREE ENERGY PREDICTED BY IDOCK:   -6.09 KCAL/MOL
REMARK 924 INTRA-LIGAND FREE ENERGY PREDICTED BY IDOCK:   -0.83 KCAL/MOL
REMARK 927      BINDING AFFINITY PREDICTED BY RF-SCORE:    0.00 PKD
ROOT
HETATM    1  C   UNL     1      -9.873   9.908  65.268  1.00  0.00    -0.373 C  
HETATM    2  C   UNL     1      -9.075  10.450  66.416  1.00  0.00    -0.177 A  
HETATM    3  C   UNL     1      -9.128  11.805  66.789  1.00  0.00    -0.194 A  
HETATM    4  C   UNL     1      -8.528  12.223  67.976  1.00  0.00    -0.171 A  
HETATM    5  N   UNL     1      -7.650  10.017  68.335  1.00  0.00    -0.082 NA 
HETATM    6  C   UNL     1      -7.827  11.296  68.720  1.00  0.00    -0.139 A  
HETATM    7  C   UNL     1      -8.251   9.599  67.185  1.00  0.00    -0.120 A  
ENDROOT
BRANCH   3   8
HETATM    8  O   UNL     1      -9.789  12.814  66.129  1.00  0.00    -0.262 OA 
BRANCH   8   9
HETATM    9  C   UNL     1     -10.460  13.786  66.945  1.00  0.00    -0.272 C  
HETATM   10  C   UNL     1     -11.976  13.614  66.966  1.00  0.00    -0.406 C  
HETATM   11  F   UNL     1     -12.591  14.631  66.310  1.00  0.00    -0.327 F  
HETATM   12  F   UNL     1     -12.441  13.636  68.241  1.00  0.00    -0.338 F  
HETATM   13  F   UNL     1     -12.400  12.459  66.406  1.00  0.00    -0.398 F  
ENDBRANCH   8   9
ENDBRANCH   3   8
BRANCH   7  14
HETATM   14  C   UNL     1      -7.925   8.170  66.790  1.00  0.00    -0.103 C  
BRANCH  14  15
HETATM   15  S   UNL     1      -9.306   7.050  67.083  1.00  0.00    -0.149 S  
HETATM   16  O   UNL     1      -8.874   5.615  67.191  1.00  0.00    -0.109 OA 
BRANCH  15  17
HETATM   17  C   UNL     1      -9.775   7.523  68.687  1.00  0.00    -0.154 A  
HETATM   18  N   UNL     1     -10.831   8.244  69.002  1.00  0.00    -0.421 NA 
HETATM   19  C   UNL     1     -10.931   8.158  70.373  1.00  0.00    -0.247 A  
HETATM   20  H   UNL     1     -11.443   8.756  68.367  1.00  0.00     0.000 HD 
HETATM   21  C   UNL     1     -11.906   8.678  71.238  1.00  0.00    -0.344 A  
HETATM   22  C   UNL     1     -11.840   8.359  72.600  1.00  0.00    -0.360 A  
HETATM   23  C   UNL     1     -10.813   7.550  73.095  1.00  0.00    -0.448 A  
HETATM   24  C   UNL     1      -9.807   7.057  72.256  1.00  0.00    -0.170 A  
HETATM   25  C   UNL     1      -9.899   7.388  70.902  1.00  0.00    -0.177 A  
HETATM   26  N   UNL     1      -9.126   7.076  69.811  1.00  0.00    -0.145 NA 
ENDBRANCH  15  17
ENDBRANCH  14  15
ENDBRANCH   7  14
TORSDOF 5
ENDMDL
MODEL      177
REMARK 921   NORMALIZED FREE ENERGY PREDICTED BY IDOCK:   -4.74 KCAL/MOL
REMARK 922        TOTAL FREE ENERGY PREDICTED BY IDOCK:   -6.89 KCAL/MOL
REMARK 923 INTER-LIGAND FREE ENERGY PREDICTED BY IDOCK:   -6.74 KCAL/MOL
REMARK 924 INTRA-LIGAND FREE ENERGY PREDICTED BY IDOCK:   -0.15 KCAL/MOL
REMARK 927      BINDING AFFINITY PREDICTED BY RF-SCORE:    0.00 PKD
ROOT
HETATM    1  C   UNL     1     -10.703  12.271  68.811  1.00  0.00    -0.247 C  
HETATM    2  C   UNL     1     -11.447  11.637  69.949  1.00  0.00    -0.308 A  
HETATM    3  C   UNL     1     -12.429  12.332  70.679  1.00  0.00    -0.236 A  
HETATM    4  C   UNL     1     -13.229  11.647  71.592  1.00  0.00    -0.376 A  
HETATM    5  N   UNL     1     -11.971   9.636  71.222  1.00  0.00    -0.351 NA 
HETATM    6  C   UNL     1     -12.981  10.307  71.810  1.00  0.00    -0.469 A  
HETATM    7  C   UNL     1     -11.198  10.296  70.314  1.00  0.00    -0.323 A  
ENDROOT
BRANCH   3   8
HETATM    8  O   UNL     1     -12.762  13.659  70.551  1.00  0.00    -0.277 OA 
BRANCH   8   9
HETATM    9  C   UNL     1     -13.391  14.277  71.684  1.00  0.00    -0.365 C  
HETATM   10  C   UNL     1     -12.432  15.114  72.526  1.00  0.00    -0.357 C  
HETATM   11  F   UNL     1     -12.207  14.533  73.732  1.00  0.00    -0.458 F  
HETATM   12  F   UNL     1     -12.962  16.338  72.777  1.00  0.00    -0.483 F  
HETATM   13  F   UNL     1     -11.229  15.313  71.942  1.00  0.00    -0.448 F  
ENDBRANCH   8   9
ENDBRANCH   3   8
BRANCH   7  14
HETATM   14  C   UNL     1     -10.037   9.484  69.770  1.00  0.00    -0.216 C  
BRANCH  14  15
HETATM   15  S   UNL     1      -9.075   8.706  71.082  1.00  0.00    -0.230 S  
HETATM   16  O   UNL     1      -9.856   8.550  72.356  1.00  0.00    -0.292 OA 
BRANCH  15  17
HETATM   17  C   UNL     1      -8.892   7.101  70.443  1.00  0.00    -0.151 A  
HETATM   18  N   UNL     1      -9.497   6.019  70.887  1.00  0.00    -0.167 NA 
HETATM   19  C   UNL     1      -9.245   5.050  69.942  1.00  0.00    -0.124 A  
HETATM   20  H   UNL     1     -10.036   5.920  71.747  1.00  0.00     0.000 HD 
HETATM   21  C   UNL     1      -9.700   3.724  69.868  1.00  0.00    -0.200 A  
HETATM   22  C   UNL     1      -9.384   2.963  68.736  1.00  0.00    -0.234 A  
HETATM   23  C   UNL     1      -8.616   3.507  67.702  1.00  0.00    -0.116 A  
HETATM   24  C   UNL     1      -8.117   4.813  67.775  1.00  0.00    -0.093 A  
HETATM   25  C   UNL     1      -8.450   5.550  68.914  1.00  0.00    -0.101 A  
HETATM   26  N   UNL     1      -8.165   6.833  69.310  1.00  0.00    -0.123 NA 
ENDBRANCH  15  17
ENDBRANCH  14  15
ENDBRANCH   7  14
TORSDOF 5
ENDMDL
MODEL      178
REMARK 921   NORMALIZED FREE ENERGY PREDICTED BY IDOCK:   -4.73 KCAL/MOL
REMARK 922        TOTAL FREE ENERGY PREDICTED BY IDOCK:   -6.88 KCAL/MOL
REMARK 923 INTER-LIGAND FREE ENERGY PREDICTED BY IDOCK:   -5.19 KCAL/MOL
REMARK 924 INTRA-LIGAND FREE ENERGY PREDICTED BY IDOCK:   -1.69 KCAL/MOL
REMARK 927      BINDING AFFINITY PREDICTED BY RF-SCORE:    0.00 PKD
ROOT
HETATM    1  C   UNL     1     -10.620   9.177  67.486  1.00  0.00    -0.317 C  
HETATM    2  C   UNL     1     -11.074   9.722  68.807  1.00  0.00    -0.140 A  
HETATM    3  C   UNL     1     -11.809  10.918  68.909  1.00  0.00    -0.270 A  
HETATM    4  C   UNL     1     -12.377  11.281  70.129  1.00  0.00    -0.354 A  
HETATM    5  N   UNL     1     -11.338   9.400  71.200  1.00  0.00    -0.320 NA 
HETATM    6  C   UNL     1     -12.136  10.485  71.231  1.00  0.00    -0.332 A  
HETATM    7  C   UNL     1     -10.796   9.029  70.006  1.00  0.00    -0.231 A  
ENDROOT
BRANCH   3   8
HETATM    8  O   UNL     1     -12.109  11.788  67.888  1.00  0.00    -0.592 OA 
BRANCH   8   9
HETATM    9  C   UNL     1     -11.727  13.159  68.078  1.00  0.00    -0.355 C  
HETATM   10  C   UNL     1     -10.326  13.473  67.560  1.00  0.00    -0.237 C  
HETATM   11  F   UNL     1      -9.473  13.725  68.586  1.00  0.00    -0.205 F  
HETATM   12  F   UNL     1     -10.343  14.588  66.786  1.00  0.00    -0.259 F  
HETATM   13  F   UNL     1      -9.785  12.481  66.819  1.00  0.00    -0.210 F  
ENDBRANCH   8   9
ENDBRANCH   3   8
BRANCH   7  14
HETATM   14  C   UNL     1      -9.846   7.848  70.087  1.00  0.00    -0.184 C  
BRANCH  14  15
HETATM   15  S   UNL     1      -8.450   8.171  71.181  1.00  0.00    -0.139 S  
HETATM   16  O   UNL     1      -7.522   6.994  71.297  1.00  0.00    -0.079 OA 
BRANCH  15  17
HETATM   17  C   UNL     1      -7.585   9.364  70.262  1.00  0.00    -0.138 A  
HETATM   18  N   UNL     1      -7.500   9.415  68.949  1.00  0.00    -0.074 NA 
HETATM   19  C   UNL     1      -6.936  10.640  68.671  1.00  0.00    -0.072 A  
HETATM   20  H   UNL     1      -7.790   8.700  68.282  1.00  0.00     0.000 HD 
HETATM   21  C   UNL     1      -6.676  11.251  67.435  1.00  0.00    -0.085 A  
HETATM   22  C   UNL     1      -6.188  12.564  67.419  1.00  0.00    -0.158 A  
HETATM   23  C   UNL     1      -5.948  13.251  68.613  1.00  0.00    -0.083 A  
HETATM   24  C   UNL     1      -6.162  12.645  69.856  1.00  0.00    -0.088 A  
HETATM   25  C   UNL     1      -6.652  11.337  69.842  1.00  0.00    -0.108 A  
HETATM   26  N   UNL     1      -6.990  10.457  70.840  1.00  0.00    -0.161 NA 
ENDBRANCH  15  17
ENDBRANCH  14  15
ENDBRANCH   7  14
TORSDOF 5
ENDMDL
MODEL      179
REMARK 921   NORMALIZED FREE ENERGY PREDICTED BY IDOCK:   -4.69 KCAL/MOL
REMARK 922        TOTAL FREE ENERGY PREDICTED BY IDOCK:   -6.83 KCAL/MOL
REMARK 923 INTER-LIGAND FREE ENERGY PREDICTED BY IDOCK:   -6.12 KCAL/MOL
REMARK 924 INTRA-LIGAND FREE ENERGY PREDICTED BY IDOCK:   -0.71 KCAL/MOL
REMARK 927      BINDING AFFINITY PREDICTED BY RF-SCORE:    0.00 PKD
ROOT
HETATM    1  C   UNL     1     -11.011   6.949  68.068  1.00  0.00    -0.241 C  
HETATM    2  C   UNL     1     -10.547   7.764  69.239  1.00  0.00    -0.199 A  
HETATM    3  C   UNL     1     -10.240   7.179  70.482  1.00  0.00    -0.196 A  
HETATM    4  C   UNL     1      -9.627   7.941  71.475  1.00  0.00    -0.189 A  
HETATM    5  N   UNL     1      -9.795   9.905  70.104  1.00  0.00    -0.248 NA 
HETATM    6  C   UNL     1      -9.405   9.281  71.234  1.00  0.00    -0.130 A  
HETATM    7  C   UNL     1     -10.377   9.161  69.122  1.00  0.00    -0.212 A  
ENDROOT
BRANCH   3   8
HETATM    8  O   UNL     1     -10.418   5.863  70.837  1.00  0.00    -0.220 OA 
BRANCH   8   9
HETATM    9  C   UNL     1      -9.265   5.170  71.337  1.00  0.00    -0.146 C  
HETATM   10  C   UNL     1      -9.500   4.501  72.688  1.00  0.00    -0.134 C  
HETATM   11  F   UNL     1      -8.799   5.125  73.669  1.00  0.00    -0.115 F  
HETATM   12  F   UNL     1      -9.072   3.213  72.663  1.00  0.00    -0.091 F  
HETATM   13  F   UNL     1     -10.797   4.483  73.067  1.00  0.00    -0.243 F  
ENDBRANCH   8   9
ENDBRANCH   3   8
BRANCH   7  14
HETATM   14  C   UNL     1     -10.858   9.964  67.928  1.00  0.00    -0.258 C  
BRANCH  14  15
HETATM   15  S   UNL     1      -9.905  11.476  67.693  1.00  0.00    -0.183 S  
HETATM   16  O   UNL     1      -9.974  11.990  66.284  1.00  0.00    -0.216 OA 
BRANCH  15  17
HETATM   17  C   UNL     1     -10.828  12.594  68.649  1.00  0.00    -0.249 A  
HETATM   18  N   UNL     1     -11.780  12.277  69.502  1.00  0.00    -0.321 NA 
HETATM   19  C   UNL     1     -12.048  13.440  70.191  1.00  0.00    -0.344 A  
HETATM   20  H   UNL     1     -12.223  11.368  69.626  1.00  0.00     0.000 HD 
HETATM   21  C   UNL     1     -12.927  13.669  71.261  1.00  0.00    -0.399 A  
HETATM   22  C   UNL     1     -12.940  14.933  71.866  1.00  0.00    -0.414 A  
HETATM   23  C   UNL     1     -12.106  15.954  71.403  1.00  0.00    -0.508 A  
HETATM   24  C   UNL     1     -11.252  15.758  70.311  1.00  0.00    -0.377 A  
HETATM   25  C   UNL     1     -11.257  14.488  69.729  1.00  0.00    -0.234 A  
HETATM   26  N   UNL     1     -10.558  13.939  68.683  1.00  0.00    -0.254 NA 
ENDBRANCH  15  17
ENDBRANCH  14  15
ENDBRANCH   7  14
TORSDOF 5
ENDMDL
MODEL      180
REMARK 921   NORMALIZED FREE ENERGY PREDICTED BY IDOCK:   -4.67 KCAL/MOL
REMARK 922        TOTAL FREE ENERGY PREDICTED BY IDOCK:   -6.80 KCAL/MOL
REMARK 923 INTER-LIGAND FREE ENERGY PREDICTED BY IDOCK:   -6.75 KCAL/MOL
REMARK 924 INTRA-LIGAND FREE ENERGY PREDICTED BY IDOCK:   -0.05 KCAL/MOL
REMARK 927      BINDING AFFINITY PREDICTED BY RF-SCORE:    0.00 PKD
ROOT
HETATM    1  C   UNL     1     -11.240   9.933  70.912  1.00  0.00    -0.433 C  
HETATM    2  C   UNL     1     -10.727   8.921  69.931  1.00  0.00    -0.236 A  
HETATM    3  C   UNL     1     -11.122   7.571  69.974  1.00  0.00    -0.204 A  
HETATM    4  C   UNL     1     -10.779   6.714  68.930  1.00  0.00    -0.304 A  
HETATM    5  N   UNL     1      -9.487   8.454  67.895  1.00  0.00    -0.144 NA 
HETATM    6  C   UNL     1      -9.987   7.202  67.910  1.00  0.00    -0.154 A  
HETATM    7  C   UNL     1      -9.836   9.302  68.903  1.00  0.00    -0.165 A  
ENDROOT
BRANCH   3   8
HETATM    8  O   UNL     1     -11.903   6.974  70.935  1.00  0.00    -0.325 OA 
BRANCH   8   9
HETATM    9  C   UNL     1     -11.711   7.418  72.287  1.00  0.00    -0.286 C  
HETATM   10  C   UNL     1     -10.587   6.682  73.010  1.00  0.00    -0.256 C  
HETATM   11  F   UNL     1     -11.080   5.877  73.986  1.00  0.00    -0.165 F  
HETATM   12  F   UNL     1      -9.754   7.564  73.619  1.00  0.00    -0.262 F  
HETATM   13  F   UNL     1      -9.829   5.913  72.197  1.00  0.00    -0.169 F  
ENDBRANCH   8   9
ENDBRANCH   3   8
BRANCH   7  14
HETATM   14  C   UNL     1      -9.158  10.658  68.846  1.00  0.00    -0.176 C  
BRANCH  14  15
HETATM   15  S   UNL     1      -9.853  11.714  67.561  1.00  0.00    -0.190 S  
HETATM   16  O   UNL     1     -10.917  11.022  66.756  1.00  0.00    -0.267 OA 
BRANCH  15  17
HETATM   17  C   UNL     1     -10.686  12.895  68.525  1.00  0.00    -0.254 A  
HETATM   18  N   UNL     1     -11.695  12.655  69.337  1.00  0.00    -0.314 NA 
HETATM   19  C   UNL     1     -11.862  13.818  70.057  1.00  0.00    -0.307 A  
HETATM   20  H   UNL     1     -12.235  11.795  69.417  1.00  0.00     0.000 HD 
HETATM   21  C   UNL     1     -12.748  14.107  71.106  1.00  0.00    -0.431 A  
HETATM   22  C   UNL     1     -12.649  15.346  71.753  1.00  0.00    -0.455 A  
HETATM   23  C   UNL     1     -11.697  16.286  71.351  1.00  0.00    -0.427 A  
HETATM   24  C   UNL     1     -10.832  16.035  70.279  1.00  0.00    -0.327 A  
HETATM   25  C   UNL     1     -10.950  14.790  69.655  1.00  0.00    -0.261 A  
HETATM   26  N   UNL     1     -10.278  14.202  68.613  1.00  0.00    -0.238 NA 
ENDBRANCH  15  17
ENDBRANCH  14  15
ENDBRANCH   7  14
TORSDOF 5
ENDMDL
MODEL      181
REMARK 921   NORMALIZED FREE ENERGY PREDICTED BY IDOCK:   -4.66 KCAL/MOL
REMARK 922        TOTAL FREE ENERGY PREDICTED BY IDOCK:   -6.80 KCAL/MOL
REMARK 923 INTER-LIGAND FREE ENERGY PREDICTED BY IDOCK:   -5.64 KCAL/MOL
REMARK 924 INTRA-LIGAND FREE ENERGY PREDICTED BY IDOCK:   -1.16 KCAL/MOL
REMARK 927      BINDING AFFINITY PREDICTED BY RF-SCORE:    0.00 PKD
ROOT
HETATM    1  C   UNL     1     -11.149   6.623  67.646  1.00  0.00    -0.357 C  
HETATM    2  C   UNL     1     -10.166   6.410  68.760  1.00  0.00    -0.206 A  
HETATM    3  C   UNL     1     -10.577   6.212  70.091  1.00  0.00    -0.259 A  
HETATM    4  C   UNL     1      -9.647   5.823  71.053  1.00  0.00    -0.203 A  
HETATM    5  N   UNL     1      -7.871   6.017  69.449  1.00  0.00    -0.098 NA 
HETATM    6  C   UNL     1      -8.322   5.717  70.683  1.00  0.00    -0.118 A  
HETATM    7  C   UNL     1      -8.779   6.378  68.499  1.00  0.00    -0.121 A  
ENDROOT
BRANCH   3   8
HETATM    8  O   UNL     1     -11.861   6.293  70.575  1.00  0.00    -0.319 OA 
BRANCH   8   9
HETATM    9  C   UNL     1     -12.021   6.870  71.880  1.00  0.00    -0.327 C  
HETATM   10  C   UNL     1     -12.089   8.394  71.863  1.00  0.00    -0.342 C  
HETATM   11  F   UNL     1     -10.978   8.938  72.422  1.00  0.00    -0.415 F  
HETATM   12  F   UNL     1     -13.146   8.833  72.593  1.00  0.00    -0.427 F  
HETATM   13  F   UNL     1     -12.215   8.919  70.623  1.00  0.00    -0.247 F  
ENDBRANCH   8   9
ENDBRANCH   3   8
BRANCH   7  14
HETATM   14  C   UNL     1      -8.169   6.779  67.168  1.00  0.00    -0.121 C  
BRANCH  14  15
HETATM   15  S   UNL     1      -6.994   8.135  67.337  1.00  0.00    -0.076 S  
HETATM   16  O   UNL     1      -5.961   8.145  66.247  1.00  0.00    -0.040 OA 
BRANCH  15  17
HETATM   17  C   UNL     1      -8.024   9.499  67.023  1.00  0.00    -0.109 A  
HETATM   18  N   UNL     1      -7.945  10.301  65.982  1.00  0.00    -0.132 NA 
HETATM   19  C   UNL     1      -9.091  11.065  66.028  1.00  0.00    -0.195 A  
HETATM   20  H   UNL     1      -7.198  10.346  65.290  1.00  0.00     0.000 HD 
HETATM   21  C   UNL     1      -9.561  12.036  65.131  1.00  0.00    -0.091 A  
HETATM   22  C   UNL     1     -10.823  12.603  65.350  1.00  0.00    -0.318 A  
HETATM   23  C   UNL     1     -11.596  12.221  66.450  1.00  0.00    -0.445 A  
HETATM   24  C   UNL     1     -11.128  11.285  67.379  1.00  0.00    -0.358 A  
HETATM   25  C   UNL     1      -9.868  10.734  67.135  1.00  0.00    -0.185 A  
HETATM   26  N   UNL     1      -9.114   9.799  67.800  1.00  0.00    -0.131 NA 
ENDBRANCH  15  17
ENDBRANCH  14  15
ENDBRANCH   7  14
TORSDOF 5
ENDMDL
MODEL      182
REMARK 921   NORMALIZED FREE ENERGY PREDICTED BY IDOCK:   -4.66 KCAL/MOL
REMARK 922        TOTAL FREE ENERGY PREDICTED BY IDOCK:   -6.79 KCAL/MOL
REMARK 923 INTER-LIGAND FREE ENERGY PREDICTED BY IDOCK:   -5.93 KCAL/MOL
REMARK 924 INTRA-LIGAND FREE ENERGY PREDICTED BY IDOCK:   -0.86 KCAL/MOL
REMARK 927      BINDING AFFINITY PREDICTED BY RF-SCORE:    0.00 PKD
ROOT
HETATM    1  C   UNL     1     -10.680   9.009  69.410  1.00  0.00    -0.202 C  
HETATM    2  C   UNL     1      -9.857   9.079  68.158  1.00  0.00    -0.191 A  
HETATM    3  C   UNL     1      -8.801   8.184  67.907  1.00  0.00    -0.131 A  
HETATM    4  C   UNL     1      -8.196   8.159  66.652  1.00  0.00    -0.103 A  
HETATM    5  N   UNL     1      -9.528  10.028  65.947  1.00  0.00    -0.189 NA 
HETATM    6  C   UNL     1      -8.605   9.076  65.705  1.00  0.00    -0.160 A  
HETATM    7  C   UNL     1     -10.136  10.044  67.166  1.00  0.00    -0.212 A  
ENDROOT
BRANCH   3   8
HETATM    8  O   UNL     1      -8.306   7.234  68.769  1.00  0.00    -0.127 OA 
BRANCH   8   9
HETATM    9  C   UNL     1      -7.290   7.665  69.687  1.00  0.00    -0.089 C  
HETATM   10  C   UNL     1      -7.725   7.592  71.148  1.00  0.00    -0.085 C  
HETATM   11  F   UNL     1      -7.875   8.835  71.674  1.00  0.00    -0.136 F  
HETATM   12  F   UNL     1      -6.782   6.965  71.896  1.00  0.00    -0.054 F  
HETATM   13  F   UNL     1      -8.889   6.930  71.336  1.00  0.00    -0.131 F  
ENDBRANCH   8   9
ENDBRANCH   3   8
BRANCH   7  14
HETATM   14  C   UNL     1     -11.096  11.202  67.374  1.00  0.00    -0.307 C  
BRANCH  14  15
HETATM   15  S   UNL     1     -11.224  12.251  65.913  1.00  0.00    -0.354 S  
HETATM   16  O   UNL     1     -12.636  12.679  65.631  1.00  0.00    -0.611 OA 
BRANCH  15  17
HETATM   17  C   UNL     1     -10.401  13.678  66.465  1.00  0.00    -0.282 A  
HETATM   18  N   UNL     1      -9.269  14.151  65.984  1.00  0.00    -0.513 NA 
HETATM   19  C   UNL     1      -9.133  15.401  66.547  1.00  0.00    -0.300 A  
HETATM   20  H   UNL     1      -8.632  13.690  65.336  1.00  0.00     0.000 HD 
HETATM   21  C   UNL     1      -8.148  16.378  66.338  1.00  0.00    -0.357 A  
HETATM   22  C   UNL     1      -8.293  17.626  66.958  1.00  0.00    -0.239 A  
HETATM   23  C   UNL     1      -9.389  17.891  67.783  1.00  0.00    -0.262 A  
HETATM   24  C   UNL     1     -10.361  16.916  68.037  1.00  0.00    -0.334 A  
HETATM   25  C   UNL     1     -10.194  15.681  67.403  1.00  0.00    -0.264 A  
HETATM   26  N   UNL     1     -10.935  14.526  67.402  1.00  0.00    -0.295 NA 
ENDBRANCH  15  17
ENDBRANCH  14  15
ENDBRANCH   7  14
TORSDOF 5
ENDMDL
MODEL      183
REMARK 921   NORMALIZED FREE ENERGY PREDICTED BY IDOCK:   -4.65 KCAL/MOL
REMARK 922        TOTAL FREE ENERGY PREDICTED BY IDOCK:   -6.78 KCAL/MOL
REMARK 923 INTER-LIGAND FREE ENERGY PREDICTED BY IDOCK:   -5.83 KCAL/MOL
REMARK 924 INTRA-LIGAND FREE ENERGY PREDICTED BY IDOCK:   -0.94 KCAL/MOL
REMARK 927      BINDING AFFINITY PREDICTED BY RF-SCORE:    0.00 PKD
ROOT
HETATM    1  C   UNL     1     -11.917  12.928  68.193  1.00  0.00    -0.306 C  
HETATM    2  C   UNL     1     -12.010  11.981  69.353  1.00  0.00    -0.334 A  
HETATM    3  C   UNL     1     -12.613  12.348  70.571  1.00  0.00    -0.089 A  
HETATM    4  C   UNL     1     -12.853  11.381  71.545  1.00  0.00    -0.508 A  
HETATM    5  N   UNL     1     -11.731   9.727  70.213  1.00  0.00    -0.228 NA 
HETATM    6  C   UNL     1     -12.420  10.091  71.313  1.00  0.00    -0.392 A  
HETATM    7  C   UNL     1     -11.510  10.665  69.249  1.00  0.00    -0.281 A  
ENDROOT
BRANCH   3   8
HETATM    8  O   UNL     1     -13.079  13.595  70.914  1.00  0.00    -0.228 OA 
BRANCH   8   9
HETATM    9  C   UNL     1     -12.214  14.405  71.724  1.00  0.00    -0.278 C  
HETATM   10  C   UNL     1     -11.887  15.756  71.094  1.00  0.00    -0.425 C  
HETATM   11  F   UNL     1     -10.585  15.814  70.714  1.00  0.00    -0.318 F  
HETATM   12  F   UNL     1     -12.075  16.757  71.990  1.00  0.00    -0.389 F  
HETATM   13  F   UNL     1     -12.638  16.045  70.008  1.00  0.00    -0.332 F  
ENDBRANCH   8   9
ENDBRANCH   3   8
BRANCH   7  14
HETATM   14  C   UNL     1     -10.655  10.185  68.091  1.00  0.00    -0.223 C  
BRANCH  14  15
HETATM   15  S   UNL     1      -8.893  10.266  68.465  1.00  0.00    -0.133 S  
HETATM   16  O   UNL     1      -8.486  11.590  69.047  1.00  0.00    -0.038 OA 
BRANCH  15  17
HETATM   17  C   UNL     1      -8.785   9.125  69.770  1.00  0.00    -0.151 A  
HETATM   18  N   UNL     1      -9.170   7.866  69.729  1.00  0.00    -0.150 NA 
HETATM   19  C   UNL     1      -8.674   7.300  70.882  1.00  0.00    -0.148 A  
HETATM   20  H   UNL     1      -9.717   7.410  69.000  1.00  0.00     0.000 HD 
HETATM   21  C   UNL     1      -8.726   5.969  71.325  1.00  0.00    -0.136 A  
HETATM   22  C   UNL     1      -8.046   5.620  72.499  1.00  0.00    -0.103 A  
HETATM   23  C   UNL     1      -7.340   6.582  73.227  1.00  0.00    -0.085 A  
HETATM   24  C   UNL     1      -7.310   7.922  72.825  1.00  0.00    -0.121 A  
HETATM   25  C   UNL     1      -7.994   8.241  71.650  1.00  0.00    -0.128 A  
HETATM   26  N   UNL     1      -8.164   9.416  70.959  1.00  0.00    -0.308 NA 
ENDBRANCH  15  17
ENDBRANCH  14  15
ENDBRANCH   7  14
TORSDOF 5
ENDMDL
MODEL      184
REMARK 921   NORMALIZED FREE ENERGY PREDICTED BY IDOCK:   -4.64 KCAL/MOL
REMARK 922        TOTAL FREE ENERGY PREDICTED BY IDOCK:   -6.76 KCAL/MOL
REMARK 923 INTER-LIGAND FREE ENERGY PREDICTED BY IDOCK:   -6.02 KCAL/MOL
REMARK 924 INTRA-LIGAND FREE ENERGY PREDICTED BY IDOCK:   -0.75 KCAL/MOL
REMARK 927      BINDING AFFINITY PREDICTED BY RF-SCORE:    0.00 PKD
ROOT
HETATM    1  C   UNL     1      -9.583  10.506  65.222  1.00  0.00    -0.303 C  
HETATM    2  C   UNL     1     -10.256  10.909  66.500  1.00  0.00    -0.282 A  
HETATM    3  C   UNL     1     -10.824  12.185  66.676  1.00  0.00    -0.268 A  
HETATM    4  C   UNL     1     -11.607  12.447  67.798  1.00  0.00    -0.413 A  
HETATM    5  N   UNL     1     -11.114  10.268  68.680  1.00  0.00    -0.249 NA 
HETATM    6  C   UNL     1     -11.742  11.459  68.753  1.00  0.00    -0.339 A  
HETATM    7  C   UNL     1     -10.363  10.000  67.575  1.00  0.00    -0.232 A  
ENDROOT
BRANCH   3   8
HETATM    8  O   UNL     1     -10.754  13.243  65.801  1.00  0.00    -0.272 OA 
BRANCH   8   9
HETATM    9  C   UNL     1     -10.664  14.553  66.382  1.00  0.00    -0.309 C  
HETATM   10  C   UNL     1      -9.250  14.924  66.819  1.00  0.00    -0.259 C  
HETATM   11  F   UNL     1      -9.157  14.979  68.172  1.00  0.00    -0.167 F  
HETATM   12  F   UNL     1      -8.915  16.155  66.355  1.00  0.00    -0.235 F  
HETATM   13  F   UNL     1      -8.303  14.063  66.383  1.00  0.00    -0.010 F  
ENDBRANCH   8   9
ENDBRANCH   3   8
BRANCH   7  14
HETATM   14  C   UNL     1      -9.629   8.672  67.623  1.00  0.00    -0.155 C  
BRANCH  14  15
HETATM   15  S   UNL     1     -10.758   7.272  67.743  1.00  0.00    -0.165 S  
HETATM   16  O   UNL     1     -10.253   6.058  67.015  1.00  0.00    -0.160 OA 
BRANCH  15  17
HETATM   17  C   UNL     1     -10.630   6.895  69.434  1.00  0.00    -0.229 A  
HETATM   18  N   UNL     1     -11.635   6.773  70.276  1.00  0.00    -0.467 NA 
HETATM   19  C   UNL     1     -11.084   6.238  71.419  1.00  0.00    -0.284 A  
HETATM   20  H   UNL     1     -12.611   7.022  70.115  1.00  0.00     0.000 HD 
HETATM   21  C   UNL     1     -11.704   5.838  72.614  1.00  0.00    -0.256 A  
HETATM   22  C   UNL     1     -10.929   5.216  73.601  1.00  0.00    -0.350 A  
HETATM   23  C   UNL     1      -9.560   5.010  73.410  1.00  0.00    -0.147 A  
HETATM   24  C   UNL     1      -8.915   5.439  72.243  1.00  0.00    -0.134 A  
HETATM   25  C   UNL     1      -9.712   6.053  71.274  1.00  0.00    -0.172 A  
HETATM   26  N   UNL     1      -9.438   6.570  70.032  1.00  0.00    -0.156 NA 
ENDBRANCH  15  17
ENDBRANCH  14  15
ENDBRANCH   7  14
TORSDOF 5
ENDMDL
MODEL      185
REMARK 921   NORMALIZED FREE ENERGY PREDICTED BY IDOCK:   -4.59 KCAL/MOL
REMARK 922        TOTAL FREE ENERGY PREDICTED BY IDOCK:   -6.70 KCAL/MOL
REMARK 923 INTER-LIGAND FREE ENERGY PREDICTED BY IDOCK:   -5.84 KCAL/MOL
REMARK 924 INTRA-LIGAND FREE ENERGY PREDICTED BY IDOCK:   -0.86 KCAL/MOL
REMARK 927      BINDING AFFINITY PREDICTED BY RF-SCORE:    0.00 PKD
ROOT
HETATM    1  C   UNL     1     -10.283   5.326  71.182  1.00  0.00    -0.294 C  
HETATM    2  C   UNL     1     -10.310   5.614  69.710  1.00  0.00    -0.352 A  
HETATM    3  C   UNL     1      -9.806   4.704  68.761  1.00  0.00    -0.131 A  
HETATM    4  C   UNL     1     -10.029   4.923  67.404  1.00  0.00    -0.209 A  
HETATM    5  N   UNL     1     -11.071   7.031  67.890  1.00  0.00    -0.117 NA 
HETATM    6  C   UNL     1     -10.682   6.077  67.021  1.00  0.00    -0.337 A  
HETATM    7  C   UNL     1     -10.873   6.813  69.221  1.00  0.00    -0.264 A  
ENDROOT
BRANCH   3   8
HETATM    8  O   UNL     1      -9.141   3.530  69.022  1.00  0.00    -0.113 OA 
BRANCH   8   9
HETATM    9  C   UNL     1      -8.279   3.035  67.986  1.00  0.00    -0.077 C  
HETATM   10  C   UNL     1      -6.801   3.311  68.246  1.00  0.00    -0.049 C  
HETATM   11  F   UNL     1      -6.316   4.232  67.374  1.00  0.00    -0.035 F  
HETATM   12  F   UNL     1      -6.067   2.184  68.069  1.00  0.00    -0.022 F  
HETATM   13  F   UNL     1      -6.544   3.763  69.494  1.00  0.00    -0.031 F  
ENDBRANCH   8   9
ENDBRANCH   3   8
BRANCH   7  14
HETATM   14  C   UNL     1     -11.265   7.976  70.113  1.00  0.00    -0.144 C  
BRANCH  14  15
HETATM   15  S   UNL     1      -9.993   9.253  70.167  1.00  0.00    -0.233 S  
HETATM   16  O   UNL     1      -8.787   8.903  69.341  1.00  0.00    -0.138 OA 
BRANCH  15  17
HETATM   17  C   UNL     1     -10.789  10.542  69.317  1.00  0.00    -0.243 A  
HETATM   18  N   UNL     1     -11.121  11.711  69.823  1.00  0.00    -0.478 NA 
HETATM   19  C   UNL     1     -11.494  12.479  68.742  1.00  0.00    -0.310 A  
HETATM   20  H   UNL     1     -11.104  11.988  70.804  1.00  0.00     0.000 HD 
HETATM   21  C   UNL     1     -11.878  13.828  68.687  1.00  0.00    -0.409 A  
HETATM   22  C   UNL     1     -12.110  14.414  67.436  1.00  0.00    -0.348 A  
HETATM   23  C   UNL     1     -11.979  13.666  66.263  1.00  0.00    -0.461 A  
HETATM   24  C   UNL     1     -11.638  12.309  66.298  1.00  0.00    -0.446 A  
HETATM   25  C   UNL     1     -11.409  11.751  67.559  1.00  0.00    -0.310 A  
HETATM   26  N   UNL     1     -11.047  10.493  67.970  1.00  0.00    -0.287 NA 
ENDBRANCH  15  17
ENDBRANCH  14  15
ENDBRANCH   7  14
TORSDOF 5
ENDMDL
MODEL      186
REMARK 921   NORMALIZED FREE ENERGY PREDICTED BY IDOCK:   -4.57 KCAL/MOL
REMARK 922        TOTAL FREE ENERGY PREDICTED BY IDOCK:   -6.67 KCAL/MOL
REMARK 923 INTER-LIGAND FREE ENERGY PREDICTED BY IDOCK:   -6.34 KCAL/MOL
REMARK 924 INTRA-LIGAND FREE ENERGY PREDICTED BY IDOCK:   -0.33 KCAL/MOL
REMARK 927      BINDING AFFINITY PREDICTED BY RF-SCORE:    0.00 PKD
ROOT
HETATM    1  C   UNL     1      -9.169  10.600  65.337  1.00  0.00    -0.226 C  
HETATM    2  C   UNL     1     -10.028  10.833  66.544  1.00  0.00    -0.260 A  
HETATM    3  C   UNL     1     -10.556  12.100  66.852  1.00  0.00    -0.229 A  
HETATM    4  C   UNL     1     -11.504  12.230  67.865  1.00  0.00    -0.390 A  
HETATM    5  N   UNL     1     -11.273   9.903  68.410  1.00  0.00    -0.141 NA 
HETATM    6  C   UNL     1     -11.846  11.109  68.594  1.00  0.00    -0.287 A  
HETATM    7  C   UNL     1     -10.360   9.766  67.408  1.00  0.00    -0.240 A  
ENDROOT
BRANCH   3   8
HETATM    8  O   UNL     1     -10.289  13.282  66.202  1.00  0.00    -0.278 OA 
BRANCH   8   9
HETATM    9  C   UNL     1     -10.700  13.367  64.829  1.00  0.00    -0.390 C  
HETATM   10  C   UNL     1     -12.182  13.693  64.661  1.00  0.00    -0.409 C  
HETATM   11  F   UNL     1     -12.862  12.627  64.167  1.00  0.00    -0.427 F  
HETATM   12  F   UNL     1     -12.349  14.706  63.774  1.00  0.00    -0.467 F  
HETATM   13  F   UNL     1     -12.790  14.064  65.810  1.00  0.00    -0.509 F  
ENDBRANCH   8   9
ENDBRANCH   3   8
BRANCH   7  14
HETATM   14  C   UNL     1      -9.708   8.398  67.334  1.00  0.00    -0.170 C  
BRANCH  14  15
HETATM   15  S   UNL     1     -10.747   7.109  68.048  1.00  0.00    -0.137 S  
HETATM   16  O   UNL     1     -10.586   5.786  67.354  1.00  0.00    -0.233 OA 
BRANCH  15  17
HETATM   17  C   UNL     1     -10.004   6.918  69.606  1.00  0.00    -0.171 A  
HETATM   18  N   UNL     1      -8.787   6.466  69.831  1.00  0.00    -0.141 NA 
HETATM   19  C   UNL     1      -8.549   6.718  71.164  1.00  0.00    -0.132 A  
HETATM   20  H   UNL     1      -8.157   6.025  69.161  1.00  0.00     0.000 HD 
HETATM   21  C   UNL     1      -7.391   6.506  71.927  1.00  0.00    -0.091 A  
HETATM   22  C   UNL     1      -7.365   6.950  73.255  1.00  0.00    -0.074 A  
HETATM   23  C   UNL     1      -8.478   7.580  73.818  1.00  0.00    -0.236 A  
HETATM   24  C   UNL     1      -9.658   7.764  73.087  1.00  0.00    -0.337 A  
HETATM   25  C   UNL     1      -9.655   7.314  71.764  1.00  0.00    -0.150 A  
HETATM   26  N   UNL     1     -10.598   7.341  70.768  1.00  0.00    -0.220 NA 
ENDBRANCH  15  17
ENDBRANCH  14  15
ENDBRANCH   7  14
TORSDOF 5
ENDMDL
MODEL      187
REMARK 921   NORMALIZED FREE ENERGY PREDICTED BY IDOCK:   -4.56 KCAL/MOL
REMARK 922        TOTAL FREE ENERGY PREDICTED BY IDOCK:   -6.66 KCAL/MOL
REMARK 923 INTER-LIGAND FREE ENERGY PREDICTED BY IDOCK:   -5.74 KCAL/MOL
REMARK 924 INTRA-LIGAND FREE ENERGY PREDICTED BY IDOCK:   -0.92 KCAL/MOL
REMARK 927      BINDING AFFINITY PREDICTED BY RF-SCORE:    0.00 PKD
ROOT
HETATM    1  C   UNL     1     -11.379   6.438  70.788  1.00  0.00    -0.411 C  
HETATM    2  C   UNL     1     -10.766   6.487  69.420  1.00  0.00    -0.328 A  
HETATM    3  C   UNL     1     -10.196   5.351  68.816  1.00  0.00    -0.182 A  
HETATM    4  C   UNL     1      -9.818   5.395  67.475  1.00  0.00    -0.173 A  
HETATM    5  N   UNL     1     -10.374   7.728  67.370  1.00  0.00    -0.257 NA 
HETATM    6  C   UNL     1      -9.947   6.587  66.793  1.00  0.00    -0.166 A  
HETATM    7  C   UNL     1     -10.763   7.687  68.675  1.00  0.00    -0.059 A  
ENDROOT
BRANCH   3   8
HETATM    8  O   UNL     1     -10.014   4.118  69.394  1.00  0.00    -0.158 OA 
BRANCH   8   9
HETATM    9  C   UNL     1      -8.787   3.918  70.112  1.00  0.00    -0.081 C  
HETATM   10  C   UNL     1      -8.992   3.684  71.606  1.00  0.00    -0.106 C  
HETATM   11  F   UNL     1      -8.539   4.739  72.331  1.00  0.00    -0.113 F  
HETATM   12  F   UNL     1      -8.291   2.598  72.019  1.00  0.00    -0.055 F  
HETATM   13  F   UNL     1     -10.283   3.481  71.952  1.00  0.00    -0.245 F  
ENDBRANCH   8   9
ENDBRANCH   3   8
BRANCH   7  14
HETATM   14  C   UNL     1     -11.146   9.034  69.259  1.00  0.00     0.060 C  
BRANCH  14  15
HETATM   15  S   UNL     1      -9.812  10.239  69.125  1.00  0.00    -0.225 S  
HETATM   16  O   UNL     1      -8.461   9.595  68.995  1.00  0.00    -0.120 OA 
BRANCH  15  17
HETATM   17  C   UNL     1     -10.155  10.932  67.569  1.00  0.00    -0.184 A  
HETATM   18  N   UNL     1      -9.645  10.540  66.420  1.00  0.00    -0.171 NA 
HETATM   19  C   UNL     1     -10.377  11.200  65.457  1.00  0.00    -0.268 A  
HETATM   20  H   UNL     1      -8.875   9.889  66.275  1.00  0.00     0.000 HD 
HETATM   21  C   UNL     1     -10.310  11.110  64.058  1.00  0.00    -0.437 A  
HETATM   22  C   UNL     1     -11.247  11.814  63.290  1.00  0.00    -0.357 A  
HETATM   23  C   UNL     1     -12.222  12.606  63.903  1.00  0.00    -0.565 A  
HETATM   24  C   UNL     1     -12.279  12.742  65.295  1.00  0.00    -0.535 A  
HETATM   25  C   UNL     1     -11.335  12.027  66.037  1.00  0.00    -0.343 A  
HETATM   26  N   UNL     1     -11.105  11.905  67.384  1.00  0.00    -0.261 NA 
ENDBRANCH  15  17
ENDBRANCH  14  15
ENDBRANCH   7  14
TORSDOF 5
ENDMDL
MODEL      188
REMARK 921   NORMALIZED FREE ENERGY PREDICTED BY IDOCK:   -4.53 KCAL/MOL
REMARK 922        TOTAL FREE ENERGY PREDICTED BY IDOCK:   -6.62 KCAL/MOL
REMARK 923 INTER-LIGAND FREE ENERGY PREDICTED BY IDOCK:   -5.69 KCAL/MOL
REMARK 924 INTRA-LIGAND FREE ENERGY PREDICTED BY IDOCK:   -0.93 KCAL/MOL
REMARK 927      BINDING AFFINITY PREDICTED BY RF-SCORE:    0.00 PKD
ROOT
HETATM    1  C   UNL     1      -8.947   8.950  71.004  1.00  0.00    -0.298 C  
HETATM    2  C   UNL     1     -10.019   9.753  70.329  1.00  0.00    -0.309 A  
HETATM    3  C   UNL     1     -11.321   9.852  70.855  1.00  0.00    -0.370 A  
HETATM    4  C   UNL     1     -12.223  10.761  70.307  1.00  0.00    -0.431 A  
HETATM    5  N   UNL     1     -10.639  11.339  68.598  1.00  0.00    -0.193 NA 
HETATM    6  C   UNL     1     -11.833  11.493  69.204  1.00  0.00    -0.340 A  
HETATM    7  C   UNL     1      -9.745  10.466  69.141  1.00  0.00    -0.220 A  
ENDROOT
BRANCH   3   8
HETATM    8  O   UNL     1     -11.822   9.174  71.941  1.00  0.00    -0.354 OA 
BRANCH   8   9
HETATM    9  C   UNL     1     -12.874   8.232  71.682  1.00  0.00    -0.329 C  
HETATM   10  C   UNL     1     -12.364   6.857  71.263  1.00  0.00    -0.375 C  
HETATM   11  F   UNL     1     -12.646   6.610  69.958  1.00  0.00    -0.246 F  
HETATM   12  F   UNL     1     -12.975   5.882  71.983  1.00  0.00    -0.134 F  
HETATM   13  F   UNL     1     -11.032   6.698  71.426  1.00  0.00    -0.251 F  
ENDBRANCH   8   9
ENDBRANCH   3   8
BRANCH   7  14
HETATM   14  C   UNL     1      -8.466  10.297  68.343  1.00  0.00    -0.124 C  
BRANCH  14  15
HETATM   15  S   UNL     1      -7.095  11.234  69.045  1.00  0.00    -0.120 S  
HETATM   16  O   UNL     1      -5.755  10.715  68.607  1.00  0.00    -0.041 OA 
BRANCH  15  17
HETATM   17  C   UNL     1      -7.296  12.759  68.237  1.00  0.00    -0.117 A  
HETATM   18  N   UNL     1      -8.058  12.981  67.186  1.00  0.00    -0.334 NA 
HETATM   19  C   UNL     1      -8.095  14.352  67.052  1.00  0.00    -0.065 A  
HETATM   20  H   UNL     1      -8.520  12.288  66.599  1.00  0.00     0.000 HD 
HETATM   21  C   UNL     1      -8.808  15.147  66.141  1.00  0.00    -0.104 A  
HETATM   22  C   UNL     1      -8.761  16.540  66.279  1.00  0.00    -0.369 A  
HETATM   23  C   UNL     1      -8.004  17.131  67.295  1.00  0.00    -0.200 A  
HETATM   24  C   UNL     1      -7.252  16.358  68.187  1.00  0.00    -0.148 A  
HETATM   25  C   UNL     1      -7.321  14.971  68.028  1.00  0.00    -0.127 A  
HETATM   26  N   UNL     1      -6.750  13.926  68.710  1.00  0.00    -0.095 NA 
ENDBRANCH  15  17
ENDBRANCH  14  15
ENDBRANCH   7  14
TORSDOF 5
ENDMDL
MODEL      189
REMARK 921   NORMALIZED FREE ENERGY PREDICTED BY IDOCK:   -4.51 KCAL/MOL
REMARK 922        TOTAL FREE ENERGY PREDICTED BY IDOCK:   -6.59 KCAL/MOL
REMARK 923 INTER-LIGAND FREE ENERGY PREDICTED BY IDOCK:   -5.83 KCAL/MOL
REMARK 924 INTRA-LIGAND FREE ENERGY PREDICTED BY IDOCK:   -0.76 KCAL/MOL
REMARK 927      BINDING AFFINITY PREDICTED BY RF-SCORE:    0.00 PKD
ROOT
HETATM    1  C   UNL     1     -11.382  15.721  66.006  1.00  0.00     0.139 C  
HETATM    2  C   UNL     1     -11.379  15.042  67.344  1.00  0.00    -0.338 A  
HETATM    3  C   UNL     1     -10.966  15.703  68.516  1.00  0.00    -0.303 A  
HETATM    4  C   UNL     1     -11.166  15.102  69.758  1.00  0.00    -0.298 A  
HETATM    5  N   UNL     1     -11.995  13.117  68.691  1.00  0.00    -0.323 NA 
HETATM    6  C   UNL     1     -11.701  13.831  69.796  1.00  0.00    -0.302 A  
HETATM    7  C   UNL     1     -11.820  13.707  67.475  1.00  0.00    -0.381 A  
ENDROOT
BRANCH   3   8
HETATM    8  O   UNL     1     -10.420  16.961  68.601  1.00  0.00    -0.307 OA 
BRANCH   8   9
HETATM    9  C   UNL     1      -9.011  17.070  68.349  1.00  0.00    -0.247 C  
HETATM   10  C   UNL     1      -8.652  18.207  67.398  1.00  0.00    -0.244 C  
HETATM   11  F   UNL     1      -8.213  17.726  66.207  1.00  0.00    -0.261 F  
HETATM   12  F   UNL     1      -7.643  18.957  67.910  1.00  0.00    -0.252 F  
HETATM   13  F   UNL     1      -9.681  19.045  67.141  1.00  0.00    -0.308 F  
ENDBRANCH   8   9
ENDBRANCH   3   8
BRANCH   7  14
HETATM   14  C   UNL     1     -12.097  12.799  66.291  1.00  0.00    -0.332 C  
BRANCH  14  15
HETATM   15  S   UNL     1     -10.584  12.112  65.591  1.00  0.00    -0.272 S  
HETATM   16  O   UNL     1      -9.489  13.133  65.466  1.00  0.00    -0.016 OA 
BRANCH  15  17
HETATM   17  C   UNL     1     -10.089  11.045  66.869  1.00  0.00    -0.210 A  
HETATM   18  N   UNL     1      -8.944  11.094  67.515  1.00  0.00    -0.138 NA 
HETATM   19  C   UNL     1      -9.093  10.233  68.580  1.00  0.00    -0.138 A  
HETATM   20  H   UNL     1      -8.122  11.650  67.279  1.00  0.00     0.000 HD 
HETATM   21  C   UNL     1      -8.212   9.944  69.634  1.00  0.00    -0.178 A  
HETATM   22  C   UNL     1      -8.646   9.101  70.665  1.00  0.00    -0.266 A  
HETATM   23  C   UNL     1      -9.927   8.543  70.640  1.00  0.00    -0.222 A  
HETATM   24  C   UNL     1     -10.806   8.785  69.577  1.00  0.00    -0.151 A  
HETATM   25  C   UNL     1     -10.349   9.632  68.564  1.00  0.00    -0.205 A  
HETATM   26  N   UNL     1     -10.924  10.099  67.409  1.00  0.00    -0.276 NA 
ENDBRANCH  15  17
ENDBRANCH  14  15
ENDBRANCH   7  14
TORSDOF 5
ENDMDL
MODEL      190
REMARK 921   NORMALIZED FREE ENERGY PREDICTED BY IDOCK:   -4.49 KCAL/MOL
REMARK 922        TOTAL FREE ENERGY PREDICTED BY IDOCK:   -6.57 KCAL/MOL
REMARK 923 INTER-LIGAND FREE ENERGY PREDICTED BY IDOCK:   -6.11 KCAL/MOL
REMARK 924 INTRA-LIGAND FREE ENERGY PREDICTED BY IDOCK:   -0.46 KCAL/MOL
REMARK 927      BINDING AFFINITY PREDICTED BY RF-SCORE:    0.00 PKD
ROOT
HETATM    1  C   UNL     1     -10.625  13.935  67.753  1.00  0.00    -0.248 C  
HETATM    2  C   UNL     1      -9.160  13.693  67.543  1.00  0.00    -0.213 A  
HETATM    3  C   UNL     1      -8.222  14.743  67.546  1.00  0.00    -0.185 A  
HETATM    4  C   UNL     1      -6.859  14.454  67.546  1.00  0.00    -0.162 A  
HETATM    5  N   UNL     1      -7.331  12.109  67.338  1.00  0.00    -0.141 NA 
HETATM    6  C   UNL     1      -6.465  13.134  67.466  1.00  0.00    -0.147 A  
HETATM    7  C   UNL     1      -8.665  12.384  67.358  1.00  0.00    -0.183 A  
ENDROOT
BRANCH   3   8
HETATM    8  O   UNL     1      -8.494  16.088  67.620  1.00  0.00    -0.155 OA 
BRANCH   8   9
HETATM    9  C   UNL     1      -8.669  16.778  66.373  1.00  0.00    -0.302 C  
HETATM   10  C   UNL     1     -10.078  17.330  66.180  1.00  0.00    -0.302 C  
HETATM   11  F   UNL     1     -10.737  16.655  65.204  1.00  0.00    -0.374 F  
HETATM   12  F   UNL     1     -10.032  18.629  65.790  1.00  0.00    -0.308 F  
HETATM   13  F   UNL     1     -10.841  17.275  67.295  1.00  0.00    -0.325 F  
ENDBRANCH   8   9
ENDBRANCH   3   8
BRANCH   7  14
HETATM   14  C   UNL     1      -9.558  11.179  67.122  1.00  0.00    -0.173 C  
BRANCH  14  15
HETATM   15  S   UNL     1      -9.060   9.758  68.113  1.00  0.00    -0.124 S  
HETATM   16  O   UNL     1      -7.906  10.064  69.025  1.00  0.00    -0.087 OA 
BRANCH  15  17
HETATM   17  C   UNL     1     -10.445   9.581  69.147  1.00  0.00    -0.210 A  
HETATM   18  N   UNL     1     -10.835   8.467  69.730  1.00  0.00    -0.326 NA 
HETATM   19  C   UNL     1     -11.807   8.851  70.627  1.00  0.00    -0.128 A  
HETATM   20  H   UNL     1     -10.492   7.523  69.555  1.00  0.00     0.000 HD 
HETATM   21  C   UNL     1     -12.522   8.086  71.562  1.00  0.00    -0.334 A  
HETATM   22  C   UNL     1     -13.392   8.738  72.445  1.00  0.00    -0.442 A  
HETATM   23  C   UNL     1     -13.562  10.124  72.387  1.00  0.00    -0.109 A  
HETATM   24  C   UNL     1     -12.891  10.900  71.434  1.00  0.00    -0.554 A  
HETATM   25  C   UNL     1     -12.026  10.225  70.569  1.00  0.00    -0.323 A  
HETATM   26  N   UNL     1     -11.209  10.647  69.550  1.00  0.00    -0.251 NA 
ENDBRANCH  15  17
ENDBRANCH  14  15
ENDBRANCH   7  14
TORSDOF 5
ENDMDL
MODEL      191
REMARK 921   NORMALIZED FREE ENERGY PREDICTED BY IDOCK:   -4.44 KCAL/MOL
REMARK 922        TOTAL FREE ENERGY PREDICTED BY IDOCK:   -6.51 KCAL/MOL
REMARK 923 INTER-LIGAND FREE ENERGY PREDICTED BY IDOCK:   -5.73 KCAL/MOL
REMARK 924 INTRA-LIGAND FREE ENERGY PREDICTED BY IDOCK:   -0.78 KCAL/MOL
REMARK 927      BINDING AFFINITY PREDICTED BY RF-SCORE:    0.00 PKD
ROOT
HETATM    1  C   UNL     1     -11.112   6.670  67.136  1.00  0.00    -0.427 C  
HETATM    2  C   UNL     1      -9.638   6.522  67.370  1.00  0.00    -0.142 A  
HETATM    3  C   UNL     1      -9.097   5.423  68.064  1.00  0.00    -0.109 A  
HETATM    4  C   UNL     1      -7.718   5.227  68.085  1.00  0.00    -0.084 A  
HETATM    5  N   UNL     1      -7.381   7.296  66.914  1.00  0.00    -0.090 NA 
HETATM    6  C   UNL     1      -6.909   6.169  67.482  1.00  0.00    -0.063 A  
HETATM    7  C   UNL     1      -8.730   7.483  66.873  1.00  0.00    -0.129 A  
ENDROOT
BRANCH   3   8
HETATM    8  O   UNL     1      -9.800   4.429  68.702  1.00  0.00    -0.144 OA 
BRANCH   8   9
HETATM    9  C   UNL     1      -9.513   4.233  70.095  1.00  0.00    -0.182 C  
HETATM   10  C   UNL     1     -10.250   5.209  71.007  1.00  0.00    -0.225 C  
HETATM   11  F   UNL     1      -9.387   6.090  71.576  1.00  0.00    -0.147 F  
HETATM   12  F   UNL     1     -10.857   4.547  72.025  1.00  0.00    -0.211 F  
HETATM   13  F   UNL     1     -11.204   5.929  70.375  1.00  0.00    -0.367 F  
ENDBRANCH   8   9
ENDBRANCH   3   8
BRANCH   7  14
HETATM   14  C   UNL     1      -9.162   8.818  66.293  1.00  0.00    -0.207 C  
BRANCH  14  15
HETATM   15  S   UNL     1      -9.686   9.979  67.569  1.00  0.00    -0.164 S  
HETATM   16  O   UNL     1      -8.537  10.494  68.389  1.00  0.00    -0.121 OA 
BRANCH  15  17
HETATM   17  C   UNL     1     -10.208  11.319  66.595  1.00  0.00    -0.229 A  
HETATM   18  N   UNL     1     -11.380  11.436  66.008  1.00  0.00    -0.198 NA 
HETATM   19  C   UNL     1     -11.434  12.739  65.565  1.00  0.00    -0.337 A  
HETATM   20  H   UNL     1     -12.095  10.716  65.904  1.00  0.00     0.000 HD 
HETATM   21  C   UNL     1     -12.476  13.431  64.929  1.00  0.00    -0.447 A  
HETATM   22  C   UNL     1     -12.320  14.799  64.671  1.00  0.00    -0.346 A  
HETATM   23  C   UNL     1     -11.142  15.462  65.025  1.00  0.00    -0.428 A  
HETATM   24  C   UNL     1     -10.075  14.782  65.622  1.00  0.00    -0.393 A  
HETATM   25  C   UNL     1     -10.258  13.419  65.871  1.00  0.00    -0.299 A  
HETATM   26  N   UNL     1      -9.460  12.460  66.443  1.00  0.00    -0.241 NA 
ENDBRANCH  15  17
ENDBRANCH  14  15
ENDBRANCH   7  14
TORSDOF 5
ENDMDL
MODEL      192
REMARK 921   NORMALIZED FREE ENERGY PREDICTED BY IDOCK:   -4.44 KCAL/MOL
REMARK 922        TOTAL FREE ENERGY PREDICTED BY IDOCK:   -6.51 KCAL/MOL
REMARK 923 INTER-LIGAND FREE ENERGY PREDICTED BY IDOCK:   -6.84 KCAL/MOL
REMARK 924 INTRA-LIGAND FREE ENERGY PREDICTED BY IDOCK:    0.34 KCAL/MOL
REMARK 927      BINDING AFFINITY PREDICTED BY RF-SCORE:    0.00 PKD
ROOT
HETATM    1  C   UNL     1     -10.887  10.681  70.154  1.00  0.00    -0.224 C  
HETATM    2  C   UNL     1     -11.619   9.550  70.813  1.00  0.00    -0.378 A  
HETATM    3  C   UNL     1     -12.739   9.765  71.638  1.00  0.00    -0.422 A  
HETATM    4  C   UNL     1     -13.502   8.681  72.067  1.00  0.00    -0.439 A  
HETATM    5  N   UNL     1     -11.955   7.156  71.044  1.00  0.00    -0.335 NA 
HETATM    6  C   UNL     1     -13.089   7.409  71.728  1.00  0.00    -0.317 A  
HETATM    7  C   UNL     1     -11.216   8.213  70.605  1.00  0.00    -0.260 A  
ENDROOT
BRANCH   3   8
HETATM    8  O   UNL     1     -13.241  10.979  72.042  1.00  0.00    -0.499 OA 
BRANCH   8   9
HETATM    9  C   UNL     1     -13.043  12.086  71.150  1.00  0.00    -0.032 C  
HETATM   10  C   UNL     1     -13.097  13.442  71.847  1.00  0.00    -0.383 C  
HETATM   11  F   UNL     1     -14.209  14.132  71.486  1.00  0.00    -0.430 F  
HETATM   12  F   UNL     1     -12.033  14.205  71.490  1.00  0.00    -0.385 F  
HETATM   13  F   UNL     1     -13.094  13.360  73.196  1.00  0.00    -0.417 F  
ENDBRANCH   8   9
ENDBRANCH   3   8
BRANCH   7  14
HETATM   14  C   UNL     1      -9.916   7.829  69.921  1.00  0.00    -0.191 C  
BRANCH  14  15
HETATM   15  S   UNL     1     -10.195   6.880  68.413  1.00  0.00    -0.186 S  
HETATM   16  O   UNL     1     -11.653   6.646  68.138  1.00  0.00     0.038 OA 
BRANCH  15  17
HETATM   17  C   UNL     1      -9.665   8.017  67.211  1.00  0.00    -0.177 A  
HETATM   18  N   UNL     1      -8.572   7.918  66.484  1.00  0.00    -0.135 NA 
HETATM   19  C   UNL     1      -8.691   8.893  65.519  1.00  0.00    -0.183 A  
HETATM   20  H   UNL     1      -7.802   7.260  66.609  1.00  0.00     0.000 HD 
HETATM   21  C   UNL     1      -7.848   9.198  64.438  1.00  0.00    -0.125 A  
HETATM   22  C   UNL     1      -8.249  10.181  63.525  1.00  0.00    -0.165 A  
HETATM   23  C   UNL     1      -9.459  10.860  63.692  1.00  0.00    -0.315 A  
HETATM   24  C   UNL     1     -10.294  10.601  64.786  1.00  0.00    -0.353 A  
HETATM   25  C   UNL     1      -9.871   9.613  65.679  1.00  0.00    -0.299 A  
HETATM   26  N   UNL     1     -10.424   9.092  66.823  1.00  0.00    -0.231 NA 
ENDBRANCH  15  17
ENDBRANCH  14  15
ENDBRANCH   7  14
TORSDOF 5
ENDMDL
MODEL      193
REMARK 921   NORMALIZED FREE ENERGY PREDICTED BY IDOCK:   -4.43 KCAL/MOL
REMARK 922        TOTAL FREE ENERGY PREDICTED BY IDOCK:   -6.49 KCAL/MOL
REMARK 923 INTER-LIGAND FREE ENERGY PREDICTED BY IDOCK:   -6.07 KCAL/MOL
REMARK 924 INTRA-LIGAND FREE ENERGY PREDICTED BY IDOCK:   -0.42 KCAL/MOL
REMARK 927      BINDING AFFINITY PREDICTED BY RF-SCORE:    0.00 PKD
ROOT
HETATM    1  C   UNL     1      -8.268  10.424  69.516  1.00  0.00    -0.137 C  
HETATM    2  C   UNL     1      -9.492  11.056  68.924  1.00  0.00    -0.166 A  
HETATM    3  C   UNL     1     -10.789  10.598  69.224  1.00  0.00    -0.239 A  
HETATM    4  C   UNL     1     -11.897  11.334  68.811  1.00  0.00    -0.396 A  
HETATM    5  N   UNL     1     -10.471  12.868  67.636  1.00  0.00    -0.222 NA 
HETATM    6  C   UNL     1     -11.690  12.465  68.047  1.00  0.00    -0.356 A  
HETATM    7  C   UNL     1      -9.383  12.163  68.053  1.00  0.00    -0.197 A  
ENDROOT
BRANCH   3   8
HETATM    8  O   UNL     1     -11.117   9.491  69.970  1.00  0.00    -0.236 OA 
BRANCH   8   9
HETATM    9  C   UNL     1     -10.901   8.213  69.352  1.00  0.00    -0.086 C  
HETATM   10  C   UNL     1     -11.106   7.039  70.305  1.00  0.00    -0.285 C  
HETATM   11  F   UNL     1      -9.927   6.425  70.583  1.00  0.00    -0.188 F  
HETATM   12  F   UNL     1     -11.908   6.101  69.740  1.00  0.00    -0.479 F  
HETATM   13  F   UNL     1     -11.668   7.387  71.483  1.00  0.00    -0.267 F  
ENDBRANCH   8   9
ENDBRANCH   3   8
BRANCH   7  14
HETATM   14  C   UNL     1      -8.065  12.640  67.472  1.00  0.00    -0.178 C  
BRANCH  14  15
HETATM   15  S   UNL     1      -7.089  13.572  68.668  1.00  0.00    -0.109 S  
HETATM   16  O   UNL     1      -5.629  13.615  68.315  1.00  0.00    -0.086 OA 
BRANCH  15  17
HETATM   17  C   UNL     1      -7.688  15.179  68.394  1.00  0.00    -0.118 A  
HETATM   18  N   UNL     1      -7.311  15.989  67.426  1.00  0.00    -0.165 NA 
HETATM   19  C   UNL     1      -8.210  17.031  67.457  1.00  0.00    -0.180 A  
HETATM   20  H   UNL     1      -6.522  15.870  66.791  1.00  0.00     0.000 HD 
HETATM   21  C   UNL     1      -8.327  18.144  66.610  1.00  0.00    -0.283 A  
HETATM   22  C   UNL     1      -9.406  19.019  66.788  1.00  0.00    -0.357 A  
HETATM   23  C   UNL     1     -10.344  18.799  67.801  1.00  0.00    -0.467 A  
HETATM   24  C   UNL     1     -10.222  17.718  68.683  1.00  0.00    -0.377 A  
HETATM   25  C   UNL     1      -9.139  16.860  68.480  1.00  0.00    -0.257 A  
HETATM   26  N   UNL     1      -8.721  15.719  69.118  1.00  0.00    -0.239 NA 
ENDBRANCH  15  17
ENDBRANCH  14  15
ENDBRANCH   7  14
TORSDOF 5
ENDMDL
MODEL      194
REMARK 921   NORMALIZED FREE ENERGY PREDICTED BY IDOCK:   -4.42 KCAL/MOL
REMARK 922        TOTAL FREE ENERGY PREDICTED BY IDOCK:   -6.49 KCAL/MOL
REMARK 923 INTER-LIGAND FREE ENERGY PREDICTED BY IDOCK:   -5.87 KCAL/MOL
REMARK 924 INTRA-LIGAND FREE ENERGY PREDICTED BY IDOCK:   -0.61 KCAL/MOL
REMARK 927      BINDING AFFINITY PREDICTED BY RF-SCORE:    0.00 PKD
ROOT
HETATM    1  C   UNL     1     -10.729   8.502  67.213  1.00  0.00    -0.219 C  
HETATM    2  C   UNL     1      -9.833   9.137  66.191  1.00  0.00    -0.363 A  
HETATM    3  C   UNL     1      -8.739   8.453  65.629  1.00  0.00    -0.172 A  
HETATM    4  C   UNL     1      -8.057   9.005  64.547  1.00  0.00    -0.143 A  
HETATM    5  N   UNL     1      -9.396  10.994  64.688  1.00  0.00    -0.215 NA 
HETATM    6  C   UNL     1      -8.434  10.255  64.100  1.00  0.00    -0.179 A  
HETATM    7  C   UNL     1     -10.078  10.450  65.735  1.00  0.00    -0.262 A  
ENDROOT
BRANCH   3   8
HETATM    8  O   UNL     1      -8.272   7.212  65.992  1.00  0.00    -0.115 OA 
BRANCH   8   9
HETATM    9  C   UNL     1      -7.427   7.155  67.151  1.00  0.00    -0.098 C  
HETATM   10  C   UNL     1      -6.378   6.050  67.081  1.00  0.00    -0.041 C  
HETATM   11  F   UNL     1      -6.647   5.065  67.977  1.00  0.00    -0.043 F  
HETATM   12  F   UNL     1      -5.151   6.537  67.396  1.00  0.00    -0.004 F  
HETATM   13  F   UNL     1      -6.277   5.472  65.863  1.00  0.00    -0.029 F  
ENDBRANCH   8   9
ENDBRANCH   3   8
BRANCH   7  14
HETATM   14  C   UNL     1     -11.080  11.387  66.384  1.00  0.00    -0.240 C  
BRANCH  14  15
HETATM   15  S   UNL     1     -11.777  12.562  65.208  1.00  0.00    -0.400 S  
HETATM   16  O   UNL     1     -13.271  12.678  65.322  1.00  0.00    -0.511 OA 
BRANCH  15  17
HETATM   17  C   UNL     1     -11.140  14.056  65.825  1.00  0.00    -0.305 A  
HETATM   18  N   UNL     1     -11.631  14.746  66.833  1.00  0.00    -0.353 NA 
HETATM   19  C   UNL     1     -10.678  15.701  67.113  1.00  0.00    -0.314 A  
HETATM   20  H   UNL     1     -12.524  14.604  67.304  1.00  0.00     0.000 HD 
HETATM   21  C   UNL     1     -10.645  16.666  68.132  1.00  0.00    -0.336 A  
HETATM   22  C   UNL     1      -9.500  17.461  68.272  1.00  0.00    -0.290 A  
HETATM   23  C   UNL     1      -8.416  17.310  67.403  1.00  0.00    -0.210 A  
HETATM   24  C   UNL     1      -8.446  16.383  66.355  1.00  0.00    -0.364 A  
HETATM   25  C   UNL     1      -9.598  15.601  66.241  1.00  0.00    -0.308 A  
HETATM   26  N   UNL     1      -9.966  14.604  65.372  1.00  0.00    -0.361 NA 
ENDBRANCH  15  17
ENDBRANCH  14  15
ENDBRANCH   7  14
TORSDOF 5
ENDMDL
MODEL      195
REMARK 921   NORMALIZED FREE ENERGY PREDICTED BY IDOCK:   -4.42 KCAL/MOL
REMARK 922        TOTAL FREE ENERGY PREDICTED BY IDOCK:   -6.48 KCAL/MOL
REMARK 923 INTER-LIGAND FREE ENERGY PREDICTED BY IDOCK:   -5.47 KCAL/MOL
REMARK 924 INTRA-LIGAND FREE ENERGY PREDICTED BY IDOCK:   -1.00 KCAL/MOL
REMARK 927      BINDING AFFINITY PREDICTED BY RF-SCORE:    0.00 PKD
ROOT
HETATM    1  C   UNL     1     -10.620   9.180  67.452  1.00  0.00    -0.315 C  
HETATM    2  C   UNL     1     -11.003   9.751  68.785  1.00  0.00    -0.185 A  
HETATM    3  C   UNL     1     -11.778  10.920  68.902  1.00  0.00    -0.306 A  
HETATM    4  C   UNL     1     -12.274  11.302  70.147  1.00  0.00    -0.410 A  
HETATM    5  N   UNL     1     -11.086   9.500  71.199  1.00  0.00    -0.352 NA 
HETATM    6  C   UNL     1     -11.924  10.554  71.253  1.00  0.00    -0.289 A  
HETATM    7  C   UNL     1     -10.614   9.111  69.982  1.00  0.00    -0.227 A  
ENDROOT
BRANCH   3   8
HETATM    8  O   UNL     1     -12.184  11.743  67.878  1.00  0.00    -0.538 OA 
BRANCH   8   9
HETATM    9  C   UNL     1     -11.337  12.863  67.579  1.00  0.00    -0.308 C  
HETATM   10  C   UNL     1     -11.564  13.437  66.183  1.00  0.00    -0.346 C  
HETATM   11  F   UNL     1     -10.500  13.191  65.376  1.00  0.00    -0.272 F  
HETATM   12  F   UNL     1     -11.706  14.785  66.239  1.00  0.00    -0.360 F  
HETATM   13  F   UNL     1     -12.662  12.945  65.566  1.00  0.00    -0.522 F  
ENDBRANCH   8   9
ENDBRANCH   3   8
BRANCH   7  14
HETATM   14  C   UNL     1      -9.612   7.971  70.031  1.00  0.00    -0.171 C  
BRANCH  14  15
HETATM   15  S   UNL     1      -7.973   8.526  70.538  1.00  0.00    -0.105 S  
HETATM   16  O   UNL     1      -7.186   7.448  71.229  1.00  0.00    -0.066 OA 
BRANCH  15  17
HETATM   17  C   UNL     1      -7.213   8.748  68.992  1.00  0.00    -0.072 A  
HETATM   18  N   UNL     1      -7.328   7.947  67.953  1.00  0.00    -0.090 NA 
HETATM   19  C   UNL     1      -6.765   8.637  66.902  1.00  0.00    -0.065 A  
HETATM   20  H   UNL     1      -7.745   7.017  67.932  1.00  0.00     0.000 HD 
HETATM   21  C   UNL     1      -6.673   8.291  65.545  1.00  0.00    -0.055 A  
HETATM   22  C   UNL     1      -6.142   9.223  64.645  1.00  0.00    -0.071 A  
HETATM   23  C   UNL     1      -5.695  10.471  65.089  1.00  0.00    -0.137 A  
HETATM   24  C   UNL     1      -5.740  10.819  66.444  1.00  0.00    -0.097 A  
HETATM   25  C   UNL     1      -6.278   9.873  67.320  1.00  0.00    -0.066 A  
HETATM   26  N   UNL     1      -6.493   9.873  68.675  1.00  0.00    -0.046 NA 
ENDBRANCH  15  17
ENDBRANCH  14  15
ENDBRANCH   7  14
TORSDOF 5
ENDMDL
MODEL      196
REMARK 921   NORMALIZED FREE ENERGY PREDICTED BY IDOCK:   -4.40 KCAL/MOL
REMARK 922        TOTAL FREE ENERGY PREDICTED BY IDOCK:   -6.46 KCAL/MOL
REMARK 923 INTER-LIGAND FREE ENERGY PREDICTED BY IDOCK:   -5.61 KCAL/MOL
REMARK 924 INTRA-LIGAND FREE ENERGY PREDICTED BY IDOCK:   -0.84 KCAL/MOL
REMARK 927      BINDING AFFINITY PREDICTED BY RF-SCORE:    0.00 PKD
ROOT
HETATM    1  C   UNL     1     -10.879   8.016  67.088  1.00  0.00    -0.150 C  
HETATM    2  C   UNL     1      -9.770   8.562  66.238  1.00  0.00    -0.300 A  
HETATM    3  C   UNL     1      -8.685   7.767  65.825  1.00  0.00    -0.133 A  
HETATM    4  C   UNL     1      -7.786   8.258  64.879  1.00  0.00    -0.126 A  
HETATM    5  N   UNL     1      -8.901  10.385  64.889  1.00  0.00    -0.181 NA 
HETATM    6  C   UNL     1      -7.947   9.551  64.427  1.00  0.00    -0.135 A  
HETATM    7  C   UNL     1      -9.794   9.904  65.799  1.00  0.00    -0.287 A  
ENDROOT
BRANCH   3   8
HETATM    8  O   UNL     1      -8.421   6.474  66.208  1.00  0.00    -0.118 OA 
BRANCH   8   9
HETATM    9  C   UNL     1      -8.065   6.270  67.584  1.00  0.00    -0.117 C  
HETATM   10  C   UNL     1      -6.560   6.154  67.808  1.00  0.00    -0.059 C  
HETATM   11  F   UNL     1      -6.216   4.889  68.161  1.00  0.00    -0.029 F  
HETATM   12  F   UNL     1      -6.165   6.963  68.824  1.00  0.00    -0.023 F  
HETATM   13  F   UNL     1      -5.822   6.486  66.725  1.00  0.00    -0.012 F  
ENDBRANCH   8   9
ENDBRANCH   3   8
BRANCH   7  14
HETATM   14  C   UNL     1     -10.774  10.937  66.322  1.00  0.00    -0.176 C  
BRANCH  14  15
HETATM   15  S   UNL     1     -10.027  12.024  67.552  1.00  0.00    -0.194 S  
HETATM   16  O   UNL     1     -10.583  13.419  67.503  1.00  0.00    -0.247 OA 
BRANCH  15  17
HETATM   17  C   UNL     1     -10.638  11.324  69.019  1.00  0.00    -0.208 A  
HETATM   18  N   UNL     1     -11.741  11.681  69.644  1.00  0.00    -0.323 NA 
HETATM   19  C   UNL     1     -11.946  10.709  70.598  1.00  0.00    -0.367 A  
HETATM   20  H   UNL     1     -12.318  12.501  69.461  1.00  0.00     0.000 HD 
HETATM   21  C   UNL     1     -13.005  10.548  71.505  1.00  0.00    -0.565 A  
HETATM   22  C   UNL     1     -13.036   9.402  72.310  1.00  0.00    -0.509 A  
HETATM   23  C   UNL     1     -12.023   8.443  72.226  1.00  0.00    -0.455 A  
HETATM   24  C   UNL     1     -10.937   8.605  71.359  1.00  0.00    -0.341 A  
HETATM   25  C   UNL     1     -10.933   9.755  70.565  1.00  0.00    -0.321 A  
HETATM   26  N   UNL     1     -10.066  10.227  69.611  1.00  0.00    -0.236 NA 
ENDBRANCH  15  17
ENDBRANCH  14  15
ENDBRANCH   7  14
TORSDOF 5
ENDMDL
MODEL      197
REMARK 921   NORMALIZED FREE ENERGY PREDICTED BY IDOCK:   -4.40 KCAL/MOL
REMARK 922        TOTAL FREE ENERGY PREDICTED BY IDOCK:   -6.45 KCAL/MOL
REMARK 923 INTER-LIGAND FREE ENERGY PREDICTED BY IDOCK:   -5.49 KCAL/MOL
REMARK 924 INTRA-LIGAND FREE ENERGY PREDICTED BY IDOCK:   -0.97 KCAL/MOL
REMARK 927      BINDING AFFINITY PREDICTED BY RF-SCORE:    0.00 PKD
ROOT
HETATM    1  C   UNL     1     -10.781   7.161  69.215  1.00  0.00    -0.231 C  
HETATM    2  C   UNL     1     -11.286   8.229  70.140  1.00  0.00    -0.132 A  
HETATM    3  C   UNL     1     -11.115   9.598  69.865  1.00  0.00    -0.235 A  
HETATM    4  C   UNL     1     -11.769  10.549  70.646  1.00  0.00    -0.453 A  
HETATM    5  N   UNL     1     -12.601   8.823  72.093  1.00  0.00    -0.377 NA 
HETATM    6  C   UNL     1     -12.514  10.117  71.725  1.00  0.00    -0.360 A  
HETATM    7  C   UNL     1     -11.980   7.888  71.322  1.00  0.00    -0.298 A  
ENDROOT
BRANCH   3   8
HETATM    8  O   UNL     1     -10.399  10.144  68.827  1.00  0.00    -0.176 OA 
BRANCH   8   9
HETATM    9  C   UNL     1     -11.156  10.622  67.704  1.00  0.00    -0.319 C  
HETATM   10  C   UNL     1     -10.941  12.106  67.419  1.00  0.00    -0.260 C  
HETATM   11  F   UNL     1     -12.058  12.823  67.705  1.00  0.00    -0.396 F  
HETATM   12  F   UNL     1     -10.679  12.304  66.102  1.00  0.00    -0.263 F  
HETATM   13  F   UNL     1      -9.920  12.652  68.116  1.00  0.00    -0.198 F  
ENDBRANCH   8   9
ENDBRANCH   3   8
BRANCH   7  14
HETATM   14  C   UNL     1     -12.064   6.472  71.863  1.00  0.00    -0.339 C  
BRANCH  14  15
HETATM   15  S   UNL     1     -10.684   6.077  72.954  1.00  0.00    -0.262 S  
HETATM   16  O   UNL     1     -11.056   5.086  74.020  1.00  0.00    -0.276 OA 
BRANCH  15  17
HETATM   17  C   UNL     1      -9.638   5.224  71.861  1.00  0.00    -0.152 A  
HETATM   18  N   UNL     1      -9.945   4.129  71.196  1.00  0.00    -0.174 NA 
HETATM   19  C   UNL     1      -8.921   3.960  70.289  1.00  0.00    -0.098 A  
HETATM   20  H   UNL     1     -10.764   3.536  71.324  1.00  0.00     0.000 HD 
HETATM   21  C   UNL     1      -8.762   2.994  69.283  1.00  0.00    -0.134 A  
HETATM   22  C   UNL     1      -7.670   3.101  68.412  1.00  0.00    -0.058 A  
HETATM   23  C   UNL     1      -6.746   4.140  68.550  1.00  0.00    -0.046 A  
HETATM   24  C   UNL     1      -6.863   5.088  69.573  1.00  0.00    -0.053 A  
HETATM   25  C   UNL     1      -7.963   4.960  70.425  1.00  0.00    -0.070 A  
HETATM   26  N   UNL     1      -8.402   5.695  71.498  1.00  0.00    -0.126 NA 
ENDBRANCH  15  17
ENDBRANCH  14  15
ENDBRANCH   7  14
TORSDOF 5
ENDMDL
MODEL      198
REMARK 921   NORMALIZED FREE ENERGY PREDICTED BY IDOCK:   -4.36 KCAL/MOL
REMARK 922        TOTAL FREE ENERGY PREDICTED BY IDOCK:   -6.41 KCAL/MOL
REMARK 923 INTER-LIGAND FREE ENERGY PREDICTED BY IDOCK:   -6.52 KCAL/MOL
REMARK 924 INTRA-LIGAND FREE ENERGY PREDICTED BY IDOCK:    0.11 KCAL/MOL
REMARK 927      BINDING AFFINITY PREDICTED BY RF-SCORE:    0.00 PKD
ROOT
HETATM    1  C   UNL     1     -10.289  14.349  68.853  1.00  0.00    -0.233 C  
HETATM    2  C   UNL     1     -10.516  14.203  67.378  1.00  0.00    -0.271 A  
HETATM    3  C   UNL     1     -10.134  15.199  66.460  1.00  0.00    -0.269 A  
HETATM    4  C   UNL     1     -10.184  14.938  65.092  1.00  0.00    -0.409 A  
HETATM    5  N   UNL     1     -11.172  12.791  65.513  1.00  0.00    -0.287 NA 
HETATM    6  C   UNL     1     -10.683  13.722  64.671  1.00  0.00    -0.414 A  
HETATM    7  C   UNL     1     -11.108  13.033  66.853  1.00  0.00    -0.277 A  
ENDROOT
BRANCH   3   8
HETATM    8  O   UNL     1      -9.629  16.442  66.760  1.00  0.00    -0.231 OA 
BRANCH   8   9
HETATM    9  C   UNL     1     -10.581  17.509  66.891  1.00  0.00    -0.219 C  
HETATM   10  C   UNL     1     -10.089  18.832  66.313  1.00  0.00    -0.409 C  
HETATM   11  F   UNL     1      -9.851  19.736  67.298  1.00  0.00    -0.397 F  
HETATM   12  F   UNL     1     -11.032  19.378  65.504  1.00  0.00    -0.525 F  
HETATM   13  F   UNL     1      -8.956  18.719  65.585  1.00  0.00    -0.032 F  
ENDBRANCH   8   9
ENDBRANCH   3   8
BRANCH   7  14
HETATM   14  C   UNL     1     -11.759  11.967  67.715  1.00  0.00    -0.309 C  
BRANCH  14  15
HETATM   15  S   UNL     1     -10.678  11.415  69.049  1.00  0.00    -0.183 S  
HETATM   16  O   UNL     1     -11.338  11.491  70.397  1.00  0.00    -0.121 OA 
BRANCH  15  17
HETATM   17  C   UNL     1     -10.549   9.722  68.683  1.00  0.00    -0.221 A  
HETATM   18  N   UNL     1     -11.141   9.101  67.684  1.00  0.00    -0.441 NA 
HETATM   19  C   UNL     1     -10.563   7.851  67.644  1.00  0.00    -0.206 A  
HETATM   20  H   UNL     1     -11.869   9.467  67.071  1.00  0.00     0.000 HD 
HETATM   21  C   UNL     1     -10.764   6.796  66.740  1.00  0.00    -0.312 A  
HETATM   22  C   UNL     1      -9.967   5.649  66.852  1.00  0.00    -0.202 A  
HETATM   23  C   UNL     1      -9.000   5.548  67.856  1.00  0.00    -0.108 A  
HETATM   24  C   UNL     1      -8.813   6.571  68.793  1.00  0.00    -0.125 A  
HETATM   25  C   UNL     1      -9.618   7.704  68.655  1.00  0.00    -0.152 A  
HETATM   26  N   UNL     1      -9.701   8.880  69.358  1.00  0.00    -0.166 NA 
ENDBRANCH  15  17
ENDBRANCH  14  15
ENDBRANCH   7  14
TORSDOF 5
ENDMDL
MODEL      199
REMARK 921   NORMALIZED FREE ENERGY PREDICTED BY IDOCK:   -4.34 KCAL/MOL
REMARK 922        TOTAL FREE ENERGY PREDICTED BY IDOCK:   -6.38 KCAL/MOL
REMARK 923 INTER-LIGAND FREE ENERGY PREDICTED BY IDOCK:   -6.20 KCAL/MOL
REMARK 924 INTRA-LIGAND FREE ENERGY PREDICTED BY IDOCK:   -0.17 KCAL/MOL
REMARK 927      BINDING AFFINITY PREDICTED BY RF-SCORE:    0.00 PKD
ROOT
HETATM    1  C   UNL     1     -11.486  12.762  68.415  1.00  0.00    -0.349 C  
HETATM    2  C   UNL     1     -11.514  11.624  69.392  1.00  0.00    -0.372 A  
HETATM    3  C   UNL     1     -12.277  11.672  70.573  1.00  0.00    -0.361 A  
HETATM    4  C   UNL     1     -12.429  10.524  71.348  1.00  0.00    -0.516 A  
HETATM    5  N   UNL     1     -10.922   9.327  69.912  1.00  0.00    -0.230 NA 
HETATM    6  C   UNL     1     -11.758   9.379  70.968  1.00  0.00    -0.323 A  
HETATM    7  C   UNL     1     -10.785  10.441  69.140  1.00  0.00    -0.234 A  
ENDROOT
BRANCH   3   8
HETATM    8  O   UNL     1     -12.982  12.750  71.053  1.00  0.00    -0.214 OA 
BRANCH   8   9
HETATM    9  C   UNL     1     -12.273  13.995  71.140  1.00  0.00    -0.338 C  
HETATM   10  C   UNL     1     -12.797  14.913  72.241  1.00  0.00    -0.333 C  
HETATM   11  F   UNL     1     -13.418  16.000  71.714  1.00  0.00    -0.503 F  
HETATM   12  F   UNL     1     -11.773  15.381  72.999  1.00  0.00    -0.483 F  
HETATM   13  F   UNL     1     -13.673  14.314  73.078  1.00  0.00    -0.531 F  
ENDBRANCH   8   9
ENDBRANCH   3   8
BRANCH   7  14
HETATM   14  C   UNL     1      -9.760  10.313  68.028  1.00  0.00    -0.149 C  
BRANCH  14  15
HETATM   15  S   UNL     1     -10.273   9.137  66.761  1.00  0.00    -0.244 S  
HETATM   16  O   UNL     1     -10.256   9.730  65.380  1.00  0.00    -0.246 OA 
BRANCH  15  17
HETATM   17  C   UNL     1      -8.951   8.012  66.806  1.00  0.00    -0.144 A  
HETATM   18  N   UNL     1      -8.319   7.606  67.889  1.00  0.00    -0.122 NA 
HETATM   19  C   UNL     1      -7.531   6.556  67.474  1.00  0.00    -0.096 A  
HETATM   20  H   UNL     1      -8.398   7.988  68.831  1.00  0.00     0.000 HD 
HETATM   21  C   UNL     1      -6.698   5.707  68.219  1.00  0.00    -0.054 A  
HETATM   22  C   UNL     1      -6.075   4.632  67.572  1.00  0.00    -0.027 A  
HETATM   23  C   UNL     1      -6.266   4.415  66.205  1.00  0.00    -0.032 A  
HETATM   24  C   UNL     1      -7.060   5.273  65.435  1.00  0.00    -0.066 A  
HETATM   25  C   UNL     1      -7.671   6.335  66.107  1.00  0.00    -0.096 A  
HETATM   26  N   UNL     1      -8.510   7.340  65.694  1.00  0.00    -0.142 NA 
ENDBRANCH  15  17
ENDBRANCH  14  15
ENDBRANCH   7  14
TORSDOF 5
ENDMDL
MODEL      200
REMARK 921   NORMALIZED FREE ENERGY PREDICTED BY IDOCK:   -4.34 KCAL/MOL
REMARK 922        TOTAL FREE ENERGY PREDICTED BY IDOCK:   -6.37 KCAL/MOL
REMARK 923 INTER-LIGAND FREE ENERGY PREDICTED BY IDOCK:   -5.41 KCAL/MOL
REMARK 924 INTRA-LIGAND FREE ENERGY PREDICTED BY IDOCK:   -0.96 KCAL/MOL
REMARK 927      BINDING AFFINITY PREDICTED BY RF-SCORE:    0.00 PKD
ROOT
HETATM    1  C   UNL     1      -9.883  15.901  69.604  1.00  0.00    -0.238 C  
HETATM    2  C   UNL     1      -8.738  16.114  68.658  1.00  0.00    -0.214 A  
HETATM    3  C   UNL     1      -8.293  17.401  68.301  1.00  0.00    -0.248 A  
HETATM    4  C   UNL     1      -7.110  17.550  67.581  1.00  0.00    -0.180 A  
HETATM    5  N   UNL     1      -6.900  15.166  67.385  1.00  0.00    -0.232 NA 
HETATM    6  C   UNL     1      -6.441  16.415  67.169  1.00  0.00    -0.192 A  
HETATM    7  C   UNL     1      -8.046  15.014  68.106  1.00  0.00    -0.131 A  
ENDROOT
BRANCH   3   8
HETATM    8  O   UNL     1      -8.874  18.597  68.648  1.00  0.00    -0.323 OA 
BRANCH   8   9
HETATM    9  C   UNL     1      -9.236  19.473  67.570  1.00  0.00    -0.315 C  
HETATM   10  C   UNL     1     -10.601  19.154  66.965  1.00  0.00    -0.457 C  
HETATM   11  F   UNL     1     -10.472  18.652  65.710  1.00  0.00    -0.434 F  
HETATM   12  F   UNL     1     -11.349  20.281  66.858  1.00  0.00    -0.125 F  
HETATM   13  F   UNL     1     -11.320  18.265  67.684  1.00  0.00    -0.243 F  
ENDBRANCH   8   9
ENDBRANCH   3   8
BRANCH   7  14
HETATM   14  C   UNL     1      -8.528  13.580  68.224  1.00  0.00    -0.168 C  
BRANCH  14  15
HETATM   15  S   UNL     1      -9.840  13.203  67.047  1.00  0.00    -0.250 S  
HETATM   16  O   UNL     1     -10.177  14.370  66.163  1.00  0.00    -0.284 OA 
BRANCH  15  17
HETATM   17  C   UNL     1      -9.038  12.052  66.022  1.00  0.00    -0.092 A  
HETATM   18  N   UNL     1      -7.829  11.564  66.208  1.00  0.00    -0.370 NA 
HETATM   19  C   UNL     1      -7.716  10.529  65.307  1.00  0.00    -0.085 A  
HETATM   20  H   UNL     1      -7.128  11.884  66.876  1.00  0.00     0.000 HD 
HETATM   21  C   UNL     1      -6.666   9.617  65.112  1.00  0.00    -0.094 A  
HETATM   22  C   UNL     1      -6.839   8.576  64.191  1.00  0.00    -0.075 A  
HETATM   23  C   UNL     1      -8.027   8.453  63.466  1.00  0.00    -0.159 A  
HETATM   24  C   UNL     1      -9.069   9.376  63.616  1.00  0.00    -0.062 A  
HETATM   25  C   UNL     1      -8.872  10.402  64.543  1.00  0.00    -0.207 A  
HETATM   26  N   UNL     1      -9.659  11.447  64.958  1.00  0.00    -0.232 NA 
ENDBRANCH  15  17
ENDBRANCH  14  15
ENDBRANCH   7  14
TORSDOF 5
ENDMDL
MODEL      201
REMARK 921   NORMALIZED FREE ENERGY PREDICTED BY IDOCK:   -4.33 KCAL/MOL
REMARK 922        TOTAL FREE ENERGY PREDICTED BY IDOCK:   -6.37 KCAL/MOL
REMARK 923 INTER-LIGAND FREE ENERGY PREDICTED BY IDOCK:   -5.72 KCAL/MOL
REMARK 924 INTRA-LIGAND FREE ENERGY PREDICTED BY IDOCK:   -0.65 KCAL/MOL
REMARK 927      BINDING AFFINITY PREDICTED BY RF-SCORE:    0.00 PKD
ROOT
HETATM    1  C   UNL     1      -9.725  11.206  64.473  1.00  0.00    -0.310 C  
HETATM    2  C   UNL     1      -9.318  11.288  65.915  1.00  0.00    -0.240 A  
HETATM    3  C   UNL     1      -8.841  10.168  66.621  1.00  0.00    -0.132 A  
HETATM    4  C   UNL     1      -8.291  10.331  67.891  1.00  0.00    -0.114 A  
HETATM    5  N   UNL     1      -8.859  12.664  67.862  1.00  0.00    -0.173 NA 
HETATM    6  C   UNL     1      -8.301  11.591  68.455  1.00  0.00    -0.146 A  
HETATM    7  C   UNL     1      -9.380  12.514  66.612  1.00  0.00    -0.236 A  
ENDROOT
BRANCH   3   8
HETATM    8  O   UNL     1      -8.785   8.872  66.165  1.00  0.00    -0.137 OA 
BRANCH   8   9
HETATM    9  C   UNL     1      -8.922   7.837  67.151  1.00  0.00    -0.126 C  
HETATM   10  C   UNL     1     -10.365   7.605  67.587  1.00  0.00    -0.237 C  
HETATM   11  F   UNL     1     -10.560   8.013  68.867  1.00  0.00    -0.219 F  
HETATM   12  F   UNL     1     -10.667   6.282  67.551  1.00  0.00    -0.213 F  
HETATM   13  F   UNL     1     -11.275   8.242  66.817  1.00  0.00    -0.117 F  
ENDBRANCH   8   9
ENDBRANCH   3   8
BRANCH   7  14
HETATM   14  C   UNL     1     -10.060  13.754  66.062  1.00  0.00    -0.311 C  
BRANCH  14  15
HETATM   15  S   UNL     1     -11.857  13.649  66.168  1.00  0.00    -0.417 S  
HETATM   16  O   UNL     1     -12.417  12.498  65.382  1.00  0.00    -0.630 OA 
BRANCH  15  17
HETATM   17  C   UNL     1     -12.060  13.222  67.840  1.00  0.00    -0.228 A  
HETATM   18  N   UNL     1     -12.195  14.066  68.841  1.00  0.00    -0.513 NA 
HETATM   19  C   UNL     1     -12.567  13.291  69.918  1.00  0.00     0.068 A  
HETATM   20  H   UNL     1     -12.055  15.075  68.823  1.00  0.00     0.000 HD 
HETATM   21  C   UNL     1     -12.909  13.672  71.225  1.00  0.00    -0.424 A  
HETATM   22  C   UNL     1     -13.360  12.692  72.118  1.00  0.00    -0.570 A  
HETATM   23  C   UNL     1     -13.455  11.355  71.722  1.00  0.00    -0.218 A  
HETATM   24  C   UNL     1     -13.080  10.948  70.437  1.00  0.00    -0.030 A  
HETATM   25  C   UNL     1     -12.636  11.946  69.565  1.00  0.00     0.315 A  
HETATM   26  N   UNL     1     -12.215  11.924  68.259  1.00  0.00    -0.365 NA 
ENDBRANCH  15  17
ENDBRANCH  14  15
ENDBRANCH   7  14
TORSDOF 5
ENDMDL
MODEL      202
REMARK 921   NORMALIZED FREE ENERGY PREDICTED BY IDOCK:   -4.33 KCAL/MOL
REMARK 922        TOTAL FREE ENERGY PREDICTED BY IDOCK:   -6.37 KCAL/MOL
REMARK 923 INTER-LIGAND FREE ENERGY PREDICTED BY IDOCK:   -6.24 KCAL/MOL
REMARK 924 INTRA-LIGAND FREE ENERGY PREDICTED BY IDOCK:   -0.13 KCAL/MOL
REMARK 927      BINDING AFFINITY PREDICTED BY RF-SCORE:    0.00 PKD
ROOT
HETATM    1  C   UNL     1     -10.603   9.881  70.618  1.00  0.00    -0.341 C  
HETATM    2  C   UNL     1     -11.770   9.067  71.096  1.00  0.00    -0.366 A  
HETATM    3  C   UNL     1     -12.858   9.648  71.773  1.00  0.00    -0.421 A  
HETATM    4  C   UNL     1     -14.003   8.892  72.021  1.00  0.00    -0.497 A  
HETATM    5  N   UNL     1     -12.938   6.939  71.118  1.00  0.00    -0.277 NA 
HETATM    6  C   UNL     1     -14.005   7.561  71.657  1.00  0.00    -0.412 A  
HETATM    7  C   UNL     1     -11.824   7.677  70.855  1.00  0.00    -0.250 A  
ENDROOT
BRANCH   3   8
HETATM    8  O   UNL     1     -12.967  10.954  72.185  1.00  0.00    -0.419 OA 
BRANCH   8   9
HETATM    9  C   UNL     1     -12.876  11.961  71.165  1.00  0.00    -0.249 C  
HETATM   10  C   UNL     1     -13.128  13.373  71.685  1.00  0.00    -0.375 C  
HETATM   11  F   UNL     1     -14.303  13.863  71.214  1.00  0.00    -0.262 F  
HETATM   12  F   UNL     1     -12.156  14.219  71.260  1.00  0.00    -0.367 F  
HETATM   13  F   UNL     1     -13.168  13.457  73.034  1.00  0.00    -0.531 F  
ENDBRANCH   8   9
ENDBRANCH   3   8
BRANCH   7  14
HETATM   14  C   UNL     1     -10.648   6.874  70.329  1.00  0.00    -0.218 C  
BRANCH  14  15
HETATM   15  S   UNL     1     -10.931   6.268  68.655  1.00  0.00    -0.315 S  
HETATM   16  O   UNL     1     -10.751   7.337  67.615  1.00  0.00    -0.237 OA 
BRANCH  15  17
HETATM   17  C   UNL     1      -9.579   5.193  68.465  1.00  0.00    -0.140 A  
HETATM   18  N   UNL     1      -9.627   3.878  68.508  1.00  0.00    -0.143 NA 
HETATM   19  C   UNL     1      -8.391   3.458  68.070  1.00  0.00    -0.084 A  
HETATM   20  H   UNL     1     -10.411   3.296  68.802  1.00  0.00     0.000 HD 
HETATM   21  C   UNL     1      -7.907   2.158  67.852  1.00  0.00    -0.059 A  
HETATM   22  C   UNL     1      -6.632   1.997  67.296  1.00  0.00    -0.035 A  
HETATM   23  C   UNL     1      -5.846   3.107  66.978  1.00  0.00    -0.023 A  
HETATM   24  C   UNL     1      -6.292   4.410  67.226  1.00  0.00    -0.041 A  
HETATM   25  C   UNL     1      -7.569   4.543  67.778  1.00  0.00    -0.077 A  
HETATM   26  N   UNL     1      -8.324   5.634  68.130  1.00  0.00    -0.100 NA 
ENDBRANCH  15  17
ENDBRANCH  14  15
ENDBRANCH   7  14
TORSDOF 5
ENDMDL
MODEL      203
REMARK 921   NORMALIZED FREE ENERGY PREDICTED BY IDOCK:   -4.33 KCAL/MOL
REMARK 922        TOTAL FREE ENERGY PREDICTED BY IDOCK:   -6.36 KCAL/MOL
REMARK 923 INTER-LIGAND FREE ENERGY PREDICTED BY IDOCK:   -5.85 KCAL/MOL
REMARK 924 INTRA-LIGAND FREE ENERGY PREDICTED BY IDOCK:   -0.51 KCAL/MOL
REMARK 927      BINDING AFFINITY PREDICTED BY RF-SCORE:    0.00 PKD
ROOT
HETATM    1  C   UNL     1     -10.550  12.111  67.784  1.00  0.00    -0.229 C  
HETATM    2  C   UNL     1     -10.866  12.185  66.319  1.00  0.00    -0.317 A  
HETATM    3  C   UNL     1     -11.392  13.347  65.726  1.00  0.00    -0.305 A  
HETATM    4  C   UNL     1     -11.483  13.437  64.339  1.00  0.00    -0.417 A  
HETATM    5  N   UNL     1     -10.728  11.169  64.118  1.00  0.00    -0.374 NA 
HETATM    6  C   UNL     1     -11.120  12.342  63.582  1.00  0.00    -0.469 A  
HETATM    7  C   UNL     1     -10.618  11.082  65.473  1.00  0.00    -0.200 A  
ENDROOT
BRANCH   3   8
HETATM    8  O   UNL     1     -11.788  14.493  66.374  1.00  0.00    -0.383 OA 
BRANCH   8   9
HETATM    9  C   UNL     1     -10.749  15.292  66.961  1.00  0.00    -0.313 C  
HETATM   10  C   UNL     1     -10.233  16.388  66.034  1.00  0.00    -0.356 C  
HETATM   11  F   UNL     1      -8.965  16.124  65.626  1.00  0.00    -0.329 F  
HETATM   12  F   UNL     1     -10.192  17.580  66.682  1.00  0.00    -0.286 F  
HETATM   13  F   UNL     1     -10.986  16.562  64.925  1.00  0.00    -0.420 F  
ENDBRANCH   8   9
ENDBRANCH   3   8
BRANCH   7  14
HETATM   14  C   UNL     1     -10.254   9.701  65.986  1.00  0.00    -0.185 C  
BRANCH  14  15
HETATM   15  S   UNL     1      -8.571   9.231  65.542  1.00  0.00    -0.162 S  
HETATM   16  O   UNL     1      -7.547  10.215  66.033  1.00  0.00    -0.107 OA 
BRANCH  15  17
HETATM   17  C   UNL     1      -8.362   7.808  66.517  1.00  0.00    -0.128 A  
HETATM   18  N   UNL     1      -8.916   7.589  67.691  1.00  0.00    -0.127 NA 
HETATM   19  C   UNL     1      -8.670   6.261  67.964  1.00  0.00    -0.114 A  
HETATM   20  H   UNL     1      -9.419   8.258  68.273  1.00  0.00     0.000 HD 
HETATM   21  C   UNL     1      -9.086   5.474  69.048  1.00  0.00    -0.131 A  
HETATM   22  C   UNL     1      -8.791   4.105  69.042  1.00  0.00    -0.141 A  
HETATM   23  C   UNL     1      -8.080   3.533  67.983  1.00  0.00    -0.082 A  
HETATM   24  C   UNL     1      -7.620   4.308  66.912  1.00  0.00    -0.081 A  
HETATM   25  C   UNL     1      -7.932   5.670  66.943  1.00  0.00    -0.102 A  
HETATM   26  N   UNL     1      -7.671   6.706  66.081  1.00  0.00    -0.093 NA 
ENDBRANCH  15  17
ENDBRANCH  14  15
ENDBRANCH   7  14
TORSDOF 5
ENDMDL
MODEL      204
REMARK 921   NORMALIZED FREE ENERGY PREDICTED BY IDOCK:   -4.30 KCAL/MOL
REMARK 922        TOTAL FREE ENERGY PREDICTED BY IDOCK:   -6.33 KCAL/MOL
REMARK 923 INTER-LIGAND FREE ENERGY PREDICTED BY IDOCK:   -5.71 KCAL/MOL
REMARK 924 INTRA-LIGAND FREE ENERGY PREDICTED BY IDOCK:   -0.62 KCAL/MOL
REMARK 927      BINDING AFFINITY PREDICTED BY RF-SCORE:    0.00 PKD
ROOT
HETATM    1  C   UNL     1     -10.953   6.677  67.583  1.00  0.00    -0.392 C  
HETATM    2  C   UNL     1      -9.619   7.330  67.372  1.00  0.00    -0.176 A  
HETATM    3  C   UNL     1      -8.410   6.668  67.655  1.00  0.00    -0.122 A  
HETATM    4  C   UNL     1      -7.200   7.235  67.260  1.00  0.00    -0.093 A  
HETATM    5  N   UNL     1      -8.346   9.198  66.485  1.00  0.00    -0.117 NA 
HETATM    6  C   UNL     1      -7.219   8.479  66.662  1.00  0.00    -0.074 A  
HETATM    7  C   UNL     1      -9.533   8.640  66.852  1.00  0.00    -0.180 A  
ENDROOT
BRANCH   3   8
HETATM    8  O   UNL     1      -8.267   5.435  68.246  1.00  0.00    -0.095 OA 
BRANCH   8   9
HETATM    9  C   UNL     1      -9.475   4.766  68.638  1.00  0.00    -0.150 C  
HETATM   10  C   UNL     1      -9.614   4.605  70.149  1.00  0.00    -0.196 C  
HETATM   11  F   UNL     1      -9.491   3.303  70.514  1.00  0.00    -0.196 F  
HETATM   12  F   UNL     1     -10.843   5.010  70.560  1.00  0.00    -0.273 F  
HETATM   13  F   UNL     1      -8.704   5.311  70.856  1.00  0.00    -0.121 F  
ENDBRANCH   8   9
ENDBRANCH   3   8
BRANCH   7  14
HETATM   14  C   UNL     1     -10.733   9.556  66.693  1.00  0.00    -0.016 C  
BRANCH  14  15
HETATM   15  S   UNL     1     -10.679  10.953  67.831  1.00  0.00    -0.252 S  
HETATM   16  O   UNL     1     -11.909  11.813  67.750  1.00  0.00    -0.541 OA 
BRANCH  15  17
HETATM   17  C   UNL     1     -10.779  10.131  69.359  1.00  0.00    -0.238 A  
HETATM   18  N   UNL     1     -11.864   9.595  69.877  1.00  0.00    -0.450 NA 
HETATM   19  C   UNL     1     -11.423   8.858  70.954  1.00  0.00    -0.288 A  
HETATM   20  H   UNL     1     -12.824   9.702  69.551  1.00  0.00     0.000 HD 
HETATM   21  C   UNL     1     -12.139   8.026  71.829  1.00  0.00    -0.344 A  
HETATM   22  C   UNL     1     -11.434   7.293  72.792  1.00  0.00    -0.273 A  
HETATM   23  C   UNL     1     -10.044   7.398  72.893  1.00  0.00    -0.293 A  
HETATM   24  C   UNL     1      -9.316   8.253  72.058  1.00  0.00    -0.298 A  
HETATM   25  C   UNL     1     -10.043   8.969  71.104  1.00  0.00    -0.295 A  
HETATM   26  N   UNL     1      -9.676   9.863  70.130  1.00  0.00    -0.241 NA 
ENDBRANCH  15  17
ENDBRANCH  14  15
ENDBRANCH   7  14
TORSDOF 5
ENDMDL
MODEL      205
REMARK 921   NORMALIZED FREE ENERGY PREDICTED BY IDOCK:   -4.24 KCAL/MOL
REMARK 922        TOTAL FREE ENERGY PREDICTED BY IDOCK:   -6.25 KCAL/MOL
REMARK 923 INTER-LIGAND FREE ENERGY PREDICTED BY IDOCK:   -5.59 KCAL/MOL
REMARK 924 INTRA-LIGAND FREE ENERGY PREDICTED BY IDOCK:   -0.66 KCAL/MOL
REMARK 927      BINDING AFFINITY PREDICTED BY RF-SCORE:    0.00 PKD
ROOT
HETATM    1  C   UNL     1      -7.060  15.048  68.681  1.00  0.00    -0.109 C  
HETATM    2  C   UNL     1      -8.146  15.401  67.709  1.00  0.00    -0.152 A  
HETATM    3  C   UNL     1      -8.045  16.505  66.843  1.00  0.00    -0.218 A  
HETATM    4  C   UNL     1      -8.982  16.678  65.827  1.00  0.00     0.029 A  
HETATM    5  N   UNL     1     -10.237  14.795  66.631  1.00  0.00    -0.264 NA 
HETATM    6  C   UNL     1     -10.037  15.792  65.746  1.00  0.00    -0.371 A  
HETATM    7  C   UNL     1      -9.312  14.609  67.615  1.00  0.00    -0.200 A  
ENDROOT
BRANCH   3   8
HETATM    8  O   UNL     1      -7.046  17.450  66.830  1.00  0.00    -0.163 OA 
BRANCH   8   9
HETATM    9  C   UNL     1      -7.292  18.634  66.056  1.00  0.00    -0.241 C  
HETATM   10  C   UNL     1      -7.737  19.826  66.899  1.00  0.00    -0.272 C  
HETATM   11  F   UNL     1      -9.038  20.132  66.661  1.00  0.00    -0.378 F  
HETATM   12  F   UNL     1      -7.013  20.930  66.583  1.00  0.00    -0.309 F  
HETATM   13  F   UNL     1      -7.605  19.630  68.230  1.00  0.00    -0.315 F  
ENDBRANCH   8   9
ENDBRANCH   3   8
BRANCH   7  14
HETATM   14  C   UNL     1      -9.665  13.520  68.611  1.00  0.00    -0.101 C  
BRANCH  14  15
HETATM   15  S   UNL     1      -9.674  11.883  67.856  1.00  0.00    -0.197 S  
HETATM   16  O   UNL     1      -8.327  11.485  67.322  1.00  0.00    -0.141 OA 
BRANCH  15  17
HETATM   17  C   UNL     1      -9.942  10.883  69.251  1.00  0.00    -0.113 A  
HETATM   18  N   UNL     1     -11.115  10.513  69.721  1.00  0.00    -0.275 NA 
HETATM   19  C   UNL     1     -10.837   9.549  70.665  1.00  0.00    -0.306 A  
HETATM   20  H   UNL     1     -12.031  10.866  69.446  1.00  0.00     0.000 HD 
HETATM   21  C   UNL     1     -11.711   8.765  71.433  1.00  0.00    -0.369 A  
HETATM   22  C   UNL     1     -11.176   7.765  72.256  1.00  0.00    -0.365 A  
HETATM   23  C   UNL     1      -9.795   7.561  72.325  1.00  0.00    -0.213 A  
HETATM   24  C   UNL     1      -8.904   8.360  71.599  1.00  0.00    -0.246 A  
HETATM   25  C   UNL     1      -9.465   9.347  70.783  1.00  0.00    -0.241 A  
HETATM   26  N   UNL     1      -8.919  10.279  69.937  1.00  0.00    -0.061 NA 
ENDBRANCH  15  17
ENDBRANCH  14  15
ENDBRANCH   7  14
TORSDOF 5
ENDMDL
MODEL      206
REMARK 921   NORMALIZED FREE ENERGY PREDICTED BY IDOCK:   -4.21 KCAL/MOL
REMARK 922        TOTAL FREE ENERGY PREDICTED BY IDOCK:   -6.20 KCAL/MOL
REMARK 923 INTER-LIGAND FREE ENERGY PREDICTED BY IDOCK:   -5.50 KCAL/MOL
REMARK 924 INTRA-LIGAND FREE ENERGY PREDICTED BY IDOCK:   -0.71 KCAL/MOL
REMARK 927      BINDING AFFINITY PREDICTED BY RF-SCORE:    0.00 PKD
ROOT
HETATM    1  C   UNL     1     -11.266  11.826  67.683  1.00  0.00    -0.345 C  
HETATM    2  C   UNL     1     -10.923  11.850  66.222  1.00  0.00    -0.345 A  
HETATM    3  C   UNL     1     -11.076  13.008  65.438  1.00  0.00    -0.275 A  
HETATM    4  C   UNL     1     -10.563  13.042  64.143  1.00  0.00    -0.421 A  
HETATM    5  N   UNL     1      -9.923  10.733  64.312  1.00  0.00    -0.315 NA 
HETATM    6  C   UNL     1      -9.979  11.899  63.636  1.00  0.00    -0.381 A  
HETATM    7  C   UNL     1     -10.406  10.701  65.585  1.00  0.00    -0.216 A  
ENDROOT
BRANCH   3   8
HETATM    8  O   UNL     1     -11.640  14.198  65.832  1.00  0.00    -0.331 OA 
BRANCH   8   9
HETATM    9  C   UNL     1     -10.756  15.324  65.943  1.00  0.00    -0.334 C  
HETATM   10  C   UNL     1     -10.416  15.685  67.386  1.00  0.00    -0.291 C  
HETATM   11  F   UNL     1     -10.984  16.866  67.740  1.00  0.00    -0.344 F  
HETATM   12  F   UNL     1      -9.075  15.838  67.536  1.00  0.00    -0.188 F  
HETATM   13  F   UNL     1     -10.815  14.759  68.286  1.00  0.00    -0.232 F  
ENDBRANCH   8   9
ENDBRANCH   3   8
BRANCH   7  14
HETATM   14  C   UNL     1     -10.378   9.328  66.232  1.00  0.00    -0.122 C  
BRANCH  14  15
HETATM   15  S   UNL     1      -8.700   8.784  66.605  1.00  0.00    -0.129 S  
HETATM   16  O   UNL     1      -8.407   8.784  68.079  1.00  0.00    -0.117 OA 
BRANCH  15  17
HETATM   17  C   UNL     1      -8.790   7.112  66.143  1.00  0.00    -0.150 A  
HETATM   18  N   UNL     1      -9.774   6.285  66.427  1.00  0.00    -0.298 NA 
HETATM   19  C   UNL     1      -9.535   5.164  65.663  1.00  0.00    -0.115 A  
HETATM   20  H   UNL     1     -10.546   6.440  67.074  1.00  0.00     0.000 HD 
HETATM   21  C   UNL     1     -10.297   3.994  65.519  1.00  0.00    -0.060 A  
HETATM   22  C   UNL     1      -9.887   3.032  64.587  1.00  0.00    -0.062 A  
HETATM   23  C   UNL     1      -8.731   3.222  63.825  1.00  0.00    -0.089 A  
HETATM   24  C   UNL     1      -7.934   4.362  63.984  1.00  0.00    -0.091 A  
HETATM   25  C   UNL     1      -8.368   5.307  64.917  1.00  0.00    -0.144 A  
HETATM   26  N   UNL     1      -7.867   6.521  65.317  1.00  0.00    -0.102 NA 
ENDBRANCH  15  17
ENDBRANCH  14  15
ENDBRANCH   7  14
TORSDOF 5
ENDMDL
MODEL      207
REMARK 921   NORMALIZED FREE ENERGY PREDICTED BY IDOCK:   -4.20 KCAL/MOL
REMARK 922        TOTAL FREE ENERGY PREDICTED BY IDOCK:   -6.20 KCAL/MOL
REMARK 923 INTER-LIGAND FREE ENERGY PREDICTED BY IDOCK:   -5.65 KCAL/MOL
REMARK 924 INTRA-LIGAND FREE ENERGY PREDICTED BY IDOCK:   -0.56 KCAL/MOL
REMARK 927      BINDING AFFINITY PREDICTED BY RF-SCORE:    0.00 PKD
ROOT
HETATM    1  C   UNL     1      -8.995   7.511  66.659  1.00  0.00    -0.177 C  
HETATM    2  C   UNL     1      -8.570   8.451  67.748  1.00  0.00    -0.130 A  
HETATM    3  C   UNL     1      -7.892   8.004  68.898  1.00  0.00    -0.113 A  
HETATM    4  C   UNL     1      -7.344   8.929  69.784  1.00  0.00    -0.056 A  
HETATM    5  N   UNL     1      -8.297  10.737  68.522  1.00  0.00    -0.131 NA 
HETATM    6  C   UNL     1      -7.550  10.273  69.544  1.00  0.00    -0.150 A  
HETATM    7  C   UNL     1      -8.818   9.837  67.642  1.00  0.00    -0.125 A  
ENDROOT
BRANCH   3   8
HETATM    8  O   UNL     1      -7.630   6.699  69.242  1.00  0.00    -0.095 OA 
BRANCH   8   9
HETATM    9  C   UNL     1      -8.516   6.096  70.198  1.00  0.00    -0.133 C  
HETATM   10  C   UNL     1      -9.408   5.014  69.597  1.00  0.00    -0.127 C  
HETATM   11  F   UNL     1     -10.704   5.418  69.556  1.00  0.00    -0.344 F  
HETATM   12  F   UNL     1      -9.375   3.891  70.358  1.00  0.00    -0.163 F  
HETATM   13  F   UNL     1      -9.058   4.656  68.341  1.00  0.00    -0.113 F  
ENDBRANCH   8   9
ENDBRANCH   3   8
BRANCH   7  14
HETATM   14  C   UNL     1      -9.712  10.445  66.577  1.00  0.00    -0.194 C  
BRANCH  14  15
HETATM   15  S   UNL     1     -10.843  11.673  67.257  1.00  0.00    -0.271 S  
HETATM   16  O   UNL     1     -11.969  12.005  66.319  1.00  0.00    -0.596 OA 
BRANCH  15  17
HETATM   17  C   UNL     1     -11.562  10.770  68.555  1.00  0.00    -0.255 A  
HETATM   18  N   UNL     1     -11.275   9.527  68.882  1.00  0.00    -0.457 NA 
HETATM   19  C   UNL     1     -11.895   9.321  70.095  1.00  0.00     0.113 A  
HETATM   20  H   UNL     1     -10.714   8.861  68.352  1.00  0.00     0.000 HD 
HETATM   21  C   UNL     1     -11.872   8.199  70.938  1.00  0.00    -0.232 A  
HETATM   22  C   UNL     1     -12.507   8.277  72.184  1.00  0.00    -0.398 A  
HETATM   23  C   UNL     1     -13.166   9.445  72.577  1.00  0.00    -0.403 A  
HETATM   24  C   UNL     1     -13.237  10.560  71.734  1.00  0.00    -0.522 A  
HETATM   25  C   UNL     1     -12.592  10.456  70.499  1.00  0.00    -0.302 A  
HETATM   26  N   UNL     1     -12.438  11.330  69.451  1.00  0.00    -0.272 NA 
ENDBRANCH  15  17
ENDBRANCH  14  15
ENDBRANCH   7  14
TORSDOF 5
ENDMDL
MODEL      208
REMARK 921   NORMALIZED FREE ENERGY PREDICTED BY IDOCK:   -4.15 KCAL/MOL
REMARK 922        TOTAL FREE ENERGY PREDICTED BY IDOCK:   -6.13 KCAL/MOL
REMARK 923 INTER-LIGAND FREE ENERGY PREDICTED BY IDOCK:   -5.35 KCAL/MOL
REMARK 924 INTRA-LIGAND FREE ENERGY PREDICTED BY IDOCK:   -0.78 KCAL/MOL
REMARK 927      BINDING AFFINITY PREDICTED BY RF-SCORE:    0.00 PKD
ROOT
HETATM    1  C   UNL     1     -10.215   6.105  67.837  1.00  0.00    -0.212 C  
HETATM    2  C   UNL     1      -9.160   6.931  67.162  1.00  0.00    -0.137 A  
HETATM    3  C   UNL     1      -7.879   6.420  66.878  1.00  0.00    -0.104 A  
HETATM    4  C   UNL     1      -7.003   7.152  66.078  1.00  0.00    -0.065 A  
HETATM    5  N   UNL     1      -8.562   8.976  65.998  1.00  0.00    -0.135 NA 
HETATM    6  C   UNL     1      -7.394   8.403  65.646  1.00  0.00    -0.076 A  
HETATM    7  C   UNL     1      -9.431   8.258  66.763  1.00  0.00    -0.198 A  
ENDROOT
BRANCH   3   8
HETATM    8  O   UNL     1      -7.380   5.197  67.256  1.00  0.00    -0.079 OA 
BRANCH   8   9
HETATM    9  C   UNL     1      -7.378   4.166  66.256  1.00  0.00    -0.080 C  
HETATM   10  C   UNL     1      -8.102   2.897  66.695  1.00  0.00    -0.081 C  
HETATM   11  F   UNL     1      -7.226   1.876  66.881  1.00  0.00    -0.047 F  
HETATM   12  F   UNL     1      -8.974   2.490  65.737  1.00  0.00    -0.121 F  
HETATM   13  F   UNL     1      -8.805   3.040  67.840  1.00  0.00    -0.105 F  
ENDBRANCH   8   9
ENDBRANCH   3   8
BRANCH   7  14
HETATM   14  C   UNL     1     -10.678   9.017  67.178  1.00  0.00    -0.136 C  
BRANCH  14  15
HETATM   15  S   UNL     1     -10.345  10.210  68.489  1.00  0.00    -0.191 S  
HETATM   16  O   UNL     1      -8.893  10.261  68.869  1.00  0.00    -0.138 OA 
BRANCH  15  17
HETATM   17  C   UNL     1     -10.668  11.702  67.660  1.00  0.00    -0.207 A  
HETATM   18  N   UNL     1      -9.814  12.690  67.489  1.00  0.00    -0.200 NA 
HETATM   19  C   UNL     1     -10.418  13.535  66.584  1.00  0.00    -0.274 A  
HETATM   20  H   UNL     1      -8.903  12.804  67.932  1.00  0.00     0.000 HD 
HETATM   21  C   UNL     1      -9.934  14.712  65.991  1.00  0.00    -0.337 A  
HETATM   22  C   UNL     1     -10.709  15.341  65.008  1.00  0.00    -0.461 A  
HETATM   23  C   UNL     1     -11.949  14.817  64.634  1.00  0.00    -0.448 A  
HETATM   24  C   UNL     1     -12.468  13.669  65.242  1.00  0.00    -0.517 A  
HETATM   25  C   UNL     1     -11.674  13.060  66.217  1.00  0.00    -0.387 A  
HETATM   26  N   UNL     1     -11.843  11.939  66.991  1.00  0.00    -0.613 NA 
ENDBRANCH  15  17
ENDBRANCH  14  15
ENDBRANCH   7  14
TORSDOF 5
ENDMDL
MODEL      209
REMARK 921   NORMALIZED FREE ENERGY PREDICTED BY IDOCK:   -4.13 KCAL/MOL
REMARK 922        TOTAL FREE ENERGY PREDICTED BY IDOCK:   -6.11 KCAL/MOL
REMARK 923 INTER-LIGAND FREE ENERGY PREDICTED BY IDOCK:   -5.16 KCAL/MOL
REMARK 924 INTRA-LIGAND FREE ENERGY PREDICTED BY IDOCK:   -0.95 KCAL/MOL
REMARK 927      BINDING AFFINITY PREDICTED BY RF-SCORE:    0.00 PKD
ROOT
HETATM    1  C   UNL     1      -9.129   8.925  70.608  1.00  0.00    -0.247 C  
HETATM    2  C   UNL     1     -10.401   9.721  70.631  1.00  0.00    -0.330 A  
HETATM    3  C   UNL     1     -11.355   9.575  71.655  1.00  0.00    -0.341 A  
HETATM    4  C   UNL     1     -12.420  10.469  71.742  1.00  0.00    -0.362 A  
HETATM    5  N   UNL     1     -11.727  11.531  69.703  1.00  0.00    -0.322 NA 
HETATM    6  C   UNL     1     -12.550  11.436  70.766  1.00  0.00    -0.316 A  
HETATM    7  C   UNL     1     -10.673  10.672  69.623  1.00  0.00    -0.244 A  
ENDROOT
BRANCH   3   8
HETATM    8  O   UNL     1     -11.332   8.653  72.674  1.00  0.00    -0.286 OA 
BRANCH   8   9
HETATM    9  C   UNL     1     -12.526   7.880  72.868  1.00  0.00     0.293 C  
HETATM   10  C   UNL     1     -12.759   6.843  71.773  1.00  0.00    -0.327 C  
HETATM   11  F   UNL     1     -13.827   7.178  71.004  1.00  0.00    -0.438 F  
HETATM   12  F   UNL     1     -13.037   5.630  72.315  1.00  0.00    -0.031 F  
HETATM   13  F   UNL     1     -11.702   6.678  70.946  1.00  0.00    -0.339 F  
ENDBRANCH   8   9
ENDBRANCH   3   8
BRANCH   7  14
HETATM   14  C   UNL     1      -9.854  10.798  68.351  1.00  0.00    -0.169 C  
BRANCH  14  15
HETATM   15  S   UNL     1     -10.793  10.326  66.887  1.00  0.00    -0.067 S  
HETATM   16  O   UNL     1     -10.864  11.425  65.865  1.00  0.00    -0.272 OA 
BRANCH  15  17
HETATM   17  C   UNL     1      -9.748   9.117  66.206  1.00  0.00    -0.274 A  
HETATM   18  N   UNL     1      -9.340   9.065  64.955  1.00  0.00    -0.443 NA 
HETATM   19  C   UNL     1      -8.354   8.103  64.937  1.00  0.00    -0.123 A  
HETATM   20  H   UNL     1      -9.679   9.619  64.169  1.00  0.00     0.000 HD 
HETATM   21  C   UNL     1      -7.529   7.680  63.883  1.00  0.00    -0.107 A  
HETATM   22  C   UNL     1      -6.519   6.747  64.149  1.00  0.00    -0.038 A  
HETATM   23  C   UNL     1      -6.343   6.232  65.437  1.00  0.00    -0.038 A  
HETATM   24  C   UNL     1      -7.182   6.609  66.492  1.00  0.00    -0.073 A  
HETATM   25  C   UNL     1      -8.179   7.543  66.200  1.00  0.00    -0.125 A  
HETATM   26  N   UNL     1      -9.147   8.144  66.965  1.00  0.00    -0.138 NA 
ENDBRANCH  15  17
ENDBRANCH  14  15
ENDBRANCH   7  14
TORSDOF 5
ENDMDL
MODEL      210
REMARK 921   NORMALIZED FREE ENERGY PREDICTED BY IDOCK:   -4.13 KCAL/MOL
REMARK 922        TOTAL FREE ENERGY PREDICTED BY IDOCK:   -6.11 KCAL/MOL
REMARK 923 INTER-LIGAND FREE ENERGY PREDICTED BY IDOCK:   -5.47 KCAL/MOL
REMARK 924 INTRA-LIGAND FREE ENERGY PREDICTED BY IDOCK:   -0.64 KCAL/MOL
REMARK 927      BINDING AFFINITY PREDICTED BY RF-SCORE:    0.00 PKD
ROOT
HETATM    1  C   UNL     1     -11.735  10.649  69.421  1.00  0.00    -0.344 C  
HETATM    2  C   UNL     1     -11.116  10.098  68.170  1.00  0.00    -0.290 A  
HETATM    3  C   UNL     1     -11.145  10.800  66.951  1.00  0.00    -0.133 A  
HETATM    4  C   UNL     1     -10.391  10.346  65.871  1.00  0.00    -0.261 A  
HETATM    5  N   UNL     1      -9.735   8.401  67.117  1.00  0.00    -0.173 NA 
HETATM    6  C   UNL     1      -9.690   9.165  66.008  1.00  0.00    -0.287 A  
HETATM    7  C   UNL     1     -10.454   8.851  68.183  1.00  0.00    -0.202 A  
ENDROOT
BRANCH   3   8
HETATM    8  O   UNL     1     -11.807  11.978  66.696  1.00  0.00    -0.583 OA 
BRANCH   8   9
HETATM    9  C   UNL     1     -11.113  12.945  65.893  1.00  0.00    -0.283 C  
HETATM   10  C   UNL     1     -12.048  13.872  65.121  1.00  0.00    -0.403 C  
HETATM   11  F   UNL     1     -11.993  13.620  63.788  1.00  0.00    -0.457 F  
HETATM   12  F   UNL     1     -11.680  15.167  65.288  1.00  0.00    -0.334 F  
HETATM   13  F   UNL     1     -13.343  13.773  65.497  1.00  0.00    -0.466 F  
ENDBRANCH   8   9
ENDBRANCH   3   8
BRANCH   7  14
HETATM   14  C   UNL     1     -10.515   7.885  69.352  1.00  0.00    -0.220 C  
BRANCH  14  15
HETATM   15  S   UNL     1      -8.877   7.343  69.875  1.00  0.00    -0.141 S  
HETATM   16  O   UNL     1      -8.375   6.172  69.080  1.00  0.00    -0.111 OA 
BRANCH  15  17
HETATM   17  C   UNL     1      -7.912   8.699  69.378  1.00  0.00    -0.102 A  
HETATM   18  N   UNL     1      -6.988   8.686  68.439  1.00  0.00    -0.065 NA 
HETATM   19  C   UNL     1      -6.672  10.010  68.227  1.00  0.00    -0.055 A  
HETATM   20  H   UNL     1      -6.593   7.872  67.971  1.00  0.00     0.000 HD 
HETATM   21  C   UNL     1      -5.797  10.587  67.293  1.00  0.00    -0.049 A  
HETATM   22  C   UNL     1      -5.729  11.983  67.204  1.00  0.00    -0.142 A  
HETATM   23  C   UNL     1      -6.505  12.790  68.040  1.00  0.00    -0.099 A  
HETATM   24  C   UNL     1      -7.352  12.235  69.006  1.00  0.00     0.017 A  
HETATM   25  C   UNL     1      -7.403  10.840  69.071  1.00  0.00    -0.109 A  
HETATM   26  N   UNL     1      -8.115   9.969  69.857  1.00  0.00    -0.179 NA 
ENDBRANCH  15  17
ENDBRANCH  14  15
ENDBRANCH   7  14
TORSDOF 5
ENDMDL
MODEL      211
REMARK 921   NORMALIZED FREE ENERGY PREDICTED BY IDOCK:   -4.13 KCAL/MOL
REMARK 922        TOTAL FREE ENERGY PREDICTED BY IDOCK:   -6.10 KCAL/MOL
REMARK 923 INTER-LIGAND FREE ENERGY PREDICTED BY IDOCK:   -5.52 KCAL/MOL
REMARK 924 INTRA-LIGAND FREE ENERGY PREDICTED BY IDOCK:   -0.59 KCAL/MOL
REMARK 927      BINDING AFFINITY PREDICTED BY RF-SCORE:    0.00 PKD
ROOT
HETATM    1  C   UNL     1     -12.792  10.328  70.718  1.00  0.00    -0.427 C  
HETATM    2  C   UNL     1     -11.592  10.456  69.826  1.00  0.00    -0.339 A  
HETATM    3  C   UNL     1     -11.309  11.640  69.120  1.00  0.00    -0.283 A  
HETATM    4  C   UNL     1     -10.088  11.782  68.465  1.00  0.00    -0.212 A  
HETATM    5  N   UNL     1      -9.498   9.522  69.025  1.00  0.00    -0.154 NA 
HETATM    6  C   UNL     1      -9.212  10.714  68.465  1.00  0.00    -0.170 A  
HETATM    7  C   UNL     1     -10.683   9.385  69.684  1.00  0.00    -0.235 A  
ENDROOT
BRANCH   3   8
HETATM    8  O   UNL     1     -12.101  12.761  69.046  1.00  0.00    -0.262 OA 
BRANCH   8   9
HETATM    9  C   UNL     1     -11.455  14.022  69.283  1.00  0.00    -0.295 C  
HETATM   10  C   UNL     1     -11.449  14.937  68.062  1.00  0.00    -0.337 C  
HETATM   11  F   UNL     1     -10.193  15.075  67.564  1.00  0.00    -0.229 F  
HETATM   12  F   UNL     1     -11.873  16.182  68.398  1.00  0.00    -0.357 F  
HETATM   13  F   UNL     1     -12.238  14.504  67.054  1.00  0.00    -0.421 F  
ENDBRANCH   8   9
ENDBRANCH   3   8
BRANCH   7  14
HETATM   14  C   UNL     1     -10.953   7.986  70.207  1.00  0.00    -0.242 C  
BRANCH  14  15
HETATM   15  S   UNL     1      -9.477   7.225  70.910  1.00  0.00    -0.158 S  
HETATM   16  O   UNL     1      -9.772   6.429  72.150  1.00  0.00    -0.154 OA 
BRANCH  15  17
HETATM   17  C   UNL     1      -9.096   6.058  69.681  1.00  0.00    -0.135 A  
HETATM   18  N   UNL     1      -9.315   4.761  69.753  1.00  0.00    -0.128 NA 
HETATM   19  C   UNL     1      -9.086   4.286  68.481  1.00  0.00    -0.128 A  
HETATM   20  H   UNL     1      -9.594   4.225  70.575  1.00  0.00     0.000 HD 
HETATM   21  C   UNL     1      -9.233   2.988  67.966  1.00  0.00    -0.248 A  
HETATM   22  C   UNL     1      -9.036   2.780  66.595  1.00  0.00    -0.153 A  
HETATM   23  C   UNL     1      -8.684   3.840  65.755  1.00  0.00    -0.116 A  
HETATM   24  C   UNL     1      -8.491   5.133  66.256  1.00  0.00    -0.114 A  
HETATM   25  C   UNL     1      -8.697   5.313  67.626  1.00  0.00    -0.106 A  
HETATM   26  N   UNL     1      -8.622   6.413  68.443  1.00  0.00    -0.115 NA 
ENDBRANCH  15  17
ENDBRANCH  14  15
ENDBRANCH   7  14
TORSDOF 5
ENDMDL
MODEL      212
REMARK 921   NORMALIZED FREE ENERGY PREDICTED BY IDOCK:   -4.12 KCAL/MOL
REMARK 922        TOTAL FREE ENERGY PREDICTED BY IDOCK:   -6.10 KCAL/MOL
REMARK 923 INTER-LIGAND FREE ENERGY PREDICTED BY IDOCK:   -6.20 KCAL/MOL
REMARK 924 INTRA-LIGAND FREE ENERGY PREDICTED BY IDOCK:    0.10 KCAL/MOL
REMARK 927      BINDING AFFINITY PREDICTED BY RF-SCORE:    0.00 PKD
ROOT
HETATM    1  C   UNL     1     -11.087  11.067  69.712  1.00  0.00    -0.303 C  
HETATM    2  C   UNL     1     -11.801  10.254  70.751  1.00  0.00    -0.459 A  
HETATM    3  C   UNL     1     -12.905  10.757  71.464  1.00  0.00    -0.462 A  
HETATM    4  C   UNL     1     -13.655   9.905  72.272  1.00  0.00    -0.337 A  
HETATM    5  N   UNL     1     -12.123   8.107  71.839  1.00  0.00    -0.304 NA 
HETATM    6  C   UNL     1     -13.244   8.595  72.408  1.00  0.00    -0.346 A  
HETATM    7  C   UNL     1     -11.397   8.931  71.033  1.00  0.00    -0.291 A  
ENDROOT
BRANCH   3   8
HETATM    8  O   UNL     1     -13.403  12.037  71.412  1.00  0.00    -0.178 OA 
BRANCH   8   9
HETATM    9  C   UNL     1     -12.456  13.086  71.157  1.00  0.00    -0.271 C  
HETATM   10  C   UNL     1     -12.910  14.448  71.673  1.00  0.00    -0.343 C  
HETATM   11  F   UNL     1     -13.200  15.287  70.646  1.00  0.00    -0.426 F  
HETATM   12  F   UNL     1     -11.920  15.040  72.390  1.00  0.00    -0.383 F  
HETATM   13  F   UNL     1     -14.000  14.392  72.470  1.00  0.00    -0.483 F  
ENDBRANCH   8   9
ENDBRANCH   3   8
BRANCH   7  14
HETATM   14  C   UNL     1     -10.110   8.321  70.507  1.00  0.00    -0.195 C  
BRANCH  14  15
HETATM   15  S   UNL     1     -10.414   6.870  69.480  1.00  0.00    -0.233 S  
HETATM   16  O   UNL     1      -9.473   6.782  68.312  1.00  0.00    -0.127 OA 
BRANCH  15  17
HETATM   17  C   UNL     1      -9.939   5.599  70.564  1.00  0.00    -0.205 A  
HETATM   18  N   UNL     1     -10.732   4.960  71.399  1.00  0.00    -0.039 NA 
HETATM   19  C   UNL     1      -9.988   3.897  71.860  1.00  0.00    -0.168 A  
HETATM   20  H   UNL     1     -11.691   5.201  71.649  1.00  0.00     0.000 HD 
HETATM   21  C   UNL     1     -10.353   2.850  72.721  1.00  0.00    -0.232 A  
HETATM   22  C   UNL     1      -9.435   1.818  72.957  1.00  0.00    -0.108 A  
HETATM   23  C   UNL     1      -8.172   1.836  72.360  1.00  0.00    -0.053 A  
HETATM   24  C   UNL     1      -7.773   2.892  71.532  1.00  0.00    -0.048 A  
HETATM   25  C   UNL     1      -8.709   3.906  71.311  1.00  0.00    -0.089 A  
HETATM   26  N   UNL     1      -8.679   5.056  70.563  1.00  0.00    -0.111 NA 
ENDBRANCH  15  17
ENDBRANCH  14  15
ENDBRANCH   7  14
TORSDOF 5
ENDMDL
MODEL      213
REMARK 921   NORMALIZED FREE ENERGY PREDICTED BY IDOCK:   -4.12 KCAL/MOL
REMARK 922        TOTAL FREE ENERGY PREDICTED BY IDOCK:   -6.09 KCAL/MOL
REMARK 923 INTER-LIGAND FREE ENERGY PREDICTED BY IDOCK:   -4.70 KCAL/MOL
REMARK 924 INTRA-LIGAND FREE ENERGY PREDICTED BY IDOCK:   -1.39 KCAL/MOL
REMARK 927      BINDING AFFINITY PREDICTED BY RF-SCORE:    0.00 PKD
ROOT
HETATM    1  C   UNL     1     -11.058   6.124  69.298  1.00  0.00    -0.463 C  
HETATM    2  C   UNL     1     -11.225   7.389  70.088  1.00  0.00    -0.239 A  
HETATM    3  C   UNL     1     -10.907   8.651  69.554  1.00  0.00    -0.129 A  
HETATM    4  C   UNL     1     -11.262   9.807  70.247  1.00  0.00    -0.347 A  
HETATM    5  N   UNL     1     -12.064   8.487  72.085  1.00  0.00    -0.360 NA 
HETATM    6  C   UNL     1     -11.854   9.676  71.486  1.00  0.00    -0.407 A  
HETATM    7  C   UNL     1     -11.737   7.353  71.404  1.00  0.00    -0.288 A  
ENDROOT
BRANCH   3   8
HETATM    8  O   UNL     1     -10.317   8.904  68.338  1.00  0.00    -0.195 OA 
BRANCH   8   9
HETATM    9  C   UNL     1      -8.908   9.179  68.352  1.00  0.00    -0.129 C  
HETATM   10  C   UNL     1      -8.067   8.054  67.756  1.00  0.00    -0.128 C  
HETATM   11  F   UNL     1      -7.339   7.429  68.717  1.00  0.00    -0.083 F  
HETATM   12  F   UNL     1      -7.179   8.548  66.856  1.00  0.00    -0.071 F  
HETATM   13  F   UNL     1      -8.795   7.109  67.121  1.00  0.00    -0.117 F  
ENDBRANCH   8   9
ENDBRANCH   3   8
BRANCH   7  14
HETATM   14  C   UNL     1     -11.929   6.070  72.191  1.00  0.00    -0.202 C  
BRANCH  14  15
HETATM   15  S   UNL     1     -10.475   5.646  73.169  1.00  0.00    -0.239 S  
HETATM   16  O   UNL     1     -10.816   4.849  74.396  1.00  0.00    -0.346 OA 
BRANCH  15  17
HETATM   17  C   UNL     1      -9.673   4.540  72.096  1.00  0.00    -0.163 A  
HETATM   18  N   UNL     1     -10.119   3.355  71.734  1.00  0.00    -0.122 NA 
HETATM   19  C   UNL     1      -9.291   2.957  70.708  1.00  0.00    -0.152 A  
HETATM   20  H   UNL     1     -10.907   2.843  72.129  1.00  0.00     0.000 HD 
HETATM   21  C   UNL     1      -9.344   1.806  69.905  1.00  0.00    -0.162 A  
HETATM   22  C   UNL     1      -8.438   1.681  68.844  1.00  0.00    -0.081 A  
HETATM   23  C   UNL     1      -7.488   2.676  68.596  1.00  0.00    -0.048 A  
HETATM   24  C   UNL     1      -7.392   3.810  69.410  1.00  0.00    -0.052 A  
HETATM   25  C   UNL     1      -8.309   3.911  70.459  1.00  0.00    -0.061 A  
HETATM   26  N   UNL     1      -8.522   4.864  71.423  1.00  0.00    -0.115 NA 
ENDBRANCH  15  17
ENDBRANCH  14  15
ENDBRANCH   7  14
TORSDOF 5
ENDMDL
MODEL      214
REMARK 921   NORMALIZED FREE ENERGY PREDICTED BY IDOCK:   -4.11 KCAL/MOL
REMARK 922        TOTAL FREE ENERGY PREDICTED BY IDOCK:   -6.08 KCAL/MOL
REMARK 923 INTER-LIGAND FREE ENERGY PREDICTED BY IDOCK:   -5.58 KCAL/MOL
REMARK 924 INTRA-LIGAND FREE ENERGY PREDICTED BY IDOCK:   -0.50 KCAL/MOL
REMARK 927      BINDING AFFINITY PREDICTED BY RF-SCORE:    0.00 PKD
ROOT
HETATM    1  C   UNL     1     -10.543  12.109  67.787  1.00  0.00    -0.229 C  
HETATM    2  C   UNL     1     -10.855  12.183  66.322  1.00  0.00    -0.317 A  
HETATM    3  C   UNL     1     -11.370  13.348  65.725  1.00  0.00    -0.305 A  
HETATM    4  C   UNL     1     -11.458  13.436  64.337  1.00  0.00    -0.417 A  
HETATM    5  N   UNL     1     -10.721  11.161  64.122  1.00  0.00    -0.374 NA 
HETATM    6  C   UNL     1     -11.102  12.336  63.584  1.00  0.00    -0.469 A  
HETATM    7  C   UNL     1     -10.614  11.076  65.478  1.00  0.00    -0.200 A  
ENDROOT
BRANCH   3   8
HETATM    8  O   UNL     1     -11.758  14.498  66.370  1.00  0.00    -0.372 OA 
BRANCH   8   9
HETATM    9  C   UNL     1     -10.715  15.285  66.965  1.00  0.00    -0.313 C  
HETATM   10  C   UNL     1     -10.172  16.369  66.038  1.00  0.00    -0.356 C  
HETATM   11  F   UNL     1      -8.903  16.084  65.647  1.00  0.00    -0.317 F  
HETATM   12  F   UNL     1     -10.122  17.564  66.680  1.00  0.00    -0.275 F  
HETATM   13  F   UNL     1     -10.909  16.547  64.919  1.00  0.00    -0.410 F  
ENDBRANCH   8   9
ENDBRANCH   3   8
BRANCH   7  14
HETATM   14  C   UNL     1     -10.262   9.693  65.995  1.00  0.00    -0.185 C  
BRANCH  14  15
HETATM   15  S   UNL     1      -8.581   9.210  65.556  1.00  0.00    -0.181 S  
HETATM   16  O   UNL     1      -7.799  10.333  64.936  1.00  0.00    -0.146 OA 
BRANCH  15  17
HETATM   17  C   UNL     1      -7.890   8.969  67.132  1.00  0.00    -0.099 A  
HETATM   18  N   UNL     1      -8.222   9.620  68.227  1.00  0.00    -0.105 NA 
HETATM   19  C   UNL     1      -7.604   8.938  69.253  1.00  0.00    -0.082 A  
HETATM   20  H   UNL     1      -8.809  10.450  68.301  1.00  0.00     0.000 HD 
HETATM   21  C   UNL     1      -7.665   9.150  70.639  1.00  0.00    -0.152 A  
HETATM   22  C   UNL     1      -7.023   8.241  71.490  1.00  0.00    -0.068 A  
HETATM   23  C   UNL     1      -6.319   7.151  70.970  1.00  0.00    -0.036 A  
HETATM   24  C   UNL     1      -6.211   6.946  69.590  1.00  0.00    -0.034 A  
HETATM   25  C   UNL     1      -6.864   7.865  68.764  1.00  0.00    -0.062 A  
HETATM   26  N   UNL     1      -6.990   7.969  67.402  1.00  0.00    -0.073 NA 
ENDBRANCH  15  17
ENDBRANCH  14  15
ENDBRANCH   7  14
TORSDOF 5
ENDMDL
MODEL      215
REMARK 921   NORMALIZED FREE ENERGY PREDICTED BY IDOCK:   -4.10 KCAL/MOL
REMARK 922        TOTAL FREE ENERGY PREDICTED BY IDOCK:   -6.06 KCAL/MOL
REMARK 923 INTER-LIGAND FREE ENERGY PREDICTED BY IDOCK:   -4.86 KCAL/MOL
REMARK 924 INTRA-LIGAND FREE ENERGY PREDICTED BY IDOCK:   -1.20 KCAL/MOL
REMARK 927      BINDING AFFINITY PREDICTED BY RF-SCORE:    0.00 PKD
ROOT
HETATM    1  C   UNL     1     -11.235   6.223  69.358  1.00  0.00    -0.489 C  
HETATM    2  C   UNL     1     -11.303   7.439  70.233  1.00  0.00    -0.244 A  
HETATM    3  C   UNL     1     -10.909   8.711  69.777  1.00  0.00    -0.183 A  
HETATM    4  C   UNL     1     -11.174   9.838  70.552  1.00  0.00    -0.381 A  
HETATM    5  N   UNL     1     -12.034   8.453  72.315  1.00  0.00    -0.373 NA 
HETATM    6  C   UNL     1     -11.754   9.664  71.792  1.00  0.00    -0.285 A  
HETATM    7  C   UNL     1     -11.795   7.349  71.554  1.00  0.00    -0.297 A  
ENDROOT
BRANCH   3   8
HETATM    8  O   UNL     1     -10.323   9.005  68.569  1.00  0.00    -0.196 OA 
BRANCH   8   9
HETATM    9  C   UNL     1      -9.648  10.269  68.473  1.00  0.00    -0.161 C  
HETATM   10  C   UNL     1     -10.332  11.248  67.523  1.00  0.00    -0.194 C  
HETATM   11  F   UNL     1      -9.584  11.449  66.408  1.00  0.00    -0.197 F  
HETATM   12  F   UNL     1     -10.482  12.460  68.114  1.00  0.00    -0.194 F  
HETATM   13  F   UNL     1     -11.558  10.847  67.119  1.00  0.00    -0.333 F  
ENDBRANCH   8   9
ENDBRANCH   3   8
BRANCH   7  14
HETATM   14  C   UNL     1     -12.061   6.031  72.258  1.00  0.00    -0.140 C  
BRANCH  14  15
HETATM   15  S   UNL     1     -10.865   5.704  73.566  1.00  0.00    -0.201 S  
HETATM   16  O   UNL     1     -10.875   4.269  74.013  1.00  0.00    -0.249 OA 
BRANCH  15  17
HETATM   17  C   UNL     1      -9.372   5.918  72.703  1.00  0.00    -0.143 A  
HETATM   18  N   UNL     1      -8.862   5.080  71.825  1.00  0.00    -0.132 NA 
HETATM   19  C   UNL     1      -7.824   5.766  71.233  1.00  0.00    -0.111 A  
HETATM   20  H   UNL     1      -9.169   4.129  71.625  1.00  0.00     0.000 HD 
HETATM   21  C   UNL     1      -6.975   5.383  70.184  1.00  0.00    -0.057 A  
HETATM   22  C   UNL     1      -6.054   6.313  69.686  1.00  0.00    -0.026 A  
HETATM   23  C   UNL     1      -5.969   7.596  70.233  1.00  0.00    -0.026 A  
HETATM   24  C   UNL     1      -6.777   7.984  71.308  1.00  0.00    -0.043 A  
HETATM   25  C   UNL     1      -7.689   7.038  71.782  1.00  0.00    -0.093 A  
HETATM   26  N   UNL     1      -8.630   7.069  72.781  1.00  0.00    -0.115 NA 
ENDBRANCH  15  17
ENDBRANCH  14  15
ENDBRANCH   7  14
TORSDOF 5
ENDMDL
MODEL      216
REMARK 921   NORMALIZED FREE ENERGY PREDICTED BY IDOCK:   -4.09 KCAL/MOL
REMARK 922        TOTAL FREE ENERGY PREDICTED BY IDOCK:   -6.06 KCAL/MOL
REMARK 923 INTER-LIGAND FREE ENERGY PREDICTED BY IDOCK:   -5.37 KCAL/MOL
REMARK 924 INTRA-LIGAND FREE ENERGY PREDICTED BY IDOCK:   -0.68 KCAL/MOL
REMARK 927      BINDING AFFINITY PREDICTED BY RF-SCORE:    0.00 PKD
ROOT
HETATM    1  C   UNL     1      -8.074  13.213  67.268  1.00  0.00    -0.151 C  
HETATM    2  C   UNL     1      -9.230  12.478  67.878  1.00  0.00    -0.200 A  
HETATM    3  C   UNL     1     -10.564  12.866  67.655  1.00  0.00    -0.223 A  
HETATM    4  C   UNL     1     -11.606  12.042  68.077  1.00  0.00    -0.407 A  
HETATM    5  N   UNL     1     -10.037  10.550  69.116  1.00  0.00    -0.215 NA 
HETATM    6  C   UNL     1     -11.295  10.893  68.776  1.00  0.00    -0.292 A  
HETATM    7  C   UNL     1      -9.013  11.342  68.688  1.00  0.00    -0.147 A  
ENDROOT
BRANCH   3   8
HETATM    8  O   UNL     1     -10.993  13.983  66.979  1.00  0.00    -0.290 OA 
BRANCH   8   9
HETATM    9  C   UNL     1     -10.946  13.925  65.545  1.00  0.00    -0.302 C  
HETATM   10  C   UNL     1     -12.326  13.859  64.897  1.00  0.00    -0.420 C  
HETATM   11  F   UNL     1     -12.543  12.642  64.335  1.00  0.00    -0.462 F  
HETATM   12  F   UNL     1     -12.428  14.772  63.898  1.00  0.00    -0.496 F  
HETATM   13  F   UNL     1     -13.342  14.093  65.757  1.00  0.00    -0.522 F  
ENDBRANCH   8   9
ENDBRANCH   3   8
BRANCH   7  14
HETATM   14  C   UNL     1      -7.644  10.923  69.191  1.00  0.00    -0.133 C  
BRANCH  14  15
HETATM   15  S   UNL     1      -7.236   9.230  68.725  1.00  0.00    -0.074 S  
HETATM   16  O   UNL     1      -8.286   8.244  69.151  1.00  0.00    -0.120 OA 
BRANCH  15  17
HETATM   17  C   UNL     1      -7.356   9.330  66.995  1.00  0.00    -0.091 A  
HETATM   18  N   UNL     1      -6.746  10.210  66.229  1.00  0.00    -0.096 NA 
HETATM   19  C   UNL     1      -6.937   9.760  64.941  1.00  0.00    -0.124 A  
HETATM   20  H   UNL     1      -6.241  11.045  66.525  1.00  0.00     0.000 HD 
HETATM   21  C   UNL     1      -6.450  10.272  63.728  1.00  0.00    -0.090 A  
HETATM   22  C   UNL     1      -6.700   9.562  62.547  1.00  0.00    -0.096 A  
HETATM   23  C   UNL     1      -7.436   8.374  62.570  1.00  0.00    -0.101 A  
HETATM   24  C   UNL     1      -7.966   7.869  63.763  1.00  0.00    -0.119 A  
HETATM   25  C   UNL     1      -7.698   8.595  64.926  1.00  0.00    -0.106 A  
HETATM   26  N   UNL     1      -8.029   8.399  66.244  1.00  0.00    -0.097 NA 
ENDBRANCH  15  17
ENDBRANCH  14  15
ENDBRANCH   7  14
TORSDOF 5
ENDMDL
MODEL      217
REMARK 921   NORMALIZED FREE ENERGY PREDICTED BY IDOCK:   -4.07 KCAL/MOL
REMARK 922        TOTAL FREE ENERGY PREDICTED BY IDOCK:   -6.03 KCAL/MOL
REMARK 923 INTER-LIGAND FREE ENERGY PREDICTED BY IDOCK:   -5.82 KCAL/MOL
REMARK 924 INTRA-LIGAND FREE ENERGY PREDICTED BY IDOCK:   -0.22 KCAL/MOL
REMARK 927      BINDING AFFINITY PREDICTED BY RF-SCORE:    0.00 PKD
ROOT
HETATM    1  C   UNL     1      -9.265  13.714  67.244  1.00  0.00    -0.232 C  
HETATM    2  C   UNL     1      -8.018  12.883  67.294  1.00  0.00    -0.151 A  
HETATM    3  C   UNL     1      -7.898  11.672  66.586  1.00  0.00    -0.083 A  
HETATM    4  C   UNL     1      -6.660  11.037  66.503  1.00  0.00    -0.132 A  
HETATM    5  N   UNL     1      -5.696  12.671  67.975  1.00  0.00    -0.080 NA 
HETATM    6  C   UNL     1      -5.593  11.582  67.188  1.00  0.00    -0.099 A  
HETATM    7  C   UNL     1      -6.899  13.307  68.044  1.00  0.00    -0.122 A  
ENDROOT
BRANCH   3   8
HETATM    8  O   UNL     1      -8.886  11.036  65.873  1.00  0.00    -0.188 OA 
BRANCH   8   9
HETATM    9  C   UNL     1     -10.145  10.857  66.538  1.00  0.00    -0.222 C  
HETATM   10  C   UNL     1     -10.146   9.697  67.529  1.00  0.00    -0.197 C  
HETATM   11  F   UNL     1     -10.924   8.677  67.085  1.00  0.00    -0.328 F  
HETATM   12  F   UNL     1     -10.663  10.089  68.722  1.00  0.00    -0.203 F  
HETATM   13  F   UNL     1      -8.917   9.191  67.775  1.00  0.00    -0.126 F  
ENDBRANCH   8   9
ENDBRANCH   3   8
BRANCH   7  14
HETATM   14  C   UNL     1      -6.940  14.469  69.019  1.00  0.00    -0.121 C  
BRANCH  14  15
HETATM   15  S   UNL     1      -5.897  15.841  68.489  1.00  0.00    -0.105 S  
HETATM   16  O   UNL     1      -5.265  15.602  67.147  1.00  0.00    -0.331 OA 
BRANCH  15  17
HETATM   17  C   UNL     1      -7.091  17.077  68.234  1.00  0.00    -0.190 A  
HETATM   18  N   UNL     1      -6.895  18.223  67.615  1.00  0.00    -0.200 NA 
HETATM   19  C   UNL     1      -8.153  18.757  67.440  1.00  0.00    -0.251 A  
HETATM   20  H   UNL     1      -6.005  18.627  67.328  1.00  0.00     0.000 HD 
HETATM   21  C   UNL     1      -8.547  19.932  66.782  1.00  0.00    -0.394 A  
HETATM   22  C   UNL     1      -9.914  20.205  66.647  1.00  0.00    -0.595 A  
HETATM   23  C   UNL     1     -10.871  19.332  67.172  1.00  0.00    -0.543 A  
HETATM   24  C   UNL     1     -10.499  18.177  67.869  1.00  0.00    -0.408 A  
HETATM   25  C   UNL     1      -9.129  17.927  67.985  1.00  0.00    -0.267 A  
HETATM   26  N   UNL     1      -8.412  16.912  68.567  1.00  0.00    -0.248 NA 
ENDBRANCH  15  17
ENDBRANCH  14  15
ENDBRANCH   7  14
TORSDOF 5
ENDMDL
MODEL      218
REMARK 921   NORMALIZED FREE ENERGY PREDICTED BY IDOCK:   -4.07 KCAL/MOL
REMARK 922        TOTAL FREE ENERGY PREDICTED BY IDOCK:   -6.03 KCAL/MOL
REMARK 923 INTER-LIGAND FREE ENERGY PREDICTED BY IDOCK:   -5.00 KCAL/MOL
REMARK 924 INTRA-LIGAND FREE ENERGY PREDICTED BY IDOCK:   -1.03 KCAL/MOL
REMARK 927      BINDING AFFINITY PREDICTED BY RF-SCORE:    0.00 PKD
ROOT
HETATM    1  C   UNL     1     -10.467  10.658  69.655  1.00  0.00    -0.219 C  
HETATM    2  C   UNL     1     -10.441   9.529  68.667  1.00  0.00    -0.237 A  
HETATM    3  C   UNL     1     -10.179   9.739  67.300  1.00  0.00    -0.232 A  
HETATM    4  C   UNL     1      -9.971   8.648  66.458  1.00  0.00    -0.353 A  
HETATM    5  N   UNL     1     -10.471   7.136  68.255  1.00  0.00    -0.195 NA 
HETATM    6  C   UNL     1     -10.102   7.378  66.982  1.00  0.00    -0.258 A  
HETATM    7  C   UNL     1     -10.657   8.199  69.087  1.00  0.00    -0.166 A  
ENDROOT
BRANCH   3   8
HETATM    8  O   UNL     1     -10.031  10.951  66.668  1.00  0.00    -0.195 OA 
BRANCH   8   9
HETATM    9  C   UNL     1     -10.330  10.985  65.264  1.00  0.00    -0.275 C  
HETATM   10  C   UNL     1     -10.838  12.343  64.787  1.00  0.00    -0.304 C  
HETATM   11  F   UNL     1     -12.151  12.280  64.449  1.00  0.00    -0.415 F  
HETATM   12  F   UNL     1     -10.168  12.738  63.675  1.00  0.00    -0.408 F  
HETATM   13  F   UNL     1     -10.704  13.326  65.705  1.00  0.00    -0.268 F  
ENDBRANCH   8   9
ENDBRANCH   3   8
BRANCH   7  14
HETATM   14  C   UNL     1     -11.153   7.832  70.474  1.00  0.00    -0.257 C  
BRANCH  14  15
HETATM   15  S   UNL     1      -9.889   6.994  71.450  1.00  0.00    -0.176 S  
HETATM   16  O   UNL     1      -9.722   5.552  71.063  1.00  0.00    -0.165 OA 
BRANCH  15  17
HETATM   17  C   UNL     1      -8.457   7.801  70.890  1.00  0.00    -0.127 A  
HETATM   18  N   UNL     1      -7.703   7.423  69.879  1.00  0.00    -0.097 NA 
HETATM   19  C   UNL     1      -6.845   8.476  69.655  1.00  0.00    -0.043 A  
HETATM   20  H   UNL     1      -7.745   6.539  69.371  1.00  0.00     0.000 HD 
HETATM   21  C   UNL     1      -5.870   8.647  68.659  1.00  0.00    -0.044 A  
HETATM   22  C   UNL     1      -5.192   9.870  68.579  1.00  0.00    -0.032 A  
HETATM   23  C   UNL     1      -5.468  10.899  69.484  1.00  0.00    -0.038 A  
HETATM   24  C   UNL     1      -6.405  10.734  70.511  1.00  0.00    -0.053 A  
HETATM   25  C   UNL     1      -7.069   9.506  70.565  1.00  0.00    -0.127 A  
HETATM   26  N   UNL     1      -8.039   9.006  71.397  1.00  0.00    -0.320 NA 
ENDBRANCH  15  17
ENDBRANCH  14  15
ENDBRANCH   7  14
TORSDOF 5
ENDMDL
MODEL      219
REMARK 921   NORMALIZED FREE ENERGY PREDICTED BY IDOCK:   -4.05 KCAL/MOL
REMARK 922        TOTAL FREE ENERGY PREDICTED BY IDOCK:   -6.00 KCAL/MOL
REMARK 923 INTER-LIGAND FREE ENERGY PREDICTED BY IDOCK:   -5.11 KCAL/MOL
REMARK 924 INTRA-LIGAND FREE ENERGY PREDICTED BY IDOCK:   -0.90 KCAL/MOL
REMARK 927      BINDING AFFINITY PREDICTED BY RF-SCORE:    0.00 PKD
ROOT
HETATM    1  C   UNL     1      -9.111   7.134  69.250  1.00  0.00    -0.137 C  
HETATM    2  C   UNL     1     -10.115   8.112  69.784  1.00  0.00    -0.197 A  
HETATM    3  C   UNL     1     -11.187   7.710  70.602  1.00  0.00    -0.266 A  
HETATM    4  C   UNL     1     -11.976   8.670  71.233  1.00  0.00    -0.339 A  
HETATM    5  N   UNL     1     -10.787  10.424  70.102  1.00  0.00    -0.288 NA 
HETATM    6  C   UNL     1     -11.725  10.003  70.974  1.00  0.00    -0.392 A  
HETATM    7  C   UNL     1     -10.000   9.490  69.498  1.00  0.00    -0.194 A  
ENDROOT
BRANCH   3   8
HETATM    8  O   UNL     1     -11.534   6.421  70.927  1.00  0.00    -0.321 OA 
BRANCH   8   9
HETATM    9  C   UNL     1     -11.914   6.181  72.291  1.00  0.00    -0.232 C  
HETATM   10  C   UNL     1     -10.790   5.591  73.137  1.00  0.00    -0.285 C  
HETATM   11  F   UNL     1     -11.057   4.303  73.472  1.00  0.00    -0.272 F  
HETATM   12  F   UNL     1     -10.660   6.276  74.301  1.00  0.00    -0.291 F  
HETATM   13  F   UNL     1      -9.584   5.608  72.526  1.00  0.00    -0.152 F  
ENDBRANCH   8   9
ENDBRANCH   3   8
BRANCH   7  14
HETATM   14  C   UNL     1      -9.033  10.052  68.472  1.00  0.00    -0.124 C  
BRANCH  14  15
HETATM   15  S   UNL     1      -9.885  10.791  67.065  1.00  0.00    -0.193 S  
HETATM   16  O   UNL     1      -9.443  12.202  66.797  1.00  0.00    -0.200 OA 
BRANCH  15  17
HETATM   17  C   UNL     1      -9.244   9.840  65.760  1.00  0.00    -0.191 A  
HETATM   18  N   UNL     1      -8.934  10.286  64.561  1.00  0.00    -0.200 NA 
HETATM   19  C   UNL     1      -8.248   9.254  63.959  1.00  0.00    -0.164 A  
HETATM   20  H   UNL     1      -9.155  11.198  64.163  1.00  0.00     0.000 HD 
HETATM   21  C   UNL     1      -7.627   9.200  62.701  1.00  0.00    -0.106 A  
HETATM   22  C   UNL     1      -6.893   8.057  62.359  1.00  0.00    -0.086 A  
HETATM   23  C   UNL     1      -6.793   6.981  63.246  1.00  0.00    -0.052 A  
HETATM   24  C   UNL     1      -7.439   6.999  64.488  1.00  0.00    -0.099 A  
HETATM   25  C   UNL     1      -8.161   8.152  64.805  1.00  0.00    -0.152 A  
HETATM   26  N   UNL     1      -8.887   8.524  65.909  1.00  0.00    -0.173 NA 
ENDBRANCH  15  17
ENDBRANCH  14  15
ENDBRANCH   7  14
TORSDOF 5
ENDMDL
MODEL      220
REMARK 921   NORMALIZED FREE ENERGY PREDICTED BY IDOCK:   -4.05 KCAL/MOL
REMARK 922        TOTAL FREE ENERGY PREDICTED BY IDOCK:   -6.00 KCAL/MOL
REMARK 923 INTER-LIGAND FREE ENERGY PREDICTED BY IDOCK:   -5.34 KCAL/MOL
REMARK 924 INTRA-LIGAND FREE ENERGY PREDICTED BY IDOCK:   -0.66 KCAL/MOL
REMARK 927      BINDING AFFINITY PREDICTED BY RF-SCORE:    0.00 PKD
ROOT
HETATM    1  C   UNL     1      -8.132  11.264  68.176  1.00  0.00    -0.134 C  
HETATM    2  C   UNL     1      -8.896  10.943  66.926  1.00  0.00    -0.145 A  
HETATM    3  C   UNL     1      -9.898  11.794  66.423  1.00  0.00    -0.214 A  
HETATM    4  C   UNL     1     -10.440  11.558  65.161  1.00  0.00    -0.340 A  
HETATM    5  N   UNL     1      -9.161   9.535  64.964  1.00  0.00    -0.241 NA 
HETATM    6  C   UNL     1     -10.027  10.440  64.466  1.00  0.00    -0.331 A  
HETATM    7  C   UNL     1      -8.613   9.772  66.189  1.00  0.00    -0.127 A  
ENDROOT
BRANCH   3   8
HETATM    8  O   UNL     1     -10.389  12.929  67.024  1.00  0.00    -0.240 OA 
BRANCH   8   9
HETATM    9  C   UNL     1     -11.120  12.744  68.246  1.00  0.00    -0.257 C  
HETATM   10  C   UNL     1     -11.531  14.055  68.909  1.00  0.00    -0.294 C  
HETATM   11  F   UNL     1     -10.842  14.256  70.061  1.00  0.00    -0.188 F  
HETATM   12  F   UNL     1     -12.847  14.029  69.243  1.00  0.00    -0.179 F  
HETATM   13  F   UNL     1     -11.339  15.142  68.128  1.00  0.00    -0.279 F  
ENDBRANCH   8   9
ENDBRANCH   3   8
BRANCH   7  14
HETATM   14  C   UNL     1      -7.718   8.659  66.702  1.00  0.00    -0.096 C  
BRANCH  14  15
HETATM   15  S   UNL     1      -8.571   7.071  66.762  1.00  0.00    -0.124 S  
HETATM   16  O   UNL     1      -7.634   5.906  66.617  1.00  0.00    -0.092 OA 
BRANCH  15  17
HETATM   17  C   UNL     1      -9.100   7.048  68.416  1.00  0.00    -0.127 A  
HETATM   18  N   UNL     1      -8.363   7.346  69.466  1.00  0.00    -0.131 NA 
HETATM   19  C   UNL     1      -9.249   7.427  70.517  1.00  0.00    -0.157 A  
HETATM   20  H   UNL     1      -7.353   7.487  69.494  1.00  0.00     0.000 HD 
HETATM   21  C   UNL     1      -9.025   7.779  71.857  1.00  0.00    -0.164 A  
HETATM   22  C   UNL     1     -10.124   7.892  72.719  1.00  0.00    -0.365 A  
HETATM   23  C   UNL     1     -11.420   7.643  72.259  1.00  0.00    -0.366 A  
HETATM   24  C   UNL     1     -11.661   7.251  70.937  1.00  0.00    -0.331 A  
HETATM   25  C   UNL     1     -10.547   7.149  70.099  1.00  0.00    -0.230 A  
HETATM   26  N   UNL     1     -10.404   6.819  68.774  1.00  0.00    -0.185 NA 
ENDBRANCH  15  17
ENDBRANCH  14  15
ENDBRANCH   7  14
TORSDOF 5
ENDMDL
MODEL      221
REMARK 921   NORMALIZED FREE ENERGY PREDICTED BY IDOCK:   -4.04 KCAL/MOL
REMARK 922        TOTAL FREE ENERGY PREDICTED BY IDOCK:   -6.00 KCAL/MOL
REMARK 923 INTER-LIGAND FREE ENERGY PREDICTED BY IDOCK:   -5.22 KCAL/MOL
REMARK 924 INTRA-LIGAND FREE ENERGY PREDICTED BY IDOCK:   -0.78 KCAL/MOL
REMARK 927      BINDING AFFINITY PREDICTED BY RF-SCORE:    0.00 PKD
ROOT
HETATM    1  C   UNL     1     -11.027  11.863  67.644  1.00  0.00    -0.286 C  
HETATM    2  C   UNL     1     -11.130  11.198  68.985  1.00  0.00    -0.299 A  
HETATM    3  C   UNL     1     -11.760  11.819  70.080  1.00  0.00    -0.269 A  
HETATM    4  C   UNL     1     -12.007  11.091  71.242  1.00  0.00    -0.144 A  
HETATM    5  N   UNL     1     -10.841   9.199  70.333  1.00  0.00    -0.230 NA 
HETATM    6  C   UNL     1     -11.554   9.789  71.313  1.00  0.00    -0.390 A  
HETATM    7  C   UNL     1     -10.614   9.900  69.187  1.00  0.00    -0.220 A  
ENDROOT
BRANCH   3   8
HETATM    8  O   UNL     1     -12.247  13.104  70.128  1.00  0.00    -0.329 OA 
BRANCH   8   9
HETATM    9  C   UNL     1     -11.324  14.127  70.531  1.00  0.00     0.054 C  
HETATM   10  C   UNL     1     -11.971  15.231  71.363  1.00  0.00    -0.368 C  
HETATM   11  F   UNL     1     -12.022  16.397  70.670  1.00  0.00    -0.316 F  
HETATM   12  F   UNL     1     -11.241  15.475  72.481  1.00  0.00    -0.489 F  
HETATM   13  F   UNL     1     -13.229  14.943  71.763  1.00  0.00    -0.331 F  
ENDBRANCH   8   9
ENDBRANCH   3   8
BRANCH   7  14
HETATM   14  C   UNL     1      -9.732   9.186  68.179  1.00  0.00    -0.154 C  
BRANCH  14  15
HETATM   15  S   UNL     1     -10.540   7.738  67.470  1.00  0.00    -0.217 S  
HETATM   16  O   UNL     1     -10.065   7.434  66.078  1.00  0.00     0.190 OA 
BRANCH  15  17
HETATM   17  C   UNL     1      -9.891   6.479  68.475  1.00  0.00    -0.138 A  
HETATM   18  N   UNL     1      -9.566   6.596  69.746  1.00  0.00    -0.150 NA 
HETATM   19  C   UNL     1      -9.336   5.309  70.179  1.00  0.00    -0.153 A  
HETATM   20  H   UNL     1      -9.499   7.455  70.292  1.00  0.00     0.000 HD 
HETATM   21  C   UNL     1      -9.022   4.834  71.462  1.00  0.00    -0.162 A  
HETATM   22  C   UNL     1      -8.940   3.451  71.670  1.00  0.00    -0.155 A  
HETATM   23  C   UNL     1      -9.150   2.558  70.616  1.00  0.00    -0.186 A  
HETATM   24  C   UNL     1      -9.423   3.012  69.320  1.00  0.00    -0.167 A  
HETATM   25  C   UNL     1      -9.502   4.395  69.142  1.00  0.00    -0.170 A  
HETATM   26  N   UNL     1      -9.763   5.181  68.048  1.00  0.00    -0.140 NA 
ENDBRANCH  15  17
ENDBRANCH  14  15
ENDBRANCH   7  14
TORSDOF 5
ENDMDL
MODEL      222
REMARK 921   NORMALIZED FREE ENERGY PREDICTED BY IDOCK:   -4.02 KCAL/MOL
REMARK 922        TOTAL FREE ENERGY PREDICTED BY IDOCK:   -5.97 KCAL/MOL
REMARK 923 INTER-LIGAND FREE ENERGY PREDICTED BY IDOCK:   -5.19 KCAL/MOL
REMARK 924 INTRA-LIGAND FREE ENERGY PREDICTED BY IDOCK:   -0.78 KCAL/MOL
REMARK 927      BINDING AFFINITY PREDICTED BY RF-SCORE:    0.00 PKD
ROOT
HETATM    1  C   UNL     1     -10.669   8.952  68.978  1.00  0.00    -0.148 C  
HETATM    2  C   UNL     1     -11.333   9.903  69.930  1.00  0.00    -0.273 A  
HETATM    3  C   UNL     1     -11.428  11.281  69.663  1.00  0.00    -0.309 A  
HETATM    4  C   UNL     1     -12.220  12.091  70.474  1.00  0.00    -0.414 A  
HETATM    5  N   UNL     1     -12.671  10.235  71.929  1.00  0.00    -0.414 NA 
HETATM    6  C   UNL     1     -12.836  11.524  71.572  1.00  0.00    -0.380 A  
HETATM    7  C   UNL     1     -11.913   9.434  71.129  1.00  0.00    -0.337 A  
ENDROOT
BRANCH   3   8
HETATM    8  O   UNL     1     -10.859  11.956  68.609  1.00  0.00    -0.216 OA 
BRANCH   8   9
HETATM    9  C   UNL     1      -9.437  12.146  68.659  1.00  0.00    -0.045 C  
HETATM   10  C   UNL     1      -8.753  11.954  67.309  1.00  0.00    -0.171 C  
HETATM   11  F   UNL     1      -7.993  10.829  67.303  1.00  0.00    -0.110 F  
HETATM   12  F   UNL     1      -7.916  12.990  67.047  1.00  0.00    -0.169 F  
HETATM   13  F   UNL     1      -9.615  11.864  66.271  1.00  0.00    -0.205 F  
ENDBRANCH   8   9
ENDBRANCH   3   8
BRANCH   7  14
HETATM   14  C   UNL     1     -11.715   8.025  71.657  1.00  0.00    -0.283 C  
BRANCH  14  15
HETATM   15  S   UNL     1     -10.161   7.844  72.553  1.00  0.00    -0.306 S  
HETATM   16  O   UNL     1     -10.351   7.276  73.931  1.00  0.00    -0.352 OA 
BRANCH  15  17
HETATM   17  C   UNL     1      -9.396   6.589  71.627  1.00  0.00    -0.146 A  
HETATM   18  N   UNL     1      -8.119   6.271  71.666  1.00  0.00    -0.106 NA 
HETATM   19  C   UNL     1      -8.021   5.087  70.970  1.00  0.00    -0.093 A  
HETATM   20  H   UNL     1      -7.364   6.790  72.115  1.00  0.00     0.000 HD 
HETATM   21  C   UNL     1      -6.906   4.262  70.751  1.00  0.00    -0.036 A  
HETATM   22  C   UNL     1      -7.090   3.040  70.091  1.00  0.00    -0.034 A  
HETATM   23  C   UNL     1      -8.357   2.653  69.644  1.00  0.00    -0.079 A  
HETATM   24  C   UNL     1      -9.473   3.480  69.815  1.00  0.00    -0.241 A  
HETATM   25  C   UNL     1      -9.262   4.692  70.479  1.00  0.00    -0.132 A  
HETATM   26  N   UNL     1     -10.100   5.719  70.834  1.00  0.00    -0.191 NA 
ENDBRANCH  15  17
ENDBRANCH  14  15
ENDBRANCH   7  14
TORSDOF 5
ENDMDL
MODEL      223
REMARK 921   NORMALIZED FREE ENERGY PREDICTED BY IDOCK:   -4.02 KCAL/MOL
REMARK 922        TOTAL FREE ENERGY PREDICTED BY IDOCK:   -5.97 KCAL/MOL
REMARK 923 INTER-LIGAND FREE ENERGY PREDICTED BY IDOCK:   -6.14 KCAL/MOL
REMARK 924 INTRA-LIGAND FREE ENERGY PREDICTED BY IDOCK:    0.17 KCAL/MOL
REMARK 927      BINDING AFFINITY PREDICTED BY RF-SCORE:    0.00 PKD
ROOT
HETATM    1  C   UNL     1      -9.250   9.132  66.111  1.00  0.00    -0.259 C  
HETATM    2  C   UNL     1      -9.699  10.339  65.341  1.00  0.00    -0.340 A  
HETATM    3  C   UNL     1      -9.484  10.464  63.956  1.00  0.00    -0.299 A  
HETATM    4  C   UNL     1     -10.089  11.503  63.252  1.00  0.00    -0.439 A  
HETATM    5  N   UNL     1     -10.956  12.416  65.296  1.00  0.00    -0.290 NA 
HETATM    6  C   UNL     1     -10.828  12.433  63.955  1.00  0.00    -0.420 A  
HETATM    7  C   UNL     1     -10.383  11.391  65.988  1.00  0.00    -0.249 A  
ENDROOT
BRANCH   3   8
HETATM    8  O   UNL     1      -8.768   9.607  63.155  1.00  0.00    -0.199 OA 
BRANCH   8   9
HETATM    9  C   UNL     1      -7.801   8.772  63.810  1.00  0.00    -0.145 C  
HETATM   10  C   UNL     1      -6.358   9.137  63.470  1.00  0.00    -0.090 C  
HETATM   11  F   UNL     1      -5.779   8.174  62.709  1.00  0.00    -0.067 F  
HETATM   12  F   UNL     1      -5.614   9.239  64.600  1.00  0.00    -0.058 F  
HETATM   13  F   UNL     1      -6.236  10.306  62.804  1.00  0.00    -0.112 F  
ENDBRANCH   8   9
ENDBRANCH   3   8
BRANCH   7  14
HETATM   14  C   UNL     1     -10.508  11.504  67.496  1.00  0.00    -0.199 C  
BRANCH  14  15
HETATM   15  S   UNL     1     -11.694  12.770  67.989  1.00  0.00    -0.346 S  
HETATM   16  O   UNL     1     -12.136  12.623  69.418  1.00  0.00    -0.264 OA 
BRANCH  15  17
HETATM   17  C   UNL     1     -10.692  14.188  67.949  1.00  0.00    -0.240 A  
HETATM   18  N   UNL     1      -9.486  14.267  67.426  1.00  0.00    -0.206 NA 
HETATM   19  C   UNL     1      -9.190  15.611  67.404  1.00  0.00    -0.198 A  
HETATM   20  H   UNL     1      -8.899  13.497  67.106  1.00  0.00     0.000 HD 
HETATM   21  C   UNL     1      -8.064  16.276  66.892  1.00  0.00    -0.270 A  
HETATM   22  C   UNL     1      -8.048  17.677  66.895  1.00  0.00    -0.249 A  
HETATM   23  C   UNL     1      -9.125  18.402  67.412  1.00  0.00    -0.268 A  
HETATM   24  C   UNL     1     -10.238  17.759  67.965  1.00  0.00    -0.377 A  
HETATM   25  C   UNL     1     -10.230  16.361  67.946  1.00  0.00    -0.268 A  
HETATM   26  N   UNL     1     -11.132  15.418  68.370  1.00  0.00    -0.285 NA 
ENDBRANCH  15  17
ENDBRANCH  14  15
ENDBRANCH   7  14
TORSDOF 5
ENDMDL
MODEL      224
REMARK 921   NORMALIZED FREE ENERGY PREDICTED BY IDOCK:   -4.01 KCAL/MOL
REMARK 922        TOTAL FREE ENERGY PREDICTED BY IDOCK:   -5.96 KCAL/MOL
REMARK 923 INTER-LIGAND FREE ENERGY PREDICTED BY IDOCK:   -5.36 KCAL/MOL
REMARK 924 INTRA-LIGAND FREE ENERGY PREDICTED BY IDOCK:   -0.59 KCAL/MOL
REMARK 927      BINDING AFFINITY PREDICTED BY RF-SCORE:    0.00 PKD
ROOT
HETATM    1  C   UNL     1      -9.346  11.669  65.577  1.00  0.00    -0.172 C  
HETATM    2  C   UNL     1     -10.111  11.333  66.822  1.00  0.00    -0.254 A  
HETATM    3  C   UNL     1     -11.122  12.171  67.328  1.00  0.00    -0.287 A  
HETATM    4  C   UNL     1     -11.936  11.726  68.367  1.00  0.00    -0.250 A  
HETATM    5  N   UNL     1     -10.641   9.713  68.553  1.00  0.00    -0.219 NA 
HETATM    6  C   UNL     1     -11.676  10.492  68.927  1.00  0.00    -0.146 A  
HETATM    7  C   UNL     1      -9.854  10.134  67.524  1.00  0.00    -0.177 A  
ENDROOT
BRANCH   3   8
HETATM    8  O   UNL     1     -11.470  13.415  66.857  1.00  0.00    -0.314 OA 
BRANCH   8   9
HETATM    9  C   UNL     1     -12.503  13.460  65.862  1.00  0.00    -0.408 C  
HETATM   10  C   UNL     1     -11.997  13.875  64.483  1.00  0.00    -0.437 C  
HETATM   11  F   UNL     1     -12.457  15.107  64.146  1.00  0.00    -0.518 F  
HETATM   12  F   UNL     1     -12.449  13.018  63.532  1.00  0.00    -0.492 F  
HETATM   13  F   UNL     1     -10.650  13.905  64.386  1.00  0.00    -0.411 F  
ENDBRANCH   8   9
ENDBRANCH   3   8
BRANCH   7  14
HETATM   14  C   UNL     1      -8.667   9.234  67.232  1.00  0.00    -0.128 C  
BRANCH  14  15
HETATM   15  S   UNL     1      -7.481   9.209  68.589  1.00  0.00    -0.081 S  
HETATM   16  O   UNL     1      -7.884  10.102  69.727  1.00  0.00    -0.154 OA 
BRANCH  15  17
HETATM   17  C   UNL     1      -7.685   7.584  69.169  1.00  0.00    -0.113 A  
HETATM   18  N   UNL     1      -8.835   6.996  69.427  1.00  0.00    -0.136 NA 
HETATM   19  C   UNL     1      -8.525   5.668  69.620  1.00  0.00    -0.110 A  
HETATM   20  H   UNL     1      -9.756   7.430  69.474  1.00  0.00     0.000 HD 
HETATM   21  C   UNL     1      -9.369   4.573  69.860  1.00  0.00    -0.218 A  
HETATM   22  C   UNL     1      -8.812   3.289  69.916  1.00  0.00    -0.150 A  
HETATM   23  C   UNL     1      -7.436   3.100  69.752  1.00  0.00    -0.044 A  
HETATM   24  C   UNL     1      -6.572   4.183  69.554  1.00  0.00    -0.033 A  
HETATM   25  C   UNL     1      -7.155   5.452  69.499  1.00  0.00    -0.063 A  
HETATM   26  N   UNL     1      -6.638   6.708  69.306  1.00  0.00    -0.046 NA 
ENDBRANCH  15  17
ENDBRANCH  14  15
ENDBRANCH   7  14
TORSDOF 5
ENDMDL
MODEL      225
REMARK 921   NORMALIZED FREE ENERGY PREDICTED BY IDOCK:   -3.98 KCAL/MOL
REMARK 922        TOTAL FREE ENERGY PREDICTED BY IDOCK:   -5.91 KCAL/MOL
REMARK 923 INTER-LIGAND FREE ENERGY PREDICTED BY IDOCK:   -4.89 KCAL/MOL
REMARK 924 INTRA-LIGAND FREE ENERGY PREDICTED BY IDOCK:   -1.02 KCAL/MOL
REMARK 927      BINDING AFFINITY PREDICTED BY RF-SCORE:    0.00 PKD
ROOT
HETATM    1  C   UNL     1     -10.799  10.169  70.116  1.00  0.00    -0.368 C  
HETATM    2  C   UNL     1     -11.018   8.746  69.693  1.00  0.00    -0.114 A  
HETATM    3  C   UNL     1     -10.836   8.326  68.363  1.00  0.00     0.092 A  
HETATM    4  C   UNL     1     -10.858   6.966  68.056  1.00  0.00    -0.266 A  
HETATM    5  N   UNL     1     -11.435   6.439  70.326  1.00  0.00    -0.398 NA 
HETATM    6  C   UNL     1     -11.135   6.068  69.066  1.00  0.00    -0.307 A  
HETATM    7  C   UNL     1     -11.396   7.765  70.636  1.00  0.00    -0.264 A  
ENDROOT
BRANCH   3   8
HETATM    8  O   UNL     1     -10.559   9.125  67.279  1.00  0.00    -0.271 OA 
BRANCH   8   9
HETATM    9  C   UNL     1      -9.172   9.345  66.980  1.00  0.00    -0.142 C  
HETATM   10  C   UNL     1      -8.918   9.693  65.516  1.00  0.00    -0.183 C  
HETATM   11  F   UNL     1      -8.269   8.683  64.881  1.00  0.00    -0.123 F  
HETATM   12  F   UNL     1      -8.122  10.788  65.418  1.00  0.00    -0.155 F  
HETATM   13  F   UNL     1     -10.044   9.953  64.816  1.00  0.00    -0.396 F  
ENDBRANCH   8   9
ENDBRANCH   3   8
BRANCH   7  14
HETATM   14  C   UNL     1     -11.832   8.092  72.053  1.00  0.00    -0.338 C  
BRANCH  14  15
HETATM   15  S   UNL     1     -10.764   7.327  73.288  1.00  0.00    -0.355 S  
HETATM   16  O   UNL     1     -11.013   5.852  73.433  1.00  0.00    -0.260 OA 
BRANCH  15  17
HETATM   17  C   UNL     1      -9.216   7.469  72.513  1.00  0.00    -0.147 A  
HETATM   18  N   UNL     1      -8.664   6.574  71.720  1.00  0.00    -0.131 NA 
HETATM   19  C   UNL     1      -7.579   7.210  71.158  1.00  0.00    -0.085 A  
HETATM   20  H   UNL     1      -8.974   5.617  71.557  1.00  0.00     0.000 HD 
HETATM   21  C   UNL     1      -6.671   6.754  70.190  1.00  0.00    -0.052 A  
HETATM   22  C   UNL     1      -5.705   7.641  69.699  1.00  0.00    -0.023 A  
HETATM   23  C   UNL     1      -5.633   8.953  70.175  1.00  0.00    -0.027 A  
HETATM   24  C   UNL     1      -6.502   9.415  71.170  1.00  0.00    -0.067 A  
HETATM   25  C   UNL     1      -7.458   8.511  71.639  1.00  0.00    -0.105 A  
HETATM   26  N   UNL     1      -8.461   8.614  72.571  1.00  0.00    -0.403 NA 
ENDBRANCH  15  17
ENDBRANCH  14  15
ENDBRANCH   7  14
TORSDOF 5
ENDMDL
MODEL      226
REMARK 921   NORMALIZED FREE ENERGY PREDICTED BY IDOCK:   -3.97 KCAL/MOL
REMARK 922        TOTAL FREE ENERGY PREDICTED BY IDOCK:   -5.90 KCAL/MOL
REMARK 923 INTER-LIGAND FREE ENERGY PREDICTED BY IDOCK:   -5.24 KCAL/MOL
REMARK 924 INTRA-LIGAND FREE ENERGY PREDICTED BY IDOCK:   -0.66 KCAL/MOL
REMARK 927      BINDING AFFINITY PREDICTED BY RF-SCORE:    0.00 PKD
ROOT
HETATM    1  C   UNL     1      -9.372   9.661  66.125  1.00  0.00    -0.248 C  
HETATM    2  C   UNL     1      -8.918   8.914  67.344  1.00  0.00    -0.143 A  
HETATM    3  C   UNL     1      -8.578   7.549  67.300  1.00  0.00    -0.118 A  
HETATM    4  C   UNL     1      -7.978   6.948  68.405  1.00  0.00    -0.122 A  
HETATM    5  N   UNL     1      -8.223   8.974  69.670  1.00  0.00    -0.110 NA 
HETATM    6  C   UNL     1      -7.800   7.700  69.548  1.00  0.00    -0.115 A  
HETATM    7  C   UNL     1      -8.794   9.572  68.587  1.00  0.00    -0.132 A  
ENDROOT
BRANCH   3   8
HETATM    8  O   UNL     1      -8.711   6.703  66.225  1.00  0.00    -0.135 OA 
BRANCH   8   9
HETATM    9  C   UNL     1      -7.624   5.799  65.979  1.00  0.00    -0.087 C  
HETATM   10  C   UNL     1      -6.360   6.494  65.482  1.00  0.00    -0.038 C  
HETATM   11  F   UNL     1      -6.113   6.186  64.183  1.00  0.00    -0.023 F  
HETATM   12  F   UNL     1      -5.279   6.082  66.192  1.00  0.00    -0.008 F  
HETATM   13  F   UNL     1      -6.408   7.842  65.575  1.00  0.00    -0.040 F  
ENDBRANCH   8   9
ENDBRANCH   3   8
BRANCH   7  14
HETATM   14  C   UNL     1      -9.314  10.974  68.846  1.00  0.00    -0.145 C  
BRANCH  14  15
HETATM   15  S   UNL     1     -11.085  10.992  69.183  1.00  0.00    -0.265 S  
HETATM   16  O   UNL     1     -11.910  10.728  67.955  1.00  0.00    -0.553 OA 
BRANCH  15  17
HETATM   17  C   UNL     1     -11.243   9.572  70.170  1.00  0.00    -0.234 A  
HETATM   18  N   UNL     1     -11.497   8.355  69.737  1.00  0.00    -0.431 NA 
HETATM   19  C   UNL     1     -11.290   7.535  70.824  1.00  0.00    -0.280 A  
HETATM   20  H   UNL     1     -11.785   8.079  68.799  1.00  0.00     0.000 HD 
HETATM   21  C   UNL     1     -11.351   6.136  70.920  1.00  0.00    -0.355 A  
HETATM   22  C   UNL     1     -10.990   5.525  72.127  1.00  0.00    -0.291 A  
HETATM   23  C   UNL     1     -10.590   6.293  73.224  1.00  0.00    -0.284 A  
HETATM   24  C   UNL     1     -10.563   7.691  73.163  1.00  0.00    -0.438 A  
HETATM   25  C   UNL     1     -10.925   8.274  71.945  1.00  0.00    -0.287 A  
HETATM   26  N   UNL     1     -10.996   9.577  71.520  1.00  0.00    -0.357 NA 
ENDBRANCH  15  17
ENDBRANCH  14  15
ENDBRANCH   7  14
TORSDOF 5
ENDMDL
MODEL      227
REMARK 921   NORMALIZED FREE ENERGY PREDICTED BY IDOCK:   -3.95 KCAL/MOL
REMARK 922        TOTAL FREE ENERGY PREDICTED BY IDOCK:   -5.88 KCAL/MOL
REMARK 923 INTER-LIGAND FREE ENERGY PREDICTED BY IDOCK:   -5.33 KCAL/MOL
REMARK 924 INTRA-LIGAND FREE ENERGY PREDICTED BY IDOCK:   -0.55 KCAL/MOL
REMARK 927      BINDING AFFINITY PREDICTED BY RF-SCORE:    0.00 PKD
ROOT
HETATM    1  C   UNL     1     -10.603   9.355  67.607  1.00  0.00    -0.333 C  
HETATM    2  C   UNL     1     -11.075   9.920  68.915  1.00  0.00    -0.181 A  
HETATM    3  C   UNL     1     -11.573  11.231  69.026  1.00  0.00    -0.319 A  
HETATM    4  C   UNL     1     -12.181  11.644  70.210  1.00  0.00    -0.401 A  
HETATM    5  N   UNL     1     -11.636   9.549  71.248  1.00  0.00    -0.344 NA 
HETATM    6  C   UNL     1     -12.210  10.768  71.276  1.00  0.00    -0.321 A  
HETATM    7  C   UNL     1     -11.057   9.133  70.087  1.00  0.00    -0.222 A  
ENDROOT
BRANCH   3   8
HETATM    8  O   UNL     1     -11.596  12.188  68.039  1.00  0.00    -0.307 OA 
BRANCH   8   9
HETATM    9  C   UNL     1     -11.054  13.474  68.377  1.00  0.00    -0.271 C  
HETATM   10  C   UNL     1     -11.647  14.615  67.555  1.00  0.00    -0.375 C  
HETATM   11  F   UNL     1     -10.727  15.127  66.698  1.00  0.00    -0.286 F  
HETATM   12  F   UNL     1     -12.035  15.634  68.364  1.00  0.00    -0.361 F  
HETATM   13  F   UNL     1     -12.725  14.254  66.823  1.00  0.00    -0.414 F  
ENDBRANCH   8   9
ENDBRANCH   3   8
BRANCH   7  14
HETATM   14  C   UNL     1     -10.365   7.785  70.178  1.00  0.00    -0.218 C  
BRANCH  14  15
HETATM   15  S   UNL     1      -8.732   7.908  70.934  1.00  0.00    -0.140 S  
HETATM   16  O   UNL     1      -8.795   8.273  72.390  1.00  0.00    -0.180 OA 
BRANCH  15  17
HETATM   17  C   UNL     1      -8.226   6.247  70.886  1.00  0.00    -0.126 A  
HETATM   18  N   UNL     1      -8.711   5.271  71.625  1.00  0.00    -0.133 NA 
HETATM   19  C   UNL     1      -8.195   4.116  71.080  1.00  0.00    -0.073 A  
HETATM   20  H   UNL     1      -9.334   5.353  72.428  1.00  0.00     0.000 HD 
HETATM   21  C   UNL     1      -8.430   2.775  71.426  1.00  0.00    -0.092 A  
HETATM   22  C   UNL     1      -7.860   1.766  70.640  1.00  0.00    -0.041 A  
HETATM   23  C   UNL     1      -7.059   2.084  69.540  1.00  0.00    -0.036 A  
HETATM   24  C   UNL     1      -6.779   3.413  69.203  1.00  0.00    -0.037 A  
HETATM   25  C   UNL     1      -7.363   4.400  70.002  1.00  0.00    -0.046 A  
HETATM   26  N   UNL     1      -7.329   5.772  69.963  1.00  0.00    -0.072 NA 
ENDBRANCH  15  17
ENDBRANCH  14  15
ENDBRANCH   7  14
TORSDOF 5
ENDMDL
MODEL      228
REMARK 921   NORMALIZED FREE ENERGY PREDICTED BY IDOCK:   -3.93 KCAL/MOL
REMARK 922        TOTAL FREE ENERGY PREDICTED BY IDOCK:   -5.85 KCAL/MOL
REMARK 923 INTER-LIGAND FREE ENERGY PREDICTED BY IDOCK:   -5.07 KCAL/MOL
REMARK 924 INTRA-LIGAND FREE ENERGY PREDICTED BY IDOCK:   -0.78 KCAL/MOL
REMARK 927      BINDING AFFINITY PREDICTED BY RF-SCORE:    0.00 PKD
ROOT
HETATM    1  C   UNL     1      -7.765   8.062  68.205  1.00  0.00    -0.118 C  
HETATM    2  C   UNL     1      -8.092   8.559  66.828  1.00  0.00    -0.098 A  
HETATM    3  C   UNL     1      -8.288   9.925  66.553  1.00  0.00    -0.125 A  
HETATM    4  C   UNL     1      -8.393  10.360  65.234  1.00  0.00    -0.166 A  
HETATM    5  N   UNL     1      -8.314   8.089  64.455  1.00  0.00    -0.095 NA 
HETATM    6  C   UNL     1      -8.377   9.416  64.226  1.00  0.00    -0.173 A  
HETATM    7  C   UNL     1      -8.191   7.661  65.743  1.00  0.00    -0.133 A  
ENDROOT
BRANCH   3   8
HETATM    8  O   UNL     1      -8.326  10.950  67.469  1.00  0.00    -0.116 OA 
BRANCH   8   9
HETATM    9  C   UNL     1      -9.453  11.836  67.397  1.00  0.00    -0.173 C  
HETATM   10  C   UNL     1      -9.064  13.291  67.157  1.00  0.00    -0.231 C  
HETATM   11  F   UNL     1      -9.307  14.049  68.258  1.00  0.00    -0.183 F  
HETATM   12  F   UNL     1      -9.801  13.822  66.149  1.00  0.00    -0.274 F  
HETATM   13  F   UNL     1      -7.763  13.459  66.831  1.00  0.00    -0.101 F  
ENDBRANCH   8   9
ENDBRANCH   3   8
BRANCH   7  14
HETATM   14  C   UNL     1      -8.214   6.152  65.907  1.00  0.00    -0.131 C  
BRANCH  14  15
HETATM   15  S   UNL     1      -9.891   5.507  66.052  1.00  0.00     0.000 S  
HETATM   16  O   UNL     1      -9.953   4.015  65.888  1.00  0.00    -0.192 OA 
BRANCH  15  17
HETATM   17  C   UNL     1     -10.213   5.811  67.732  1.00  0.00    -0.192 A  
HETATM   18  N   UNL     1     -11.122   6.637  68.206  1.00  0.00    -0.513 NA 
HETATM   19  C   UNL     1     -11.182   6.370  69.556  1.00  0.00    -0.412 A  
HETATM   20  H   UNL     1     -11.665   7.325  67.686  1.00  0.00     0.000 HD 
HETATM   21  C   UNL     1     -12.023   6.906  70.543  1.00  0.00    -0.358 A  
HETATM   22  C   UNL     1     -11.959   6.386  71.842  1.00  0.00    -0.381 A  
HETATM   23  C   UNL     1     -11.061   5.362  72.157  1.00  0.00    -0.234 A  
HETATM   24  C   UNL     1     -10.184   4.842  71.198  1.00  0.00    -0.261 A  
HETATM   25  C   UNL     1     -10.272   5.377  69.910  1.00  0.00    -0.281 A  
HETATM   26  N   UNL     1      -9.604   5.109  68.741  1.00  0.00    -0.134 NA 
ENDBRANCH  15  17
ENDBRANCH  14  15
ENDBRANCH   7  14
TORSDOF 5
ENDMDL
MODEL      229
REMARK 921   NORMALIZED FREE ENERGY PREDICTED BY IDOCK:   -3.93 KCAL/MOL
REMARK 922        TOTAL FREE ENERGY PREDICTED BY IDOCK:   -5.84 KCAL/MOL
REMARK 923 INTER-LIGAND FREE ENERGY PREDICTED BY IDOCK:   -5.12 KCAL/MOL
REMARK 924 INTRA-LIGAND FREE ENERGY PREDICTED BY IDOCK:   -0.73 KCAL/MOL
REMARK 927      BINDING AFFINITY PREDICTED BY RF-SCORE:    0.00 PKD
ROOT
HETATM    1  C   UNL     1      -8.082   6.440  69.460  1.00  0.00    -0.118 C  
HETATM    2  C   UNL     1      -9.095   7.156  70.303  1.00  0.00    -0.156 A  
HETATM    3  C   UNL     1      -9.956   6.470  71.180  1.00  0.00    -0.182 A  
HETATM    4  C   UNL     1     -10.739   7.186  72.083  1.00  0.00    -0.245 A  
HETATM    5  N   UNL     1      -9.985   9.258  71.133  1.00  0.00    -0.297 NA 
HETATM    6  C   UNL     1     -10.703   8.565  72.039  1.00  0.00    -0.340 A  
HETATM    7  C   UNL     1      -9.202   8.563  70.260  1.00  0.00    -0.158 A  
ENDROOT
BRANCH   3   8
HETATM    8  O   UNL     1     -10.080   5.108  71.311  1.00  0.00    -0.192 OA 
BRANCH   8   9
HETATM    9  C   UNL     1      -9.212   4.471  72.261  1.00  0.00    -0.126 C  
HETATM   10  C   UNL     1      -9.963   3.752  73.378  1.00  0.00    -0.125 C  
HETATM   11  F   UNL     1      -9.796   4.389  74.566  1.00  0.00    -0.137 F  
HETATM   12  F   UNL     1      -9.482   2.493  73.542  1.00  0.00    -0.082 F  
HETATM   13  F   UNL     1     -11.292   3.646  73.159  1.00  0.00    -0.263 F  
ENDBRANCH   8   9
ENDBRANCH   3   8
BRANCH   7  14
HETATM   14  C   UNL     1      -8.499   9.423  69.226  1.00  0.00    -0.141 C  
BRANCH  14  15
HETATM   15  S   UNL     1      -9.602   9.917  67.888  1.00  0.00    -0.139 S  
HETATM   16  O   UNL     1     -10.963   9.290  67.998  1.00  0.00    -0.155 OA 
BRANCH  15  17
HETATM   17  C   UNL     1      -9.827  11.600  68.256  1.00  0.00    -0.199 A  
HETATM   18  N   UNL     1      -8.891  12.526  68.241  1.00  0.00    -0.226 NA 
HETATM   19  C   UNL     1      -9.564  13.722  68.353  1.00  0.00    -0.206 A  
HETATM   20  H   UNL     1      -7.884  12.386  68.162  1.00  0.00     0.000 HD 
HETATM   21  C   UNL     1      -9.074  15.037  68.325  1.00  0.00    -0.182 A  
HETATM   22  C   UNL     1      -9.986  16.099  68.353  1.00  0.00    -0.230 A  
HETATM   23  C   UNL     1     -11.361  15.857  68.424  1.00  0.00    -0.361 A  
HETATM   24  C   UNL     1     -11.868  14.555  68.496  1.00  0.00    -0.355 A  
HETATM   25  C   UNL     1     -10.937  13.514  68.463  1.00  0.00    -0.267 A  
HETATM   26  N   UNL     1     -11.063  12.148  68.493  1.00  0.00    -0.234 NA 
ENDBRANCH  15  17
ENDBRANCH  14  15
ENDBRANCH   7  14
TORSDOF 5
ENDMDL
MODEL      230
REMARK 921   NORMALIZED FREE ENERGY PREDICTED BY IDOCK:   -3.87 KCAL/MOL
REMARK 922        TOTAL FREE ENERGY PREDICTED BY IDOCK:   -5.77 KCAL/MOL
REMARK 923 INTER-LIGAND FREE ENERGY PREDICTED BY IDOCK:   -5.26 KCAL/MOL
REMARK 924 INTRA-LIGAND FREE ENERGY PREDICTED BY IDOCK:   -0.51 KCAL/MOL
REMARK 927      BINDING AFFINITY PREDICTED BY RF-SCORE:    0.00 PKD
ROOT
HETATM    1  C   UNL     1     -10.576   8.974  68.700  1.00  0.00    -0.194 C  
HETATM    2  C   UNL     1     -11.208   9.895  69.702  1.00  0.00    -0.251 A  
HETATM    3  C   UNL     1     -11.362  11.272  69.457  1.00  0.00    -0.294 A  
HETATM    4  C   UNL     1     -12.128  12.049  70.324  1.00  0.00    -0.395 A  
HETATM    5  N   UNL     1     -12.429  10.166  71.783  1.00  0.00    -0.393 NA 
HETATM    6  C   UNL     1     -12.656  11.453  71.450  1.00  0.00    -0.334 A  
HETATM    7  C   UNL     1     -11.698   9.397  70.929  1.00  0.00    -0.308 A  
ENDROOT
BRANCH   3   8
HETATM    8  O   UNL     1     -10.881  11.973  68.377  1.00  0.00    -0.212 OA 
BRANCH   8   9
HETATM    9  C   UNL     1     -10.343  13.277  68.644  1.00  0.00    -0.196 C  
HETATM   10  C   UNL     1      -9.087  13.590  67.836  1.00  0.00    -0.204 C  
HETATM   11  F   UNL     1      -7.991  13.637  68.636  1.00  0.00    -0.135 F  
HETATM   12  F   UNL     1      -9.191  14.808  67.246  1.00  0.00    -0.181 F  
HETATM   13  F   UNL     1      -8.833  12.693  66.857  1.00  0.00    -0.194 F  
ENDBRANCH   8   9
ENDBRANCH   3   8
BRANCH   7  14
HETATM   14  C   UNL     1     -11.424   7.990  71.429  1.00  0.00    -0.258 C  
BRANCH  14  15
HETATM   15  S   UNL     1      -9.726   7.788  72.000  1.00  0.00    -0.184 S  
HETATM   16  O   UNL     1      -9.454   8.530  73.278  1.00  0.00    -0.130 OA 
BRANCH  15  17
HETATM   17  C   UNL     1      -9.724   6.104  72.424  1.00  0.00    -0.157 A  
HETATM   18  N   UNL     1      -8.665   5.392  72.751  1.00  0.00    -0.123 NA 
HETATM   19  C   UNL     1      -9.166   4.203  73.235  1.00  0.00    -0.109 A  
HETATM   20  H   UNL     1      -7.686   5.662  72.664  1.00  0.00     0.000 HD 
HETATM   21  C   UNL     1      -8.493   3.101  73.785  1.00  0.00    -0.074 A  
HETATM   22  C   UNL     1      -9.246   2.043  74.310  1.00  0.00    -0.082 A  
HETATM   23  C   UNL     1     -10.643   2.073  74.272  1.00  0.00    -0.197 A  
HETATM   24  C   UNL     1     -11.332   3.143  73.690  1.00  0.00    -0.228 A  
HETATM   25  C   UNL     1     -10.557   4.187  73.178  1.00  0.00    -0.184 A  
HETATM   26  N   UNL     1     -10.877   5.374  72.569  1.00  0.00    -0.239 NA 
ENDBRANCH  15  17
ENDBRANCH  14  15
ENDBRANCH   7  14
TORSDOF 5
ENDMDL
MODEL      231
REMARK 921   NORMALIZED FREE ENERGY PREDICTED BY IDOCK:   -3.79 KCAL/MOL
REMARK 922        TOTAL FREE ENERGY PREDICTED BY IDOCK:   -5.67 KCAL/MOL
REMARK 923 INTER-LIGAND FREE ENERGY PREDICTED BY IDOCK:   -5.71 KCAL/MOL
REMARK 924 INTRA-LIGAND FREE ENERGY PREDICTED BY IDOCK:    0.04 KCAL/MOL
REMARK 927      BINDING AFFINITY PREDICTED BY RF-SCORE:    0.00 PKD
ROOT
HETATM    1  C   UNL     1     -11.359   9.142  71.349  1.00  0.00    -0.414 C  
HETATM    2  C   UNL     1     -10.927   8.480  70.074  1.00  0.00    -0.197 A  
HETATM    3  C   UNL     1     -10.797   7.083  69.964  1.00  0.00    -0.261 A  
HETATM    4  C   UNL     1     -10.587   6.502  68.715  1.00  0.00    -0.282 A  
HETATM    5  N   UNL     1     -10.431   8.675  67.704  1.00  0.00    -0.253 NA 
HETATM    6  C   UNL     1     -10.436   7.330  67.621  1.00  0.00    -0.242 A  
HETATM    7  C   UNL     1     -10.656   9.248  68.920  1.00  0.00    -0.199 A  
ENDROOT
BRANCH   3   8
HETATM    8  O   UNL     1     -10.924   6.164  70.978  1.00  0.00    -0.267 OA 
BRANCH   8   9
HETATM    9  C   UNL     1      -9.981   6.262  72.056  1.00  0.00    -0.168 C  
HETATM   10  C   UNL     1      -9.014   5.084  72.123  1.00  0.00    -0.132 C  
HETATM   11  F   UNL     1      -9.261   4.312  73.212  1.00  0.00    -0.108 F  
HETATM   12  F   UNL     1      -7.735   5.522  72.239  1.00  0.00    -0.094 F  
HETATM   13  F   UNL     1      -9.063   4.279  71.038  1.00  0.00    -0.133 F  
ENDBRANCH   8   9
ENDBRANCH   3   8
BRANCH   7  14
HETATM   14  C   UNL     1     -10.547  10.762  68.930  1.00  0.00    -0.216 C  
BRANCH  14  15
HETATM   15  S   UNL     1      -9.052  11.343  68.108  1.00  0.00    -0.179 S  
HETATM   16  O   UNL     1      -8.279  10.231  67.459  1.00  0.00    -0.114 OA 
BRANCH  15  17
HETATM   17  C   UNL     1      -9.736  12.265  66.804  1.00  0.00    -0.213 A  
HETATM   18  N   UNL     1     -10.652  11.843  65.958  1.00  0.00    -0.256 NA 
HETATM   19  C   UNL     1     -11.056  12.968  65.273  1.00  0.00    -0.286 A  
HETATM   20  H   UNL     1     -10.989  10.889  65.835  1.00  0.00     0.000 HD 
HETATM   21  C   UNL     1     -12.056  13.118  64.300  1.00  0.00    -0.477 A  
HETATM   22  C   UNL     1     -12.352  14.403  63.827  1.00  0.00     0.031 A  
HETATM   23  C   UNL     1     -11.654  15.516  64.302  1.00  0.00    -0.198 A  
HETATM   24  C   UNL     1     -10.625  15.384  65.242  1.00  0.00    -0.450 A  
HETATM   25  C   UNL     1     -10.353  14.092  65.699  1.00  0.00    -0.329 A  
HETATM   26  N   UNL     1      -9.453  13.594  66.608  1.00  0.00    -0.275 NA 
ENDBRANCH  15  17
ENDBRANCH  14  15
ENDBRANCH   7  14
TORSDOF 5
ENDMDL
MODEL      232
REMARK 921   NORMALIZED FREE ENERGY PREDICTED BY IDOCK:   -3.71 KCAL/MOL
REMARK 922        TOTAL FREE ENERGY PREDICTED BY IDOCK:   -5.57 KCAL/MOL
REMARK 923 INTER-LIGAND FREE ENERGY PREDICTED BY IDOCK:   -4.56 KCAL/MOL
REMARK 924 INTRA-LIGAND FREE ENERGY PREDICTED BY IDOCK:   -1.01 KCAL/MOL
REMARK 927      BINDING AFFINITY PREDICTED BY RF-SCORE:    0.00 PKD
ROOT
HETATM    1  C   UNL     1      -8.209   7.169  71.627  1.00  0.00    -0.103 C  
HETATM    2  C   UNL     1      -9.662   6.905  71.367  1.00  0.00    -0.177 A  
HETATM    3  C   UNL     1     -10.528   6.435  72.372  1.00  0.00    -0.198 A  
HETATM    4  C   UNL     1     -11.901   6.393  72.140  1.00  0.00    -0.361 A  
HETATM    5  N   UNL     1     -11.563   7.087  69.866  1.00  0.00    -0.182 NA 
HETATM    6  C   UNL     1     -12.370   6.748  70.892  1.00  0.00    -0.280 A  
HETATM    7  C   UNL     1     -10.221   7.148  70.093  1.00  0.00    -0.195 A  
ENDROOT
BRANCH   3   8
HETATM    8  O   UNL     1     -10.177   6.052  73.644  1.00  0.00    -0.195 OA 
BRANCH   8   9
HETATM    9  C   UNL     1     -10.616   4.752  74.069  1.00  0.00    -0.293 C  
HETATM   10  C   UNL     1      -9.759   3.615  73.519  1.00  0.00    -0.107 C  
HETATM   11  F   UNL     1     -10.448   2.883  72.607  1.00  0.00    -0.217 F  
HETATM   12  F   UNL     1      -9.404   2.763  74.514  1.00  0.00    -0.090 F  
HETATM   13  F   UNL     1      -8.619   4.033  72.925  1.00  0.00    -0.095 F  
ENDBRANCH   8   9
ENDBRANCH   3   8
BRANCH   7  14
HETATM   14  C   UNL     1      -9.390   7.453  68.860  1.00  0.00    -0.145 C  
BRANCH  14  15
HETATM   15  S   UNL     1     -10.395   7.547  67.366  1.00  0.00    -0.302 S  
HETATM   16  O   UNL     1     -10.036   8.721  66.501  1.00  0.00    -0.274 OA 
BRANCH  15  17
HETATM   17  C   UNL     1      -9.836   6.142  66.510  1.00  0.00    -0.133 A  
HETATM   18  N   UNL     1      -9.187   6.145  65.364  1.00  0.00    -0.366 NA 
HETATM   19  C   UNL     1      -8.743   4.851  65.199  1.00  0.00    -0.148 A  
HETATM   20  H   UNL     1      -9.045   6.934  64.735  1.00  0.00     0.000 HD 
HETATM   21  C   UNL     1      -7.943   4.298  64.188  1.00  0.00    -0.090 A  
HETATM   22  C   UNL     1      -7.535   2.962  64.304  1.00  0.00    -0.070 A  
HETATM   23  C   UNL     1      -7.931   2.188  65.398  1.00  0.00    -0.078 A  
HETATM   24  C   UNL     1      -8.763   2.709  66.396  1.00  0.00    -0.124 A  
HETATM   25  C   UNL     1      -9.151   4.044  66.257  1.00  0.00    -0.139 A  
HETATM   26  N   UNL     1      -9.926   4.875  67.027  1.00  0.00    -0.195 NA 
ENDBRANCH  15  17
ENDBRANCH  14  15
ENDBRANCH   7  14
TORSDOF 5
ENDMDL
MODEL      233
REMARK 921   NORMALIZED FREE ENERGY PREDICTED BY IDOCK:   -3.67 KCAL/MOL
REMARK 922        TOTAL FREE ENERGY PREDICTED BY IDOCK:   -5.51 KCAL/MOL
REMARK 923 INTER-LIGAND FREE ENERGY PREDICTED BY IDOCK:   -5.10 KCAL/MOL
REMARK 924 INTRA-LIGAND FREE ENERGY PREDICTED BY IDOCK:   -0.41 KCAL/MOL
REMARK 927      BINDING AFFINITY PREDICTED BY RF-SCORE:    0.00 PKD
ROOT
HETATM    1  C   UNL     1      -9.627   5.213  71.749  1.00  0.00    -0.199 C  
HETATM    2  C   UNL     1     -10.066   5.670  70.390  1.00  0.00    -0.284 A  
HETATM    3  C   UNL     1      -9.418   5.249  69.214  1.00  0.00    -0.134 A  
HETATM    4  C   UNL     1      -9.978   5.538  67.971  1.00  0.00    -0.189 A  
HETATM    5  N   UNL     1     -11.708   6.827  69.025  1.00  0.00     0.127 NA 
HETATM    6  C   UNL     1     -11.126   6.302  67.928  1.00  0.00    -0.258 A  
HETATM    7  C   UNL     1     -11.176   6.531  70.244  1.00  0.00    -0.374 A  
ENDROOT
BRANCH   3   8
HETATM    8  O   UNL     1      -8.274   4.491  69.133  1.00  0.00    -0.078 OA 
BRANCH   8   9
HETATM    9  C   UNL     1      -8.416   3.167  68.596  1.00  0.00    -0.075 C  
HETATM   10  C   UNL     1      -7.547   2.916  67.368  1.00  0.00    -0.065 C  
HETATM   11  F   UNL     1      -8.306   2.798  66.249  1.00  0.00    -0.083 F  
HETATM   12  F   UNL     1      -6.862   1.752  67.498  1.00  0.00    -0.035 F  
HETATM   13  F   UNL     1      -6.638   3.890  67.137  1.00  0.00    -0.041 F  
ENDBRANCH   8   9
ENDBRANCH   3   8
BRANCH   7  14
HETATM   14  C   UNL     1     -11.846   7.235  71.409  1.00  0.00    -0.305 C  
BRANCH  14  15
HETATM   15  S   UNL     1     -10.861   8.610  72.033  1.00  0.00    -0.356 S  
HETATM   16  O   UNL     1      -9.464   8.199  72.403  1.00  0.00    -0.198 OA 
BRANCH  15  17
HETATM   17  C   UNL     1     -10.704   9.576  70.598  1.00  0.00    -0.309 A  
HETATM   18  N   UNL     1     -10.027   9.247  69.517  1.00  0.00    -0.179 NA 
HETATM   19  C   UNL     1     -10.383  10.183  68.571  1.00  0.00    -0.180 A  
HETATM   20  H   UNL     1      -9.380   8.468  69.405  1.00  0.00     0.000 HD 
HETATM   21  C   UNL     1     -10.016  10.280  67.220  1.00  0.00    -0.233 A  
HETATM   22  C   UNL     1     -10.604  11.276  66.430  1.00  0.00    -0.316 A  
HETATM   23  C   UNL     1     -11.528  12.170  66.979  1.00  0.00    -0.415 A  
HETATM   24  C   UNL     1     -11.876  12.117  68.334  1.00  0.00    -0.360 A  
HETATM   25  C   UNL     1     -11.277  11.111  69.098  1.00  0.00    -0.264 A  
HETATM   26  N   UNL     1     -11.388  10.752  70.418  1.00  0.00    -0.293 NA 
ENDBRANCH  15  17
ENDBRANCH  14  15
ENDBRANCH   7  14
TORSDOF 5
ENDMDL
MODEL      234
REMARK 921   NORMALIZED FREE ENERGY PREDICTED BY IDOCK:   -3.63 KCAL/MOL
REMARK 922        TOTAL FREE ENERGY PREDICTED BY IDOCK:   -5.46 KCAL/MOL
REMARK 923 INTER-LIGAND FREE ENERGY PREDICTED BY IDOCK:   -4.54 KCAL/MOL
REMARK 924 INTRA-LIGAND FREE ENERGY PREDICTED BY IDOCK:   -0.92 KCAL/MOL
REMARK 927      BINDING AFFINITY PREDICTED BY RF-SCORE:    0.00 PKD
ROOT
HETATM    1  C   UNL     1      -7.793   7.445  68.948  1.00  0.00    -0.117 C  
HETATM    2  C   UNL     1      -8.955   6.814  68.240  1.00  0.00    -0.123 A  
HETATM    3  C   UNL     1     -10.208   7.448  68.148  1.00  0.00    -0.187 A  
HETATM    4  C   UNL     1     -11.194   6.919  67.317  1.00  0.00    -0.231 A  
HETATM    5  N   UNL     1      -9.794   5.034  66.817  1.00  0.00    -0.171 NA 
HETATM    6  C   UNL     1     -10.934   5.734  66.659  1.00  0.00    -0.128 A  
HETATM    7  C   UNL     1      -8.819   5.556  67.612  1.00  0.00    -0.105 A  
ENDROOT
BRANCH   3   8
HETATM    8  O   UNL     1     -10.580   8.623  68.757  1.00  0.00    -0.211 OA 
BRANCH   8   9
HETATM    9  C   UNL     1     -10.525   9.810  67.951  1.00  0.00    -0.239 C  
HETATM   10  C   UNL     1     -10.884  11.079  68.719  1.00  0.00    -0.210 C  
HETATM   11  F   UNL     1     -12.075  11.581  68.302  1.00  0.00    -0.362 F  
HETATM   12  F   UNL     1      -9.957  12.046  68.502  1.00  0.00    -0.197 F  
HETATM   13  F   UNL     1     -10.968  10.899  70.056  1.00  0.00    -0.297 F  
ENDBRANCH   8   9
ENDBRANCH   3   8
BRANCH   7  14
HETATM   14  C   UNL     1      -7.609   4.658  67.796  1.00  0.00    -0.078 C  
BRANCH  14  15
HETATM   15  S   UNL     1      -7.915   3.338  68.985  1.00  0.00    -0.052 S  
HETATM   16  O   UNL     1      -6.646   2.750  69.535  1.00  0.00    -0.032 OA 
BRANCH  15  17
HETATM   17  C   UNL     1      -8.624   4.235  70.292  1.00  0.00    -0.069 A  
HETATM   18  N   UNL     1      -7.968   4.943  71.188  1.00  0.00    -0.090 NA 
HETATM   19  C   UNL     1      -8.933   5.660  71.859  1.00  0.00    -0.139 A  
HETATM   20  H   UNL     1      -6.961   4.957  71.350  1.00  0.00     0.000 HD 
HETATM   21  C   UNL     1      -8.798   6.624  72.870  1.00  0.00    -0.134 A  
HETATM   22  C   UNL     1      -9.942   7.295  73.322  1.00  0.00    -0.319 A  
HETATM   23  C   UNL     1     -11.199   7.000  72.788  1.00  0.00    -0.294 A  
HETATM   24  C   UNL     1     -11.361   6.013  71.809  1.00  0.00    -0.324 A  
HETATM   25  C   UNL     1     -10.204   5.362  71.375  1.00  0.00    -0.216 A  
HETATM   26  N   UNL     1      -9.980   4.381  70.441  1.00  0.00    -0.214 NA 
ENDBRANCH  15  17
ENDBRANCH  14  15
ENDBRANCH   7  14
TORSDOF 5
ENDMDL
MODEL      235
REMARK 921   NORMALIZED FREE ENERGY PREDICTED BY IDOCK:   -3.56 KCAL/MOL
REMARK 922        TOTAL FREE ENERGY PREDICTED BY IDOCK:   -5.37 KCAL/MOL
REMARK 923 INTER-LIGAND FREE ENERGY PREDICTED BY IDOCK:   -4.26 KCAL/MOL
REMARK 924 INTRA-LIGAND FREE ENERGY PREDICTED BY IDOCK:   -1.11 KCAL/MOL
REMARK 927      BINDING AFFINITY PREDICTED BY RF-SCORE:    0.00 PKD
ROOT
HETATM    1  C   UNL     1      -8.182  12.109  67.888  1.00  0.00    -0.155 C  
HETATM    2  C   UNL     1      -9.065  10.898  67.826  1.00  0.00    -0.149 A  
HETATM    3  C   UNL     1     -10.188  10.835  66.980  1.00  0.00    -0.217 A  
HETATM    4  C   UNL     1     -10.860   9.627  66.808  1.00  0.00    -0.051 A  
HETATM    5  N   UNL     1      -9.451   8.582  68.448  1.00  0.00    -0.135 NA 
HETATM    6  C   UNL     1     -10.445   8.532  67.538  1.00  0.00    -0.258 A  
HETATM    7  C   UNL     1      -8.778   9.757  68.606  1.00  0.00    -0.122 A  
ENDROOT
BRANCH   3   8
HETATM    8  O   UNL     1     -10.695  11.855  66.210  1.00  0.00    -0.251 OA 
BRANCH   8   9
HETATM    9  C   UNL     1     -10.822  11.597  64.804  1.00  0.00    -0.308 C  
HETATM   10  C   UNL     1     -12.066  12.225  64.183  1.00  0.00    -0.436 C  
HETATM   11  F   UNL     1     -12.964  11.273  63.823  1.00  0.00    -0.186 F  
HETATM   12  F   UNL     1     -11.745  12.904  63.053  1.00  0.00    -0.563 F  
HETATM   13  F   UNL     1     -12.703  13.091  65.002  1.00  0.00    -0.487 F  
ENDBRANCH   8   9
ENDBRANCH   3   8
BRANCH   7  14
HETATM   14  C   UNL     1      -7.737   9.740  69.710  1.00  0.00    -0.143 C  
BRANCH  14  15
HETATM   15  S   UNL     1      -6.458   8.503  69.423  1.00  0.00    -0.038 S  
HETATM   16  O   UNL     1      -6.933   7.104  69.699  1.00  0.00    -0.049 OA 
BRANCH  15  17
HETATM   17  C   UNL     1      -6.285   8.609  67.698  1.00  0.00    -0.052 A  
HETATM   18  N   UNL     1      -6.832   7.799  66.816  1.00  0.00    -0.069 NA 
HETATM   19  C   UNL     1      -6.626   8.403  65.595  1.00  0.00    -0.052 A  
HETATM   20  H   UNL     1      -7.307   6.915  66.998  1.00  0.00     0.000 HD 
HETATM   21  C   UNL     1      -7.055   8.015  64.316  1.00  0.00    -0.078 A  
HETATM   22  C   UNL     1      -6.803   8.867  63.233  1.00  0.00    -0.089 A  
HETATM   23  C   UNL     1      -6.123  10.074  63.416  1.00  0.00    -0.132 A  
HETATM   24  C   UNL     1      -5.650  10.458  64.676  1.00  0.00    -0.136 A  
HETATM   25  C   UNL     1      -5.918   9.592  65.739  1.00  0.00    -0.060 A  
HETATM   26  N   UNL     1      -5.633   9.647  67.081  1.00  0.00    -0.046 NA 
ENDBRANCH  15  17
ENDBRANCH  14  15
ENDBRANCH   7  14
TORSDOF 5
ENDMDL
MODEL      236
REMARK 921   NORMALIZED FREE ENERGY PREDICTED BY IDOCK:   -3.54 KCAL/MOL
REMARK 922        TOTAL FREE ENERGY PREDICTED BY IDOCK:   -5.35 KCAL/MOL
REMARK 923 INTER-LIGAND FREE ENERGY PREDICTED BY IDOCK:   -4.52 KCAL/MOL
REMARK 924 INTRA-LIGAND FREE ENERGY PREDICTED BY IDOCK:   -0.83 KCAL/MOL
REMARK 927      BINDING AFFINITY PREDICTED BY RF-SCORE:    0.00 PKD
ROOT
HETATM    1  C   UNL     1      -8.125  13.278  67.284  1.00  0.00    -0.150 C  
HETATM    2  C   UNL     1      -9.547  12.969  67.647  1.00  0.00    -0.206 A  
HETATM    3  C   UNL     1     -10.619  13.777  67.223  1.00  0.00    -0.275 A  
HETATM    4  C   UNL     1     -11.930  13.346  67.415  1.00  0.00    -0.391 A  
HETATM    5  N   UNL     1     -11.147  11.422  68.620  1.00  0.00    -0.216 NA 
HETATM    6  C   UNL     1     -12.142  12.162  68.091  1.00  0.00     0.009 A  
HETATM    7  C   UNL     1      -9.862  11.828  68.417  1.00  0.00    -0.199 A  
ENDROOT
BRANCH   3   8
HETATM    8  O   UNL     1     -10.531  14.971  66.547  1.00  0.00    -0.273 OA 
BRANCH   8   9
HETATM    9  C   UNL     1     -10.518  16.163  67.348  1.00  0.00    -0.310 C  
HETATM   10  C   UNL     1      -9.323  17.069  67.063  1.00  0.00    -0.241 C  
HETATM   11  F   UNL     1      -8.461  17.082  68.112  1.00  0.00    -0.201 F  
HETATM   12  F   UNL     1      -9.730  18.350  66.878  1.00  0.00    -0.280 F  
HETATM   13  F   UNL     1      -8.619  16.711  65.966  1.00  0.00    -0.317 F  
ENDBRANCH   8   9
ENDBRANCH   3   8
BRANCH   7  14
HETATM   14  C   UNL     1      -8.818  10.981  69.121  1.00  0.00     0.012 C  
BRANCH  14  15
HETATM   15  S   UNL     1      -8.769   9.294  68.486  1.00  0.00    -0.129 S  
HETATM   16  O   UNL     1     -10.133   8.671  68.393  1.00  0.00    -0.179 OA 
BRANCH  15  17
HETATM   17  C   UNL     1      -8.267   9.577  66.847  1.00  0.00    -0.113 A  
HETATM   18  N   UNL     1      -7.125  10.115  66.472  1.00  0.00    -0.099 NA 
HETATM   19  C   UNL     1      -7.064   9.916  65.110  1.00  0.00    -0.129 A  
HETATM   20  H   UNL     1      -6.435  10.579  67.062  1.00  0.00     0.000 HD 
HETATM   21  C   UNL     1      -6.040  10.227  64.201  1.00  0.00    -0.120 A  
HETATM   22  C   UNL     1      -6.176   9.821  62.867  1.00  0.00    -0.109 A  
HETATM   23  C   UNL     1      -7.316   9.134  62.442  1.00  0.00    -0.099 A  
HETATM   24  C   UNL     1      -8.366   8.852  63.323  1.00  0.00    -0.180 A  
HETATM   25  C   UNL     1      -8.203   9.264  64.648  1.00  0.00    -0.148 A  
HETATM   26  N   UNL     1      -8.993   9.147  65.765  1.00  0.00    -0.180 NA 
ENDBRANCH  15  17
ENDBRANCH  14  15
ENDBRANCH   7  14
TORSDOF 5
ENDMDL
MODEL      237
REMARK 921   NORMALIZED FREE ENERGY PREDICTED BY IDOCK:   -3.54 KCAL/MOL
REMARK 922        TOTAL FREE ENERGY PREDICTED BY IDOCK:   -5.34 KCAL/MOL
REMARK 923 INTER-LIGAND FREE ENERGY PREDICTED BY IDOCK:   -5.28 KCAL/MOL
REMARK 924 INTRA-LIGAND FREE ENERGY PREDICTED BY IDOCK:   -0.06 KCAL/MOL
REMARK 927      BINDING AFFINITY PREDICTED BY RF-SCORE:    0.00 PKD
ROOT
HETATM    1  C   UNL     1     -10.361   8.811  71.090  1.00  0.00    -0.315 C  
HETATM    2  C   UNL     1     -10.521   8.109  69.774  1.00  0.00    -0.227 A  
HETATM    3  C   UNL     1     -10.960   6.775  69.688  1.00  0.00    -0.288 A  
HETATM    4  C   UNL     1     -11.282   6.229  68.447  1.00  0.00    -0.272 A  
HETATM    5  N   UNL     1     -10.552   8.236  67.349  1.00  0.00    -0.283 NA 
HETATM    6  C   UNL     1     -11.086   6.999  67.318  1.00  0.00    -0.232 A  
HETATM    7  C   UNL     1     -10.254   8.782  68.562  1.00  0.00    -0.195 A  
ENDROOT
BRANCH   3   8
HETATM    8  O   UNL     1     -11.187   5.915  70.737  1.00  0.00    -0.287 OA 
BRANCH   8   9
HETATM    9  C   UNL     1     -10.039   5.516  71.501  1.00  0.00    -0.205 C  
HETATM   10  C   UNL     1      -9.470   4.166  71.077  1.00  0.00    -0.163 C  
HETATM   11  F   UNL     1      -9.680   3.226  72.034  1.00  0.00    -0.184 F  
HETATM   12  F   UNL     1      -8.127   4.249  70.901  1.00  0.00    -0.065 F  
HETATM   13  F   UNL     1      -9.995   3.693  69.925  1.00  0.00    -0.254 F  
ENDBRANCH   8   9
ENDBRANCH   3   8
BRANCH   7  14
HETATM   14  C   UNL     1      -9.580  10.140  68.491  1.00  0.00    -0.154 C  
BRANCH  14  15
HETATM   15  S   UNL     1      -9.025  10.539  66.823  1.00  0.00    -0.138 S  
HETATM   16  O   UNL     1     -10.156  10.595  65.835  1.00  0.00    -0.241 OA 
BRANCH  15  17
HETATM   17  C   UNL     1      -8.506  12.183  67.038  1.00  0.00    -0.183 A  
HETATM   18  N   UNL     1      -9.046  13.243  66.472  1.00  0.00    -0.428 NA 
HETATM   19  C   UNL     1      -8.477  14.321  67.113  1.00  0.00    -0.200 A  
HETATM   20  H   UNL     1      -9.736  13.261  65.722  1.00  0.00     0.000 HD 
HETATM   21  C   UNL     1      -8.731  15.694  66.962  1.00  0.00    -0.256 A  
HETATM   22  C   UNL     1      -8.089  16.598  67.818  1.00  0.00    -0.185 A  
HETATM   23  C   UNL     1      -7.198  16.146  68.796  1.00  0.00    -0.170 A  
HETATM   24  C   UNL     1      -6.900  14.785  68.935  1.00  0.00    -0.105 A  
HETATM   25  C   UNL     1      -7.557  13.906  68.071  1.00  0.00    -0.144 A  
HETATM   26  N   UNL     1      -7.529  12.540  67.932  1.00  0.00    -0.107 NA 
ENDBRANCH  15  17
ENDBRANCH  14  15
ENDBRANCH   7  14
TORSDOF 5
ENDMDL
MODEL      238
REMARK 921   NORMALIZED FREE ENERGY PREDICTED BY IDOCK:   -3.45 KCAL/MOL
REMARK 922        TOTAL FREE ENERGY PREDICTED BY IDOCK:   -5.23 KCAL/MOL
REMARK 923 INTER-LIGAND FREE ENERGY PREDICTED BY IDOCK:   -4.61 KCAL/MOL
REMARK 924 INTRA-LIGAND FREE ENERGY PREDICTED BY IDOCK:   -0.62 KCAL/MOL
REMARK 927      BINDING AFFINITY PREDICTED BY RF-SCORE:    0.00 PKD
ROOT
HETATM    1  C   UNL     1      -7.746  11.198  68.755  1.00  0.00    -0.136 C  
HETATM    2  C   UNL     1      -8.771  10.215  68.270  1.00  0.00    -0.120 A  
HETATM    3  C   UNL     1      -9.654  10.515  67.217  1.00  0.00    -0.163 A  
HETATM    4  C   UNL     1     -10.450   9.510  66.671  1.00  0.00    -0.241 A  
HETATM    5  N   UNL     1      -9.662   7.956  68.323  1.00  0.00    -0.156 NA 
HETATM    6  C   UNL     1     -10.403   8.252  67.237  1.00  0.00    -0.302 A  
HETATM    7  C   UNL     1      -8.867   8.930  68.849  1.00  0.00    -0.137 A  
ENDROOT
BRANCH   3   8
HETATM    8  O   UNL     1      -9.791  11.725  66.579  1.00  0.00    -0.199 OA 
BRANCH   8   9
HETATM    9  C   UNL     1     -10.759  11.788  65.520  1.00  0.00    -0.279 C  
HETATM   10  C   UNL     1     -11.242  13.206  65.226  1.00  0.00    -0.291 C  
HETATM   11  F   UNL     1     -12.536  13.368  65.601  1.00  0.00    -0.458 F  
HETATM   12  F   UNL     1     -11.188  13.461  63.894  1.00  0.00    -0.388 F  
HETATM   13  F   UNL     1     -10.519  14.165  65.846  1.00  0.00    -0.276 F  
ENDBRANCH   8   9
ENDBRANCH   3   8
BRANCH   7  14
HETATM   14  C   UNL     1      -8.137   8.529  70.118  1.00  0.00    -0.111 C  
BRANCH  14  15
HETATM   15  S   UNL     1      -7.125   7.055  69.885  1.00  0.00    -0.072 S  
HETATM   16  O   UNL     1      -5.711   7.245  70.356  1.00  0.00    -0.024 OA 
BRANCH  15  17
HETATM   17  C   UNL     1      -7.861   5.972  71.027  1.00  0.00    -0.111 A  
HETATM   18  N   UNL     1      -7.794   6.071  72.338  1.00  0.00    -0.101 NA 
HETATM   19  C   UNL     1      -8.710   5.160  72.815  1.00  0.00    -0.119 A  
HETATM   20  H   UNL     1      -7.194   6.690  72.883  1.00  0.00     0.000 HD 
HETATM   21  C   UNL     1      -9.105   4.888  74.135  1.00  0.00    -0.111 A  
HETATM   22  C   UNL     1     -10.146   3.977  74.354  1.00  0.00    -0.225 A  
HETATM   23  C   UNL     1     -10.772   3.337  73.281  1.00  0.00    -0.288 A  
HETATM   24  C   UNL     1     -10.366   3.563  71.961  1.00  0.00    -0.050 A  
HETATM   25  C   UNL     1      -9.328   4.478  71.771  1.00  0.00    -0.142 A  
HETATM   26  N   UNL     1      -8.697   4.952  70.648  1.00  0.00    -0.114 NA 
ENDBRANCH  15  17
ENDBRANCH  14  15
ENDBRANCH   7  14
TORSDOF 5
ENDMDL
MODEL      239
REMARK 921   NORMALIZED FREE ENERGY PREDICTED BY IDOCK:   -3.42 KCAL/MOL
REMARK 922        TOTAL FREE ENERGY PREDICTED BY IDOCK:   -5.19 KCAL/MOL
REMARK 923 INTER-LIGAND FREE ENERGY PREDICTED BY IDOCK:   -4.18 KCAL/MOL
REMARK 924 INTRA-LIGAND FREE ENERGY PREDICTED BY IDOCK:   -1.02 KCAL/MOL
REMARK 927      BINDING AFFINITY PREDICTED BY RF-SCORE:    0.00 PKD
ROOT
HETATM    1  C   UNL     1     -10.492  12.715  68.770  1.00  0.00    -0.167 C  
HETATM    2  C   UNL     1     -10.419  13.039  67.307  1.00  0.00    -0.238 A  
HETATM    3  C   UNL     1     -10.093  14.327  66.843  1.00  0.00    -0.264 A  
HETATM    4  C   UNL     1      -9.844  14.533  65.487  1.00  0.00    -0.320 A  
HETATM    5  N   UNL     1     -10.428  12.253  65.009  1.00  0.00    -0.281 NA 
HETATM    6  C   UNL     1      -9.999  13.470  64.620  1.00  0.00    -0.080 A  
HETATM    7  C   UNL     1     -10.654  12.041  66.336  1.00  0.00    -0.243 A  
ENDROOT
BRANCH   3   8
HETATM    8  O   UNL     1      -9.917  15.455  67.607  1.00  0.00    -0.224 OA 
BRANCH   8   9
HETATM    9  C   UNL     1      -8.609  16.047  67.587  1.00  0.00    -0.166 C  
HETATM   10  C   UNL     1      -8.635  17.573  67.610  1.00  0.00    -0.219 C  
HETATM   11  F   UNL     1      -8.223  18.086  66.423  1.00  0.00    -0.258 F  
HETATM   12  F   UNL     1      -7.786  18.050  68.556  1.00  0.00    -0.264 F  
HETATM   13  F   UNL     1      -9.856  18.091  67.872  1.00  0.00    -0.270 F  
ENDBRANCH   8   9
ENDBRANCH   3   8
BRANCH   7  14
HETATM   14  C   UNL     1     -11.214  10.670  66.667  1.00  0.00     0.148 C  
BRANCH  14  15
HETATM   15  S   UNL     1     -10.006   9.358  66.402  1.00  0.00    -0.268 S  
HETATM   16  O   UNL     1      -9.610   9.218  64.959  1.00  0.00    -0.169 OA 
BRANCH  15  17
HETATM   17  C   UNL     1      -8.619  10.025  67.208  1.00  0.00    -0.125 A  
HETATM   18  N   UNL     1      -7.778  10.900  66.699  1.00  0.00    -0.140 NA 
HETATM   19  C   UNL     1      -7.003  11.314  67.760  1.00  0.00    -0.075 A  
HETATM   20  H   UNL     1      -7.714  11.206  65.729  1.00  0.00     0.000 HD 
HETATM   21  C   UNL     1      -5.991  12.286  67.810  1.00  0.00    -0.098 A  
HETATM   22  C   UNL     1      -5.419  12.602  69.049  1.00  0.00    -0.068 A  
HETATM   23  C   UNL     1      -5.835  11.952  70.214  1.00  0.00    -0.164 A  
HETATM   24  C   UNL     1      -6.812  10.951  70.180  1.00  0.00    -0.014 A  
HETATM   25  C   UNL     1      -7.369  10.658  68.932  1.00  0.00    -0.099 A  
HETATM   26  N   UNL     1      -8.338   9.774  68.528  1.00  0.00    -0.109 NA 
ENDBRANCH  15  17
ENDBRANCH  14  15
ENDBRANCH   7  14
TORSDOF 5
ENDMDL
MODEL      240
REMARK 921   NORMALIZED FREE ENERGY PREDICTED BY IDOCK:   -3.42 KCAL/MOL
REMARK 922        TOTAL FREE ENERGY PREDICTED BY IDOCK:   -5.18 KCAL/MOL
REMARK 923 INTER-LIGAND FREE ENERGY PREDICTED BY IDOCK:   -4.71 KCAL/MOL
REMARK 924 INTRA-LIGAND FREE ENERGY PREDICTED BY IDOCK:   -0.47 KCAL/MOL
REMARK 927      BINDING AFFINITY PREDICTED BY RF-SCORE:    0.00 PKD
ROOT
HETATM    1  C   UNL     1      -8.178   7.123  71.658  1.00  0.00    -0.103 C  
HETATM    2  C   UNL     1      -9.631   6.962  71.323  1.00  0.00    -0.165 A  
HETATM    3  C   UNL     1     -10.570   6.510  72.269  1.00  0.00    -0.212 A  
HETATM    4  C   UNL     1     -11.931   6.564  71.976  1.00  0.00    -0.372 A  
HETATM    5  N   UNL     1     -11.446   7.318  69.748  1.00  0.00    -0.068 NA 
HETATM    6  C   UNL     1     -12.319   6.993  70.723  1.00  0.00    -0.258 A  
HETATM    7  C   UNL     1     -10.114   7.286  70.036  1.00  0.00    -0.190 A  
ENDROOT
BRANCH   3   8
HETATM    8  O   UNL     1     -10.304   6.059  73.540  1.00  0.00    -0.210 OA 
BRANCH   8   9
HETATM    9  C   UNL     1     -10.884   4.798  73.910  1.00  0.00    -0.294 C  
HETATM   10  C   UNL     1     -10.081   3.597  73.418  1.00  0.00    -0.136 C  
HETATM   11  F   UNL     1     -10.749   2.931  72.442  1.00  0.00    -0.195 F  
HETATM   12  F   UNL     1      -9.882   2.712  74.428  1.00  0.00    -0.111 F  
HETATM   13  F   UNL     1      -8.864   3.921  72.926  1.00  0.00    -0.095 F  
ENDBRANCH   8   9
ENDBRANCH   3   8
BRANCH   7  14
HETATM   14  C   UNL     1      -9.209   7.584  68.855  1.00  0.00    -0.142 C  
BRANCH  14  15
HETATM   15  S   UNL     1      -8.177   9.036  69.136  1.00  0.00    -0.124 S  
HETATM   16  O   UNL     1      -6.801   8.889  68.552  1.00  0.00    -0.062 OA 
BRANCH  15  17
HETATM   17  C   UNL     1      -8.988  10.208  68.142  1.00  0.00    -0.122 A  
HETATM   18  N   UNL     1      -8.598  10.611  66.951  1.00  0.00    -0.125 NA 
HETATM   19  C   UNL     1      -9.656  11.340  66.453  1.00  0.00    -0.198 A  
HETATM   20  H   UNL     1      -7.705  10.424  66.495  1.00  0.00     0.000 HD 
HETATM   21  C   UNL     1      -9.817  11.950  65.199  1.00  0.00    -0.243 A  
HETATM   22  C   UNL     1     -11.045  12.550  64.893  1.00  0.00    -0.336 A  
HETATM   23  C   UNL     1     -12.088  12.558  65.824  1.00  0.00    -0.443 A  
HETATM   24  C   UNL     1     -11.933  11.993  67.095  1.00  0.00    -0.105 A  
HETATM   25  C   UNL     1     -10.699  11.398  67.373  1.00  0.00    -0.232 A  
HETATM   26  N   UNL     1     -10.205  10.746  68.475  1.00  0.00    -0.170 NA 
ENDBRANCH  15  17
ENDBRANCH  14  15
ENDBRANCH   7  14
TORSDOF 5
ENDMDL
MODEL      241
REMARK 921   NORMALIZED FREE ENERGY PREDICTED BY IDOCK:   -3.21 KCAL/MOL
REMARK 922        TOTAL FREE ENERGY PREDICTED BY IDOCK:   -4.92 KCAL/MOL
REMARK 923 INTER-LIGAND FREE ENERGY PREDICTED BY IDOCK:   -5.93 KCAL/MOL
REMARK 924 INTRA-LIGAND FREE ENERGY PREDICTED BY IDOCK:    1.01 KCAL/MOL
REMARK 927      BINDING AFFINITY PREDICTED BY RF-SCORE:    0.00 PKD
ROOT
HETATM    1  C   UNL     1      -8.710  15.447  70.197  1.00  0.00     0.582 C  
HETATM    2  C   UNL     1      -9.105  16.296  69.025  1.00  0.00    -0.255 A  
HETATM    3  C   UNL     1     -10.394  16.848  68.903  1.00  0.00    -0.333 A  
HETATM    4  C   UNL     1     -10.655  17.786  67.906  1.00  0.00    -0.389 A  
HETATM    5  N   UNL     1      -8.441  17.497  67.021  1.00  0.00    -0.227 NA 
HETATM    6  C   UNL     1      -9.650  18.094  67.012  1.00  0.00    -0.287 A  
HETATM    7  C   UNL     1      -8.174  16.594  68.006  1.00  0.00    -0.185 A  
ENDROOT
BRANCH   3   8
HETATM    8  O   UNL     1     -11.469  16.615  69.727  1.00  0.00    -0.063 OA 
BRANCH   8   9
HETATM    9  C   UNL     1     -11.315  15.578  70.708  1.00  0.00    -0.355 C  
HETATM   10  C   UNL     1     -12.327  14.446  70.555  1.00  0.00    -0.345 C  
HETATM   11  F   UNL     1     -13.218  14.448  71.580  1.00  0.00    -0.354 F  
HETATM   12  F   UNL     1     -11.704  13.241  70.584  1.00  0.00    -0.328 F  
HETATM   13  F   UNL     1     -13.035  14.502  69.405  1.00  0.00    -0.084 F  
ENDBRANCH   8   9
ENDBRANCH   3   8
BRANCH   7  14
HETATM   14  C   UNL     1      -6.823  15.913  67.884  1.00  0.00    -0.143 C  
BRANCH  14  15
HETATM   15  S   UNL     1      -6.974  14.128  67.679  1.00  0.00    -0.162 S  
HETATM   16  O   UNL     1      -7.048  13.400  68.991  1.00  0.00    -0.105 OA 
BRANCH  15  17
HETATM   17  C   UNL     1      -8.563  14.014  66.986  1.00  0.00    -0.174 A  
HETATM   18  N   UNL     1      -8.973  14.620  65.892  1.00  0.00    -0.406 NA 
HETATM   19  C   UNL     1     -10.193  14.052  65.600  1.00  0.00    -0.334 A  
HETATM   20  H   UNL     1      -8.491  15.353  65.372  1.00  0.00     0.000 HD 
HETATM   21  C   UNL     1     -11.049  14.269  64.509  1.00  0.00    -0.321 A  
HETATM   22  C   UNL     1     -12.199  13.479  64.385  1.00  0.00    -0.440 A  
HETATM   23  C   UNL     1     -12.500  12.502  65.338  1.00  0.00    -0.311 A  
HETATM   24  C   UNL     1     -11.682  12.298  66.455  1.00  0.00    -0.420 A  
HETATM   25  C   UNL     1     -10.540  13.098  66.552  1.00  0.00    -0.284 A  
HETATM   26  N   UNL     1      -9.525  13.165  67.473  1.00  0.00    -0.205 NA 
ENDBRANCH  15  17
ENDBRANCH  14  15
ENDBRANCH   7  14
TORSDOF 5
ENDMDL
MODEL      242
REMARK 921   NORMALIZED FREE ENERGY PREDICTED BY IDOCK:   -3.17 KCAL/MOL
REMARK 922        TOTAL FREE ENERGY PREDICTED BY IDOCK:   -4.86 KCAL/MOL
REMARK 923 INTER-LIGAND FREE ENERGY PREDICTED BY IDOCK:   -4.86 KCAL/MOL
REMARK 924 INTRA-LIGAND FREE ENERGY PREDICTED BY IDOCK:   -0.00 KCAL/MOL
REMARK 927      BINDING AFFINITY PREDICTED BY RF-SCORE:    0.00 PKD
ROOT
HETATM    1  C   UNL     1      -6.749  15.168  68.753  1.00  0.00    -0.099 C  
HETATM    2  C   UNL     1      -7.856  15.533  67.809  1.00  0.00    -0.158 A  
HETATM    3  C   UNL     1      -7.784  16.664  66.975  1.00  0.00    -0.200 A  
HETATM    4  C   UNL     1      -8.740  16.853  65.979  1.00  0.00    -0.193 A  
HETATM    5  N   UNL     1      -9.954  14.929  66.746  1.00  0.00    -0.241 NA 
HETATM    6  C   UNL     1      -9.784  15.955  65.888  1.00  0.00    -0.351 A  
HETATM    7  C   UNL     1      -9.012  14.728  67.709  1.00  0.00    -0.182 A  
ENDROOT
BRANCH   3   8
HETATM    8  O   UNL     1      -6.799  17.624  66.975  1.00  0.00    -0.156 OA 
BRANCH   8   9
HETATM    9  C   UNL     1      -7.157  18.911  66.450  1.00  0.00    -0.231 C  
HETATM   10  C   UNL     1      -7.455  19.944  67.533  1.00  0.00    -0.279 C  
HETATM   11  F   UNL     1      -8.776  20.259  67.555  1.00  0.00    -0.363 F  
HETATM   12  F   UNL     1      -6.784  21.098  67.290  1.00  0.00    -0.337 F  
HETATM   13  F   UNL     1      -7.116  19.539  68.778  1.00  0.00    -0.322 F  
ENDBRANCH   8   9
ENDBRANCH   3   8
BRANCH   7  14
HETATM   14  C   UNL     1      -9.333  13.605  68.678  1.00  0.00    -0.057 C  
BRANCH  14  15
HETATM   15  S   UNL     1     -10.396  12.350  67.938  1.00  0.00    -0.216 S  
HETATM   16  O   UNL     1     -11.409  12.934  66.994  1.00  0.00    -0.279 OA 
BRANCH  15  17
HETATM   17  C   UNL     1      -9.254  11.504  66.939  1.00  0.00    -0.176 A  
HETATM   18  N   UNL     1      -8.297  10.707  67.366  1.00  0.00    -0.118 NA 
HETATM   19  C   UNL     1      -7.815  10.084  66.235  1.00  0.00    -0.111 A  
HETATM   20  H   UNL     1      -7.981  10.577  68.327  1.00  0.00     0.000 HD 
HETATM   21  C   UNL     1      -6.837   9.086  66.106  1.00  0.00    -0.081 A  
HETATM   22  C   UNL     1      -6.597   8.535  64.841  1.00  0.00    -0.068 A  
HETATM   23  C   UNL     1      -7.308   8.980  63.722  1.00  0.00    -0.101 A  
HETATM   24  C   UNL     1      -8.258  10.003  63.823  1.00  0.00    -0.161 A  
HETATM   25  C   UNL     1      -8.479  10.532  65.097  1.00  0.00    -0.166 A  
HETATM   26  N   UNL     1      -9.324  11.506  65.568  1.00  0.00    -0.214 NA 
ENDBRANCH  15  17
ENDBRANCH  14  15
ENDBRANCH   7  14
TORSDOF 5
ENDMDL
MODEL      243
REMARK 921   NORMALIZED FREE ENERGY PREDICTED BY IDOCK:   -3.10 KCAL/MOL
REMARK 922        TOTAL FREE ENERGY PREDICTED BY IDOCK:   -4.78 KCAL/MOL
REMARK 923 INTER-LIGAND FREE ENERGY PREDICTED BY IDOCK:   -4.17 KCAL/MOL
REMARK 924 INTRA-LIGAND FREE ENERGY PREDICTED BY IDOCK:   -0.61 KCAL/MOL
REMARK 927      BINDING AFFINITY PREDICTED BY RF-SCORE:    0.00 PKD
ROOT
HETATM    1  C   UNL     1      -8.295   8.717  69.593  1.00  0.00    -0.126 C  
HETATM    2  C   UNL     1      -8.357   7.880  68.350  1.00  0.00    -0.124 A  
HETATM    3  C   UNL     1      -8.137   6.490  68.374  1.00  0.00    -0.111 A  
HETATM    4  C   UNL     1      -8.398   5.727  67.238  1.00  0.00    -0.104 A  
HETATM    5  N   UNL     1      -8.900   7.715  65.989  1.00  0.00    -0.166 NA 
HETATM    6  C   UNL     1      -8.796   6.375  66.087  1.00  0.00    -0.150 A  
HETATM    7  C   UNL     1      -8.666   8.465  67.103  1.00  0.00    -0.126 A  
ENDROOT
BRANCH   3   8
HETATM    8  O   UNL     1      -7.739   5.740  69.455  1.00  0.00    -0.088 OA 
BRANCH   8   9
HETATM    9  C   UNL     1      -8.668   4.753  69.931  1.00  0.00    -0.085 C  
HETATM   10  C   UNL     1      -9.262   5.091  71.295  1.00  0.00    -0.145 C  
HETATM   11  F   UNL     1      -8.804   4.242  72.250  1.00  0.00    -0.103 F  
HETATM   12  F   UNL     1     -10.612   4.959  71.273  1.00  0.00    -0.271 F  
HETATM   13  F   UNL     1      -8.991   6.349  71.709  1.00  0.00    -0.138 F  
ENDBRANCH   8   9
ENDBRANCH   3   8
BRANCH   7  14
HETATM   14  C   UNL     1      -8.723   9.964  66.875  1.00  0.00    -0.128 C  
BRANCH  14  15
HETATM   15  S   UNL     1      -7.100  10.737  67.015  1.00  0.00    -0.112 S  
HETATM   16  O   UNL     1      -6.349  10.744  65.714  1.00  0.00    -0.130 OA 
BRANCH  15  17
HETATM   17  C   UNL     1      -7.551  12.389  67.307  1.00  0.00    -0.141 A  
HETATM   18  N   UNL     1      -6.737  13.424  67.303  1.00  0.00    -0.435 NA 
HETATM   19  C   UNL     1      -7.558  14.529  67.336  1.00  0.00    -0.184 A  
HETATM   20  H   UNL     1      -5.718  13.409  67.281  1.00  0.00     0.000 HD 
HETATM   21  C   UNL     1      -7.232  15.893  67.282  1.00  0.00    -0.251 A  
HETATM   22  C   UNL     1      -8.269  16.833  67.223  1.00  0.00    -0.198 A  
HETATM   23  C   UNL     1      -9.606  16.424  67.234  1.00  0.00    -0.235 A  
HETATM   24  C   UNL     1      -9.952  15.071  67.330  1.00  0.00    -0.233 A  
HETATM   25  C   UNL     1      -8.898  14.155  67.383  1.00  0.00    -0.206 A  
HETATM   26  N   UNL     1      -8.856  12.785  67.459  1.00  0.00    -0.176 NA 
ENDBRANCH  15  17
ENDBRANCH  14  15
ENDBRANCH   7  14
TORSDOF 5
ENDMDL
MODEL      244
REMARK 921   NORMALIZED FREE ENERGY PREDICTED BY IDOCK:   -2.67 KCAL/MOL
REMARK 922        TOTAL FREE ENERGY PREDICTED BY IDOCK:   -4.22 KCAL/MOL
REMARK 923 INTER-LIGAND FREE ENERGY PREDICTED BY IDOCK:   -5.13 KCAL/MOL
REMARK 924 INTRA-LIGAND FREE ENERGY PREDICTED BY IDOCK:    0.91 KCAL/MOL
REMARK 927      BINDING AFFINITY PREDICTED BY RF-SCORE:    0.00 PKD
ROOT
HETATM    1  C   UNL     1      -8.188  17.728  69.576  1.00  0.00     0.662 C  
HETATM    2  C   UNL     1      -7.748  17.580  68.149  1.00  0.00    -0.231 A  
HETATM    3  C   UNL     1      -7.778  18.656  67.243  1.00  0.00    -0.231 A  
HETATM    4  C   UNL     1      -7.179  18.526  65.992  1.00  0.00    -0.290 A  
HETATM    5  N   UNL     1      -6.691  16.218  66.439  1.00  0.00    -0.028 NA 
HETATM    6  C   UNL     1      -6.632  17.307  65.647  1.00  0.00     0.478 A  
HETATM    7  C   UNL     1      -7.259  16.345  67.671  1.00  0.00    -0.134 A  
ENDROOT
BRANCH   3   8
HETATM    8  O   UNL     1      -8.296  19.909  67.472  1.00  0.00    -0.305 OA 
BRANCH   8   9
HETATM    9  C   UNL     1      -9.346  20.342  66.594  1.00  0.00    -0.330 C  
HETATM   10  C   UNL     1     -10.562  19.420  66.605  1.00  0.00    -0.467 C  
HETATM   11  F   UNL     1     -10.679  18.752  65.429  1.00  0.00    -0.484 F  
HETATM   12  F   UNL     1     -11.703  20.139  66.759  1.00  0.00     0.163 F  
HETATM   13  F   UNL     1     -10.535  18.498  67.593  1.00  0.00    -0.357 F  
ENDBRANCH   8   9
ENDBRANCH   3   8
BRANCH   7  14
HETATM   14  C   UNL     1      -7.356  15.048  68.454  1.00  0.00    -0.112 C  
BRANCH  14  15
HETATM   15  S   UNL     1      -9.055  14.652  68.909  1.00  0.00    -0.100 S  
HETATM   16  O   UNL     1      -9.794  15.835  69.468  1.00  0.00    -0.259 OA 
BRANCH  15  17
HETATM   17  C   UNL     1      -9.751  14.359  67.344  1.00  0.00    -0.220 A  
HETATM   18  N   UNL     1      -9.280  13.533  66.433  1.00  0.00    -0.451 NA 
HETATM   19  C   UNL     1     -10.271  13.445  65.480  1.00  0.00    -0.290 A  
HETATM   20  H   UNL     1      -8.377  13.060  66.433  1.00  0.00     0.000 HD 
HETATM   21  C   UNL     1     -10.336  12.658  64.320  1.00  0.00    -0.399 A  
HETATM   22  C   UNL     1     -11.513  12.669  63.561  1.00  0.00    -0.557 A  
HETATM   23  C   UNL     1     -12.599  13.463  63.940  1.00  0.00    -0.186 A  
HETATM   24  C   UNL     1     -12.539  14.288  65.069  1.00  0.00    -0.360 A  
HETATM   25  C   UNL     1     -11.355  14.254  65.810  1.00  0.00    -0.326 A  
HETATM   26  N   UNL     1     -10.953  14.895  66.955  1.00  0.00    -0.320 NA 
ENDBRANCH  15  17
ENDBRANCH  14  15
ENDBRANCH   7  14
TORSDOF 5
ENDMDL
MODEL      245
REMARK 921   NORMALIZED FREE ENERGY PREDICTED BY IDOCK:   -2.60 KCAL/MOL
REMARK 922        TOTAL FREE ENERGY PREDICTED BY IDOCK:   -4.13 KCAL/MOL
REMARK 923 INTER-LIGAND FREE ENERGY PREDICTED BY IDOCK:   -3.82 KCAL/MOL
REMARK 924 INTRA-LIGAND FREE ENERGY PREDICTED BY IDOCK:   -0.31 KCAL/MOL
REMARK 927      BINDING AFFINITY PREDICTED BY RF-SCORE:    0.00 PKD
ROOT
HETATM    1  C   UNL     1      -8.169  10.921  68.605  1.00  0.00    -0.146 C  
HETATM    2  C   UNL     1      -9.071   9.836  68.096  1.00  0.00    -0.125 A  
HETATM    3  C   UNL     1     -10.037  10.073  67.100  1.00  0.00    -0.212 A  
HETATM    4  C   UNL     1     -10.713   9.001  66.521  1.00  0.00     0.074 A  
HETATM    5  N   UNL     1      -9.640   7.476  68.033  1.00  0.00    -0.142 NA 
HETATM    6  C   UNL     1     -10.466   7.731  66.999  1.00  0.00    -0.349 A  
HETATM    7  C   UNL     1      -8.962   8.518  68.591  1.00  0.00    -0.139 A  
ENDROOT
BRANCH   3   8
HETATM    8  O   UNL     1     -10.369  11.288  66.551  1.00  0.00    -0.224 OA 
BRANCH   8   9
HETATM    9  C   UNL     1     -11.572  11.905  67.034  1.00  0.00    -0.291 C  
HETATM   10  C   UNL     1     -11.435  13.409  67.251  1.00  0.00    -0.340 C  
HETATM   11  F   UNL     1     -11.468  13.716  68.573  1.00  0.00    -0.267 F  
HETATM   12  F   UNL     1     -12.470  14.071  66.673  1.00  0.00    -0.461 F  
HETATM   13  F   UNL     1     -10.296  13.930  66.743  1.00  0.00    -0.260 F  
ENDBRANCH   8   9
ENDBRANCH   3   8
BRANCH   7  14
HETATM   14  C   UNL     1      -8.124   8.146  69.801  1.00  0.00    -0.116 C  
BRANCH  14  15
HETATM   15  S   UNL     1      -6.617   7.268  69.343  1.00  0.00    -0.041 S  
HETATM   16  O   UNL     1      -6.682   5.802  69.664  1.00  0.00    -0.051 OA 
BRANCH  15  17
HETATM   17  C   UNL     1      -6.692   7.376  67.611  1.00  0.00    -0.066 A  
HETATM   18  N   UNL     1      -7.346   6.557  66.814  1.00  0.00    -0.077 NA 
HETATM   19  C   UNL     1      -7.324   7.162  65.577  1.00  0.00    -0.079 A  
HETATM   20  H   UNL     1      -7.776   5.666  67.060  1.00  0.00     0.000 HD 
HETATM   21  C   UNL     1      -7.924   6.767  64.371  1.00  0.00    -0.096 A  
HETATM   22  C   UNL     1      -7.842   7.621  63.264  1.00  0.00    -0.134 A  
HETATM   23  C   UNL     1      -7.161   8.839  63.351  1.00  0.00    -0.089 A  
HETATM   24  C   UNL     1      -6.520   9.232  64.532  1.00  0.00    -0.077 A  
HETATM   25  C   UNL     1      -6.621   8.363  65.621  1.00  0.00    -0.052 A  
HETATM   26  N   UNL     1      -6.151   8.424  66.909  1.00  0.00    -0.053 NA 
ENDBRANCH  15  17
ENDBRANCH  14  15
ENDBRANCH   7  14
TORSDOF 5
ENDMDL
MODEL      246
REMARK 921   NORMALIZED FREE ENERGY PREDICTED BY IDOCK:   -2.47 KCAL/MOL
REMARK 922        TOTAL FREE ENERGY PREDICTED BY IDOCK:   -3.96 KCAL/MOL
REMARK 923 INTER-LIGAND FREE ENERGY PREDICTED BY IDOCK:   -3.57 KCAL/MOL
REMARK 924 INTRA-LIGAND FREE ENERGY PREDICTED BY IDOCK:   -0.39 KCAL/MOL
REMARK 927      BINDING AFFINITY PREDICTED BY RF-SCORE:    0.00 PKD
ROOT
HETATM    1  C   UNL     1      -7.458   7.059  69.134  1.00  0.00    -0.095 C  
HETATM    2  C   UNL     1      -7.595   6.647  67.698  1.00  0.00    -0.106 A  
HETATM    3  C   UNL     1      -7.016   5.463  67.203  1.00  0.00    -0.065 A  
HETATM    4  C   UNL     1      -7.332   5.021  65.920  1.00  0.00    -0.077 A  
HETATM    5  N   UNL     1      -8.629   7.005  65.530  1.00  0.00    -0.122 NA 
HETATM    6  C   UNL     1      -8.154   5.806  65.136  1.00  0.00    -0.133 A  
HETATM    7  C   UNL     1      -8.339   7.432  66.791  1.00  0.00    -0.122 A  
ENDROOT
BRANCH   3   8
HETATM    8  O   UNL     1      -6.185   4.607  67.885  1.00  0.00    -0.033 OA 
BRANCH   8   9
HETATM    9  C   UNL     1      -6.671   3.273  68.098  1.00  0.00    -0.045 C  
HETATM   10  C   UNL     1      -7.005   2.977  69.558  1.00  0.00    -0.041 C  
HETATM   11  F   UNL     1      -6.124   2.092  70.090  1.00  0.00    -0.020 F  
HETATM   12  F   UNL     1      -8.234   2.411  69.660  1.00  0.00    -0.052 F  
HETATM   13  F   UNL     1      -7.003   4.074  70.348  1.00  0.00    -0.032 F  
ENDBRANCH   8   9
ENDBRANCH   3   8
BRANCH   7  14
HETATM   14  C   UNL     1      -8.844   8.827  67.113  1.00  0.00    -0.127 C  
BRANCH  14  15
HETATM   15  S   UNL     1      -8.834   9.905  65.669  1.00  0.00    -0.169 S  
HETATM   16  O   UNL     1      -9.817   9.474  64.618  1.00  0.00    -0.028 OA 
BRANCH  15  17
HETATM   17  C   UNL     1      -9.483  11.366  66.350  1.00  0.00    -0.204 A  
HETATM   18  N   UNL     1      -8.872  12.532  66.398  1.00  0.00    -0.415 NA 
HETATM   19  C   UNL     1      -9.841  13.430  66.790  1.00  0.00    -0.265 A  
HETATM   20  H   UNL     1      -7.894  12.728  66.190  1.00  0.00     0.000 HD 
HETATM   21  C   UNL     1      -9.768  14.823  66.941  1.00  0.00    -0.247 A  
HETATM   22  C   UNL     1     -10.935  15.531  67.252  1.00  0.00    -0.303 A  
HETATM   23  C   UNL     1     -12.151  14.863  67.425  1.00  0.00    -0.024 A  
HETATM   24  C   UNL     1     -12.237  13.470  67.320  1.00  0.00    -0.305 A  
HETATM   25  C   UNL     1     -11.058  12.789  67.005  1.00  0.00    -0.278 A  
HETATM   26  N   UNL     1     -10.772  11.461  66.808  1.00  0.00    -0.259 NA 
ENDBRANCH  15  17
ENDBRANCH  14  15
ENDBRANCH   7  14
TORSDOF 5
ENDMDL
MODEL      247
REMARK 921   NORMALIZED FREE ENERGY PREDICTED BY IDOCK:   -2.43 KCAL/MOL
REMARK 922        TOTAL FREE ENERGY PREDICTED BY IDOCK:   -3.91 KCAL/MOL
REMARK 923 INTER-LIGAND FREE ENERGY PREDICTED BY IDOCK:   -3.64 KCAL/MOL
REMARK 924 INTRA-LIGAND FREE ENERGY PREDICTED BY IDOCK:   -0.27 KCAL/MOL
REMARK 927      BINDING AFFINITY PREDICTED BY RF-SCORE:    0.00 PKD
ROOT
HETATM    1  C   UNL     1     -12.099  15.976  68.898  1.00  0.00     0.019 C  
HETATM    2  C   UNL     1     -10.818  15.765  68.146  1.00  0.00    -0.307 A  
HETATM    3  C   UNL     1     -10.328  16.709  67.225  1.00  0.00    -0.298 A  
HETATM    4  C   UNL     1      -9.045  16.565  66.701  1.00  0.00    -0.283 A  
HETATM    5  N   UNL     1      -8.794  14.461  67.830  1.00  0.00    -0.171 NA 
HETATM    6  C   UNL     1      -8.313  15.448  67.048  1.00  0.00    -0.236 A  
HETATM    7  C   UNL     1     -10.040  14.606  68.361  1.00  0.00    -0.237 A  
ENDROOT
BRANCH   3   8
HETATM    8  O   UNL     1     -10.964  17.852  66.803  1.00  0.00    -0.111 OA 
BRANCH   8   9
HETATM    9  C   UNL     1     -11.359  18.782  67.823  1.00  0.00     0.586 C  
HETATM   10  C   UNL     1     -10.201  19.616  68.362  1.00  0.00    -0.441 C  
HETATM   11  F   UNL     1      -9.905  19.270  69.641  1.00  0.00    -0.314 F  
HETATM   12  F   UNL     1     -10.530  20.933  68.382  1.00  0.00    -0.242 F  
HETATM   13  F   UNL     1      -9.065  19.500  67.639  1.00  0.00    -0.324 F  
ENDBRANCH   8   9
ENDBRANCH   3   8
BRANCH   7  14
HETATM   14  C   UNL     1     -10.527  13.409  69.156  1.00  0.00     0.064 C  
BRANCH  14  15
HETATM   15  S   UNL     1     -10.968  12.019  68.095  1.00  0.00    -0.249 S  
HETATM   16  O   UNL     1     -10.811  12.334  66.634  1.00  0.00    -0.242 OA 
BRANCH  15  17
HETATM   17  C   UNL     1      -9.694  10.902  68.476  1.00  0.00    -0.183 A  
HETATM   18  N   UNL     1      -9.686   9.616  68.194  1.00  0.00    -0.144 NA 
HETATM   19  C   UNL     1      -8.400   9.197  68.457  1.00  0.00    -0.123 A  
HETATM   20  H   UNL     1     -10.464   9.051  67.855  1.00  0.00     0.000 HD 
HETATM   21  C   UNL     1      -7.809   7.937  68.273  1.00  0.00    -0.120 A  
HETATM   22  C   UNL     1      -6.438   7.792  68.520  1.00  0.00    -0.052 A  
HETATM   23  C   UNL     1      -5.673   8.877  68.957  1.00  0.00    -0.040 A  
HETATM   24  C   UNL     1      -6.251  10.130  69.187  1.00  0.00    -0.040 A  
HETATM   25  C   UNL     1      -7.620  10.248  68.929  1.00  0.00    -0.094 A  
HETATM   26  N   UNL     1      -8.498  11.299  69.020  1.00  0.00    -0.056 NA 
ENDBRANCH  15  17
ENDBRANCH  14  15
ENDBRANCH   7  14
TORSDOF 5
ENDMDL
MODEL      248
REMARK 921   NORMALIZED FREE ENERGY PREDICTED BY IDOCK:   -1.91 KCAL/MOL
REMARK 922        TOTAL FREE ENERGY PREDICTED BY IDOCK:   -3.24 KCAL/MOL
REMARK 923 INTER-LIGAND FREE ENERGY PREDICTED BY IDOCK:   -5.50 KCAL/MOL
REMARK 924 INTRA-LIGAND FREE ENERGY PREDICTED BY IDOCK:    2.26 KCAL/MOL
REMARK 927      BINDING AFFINITY PREDICTED BY RF-SCORE:    0.00 PKD
ROOT
HETATM    1  C   UNL     1      -8.316  15.007  66.956  1.00  0.00    -0.254 C  
HETATM    2  C   UNL     1      -8.196  13.630  67.540  1.00  0.00    -0.189 A  
HETATM    3  C   UNL     1      -8.658  12.487  66.860  1.00  0.00    -0.158 A  
HETATM    4  C   UNL     1      -8.349  11.219  67.347  1.00  0.00    -0.137 A  
HETATM    5  N   UNL     1      -7.303  12.189  69.279  1.00  0.00     0.073 NA 
HETATM    6  C   UNL     1      -7.656  11.121  68.536  1.00  0.00    -0.120 A  
HETATM    7  C   UNL     1      -7.585  13.432  68.797  1.00  0.00    -0.047 A  
ENDROOT
BRANCH   3   8
HETATM    8  O   UNL     1      -9.357  12.462  65.677  1.00  0.00    -0.107 OA 
BRANCH   8   9
HETATM    9  C   UNL     1     -10.672  11.887  65.719  1.00  0.00    -0.284 C  
HETATM   10  C   UNL     1     -11.591  12.555  66.737  1.00  0.00    -0.382 C  
HETATM   11  F   UNL     1     -11.853  11.723  67.777  1.00  0.00    -0.372 F  
HETATM   12  F   UNL     1     -12.787  12.859  66.171  1.00  0.00    -0.227 F  
HETATM   13  F   UNL     1     -11.091  13.701  67.251  1.00  0.00    -0.275 F  
ENDBRANCH   8   9
ENDBRANCH   3   8
BRANCH   7  14
HETATM   14  C   UNL     1      -7.228  14.567  69.740  1.00  0.00    -0.005 C  
BRANCH  14  15
HETATM   15  S   UNL     1      -6.145  15.782  68.964  1.00  0.00    -0.122 S  
HETATM   16  O   UNL     1      -5.528  15.277  67.690  1.00  0.00    -0.264 OA 
BRANCH  15  17
HETATM   17  C   UNL     1      -7.300  16.987  68.484  1.00  0.00    -0.220 A  
HETATM   18  N   UNL     1      -8.494  17.165  69.010  1.00  0.00    -0.173 NA 
HETATM   19  C   UNL     1      -8.941  18.362  68.494  1.00  0.00    -0.315 A  
HETATM   20  H   UNL     1      -8.982  16.550  69.660  1.00  0.00     0.000 HD 
HETATM   21  C   UNL     1     -10.121  19.072  68.762  1.00  0.00    -0.429 A  
HETATM   22  C   UNL     1     -10.297  20.334  68.180  1.00  0.00    -0.357 A  
HETATM   23  C   UNL     1      -9.322  20.872  67.334  1.00  0.00    -0.327 A  
HETATM   24  C   UNL     1      -8.158  20.162  67.021  1.00  0.00    -0.368 A  
HETATM   25  C   UNL     1      -8.007  18.908  67.618  1.00  0.00    -0.250 A  
HETATM   26  N   UNL     1      -7.014  17.961  67.561  1.00  0.00    -0.191 NA 
ENDBRANCH  15  17
ENDBRANCH  14  15
ENDBRANCH   7  14
TORSDOF 5
ENDMDL
MODEL      249
REMARK 921   NORMALIZED FREE ENERGY PREDICTED BY IDOCK:   -0.30 KCAL/MOL
REMARK 922        TOTAL FREE ENERGY PREDICTED BY IDOCK:   -1.16 KCAL/MOL
REMARK 923 INTER-LIGAND FREE ENERGY PREDICTED BY IDOCK:   -3.58 KCAL/MOL
REMARK 924 INTRA-LIGAND FREE ENERGY PREDICTED BY IDOCK:    2.41 KCAL/MOL
REMARK 927      BINDING AFFINITY PREDICTED BY RF-SCORE:    0.00 PKD
ROOT
HETATM    1  C   UNL     1     -10.942  10.516  69.408  1.00  0.00    -0.297 C  
HETATM    2  C   UNL     1     -10.749   9.131  68.865  1.00  0.00    -0.167 A  
HETATM    3  C   UNL     1     -11.043   7.983  69.624  1.00  0.00    -0.015 A  
HETATM    4  C   UNL     1     -11.037   6.729  69.017  1.00  0.00    -0.254 A  
HETATM    5  N   UNL     1     -10.260   7.701  66.963  1.00  0.00    -0.272 NA 
HETATM    6  C   UNL     1     -10.666   6.641  67.691  1.00  0.00    -0.302 A  
HETATM    7  C   UNL     1     -10.283   8.933  67.547  1.00  0.00    -0.248 A  
ENDROOT
BRANCH   3   8
HETATM    8  O   UNL     1     -11.419   7.946  70.946  1.00  0.00    -0.280 OA 
BRANCH   8   9
HETATM    9  C   UNL     1     -10.377   7.716  71.906  1.00  0.00    -0.199 C  
HETATM   10  C   UNL     1      -9.086   7.192  71.282  1.00  0.00    -0.151 C  
HETATM   11  F   UNL     1      -8.865   5.899  71.634  1.00  0.00    -0.135 F  
HETATM   12  F   UNL     1      -8.019   7.903  71.725  1.00  0.00    -0.084 F  
HETATM   13  F   UNL     1      -9.072   7.251  69.932  1.00  0.00    -0.141 F  
ENDBRANCH   8   9
ENDBRANCH   3   8
BRANCH   7  14
HETATM   14  C   UNL     1      -9.729  10.048  66.680  1.00  0.00    -0.194 C  
BRANCH  14  15
HETATM   15  S   UNL     1      -7.931  10.153  66.770  1.00  0.00    -0.117 S  
HETATM   16  O   UNL     1      -7.401   9.832  68.139  1.00  0.00    -0.079 OA 
BRANCH  15  17
HETATM   17  C   UNL     1      -7.477   8.812  65.763  1.00  0.00    -0.085 A  
HETATM   18  N   UNL     1      -7.375   7.557  66.148  1.00  0.00    -0.080 NA 
HETATM   19  C   UNL     1      -7.235   6.834  64.984  1.00  0.00    -0.074 A  
HETATM   20  H   UNL     1      -7.395   7.199  67.102  1.00  0.00     0.000 HD 
HETATM   21  C   UNL     1      -7.151   5.446  64.793  1.00  0.00    -0.054 A  
HETATM   22  C   UNL     1      -7.119   4.945  63.485  1.00  0.00    -0.048 A  
HETATM   23  C   UNL     1      -7.153   5.810  62.388  1.00  0.00    -0.044 A  
HETATM   24  C   UNL     1      -7.194   7.199  62.558  1.00  0.00    -0.078 A  
HETATM   25  C   UNL     1      -7.229   7.671  63.872  1.00  0.00    -0.081 A  
HETATM   26  N   UNL     1      -7.290   8.933  64.409  1.00  0.00    -0.097 NA 
ENDBRANCH  15  17
ENDBRANCH  14  15
ENDBRANCH   7  14
TORSDOF 5
ENDMDL
MODEL      250
REMARK 921   NORMALIZED FREE ENERGY PREDICTED BY IDOCK:    4.51 KCAL/MOL
REMARK 922        TOTAL FREE ENERGY PREDICTED BY IDOCK:    5.06 KCAL/MOL
REMARK 923 INTER-LIGAND FREE ENERGY PREDICTED BY IDOCK:    4.59 KCAL/MOL
REMARK 924 INTRA-LIGAND FREE ENERGY PREDICTED BY IDOCK:    0.47 KCAL/MOL
REMARK 927      BINDING AFFINITY PREDICTED BY RF-SCORE:    0.00 PKD
ROOT
HETATM    1  C   UNL     1     -10.277   9.306  73.069  1.00  0.00     2.567 C  
HETATM    2  C   UNL     1      -9.184   8.501  72.431  1.00  0.00    -0.328 A  
HETATM    3  C   UNL     1      -8.996   7.136  72.718  1.00  0.00    -0.133 A  
HETATM    4  C   UNL     1      -8.101   6.385  71.959  1.00  0.00    -0.108 A  
HETATM    5  N   UNL     1      -7.424   8.354  70.764  1.00  0.00    -0.060 NA 
HETATM    6  C   UNL     1      -7.362   7.026  70.986  1.00  0.00    -0.077 A  
HETATM    7  C   UNL     1      -8.312   9.090  71.489  1.00  0.00     0.000 A  
ENDROOT
BRANCH   3   8
HETATM    8  O   UNL     1      -9.668   6.395  73.660  1.00  0.00    -0.155 OA 
BRANCH   8   9
HETATM    9  C   UNL     1      -9.516   4.969  73.585  1.00  0.00    -0.129 C  
HETATM   10  C   UNL     1     -10.728   4.263  72.985  1.00  0.00    -0.192 C  
HETATM   11  F   UNL     1     -11.384   3.536  73.926  1.00  0.00    -0.282 F  
HETATM   12  F   UNL     1     -10.342   3.391  72.019  1.00  0.00    -0.233 F  
HETATM   13  F   UNL     1     -11.626   5.104  72.426  1.00  0.00    -0.250 F  
ENDBRANCH   8   9
ENDBRANCH   3   8
BRANCH   7  14
HETATM   14  C   UNL     1      -8.250  10.584  71.230  1.00  0.00     3.865 C  
BRANCH  14  15
HETATM   15  S   UNL     1      -6.687  11.081  70.480  1.00  0.00     0.697 S  
HETATM   16  O   UNL     1      -5.867   9.909  70.021  1.00  0.00    -0.040 OA 
BRANCH  15  17
HETATM   17  C   UNL     1      -7.252  11.856  69.032  1.00  0.00    -0.068 A  
HETATM   18  N   UNL     1      -7.589  11.249  67.913  1.00  0.00    -0.097 NA 
HETATM   19  C   UNL     1      -8.196  12.219  67.146  1.00  0.00    -0.179 A  
HETATM   20  H   UNL     1      -7.434  10.272  67.667  1.00  0.00     0.000 HD 
HETATM   21  C   UNL     1      -8.807  12.118  65.886  1.00  0.00     0.174 A  
HETATM   22  C   UNL     1      -9.455  13.241  65.357  1.00  0.00     0.228 A  
HETATM   23  C   UNL     1      -9.481  14.448  66.062  1.00  0.00    -0.239 A  
HETATM   24  C   UNL     1      -8.842  14.582  67.300  1.00  0.00    -0.221 A  
HETATM   25  C   UNL     1      -8.207  13.445  67.806  1.00  0.00    -0.172 A  
HETATM   26  N   UNL     1      -7.514  13.202  68.965  1.00  0.00     0.020 NA 
ENDBRANCH  15  17
ENDBRANCH  14  15
ENDBRANCH   7  14
TORSDOF 5
ENDMDL
MODEL      251
REMARK 921   NORMALIZED FREE ENERGY PREDICTED BY IDOCK:    4.63 KCAL/MOL
REMARK 922        TOTAL FREE ENERGY PREDICTED BY IDOCK:    5.22 KCAL/MOL
REMARK 923 INTER-LIGAND FREE ENERGY PREDICTED BY IDOCK:   -2.97 KCAL/MOL
REMARK 924 INTRA-LIGAND FREE ENERGY PREDICTED BY IDOCK:    8.19 KCAL/MOL
REMARK 927      BINDING AFFINITY PREDICTED BY RF-SCORE:    0.00 PKD
ROOT
HETATM    1  C   UNL     1      -7.516  16.298  67.101  1.00  0.00    -0.238 C  
HETATM    2  C   UNL     1      -7.055  15.373  68.188  1.00  0.00    -0.128 A  
HETATM    3  C   UNL     1      -7.700  14.150  68.453  1.00  0.00    -0.140 A  
HETATM    4  C   UNL     1      -7.123  13.238  69.333  1.00  0.00     0.152 A  
HETATM    5  N   UNL     1      -5.377  14.803  69.850  1.00  0.00    -0.095 NA 
HETATM    6  C   UNL     1      -5.960  13.595  69.984  1.00  0.00    -0.146 A  
HETATM    7  C   UNL     1      -5.927  15.692  68.976  1.00  0.00    -0.106 A  
ENDROOT
BRANCH   3   8
HETATM    8  O   UNL     1      -8.858  13.690  67.872  1.00  0.00    -0.168 OA 
BRANCH   8   9
HETATM    9  C   UNL     1      -8.879  12.307  67.487  1.00  0.00    -0.182 C  
HETATM   10  C   UNL     1      -9.685  12.045  66.218  1.00  0.00    -0.235 C  
HETATM   11  F   UNL     1     -10.822  11.358  66.497  1.00  0.00    -0.283 F  
HETATM   12  F   UNL     1      -8.973  11.282  65.350  1.00  0.00    -0.195 F  
HETATM   13  F   UNL     1     -10.043  13.170  65.560  1.00  0.00    -0.279 F  
ENDBRANCH   8   9
ENDBRANCH   3   8
BRANCH   7  14
HETATM   14  C   UNL     1      -5.253  17.052  68.956  1.00  0.00    -0.135 C  
BRANCH  14  15
HETATM   15  S   UNL     1      -5.454  17.890  67.373  1.00  0.00    -0.137 S  
HETATM   16  O   UNL     1      -5.302  16.960  66.203  1.00  0.00    -0.325 OA 
BRANCH  15  17
HETATM   17  C   UNL     1      -7.142  18.299  67.433  1.00  0.00    -0.200 A  
HETATM   18  N   UNL     1      -7.932  18.161  68.477  1.00  0.00    -0.297 NA 
HETATM   19  C   UNL     1      -9.090  18.829  68.144  1.00  0.00    -0.307 A  
HETATM   20  H   UNL     1      -7.731  17.665  69.345  1.00  0.00     0.000 HD 
HETATM   21  C   UNL     1     -10.245  19.062  68.906  1.00  0.00    -0.289 A  
HETATM   22  C   UNL     1     -11.256  19.871  68.371  1.00  0.00     1.093 A  
HETATM   23  C   UNL     1     -11.125  20.426  67.094  1.00  0.00     0.803 A  
HETATM   24  C   UNL     1      -9.999  20.172  66.302  1.00  0.00    -0.557 A  
HETATM   25  C   UNL     1      -9.006  19.365  66.862  1.00  0.00    -0.310 A  
HETATM   26  N   UNL     1      -7.789  18.929  66.400  1.00  0.00    -0.271 NA 
ENDBRANCH  15  17
ENDBRANCH  14  15
ENDBRANCH   7  14
TORSDOF 5
ENDMDL
MODEL      252
REMARK 921   NORMALIZED FREE ENERGY PREDICTED BY IDOCK:    4.73 KCAL/MOL
REMARK 922        TOTAL FREE ENERGY PREDICTED BY IDOCK:    5.34 KCAL/MOL
REMARK 923 INTER-LIGAND FREE ENERGY PREDICTED BY IDOCK:    3.37 KCAL/MOL
REMARK 924 INTRA-LIGAND FREE ENERGY PREDICTED BY IDOCK:    1.97 KCAL/MOL
REMARK 927      BINDING AFFINITY PREDICTED BY RF-SCORE:    0.00 PKD
ROOT
HETATM    1  C   UNL     1      -8.408  21.066  68.652  1.00  0.00     1.437 C  
HETATM    2  C   UNL     1      -7.743  19.913  67.960  1.00  0.00    -0.323 A  
HETATM    3  C   UNL     1      -7.439  19.941  66.586  1.00  0.00    -0.260 A  
HETATM    4  C   UNL     1      -6.649  18.937  66.029  1.00  0.00    -0.264 A  
HETATM    5  N   UNL     1      -6.618  17.767  68.126  1.00  0.00    -0.187 NA 
HETATM    6  C   UNL     1      -6.246  17.893  66.837  1.00  0.00    -0.160 A  
HETATM    7  C   UNL     1      -7.374  18.756  68.680  1.00  0.00    -0.307 A  
ENDROOT
BRANCH   3   8
HETATM    8  O   UNL     1      -7.788  20.921  65.687  1.00  0.00     0.408 OA 
BRANCH   8   9
HETATM    9  C   UNL     1      -8.781  20.574  64.710  1.00  0.00     1.994 C  
HETATM   10  C   UNL     1     -10.137  20.234  65.321  1.00  0.00     0.413 C  
HETATM   11  F   UNL     1     -10.414  18.911  65.185  1.00  0.00    -0.090 F  
HETATM   12  F   UNL     1     -11.129  20.906  64.684  1.00  0.00     0.203 F  
HETATM   13  F   UNL     1     -10.232  20.533  66.635  1.00  0.00    -0.547 F  
ENDBRANCH   8   9
ENDBRANCH   3   8
BRANCH   7  14
HETATM   14  C   UNL     1      -7.814  18.485  70.107  1.00  0.00     1.792 C  
BRANCH  14  15
HETATM   15  S   UNL     1      -9.606  18.552  70.293  1.00  0.00     2.221 S  
HETATM   16  O   UNL     1     -10.208  19.771  69.655  1.00  0.00    -0.239 OA 
BRANCH  15  17
HETATM   17  C   UNL     1     -10.086  17.213  69.296  1.00  0.00    -0.192 A  
HETATM   18  N   UNL     1     -11.026  16.336  69.581  1.00  0.00    -0.333 NA 
HETATM   19  C   UNL     1     -11.221  15.625  68.418  1.00  0.00    -0.352 A  
HETATM   20  H   UNL     1     -11.506  16.211  70.472  1.00  0.00     0.000 HD 
HETATM   21  C   UNL     1     -12.148  14.612  68.128  1.00  0.00    -0.199 A  
HETATM   22  C   UNL     1     -12.218  14.114  66.820  1.00  0.00    -0.429 A  
HETATM   23  C   UNL     1     -11.369  14.604  65.824  1.00  0.00    -0.340 A  
HETATM   24  C   UNL     1     -10.410  15.585  66.102  1.00  0.00    -0.327 A  
HETATM   25  C   UNL     1     -10.364  16.065  67.413  1.00  0.00    -0.294 A  
HETATM   26  N   UNL     1      -9.589  17.014  68.032  1.00  0.00    -0.254 NA 
ENDBRANCH  15  17
ENDBRANCH  14  15
ENDBRANCH   7  14
TORSDOF 5
ENDMDL
MODEL      253
REMARK 921   NORMALIZED FREE ENERGY PREDICTED BY IDOCK:    7.40 KCAL/MOL
REMARK 922        TOTAL FREE ENERGY PREDICTED BY IDOCK:    8.79 KCAL/MOL
REMARK 923 INTER-LIGAND FREE ENERGY PREDICTED BY IDOCK:   -0.63 KCAL/MOL
REMARK 924 INTRA-LIGAND FREE ENERGY PREDICTED BY IDOCK:    9.41 KCAL/MOL
REMARK 927      BINDING AFFINITY PREDICTED BY RF-SCORE:    0.00 PKD
ROOT
HETATM    1  C   UNL     1     -10.920   9.081  71.093  1.00  0.00    -0.371 C  
HETATM    2  C   UNL     1     -12.092   9.908  71.532  1.00  0.00    -0.496 A  
HETATM    3  C   UNL     1     -12.106  11.309  71.407  1.00  0.00     0.082 A  
HETATM    4  C   UNL     1     -13.285  12.015  71.641  1.00  0.00    -0.361 A  
HETATM    5  N   UNL     1     -14.390   9.992  72.315  1.00  0.00     0.354 NA 
HETATM    6  C   UNL     1     -14.397  11.317  72.066  1.00  0.00     1.524 A  
HETATM    7  C   UNL     1     -13.246   9.295  72.068  1.00  0.00    -0.447 A  
ENDROOT
BRANCH   3   8
HETATM    8  O   UNL     1     -11.065  12.108  70.998  1.00  0.00     1.897 OA 
BRANCH   8   9
HETATM    9  C   UNL     1     -10.720  12.052  69.606  1.00  0.00     0.331 C  
HETATM   10  C   UNL     1     -11.380  13.148  68.775  1.00  0.00    -0.291 C  
HETATM   11  F   UNL     1     -12.318  12.630  67.941  1.00  0.00    -0.327 F  
HETATM   12  F   UNL     1     -10.463  13.769  67.990  1.00  0.00    -0.226 F  
HETATM   13  F   UNL     1     -11.983  14.104  69.516  1.00  0.00    -0.297 F  
ENDBRANCH   8   9
ENDBRANCH   3   8
BRANCH   7  14
HETATM   14  C   UNL     1     -13.308   7.829  72.458  1.00  0.00     0.296 C  
BRANCH  14  15
HETATM   15  S   UNL     1     -11.685   7.045  72.422  1.00  0.00    -0.166 S  
HETATM   16  O   UNL     1     -11.742   5.582  72.762  1.00  0.00    -0.297 OA 
BRANCH  15  17
HETATM   17  C   UNL     1     -11.325   7.120  70.724  1.00  0.00    -0.289 A  
HETATM   18  N   UNL     1     -10.523   7.988  70.144  1.00  0.00    -0.220 NA 
HETATM   19  C   UNL     1     -10.355   7.520  68.859  1.00  0.00    -0.211 A  
HETATM   20  H   UNL     1     -10.114   8.826  70.556  1.00  0.00     0.000 HD 
HETATM   21  C   UNL     1      -9.550   8.013  67.820  1.00  0.00    -0.179 A  
HETATM   22  C   UNL     1      -9.471   7.288  66.624  1.00  0.00    -0.228 A  
HETATM   23  C   UNL     1     -10.192   6.102  66.460  1.00  0.00    -0.181 A  
HETATM   24  C   UNL     1     -11.032   5.615  67.468  1.00  0.00    -0.033 A  
HETATM   25  C   UNL     1     -11.090   6.357  68.651  1.00  0.00    -0.311 A  
HETATM   26  N   UNL     1     -11.771   6.181  69.830  1.00  0.00    -0.179 NA 
ENDBRANCH  15  17
ENDBRANCH  14  15
ENDBRANCH   7  14
TORSDOF 5
ENDMDL
MODEL      254
REMARK 921   NORMALIZED FREE ENERGY PREDICTED BY IDOCK:   27.90 KCAL/MOL
REMARK 922        TOTAL FREE ENERGY PREDICTED BY IDOCK:   35.28 KCAL/MOL
REMARK 923 INTER-LIGAND FREE ENERGY PREDICTED BY IDOCK:   35.53 KCAL/MOL
REMARK 924 INTRA-LIGAND FREE ENERGY PREDICTED BY IDOCK:   -0.25 KCAL/MOL
REMARK 927      BINDING AFFINITY PREDICTED BY RF-SCORE:    0.00 PKD
ROOT
HETATM    1  C   UNL     1     -10.402   9.881  73.751  1.00  0.00    10.601 C  
HETATM    2  C   UNL     1      -9.267   9.104  73.152  1.00  0.00     1.791 A  
HETATM    3  C   UNL     1      -9.077   7.735  73.418  1.00  0.00    -0.276 A  
HETATM    4  C   UNL     1      -8.135   7.012  72.690  1.00  0.00    -0.115 A  
HETATM    5  N   UNL     1      -7.422   9.016  71.576  1.00  0.00    -0.306 NA 
HETATM    6  C   UNL     1      -7.354   7.684  71.771  1.00  0.00    -0.065 A  
HETATM    7  C   UNL     1      -8.356   9.725  72.271  1.00  0.00     3.108 A  
ENDROOT
BRANCH   3   8
HETATM    8  O   UNL     1      -9.787   6.964  74.307  1.00  0.00    -0.293 OA 
BRANCH   8   9
HETATM    9  C   UNL     1      -9.612   5.543  74.209  1.00  0.00    -0.158 C  
HETATM   10  C   UNL     1     -10.781   4.835  73.531  1.00  0.00    -0.273 C  
HETATM   11  F   UNL     1     -11.475   4.078  74.419  1.00  0.00     0.023 F  
HETATM   12  F   UNL     1     -10.332   3.989  72.568  1.00  0.00    -0.217 F  
HETATM   13  F   UNL     1     -11.660   5.677  72.944  1.00  0.00    -0.315 F  
ENDBRANCH   8   9
ENDBRANCH   3   8
BRANCH   7  14
HETATM   14  C   UNL     1      -8.299  11.225  72.048  1.00  0.00    13.029 C  
BRANCH  14  15
HETATM   15  S   UNL     1      -8.075  11.648  70.310  1.00  0.00     3.621 S  
HETATM   16  O   UNL     1      -8.246  10.465  69.400  1.00  0.00    -0.157 OA 
BRANCH  15  17
HETATM   17  C   UNL     1      -9.464  12.656  70.039  1.00  0.00     3.352 A  
HETATM   18  N   UNL     1     -10.682  12.235  69.770  1.00  0.00    -0.179 NA 
HETATM   19  C   UNL     1     -11.482  13.351  69.879  1.00  0.00    -0.111 A  
HETATM   20  H   UNL     1     -10.971  11.287  69.532  1.00  0.00     0.000 HD 
HETATM   21  C   UNL     1     -12.875  13.474  69.762  1.00  0.00     0.402 A  
HETATM   22  C   UNL     1     -13.468  14.716  70.024  1.00  0.00     0.784 A  
HETATM   23  C   UNL     1     -12.687  15.819  70.381  1.00  0.00    -0.202 A  
HETATM   24  C   UNL     1     -11.292  15.727  70.462  1.00  0.00    -0.400 A  
HETATM   25  C   UNL     1     -10.728  14.477  70.199  1.00  0.00     0.146 A  
HETATM   26  N   UNL     1      -9.434  14.018  70.201  1.00  0.00     1.743 NA 
ENDBRANCH  15  17
ENDBRANCH  14  15
ENDBRANCH   7  14
TORSDOF 5
ENDMDL
MODEL      255
REMARK 921   NORMALIZED FREE ENERGY PREDICTED BY IDOCK:   35.24 KCAL/MOL
REMARK 922        TOTAL FREE ENERGY PREDICTED BY IDOCK:   44.78 KCAL/MOL
REMARK 923 INTER-LIGAND FREE ENERGY PREDICTED BY IDOCK:   40.61 KCAL/MOL
REMARK 924 INTRA-LIGAND FREE ENERGY PREDICTED BY IDOCK:    4.16 KCAL/MOL
REMARK 927      BINDING AFFINITY PREDICTED BY RF-SCORE:    0.00 PKD
ROOT
HETATM    1  C   UNL     1      -8.620  20.855  70.702  1.00  0.00     3.169 C  
HETATM    2  C   UNL     1      -8.139  19.498  70.283  1.00  0.00     1.244 A  
HETATM    3  C   UNL     1      -8.303  19.019  68.970  1.00  0.00    -0.180 A  
HETATM    4  C   UNL     1      -7.669  17.842  68.576  1.00  0.00    -0.299 A  
HETATM    5  N   UNL     1      -6.873  17.494  70.815  1.00  0.00     2.117 NA 
HETATM    6  C   UNL     1      -6.952  17.133  69.519  1.00  0.00    -0.032 A  
HETATM    7  C   UNL     1      -7.475  18.655  71.201  1.00  0.00     4.313 A  
ENDROOT
BRANCH   3   8
HETATM    8  O   UNL     1      -8.993  19.633  67.952  1.00  0.00    -0.312 OA 
BRANCH   8   9
HETATM    9  C   UNL     1      -9.431  18.793  66.873  1.00  0.00    -0.310 C  
HETATM   10  C   UNL     1      -8.476  18.792  65.683  1.00  0.00     0.617 C  
HETATM   11  F   UNL     1      -9.029  19.421  64.614  1.00  0.00     2.106 F  
HETATM   12  F   UNL     1      -8.206  17.522  65.289  1.00  0.00     0.355 F  
HETATM   13  F   UNL     1      -7.291  19.392  65.936  1.00  0.00    -0.254 F  
ENDBRANCH   8   9
ENDBRANCH   3   8
BRANCH   7  14
HETATM   14  C   UNL     1      -7.404  18.933  72.691  1.00  0.00     5.611 C  
BRANCH  14  15
HETATM   15  S   UNL     1      -8.931  19.656  73.322  1.00  0.00     5.760 S  
HETATM   16  O   UNL     1      -9.354  20.875  72.553  1.00  0.00     1.902 OA 
BRANCH  15  17
HETATM   17  C   UNL     1     -10.074  18.416  72.907  1.00  0.00     5.921 A  
HETATM   18  N   UNL     1     -11.185  18.141  73.558  1.00  0.00     1.129 NA 
HETATM   19  C   UNL     1     -11.875  17.272  72.742  1.00  0.00     0.998 A  
HETATM   20  H   UNL     1     -11.472  18.495  74.470  1.00  0.00     0.000 HD 
HETATM   21  C   UNL     1     -13.150  16.706  72.904  1.00  0.00     0.671 A  
HETATM   22  C   UNL     1     -13.679  15.926  71.868  1.00  0.00    -0.157 A  
HETATM   23  C   UNL     1     -12.947  15.699  70.699  1.00  0.00    -0.342 A  
HETATM   24  C   UNL     1     -11.658  16.220  70.536  1.00  0.00    -0.223 A  
HETATM   25  C   UNL     1     -11.156  16.997  71.583  1.00  0.00     1.146 A  
HETATM   26  N   UNL     1      -9.971  17.667  71.762  1.00  0.00     5.661 NA 
ENDBRANCH  15  17
ENDBRANCH  14  15
ENDBRANCH   7  14
TORSDOF 5
ENDMDL
