MODEL        1
REMARK 921   NORMALIZED FREE ENERGY PREDICTED BY IDOCK:   -7.77 KCAL/MOL
REMARK 922        TOTAL FREE ENERGY PREDICTED BY IDOCK:  -15.51 KCAL/MOL
REMARK 923 INTER-LIGAND FREE ENERGY PREDICTED BY IDOCK:  -12.76 KCAL/MOL
REMARK 924 INTRA-LIGAND FREE ENERGY PREDICTED BY IDOCK:   -2.75 KCAL/MOL
REMARK 927      BINDING AFFINITY PREDICTED BY RF-SCORE:    0.00 PKD
ROOT
HETATM    1  C   UNL     1     -10.272  19.267  66.741  1.00  0.00    -0.409 C  
HETATM    2  S   UNL     1      -9.592  18.683  68.272  1.00  0.00    -0.366 S  
HETATM    3  O   UNL     1      -9.911  19.654  69.299  1.00  0.00    -0.416 OA 
HETATM    4  O   UNL     1      -8.225  18.274  68.019  1.00  0.00    -0.251 OA 
ENDROOT
BRANCH   2   5
HETATM    5  C   UNL     1     -10.560  17.221  68.570  1.00  0.00    -0.350 C  
BRANCH   5   6
HETATM    6  C   UNL     1      -9.681  16.045  68.970  1.00  0.00    -0.244 C  
BRANCH   6   7
HETATM    7  N   UNL     1     -10.399  15.010  69.722  1.00  0.00    -0.414 NA 
HETATM    8  H   UNL     1     -10.050  14.949  70.678  1.00  0.00     0.000 HD 
BRANCH   7   9
HETATM    9  C   UNL     1     -11.852  15.186  69.711  1.00  0.00    -0.333 C  
BRANCH   9  10
HETATM   10  C   UNL     1     -12.494  14.260  70.680  1.00  0.00    -0.358 A  
HETATM   11  C   UNL     1     -13.349  14.448  71.744  1.00  0.00    -0.446 A  
HETATM   12  C   UNL     1     -13.607  13.164  72.278  1.00  0.00    -0.677 A  
HETATM   13  C   UNL     1     -12.915  12.260  71.497  1.00  0.00    -0.289 A  
HETATM   14  O   UNL     1     -12.241  12.933  70.517  1.00  0.00    -0.368 OA 
BRANCH  13  15
HETATM   15  C   UNL     1     -12.757  10.812  71.497  1.00  0.00    -0.536 A  
HETATM   16  C   UNL     1     -11.606  10.207  70.974  1.00  0.00    -0.462 A  
HETATM   17  C   UNL     1     -11.453   8.794  70.964  1.00  0.00    -0.337 A  
HETATM   18  C   UNL     1     -12.476   7.988  71.487  1.00  0.00    -0.310 A  
HETATM   19  C   UNL     1     -13.607   8.592  71.999  1.00  0.00    -0.451 A  
HETATM   20  N   UNL     1     -12.432   6.657  71.507  1.00  0.00    -0.326 NA 
HETATM   21  C   UNL     1     -11.351   6.096  70.972  1.00  0.00    -0.282 A  
HETATM   22  C   UNL     1     -13.754   9.980  72.009  1.00  0.00    -0.252 A  
HETATM   23  N   UNL     1     -10.323   6.750  70.437  1.00  0.00    -0.195 NA 
HETATM   24  C   UNL     1     -10.352   8.091  70.434  1.00  0.00    -0.206 A  
BRANCH  24  25
HETATM   25  N   UNL     1      -9.295   8.813  69.809  1.00  0.00    -0.160 NA 
HETATM   26  H   UNL     1      -8.419   8.855  70.328  1.00  0.00     0.000 HD 
BRANCH  25  27
HETATM   27  C   UNL     1      -9.303   9.480  68.561  1.00  0.00    -0.137 A  
HETATM   28  C   UNL     1      -8.727  10.734  68.362  1.00  0.00    -0.142 A  
HETATM   29  C   UNL     1      -8.655  11.339  67.105  1.00  0.00    -0.147 A  
HETATM   30  C   UNL     1      -9.144  10.666  65.980  1.00  0.00    -0.180 A  
HETATM   31 CL   UNL     1      -7.976  12.933  67.130  1.00  0.00    -0.144 Cl 
HETATM   32  C   UNL     1      -9.788   9.434  66.175  1.00  0.00    -0.356 A  
HETATM   33  C   UNL     1      -9.871   8.851  67.449  1.00  0.00    -0.247 A  
BRANCH  30  34
HETATM   34  O   UNL     1      -9.096  11.051  64.663  1.00  0.00    -0.189 OA 
BRANCH  34  35
HETATM   35  C   UNL     1     -10.352  11.315  64.042  1.00  0.00    -0.371 C  
BRANCH  35  36
HETATM   36  C   UNL     1     -10.981  12.575  64.576  1.00  0.00    -0.359 A  
HETATM   37  C   UNL     1     -10.261  13.772  64.608  1.00  0.00    -0.313 A  
HETATM   38  C   UNL     1     -10.820  14.892  65.213  1.00  0.00    -0.386 A  
HETATM   39  C   UNL     1     -12.085  14.842  65.789  1.00  0.00    -0.108 A  
HETATM   40  F   UNL     1     -10.119  16.032  65.261  1.00  0.00    -0.349 F  
HETATM   41  C   UNL     1     -12.808  13.655  65.758  1.00  0.00    -0.390 A  
HETATM   42  C   UNL     1     -12.262  12.524  65.156  1.00  0.00    -0.509 A  
ENDBRANCH  35  36
ENDBRANCH  34  35
ENDBRANCH  30  34
ENDBRANCH  25  27
ENDBRANCH  24  25
ENDBRANCH  13  15
ENDBRANCH   9  10
ENDBRANCH   7   9
ENDBRANCH   6   7
ENDBRANCH   5   6
ENDBRANCH   2   5
TORSDOF 11
ENDMDL
MODEL        2
REMARK 921   NORMALIZED FREE ENERGY PREDICTED BY IDOCK:   -7.35 KCAL/MOL
REMARK 922        TOTAL FREE ENERGY PREDICTED BY IDOCK:  -14.82 KCAL/MOL
REMARK 923 INTER-LIGAND FREE ENERGY PREDICTED BY IDOCK:  -13.35 KCAL/MOL
REMARK 924 INTRA-LIGAND FREE ENERGY PREDICTED BY IDOCK:   -1.47 KCAL/MOL
REMARK 927      BINDING AFFINITY PREDICTED BY RF-SCORE:    0.00 PKD
ROOT
HETATM    1  C   UNL     1      -9.344   5.033  72.025  1.00  0.00    -0.137 C  
HETATM    2  S   UNL     1     -10.752   5.842  72.740  1.00  0.00    -0.258 S  
HETATM    3  O   UNL     1     -10.268   6.940  73.552  1.00  0.00    -0.245 OA 
HETATM    4  O   UNL     1     -11.615   4.818  73.293  1.00  0.00    -0.333 OA 
ENDROOT
BRANCH   2   5
HETATM    5  C   UNL     1     -11.553   6.523  71.305  1.00  0.00    -0.327 C  
BRANCH   5   6
HETATM    6  C   UNL     1     -12.925   7.085  71.650  1.00  0.00    -0.352 C  
BRANCH   6   7
HETATM    7  N   UNL     1     -12.877   8.183  72.621  1.00  0.00    -0.586 NA 
HETATM    8  H   UNL     1     -11.928   8.548  72.707  1.00  0.00     0.000 HD 
BRANCH   7   9
HETATM    9  C   UNL     1     -13.823   9.261  72.329  1.00  0.00    -0.426 C  
BRANCH   9  10
HETATM   10  C   UNL     1     -13.169  10.319  71.515  1.00  0.00    -0.386 A  
HETATM   11  C   UNL     1     -12.965  11.668  71.706  1.00  0.00    -0.483 A  
HETATM   12  C   UNL     1     -12.274  12.131  70.562  1.00  0.00    -0.392 A  
HETATM   13  C   UNL     1     -12.073  11.035  69.746  1.00  0.00    -0.353 A  
HETATM   14  O   UNL     1     -12.616   9.928  70.335  1.00  0.00    -0.145 OA 
BRANCH  13  15
HETATM   15  C   UNL     1     -11.438  10.820  68.453  1.00  0.00    -0.358 A  
HETATM   16  C   UNL     1     -11.471  11.803  67.455  1.00  0.00    -0.375 A  
HETATM   17  C   UNL     1     -10.859  11.593  66.189  1.00  0.00    -0.343 A  
HETATM   18  C   UNL     1     -10.211  10.375  65.933  1.00  0.00    -0.234 A  
HETATM   19  C   UNL     1     -10.184   9.411  66.922  1.00  0.00    -0.318 A  
HETATM   20  N   UNL     1      -9.625  10.078  64.774  1.00  0.00    -0.303 NA 
HETATM   21  C   UNL     1      -9.698  11.005  63.823  1.00  0.00    -0.309 A  
HETATM   22  C   UNL     1     -10.784   9.621  68.165  1.00  0.00    -0.266 A  
HETATM   23  N   UNL     1     -10.292  12.190  63.941  1.00  0.00    -0.381 NA 
HETATM   24  C   UNL     1     -10.864  12.503  65.113  1.00  0.00    -0.288 A  
BRANCH  24  25
HETATM   25  N   UNL     1     -11.564  13.737  65.244  1.00  0.00    -0.313 NA 
HETATM   26  H   UNL     1     -12.455  13.796  64.751  1.00  0.00     0.000 HD 
BRANCH  25  27
HETATM   27  C   UNL     1     -11.185  14.892  65.967  1.00  0.00    -0.327 A  
HETATM   28  C   UNL     1     -11.360  15.022  67.344  1.00  0.00    -0.338 A  
HETATM   29  C   UNL     1     -10.893  16.126  68.062  1.00  0.00    -0.333 A  
HETATM   30  C   UNL     1     -10.190  17.139  67.401  1.00  0.00    -0.321 A  
HETATM   31 CL   UNL     1     -11.312  16.099  69.743  1.00  0.00    -0.335 Cl 
HETATM   32  C   UNL     1     -10.066  17.055  66.005  1.00  0.00    -0.318 A  
HETATM   33  C   UNL     1     -10.561  15.949  65.297  1.00  0.00    -0.441 A  
BRANCH  30  34
HETATM   34  O   UNL     1      -9.589  18.253  67.934  1.00  0.00    -0.275 OA 
BRANCH  34  35
HETATM   35  C   UNL     1      -8.824  19.044  67.029  1.00  0.00    -0.294 C  
BRANCH  35  36
HETATM   36  C   UNL     1      -7.601  19.620  67.692  1.00  0.00    -0.311 A  
HETATM   37  C   UNL     1      -7.179  19.151  68.940  1.00  0.00    -0.376 A  
HETATM   38  C   UNL     1      -6.120  19.778  69.585  1.00  0.00    -0.318 A  
HETATM   39  C   UNL     1      -5.472  20.867  69.011  1.00  0.00    -0.405 A  
HETATM   40  F   UNL     1      -5.732  19.340  70.789  1.00  0.00    -0.231 F  
HETATM   41  C   UNL     1      -5.883  21.337  67.769  1.00  0.00    -0.410 A  
HETATM   42  C   UNL     1      -6.944  20.720  67.111  1.00  0.00    -0.406 A  
ENDBRANCH  35  36
ENDBRANCH  34  35
ENDBRANCH  30  34
ENDBRANCH  25  27
ENDBRANCH  24  25
ENDBRANCH  13  15
ENDBRANCH   9  10
ENDBRANCH   7   9
ENDBRANCH   6   7
ENDBRANCH   5   6
ENDBRANCH   2   5
TORSDOF 11
ENDMDL
MODEL        3
REMARK 921   NORMALIZED FREE ENERGY PREDICTED BY IDOCK:   -7.29 KCAL/MOL
REMARK 922        TOTAL FREE ENERGY PREDICTED BY IDOCK:  -14.73 KCAL/MOL
REMARK 923 INTER-LIGAND FREE ENERGY PREDICTED BY IDOCK:  -12.57 KCAL/MOL
REMARK 924 INTRA-LIGAND FREE ENERGY PREDICTED BY IDOCK:   -2.16 KCAL/MOL
REMARK 927      BINDING AFFINITY PREDICTED BY RF-SCORE:    0.00 PKD
ROOT
HETATM    1  C   UNL     1     -11.715  16.176  72.001  1.00  0.00    -0.485 C  
HETATM    2  S   UNL     1     -12.889  15.468  73.126  1.00  0.00    -0.557 S  
HETATM    3  O   UNL     1     -13.621  16.553  73.746  1.00  0.00    -0.486 OA 
HETATM    4  O   UNL     1     -12.195  14.476  73.921  1.00  0.00    -0.378 OA 
ENDROOT
BRANCH   2   5
HETATM    5  C   UNL     1     -13.991  14.616  72.019  1.00  0.00    -0.485 C  
BRANCH   5   6
HETATM    6  C   UNL     1     -13.238  14.009  70.844  1.00  0.00    -0.180 C  
BRANCH   6   7
HETATM    7  N   UNL     1     -12.527  12.772  71.185  1.00  0.00    -0.317 NA 
HETATM    8  H   UNL     1     -11.649  12.980  71.661  1.00  0.00     0.000 HD 
BRANCH   7   9
HETATM    9  C   UNL     1     -13.332  11.834  71.968  1.00  0.00    -0.312 C  
BRANCH   9  10
HETATM   10  C   UNL     1     -12.845  10.444  71.773  1.00  0.00    -0.456 A  
HETATM   11  C   UNL     1     -13.248   9.223  72.267  1.00  0.00    -0.535 A  
HETATM   12  C   UNL     1     -12.378   8.259  71.704  1.00  0.00    -0.349 A  
HETATM   13  C   UNL     1     -11.507   8.942  70.879  1.00  0.00    -0.288 A  
HETATM   14  O   UNL     1     -11.800  10.276  70.918  1.00  0.00    -0.320 OA 
BRANCH  13  15
HETATM   15  C   UNL     1     -10.396   8.561  70.018  1.00  0.00    -0.213 A  
HETATM   16  C   UNL     1     -10.338   8.974  68.680  1.00  0.00    -0.233 A  
HETATM   17  C   UNL     1      -9.260   8.596  67.835  1.00  0.00    -0.148 A  
HETATM   18  C   UNL     1      -8.232   7.792  68.351  1.00  0.00    -0.124 A  
HETATM   19  C   UNL     1      -8.296   7.389  69.670  1.00  0.00    -0.132 A  
HETATM   20  N   UNL     1      -7.190   7.372  67.634  1.00  0.00    -0.091 NA 
HETATM   21  C   UNL     1      -7.169   7.740  66.356  1.00  0.00    -0.075 A  
HETATM   22  C   UNL     1      -9.356   7.762  70.498  1.00  0.00    -0.163 A  
HETATM   23  N   UNL     1      -8.087   8.489  65.750  1.00  0.00    -0.109 NA 
HETATM   24  C   UNL     1      -9.127   8.932  66.473  1.00  0.00    -0.166 A  
BRANCH  24  25
HETATM   25  N   UNL     1     -10.157   9.680  65.833  1.00  0.00    -0.273 NA 
HETATM   26  H   UNL     1     -10.912   9.132  65.421  1.00  0.00     0.000 HD 
BRANCH  25  27
HETATM   27  C   UNL     1     -10.270  11.083  65.695  1.00  0.00    -0.260 A  
HETATM   28  C   UNL     1     -11.201  11.696  64.856  1.00  0.00    -0.287 A  
HETATM   29  C   UNL     1     -11.369  13.081  64.802  1.00  0.00    -0.317 A  
HETATM   30  C   UNL     1     -10.607  13.908  65.636  1.00  0.00    -0.301 A  
HETATM   31 CL   UNL     1     -12.522  13.604  63.620  1.00  0.00    -0.354 Cl 
HETATM   32  C   UNL     1      -9.619  13.310  66.434  1.00  0.00    -0.260 A  
HETATM   33  C   UNL     1      -9.449  11.917  66.459  1.00  0.00    -0.226 A  
BRANCH  30  34
HETATM   34  O   UNL     1     -10.677  15.271  65.787  1.00  0.00    -0.317 OA 
BRANCH  34  35
HETATM   35  C   UNL     1     -10.720  15.749  67.128  1.00  0.00    -0.312 C  
BRANCH  35  36
HETATM   36  C   UNL     1     -10.380  17.214  67.206  1.00  0.00    -0.320 A  
HETATM   37  C   UNL     1     -10.258  17.853  68.443  1.00  0.00    -0.398 A  
HETATM   38  C   UNL     1     -10.061  19.228  68.488  1.00  0.00    -0.430 A  
HETATM   39  C   UNL     1      -9.983  19.982  67.321  1.00  0.00    -0.574 A  
HETATM   40  F   UNL     1      -9.966  19.840  69.675  1.00  0.00    -0.470 F  
HETATM   41  C   UNL     1     -10.099  19.353  66.087  1.00  0.00    -0.533 A  
HETATM   42  C   UNL     1     -10.298  17.976  66.025  1.00  0.00    -0.333 A  
ENDBRANCH  35  36
ENDBRANCH  34  35
ENDBRANCH  30  34
ENDBRANCH  25  27
ENDBRANCH  24  25
ENDBRANCH  13  15
ENDBRANCH   9  10
ENDBRANCH   7   9
ENDBRANCH   6   7
ENDBRANCH   5   6
ENDBRANCH   2   5
TORSDOF 11
ENDMDL
MODEL        4
REMARK 921   NORMALIZED FREE ENERGY PREDICTED BY IDOCK:   -7.16 KCAL/MOL
REMARK 922        TOTAL FREE ENERGY PREDICTED BY IDOCK:  -14.51 KCAL/MOL
REMARK 923 INTER-LIGAND FREE ENERGY PREDICTED BY IDOCK:  -11.97 KCAL/MOL
REMARK 924 INTRA-LIGAND FREE ENERGY PREDICTED BY IDOCK:   -2.53 KCAL/MOL
REMARK 927      BINDING AFFINITY PREDICTED BY RF-SCORE:    0.00 PKD
ROOT
HETATM    1  C   UNL     1      -8.754  10.631  64.883  1.00  0.00    -0.168 C  
HETATM    2  S   UNL     1      -9.018  10.310  66.607  1.00  0.00    -0.141 S  
HETATM    3  O   UNL     1     -10.448  10.269  66.838  1.00  0.00    -0.231 OA 
HETATM    4  O   UNL     1      -8.158  11.203  67.358  1.00  0.00    -0.125 OA 
ENDROOT
BRANCH   2   5
HETATM    5  C   UNL     1      -8.380   8.658  66.776  1.00  0.00    -0.108 C  
BRANCH   5   6
HETATM    6  C   UNL     1      -9.139   7.677  65.894  1.00  0.00    -0.052 C  
BRANCH   6   7
HETATM    7  N   UNL     1     -10.296   7.070  66.561  1.00  0.00    -0.482 NA 
HETATM    8  H   UNL     1     -10.974   6.736  65.875  1.00  0.00     0.000 HD 
BRANCH   7   9
HETATM    9  C   UNL     1      -9.935   6.003  67.495  1.00  0.00    -0.137 C  
BRANCH   9  10
HETATM   10  C   UNL     1     -10.437   6.316  68.858  1.00  0.00    -0.232 A  
HETATM   11  C   UNL     1     -10.539   5.582  70.020  1.00  0.00    -0.384 A  
HETATM   12  C   UNL     1     -11.104   6.446  70.988  1.00  0.00    -0.349 A  
HETATM   13  C   UNL     1     -11.294   7.666  70.370  1.00  0.00    -0.219 A  
HETATM   14  O   UNL     1     -10.879   7.585  69.071  1.00  0.00    -0.172 OA 
BRANCH  13  15
HETATM   15  C   UNL     1     -11.818   8.959  70.790  1.00  0.00    -0.230 A  
HETATM   16  C   UNL     1     -11.458  10.139  70.125  1.00  0.00    -0.368 A  
HETATM   17  C   UNL     1     -11.961  11.403  70.538  1.00  0.00    -0.451 A  
HETATM   18  C   UNL     1     -12.834  11.470  71.634  1.00  0.00    -0.370 A  
HETATM   19  C   UNL     1     -13.184  10.303  72.284  1.00  0.00    -0.324 A  
HETATM   20  N   UNL     1     -13.344  12.607  72.105  1.00  0.00    -0.523 NA 
HETATM   21  C   UNL     1     -12.963  13.723  71.489  1.00  0.00    -0.363 A  
HETATM   22  C   UNL     1     -12.689   9.063  71.876  1.00  0.00    -0.450 A  
HETATM   23  N   UNL     1     -12.134  13.789  70.450  1.00  0.00    -0.342 NA 
HETATM   24  C   UNL     1     -11.636  12.646  69.957  1.00  0.00    -0.123 A  
BRANCH  24  25
HETATM   25  N   UNL     1     -10.695  12.694  68.888  1.00  0.00    -0.375 NA 
HETATM   26  H   UNL     1     -10.115  11.864  68.770  1.00  0.00     0.000 HD 
BRANCH  25  27
HETATM   27  C   UNL     1     -10.461  13.742  67.968  1.00  0.00    -0.244 A  
HETATM   28  C   UNL     1     -11.227  13.934  66.818  1.00  0.00    -0.328 A  
HETATM   29  C   UNL     1     -11.049  15.029  65.969  1.00  0.00    -0.329 A  
HETATM   30  C   UNL     1     -10.093  16.003  66.280  1.00  0.00    -0.313 A  
HETATM   31 CL   UNL     1     -12.058  14.998  64.561  1.00  0.00    -0.428 Cl 
HETATM   32  C   UNL     1      -9.269  15.787  67.396  1.00  0.00    -0.208 A  
HETATM   33  C   UNL     1      -9.447  14.669  68.226  1.00  0.00    -0.211 A  
BRANCH  30  34
HETATM   34  O   UNL     1      -9.823  17.178  65.624  1.00  0.00    -0.552 OA 
BRANCH  34  35
HETATM   35  C   UNL     1     -10.090  18.375  66.349  1.00  0.00    -0.403 C  
BRANCH  35  36
HETATM   36  C   UNL     1      -8.820  19.036  66.815  1.00  0.00    -0.321 A  
HETATM   37  C   UNL     1      -8.514  19.111  68.177  1.00  0.00    -0.355 A  
HETATM   38  C   UNL     1      -7.397  19.830  68.590  1.00  0.00    -0.307 A  
HETATM   39  C   UNL     1      -6.578  20.476  67.670  1.00  0.00    -0.336 A  
HETATM   40  F   UNL     1      -7.118  19.917  69.896  1.00  0.00    -0.374 F  
HETATM   41  C   UNL     1      -6.874  20.402  66.314  1.00  0.00    -0.279 A  
HETATM   42  C   UNL     1      -7.990  19.688  65.885  1.00  0.00    -0.265 A  
ENDBRANCH  35  36
ENDBRANCH  34  35
ENDBRANCH  30  34
ENDBRANCH  25  27
ENDBRANCH  24  25
ENDBRANCH  13  15
ENDBRANCH   9  10
ENDBRANCH   7   9
ENDBRANCH   6   7
ENDBRANCH   5   6
ENDBRANCH   2   5
TORSDOF 11
ENDMDL
MODEL        5
REMARK 921   NORMALIZED FREE ENERGY PREDICTED BY IDOCK:   -7.06 KCAL/MOL
REMARK 922        TOTAL FREE ENERGY PREDICTED BY IDOCK:  -14.34 KCAL/MOL
REMARK 923 INTER-LIGAND FREE ENERGY PREDICTED BY IDOCK:  -12.25 KCAL/MOL
REMARK 924 INTRA-LIGAND FREE ENERGY PREDICTED BY IDOCK:   -2.09 KCAL/MOL
REMARK 927      BINDING AFFINITY PREDICTED BY RF-SCORE:    0.00 PKD
ROOT
HETATM    1  C   UNL     1      -9.684   3.953  74.501  1.00  0.00    -0.128 C  
HETATM    2  S   UNL     1     -10.291   5.095  73.287  1.00  0.00    -0.225 S  
HETATM    3  O   UNL     1     -11.713   4.863  73.131  1.00  0.00    -0.315 OA 
HETATM    4  O   UNL     1      -9.391   5.052  72.153  1.00  0.00    -0.134 OA 
ENDROOT
BRANCH   2   5
HETATM    5  C   UNL     1     -10.070   6.657  74.108  1.00  0.00    -0.364 C  
BRANCH   5   6
HETATM    6  C   UNL     1     -10.276   7.822  73.151  1.00  0.00    -0.335 C  
BRANCH   6   7
HETATM    7  N   UNL     1     -11.677   8.012  72.760  1.00  0.00    -0.569 NA 
HETATM    8  H   UNL     1     -12.206   8.452  73.513  1.00  0.00     0.000 HD 
BRANCH   7   9
HETATM    9  C   UNL     1     -11.837   8.758  71.511  1.00  0.00    -0.311 C  
BRANCH   9  10
HETATM   10  C   UNL     1     -11.487   7.903  70.347  1.00  0.00    -0.145 A  
HETATM   11  C   UNL     1     -11.758   6.592  70.023  1.00  0.00    -0.388 A  
HETATM   12  C   UNL     1     -11.146   6.358  68.769  1.00  0.00    -0.404 A  
HETATM   13  C   UNL     1     -10.554   7.545  68.386  1.00  0.00    -0.134 A  
HETATM   14  O   UNL     1     -10.771   8.489  69.350  1.00  0.00    -0.222 OA 
BRANCH  13  15
HETATM   15  C   UNL     1      -9.784   7.983  67.230  1.00  0.00    -0.232 A  
HETATM   16  C   UNL     1     -10.130   9.144  66.525  1.00  0.00    -0.357 A  
HETATM   17  C   UNL     1      -9.386   9.570  65.391  1.00  0.00    -0.324 A  
HETATM   18  C   UNL     1      -8.285   8.811  64.967  1.00  0.00    -0.155 A  
HETATM   19  C   UNL     1      -7.951   7.668  65.667  1.00  0.00    -0.116 A  
HETATM   20  N   UNL     1      -7.538   9.118  63.908  1.00  0.00    -0.109 NA 
HETATM   21  C   UNL     1      -7.901  10.200  63.226  1.00  0.00    -0.155 A  
HETATM   22  C   UNL     1      -8.682   7.253  66.781  1.00  0.00    -0.132 A  
HETATM   23  N   UNL     1      -8.929  10.993  63.520  1.00  0.00    -0.147 NA 
HETATM   24  C   UNL     1      -9.671  10.701  64.599  1.00  0.00    -0.302 A  
BRANCH  24  25
HETATM   25  N   UNL     1     -10.816  11.494  64.898  1.00  0.00    -0.298 NA 
HETATM   26  H   UNL     1     -11.670  11.245  64.400  1.00  0.00     0.000 HD 
BRANCH  25  27
HETATM   27  C   UNL     1     -10.923  12.582  65.796  1.00  0.00    -0.292 A  
HETATM   28  C   UNL     1     -10.249  13.789  65.617  1.00  0.00    -0.326 A  
HETATM   29  C   UNL     1     -10.439  14.889  66.457  1.00  0.00    -0.297 A  
HETATM   30  C   UNL     1     -11.361  14.812  67.507  1.00  0.00    -0.344 A  
HETATM   31 CL   UNL     1      -9.421  16.241  66.084  1.00  0.00    -0.348 Cl 
HETATM   32  C   UNL     1     -11.996  13.582  67.740  1.00  0.00    -0.369 A  
HETATM   33  C   UNL     1     -11.776  12.480  66.899  1.00  0.00    -0.447 A  
BRANCH  30  34
HETATM   34  O   UNL     1     -11.744  15.797  68.384  1.00  0.00    -0.366 OA 
BRANCH  34  35
HETATM   35  C   UNL     1     -11.013  15.865  69.605  1.00  0.00    -0.319 C  
BRANCH  35  36
HETATM   36  C   UNL     1     -11.909  15.664  70.799  1.00  0.00    -0.421 A  
HETATM   37  C   UNL     1     -11.422  15.857  72.095  1.00  0.00    -0.399 A  
HETATM   38  C   UNL     1     -12.232  15.551  73.183  1.00  0.00    -0.469 A  
HETATM   39  C   UNL     1     -13.520  15.057  73.005  1.00  0.00    -0.520 A  
HETATM   40  F   UNL     1     -11.755  15.717  74.424  1.00  0.00    -0.392 F  
HETATM   41  C   UNL     1     -14.012  14.867  71.719  1.00  0.00    -0.583 A  
HETATM   42  C   UNL     1     -13.213  15.167  70.619  1.00  0.00    -0.354 A  
ENDBRANCH  35  36
ENDBRANCH  34  35
ENDBRANCH  30  34
ENDBRANCH  25  27
ENDBRANCH  24  25
ENDBRANCH  13  15
ENDBRANCH   9  10
ENDBRANCH   7   9
ENDBRANCH   6   7
ENDBRANCH   5   6
ENDBRANCH   2   5
TORSDOF 11
ENDMDL
MODEL        6
REMARK 921   NORMALIZED FREE ENERGY PREDICTED BY IDOCK:   -7.00 KCAL/MOL
REMARK 922        TOTAL FREE ENERGY PREDICTED BY IDOCK:  -14.24 KCAL/MOL
REMARK 923 INTER-LIGAND FREE ENERGY PREDICTED BY IDOCK:  -12.12 KCAL/MOL
REMARK 924 INTRA-LIGAND FREE ENERGY PREDICTED BY IDOCK:   -2.12 KCAL/MOL
REMARK 927      BINDING AFFINITY PREDICTED BY RF-SCORE:    0.00 PKD
ROOT
HETATM    1  C   UNL     1      -7.994  20.058  67.317  1.00  0.00    -0.313 C  
HETATM    2  S   UNL     1      -9.407  19.180  66.702  1.00  0.00    -0.350 S  
HETATM    3  O   UNL     1      -8.930  18.014  65.987  1.00  0.00    -0.502 OA 
HETATM    4  O   UNL     1     -10.285  20.144  66.071  1.00  0.00    -0.456 OA 
ENDROOT
BRANCH   2   5
HETATM    5  C   UNL     1     -10.182  18.631  68.206  1.00  0.00    -0.380 C  
BRANCH   5   6
HETATM    6  C   UNL     1     -10.594  17.168  68.117  1.00  0.00    -0.380 C  
BRANCH   6   7
HETATM    7  N   UNL     1     -10.742  16.525  69.427  1.00  0.00    -0.318 NA 
HETATM    8  H   UNL     1     -10.579  17.194  70.179  1.00  0.00     0.000 HD 
BRANCH   7   9
HETATM    9  C   UNL     1     -12.030  15.852  69.602  1.00  0.00    -0.260 C  
BRANCH   9  10
HETATM   10  C   UNL     1     -11.907  14.406  69.281  1.00  0.00    -0.325 A  
HETATM   11  C   UNL     1     -12.082  13.256  70.019  1.00  0.00    -0.385 A  
HETATM   12  C   UNL     1     -11.817  12.177  69.142  1.00  0.00    -0.361 A  
HETATM   13  C   UNL     1     -11.517  12.728  67.911  1.00  0.00    -0.317 A  
HETATM   14  O   UNL     1     -11.580  14.090  67.999  1.00  0.00    -0.298 OA 
BRANCH  13  15
HETATM   15  C   UNL     1     -11.165  12.191  66.604  1.00  0.00    -0.375 A  
HETATM   16  C   UNL     1     -10.177  11.206  66.466  1.00  0.00    -0.275 A  
HETATM   17  C   UNL     1      -9.824  10.686  65.191  1.00  0.00    -0.344 A  
HETATM   18  C   UNL     1     -10.477  11.170  64.047  1.00  0.00    -0.383 A  
HETATM   19  C   UNL     1     -11.448  12.141  64.192  1.00  0.00    -0.460 A  
HETATM   20  N   UNL     1     -10.205  10.759  62.810  1.00  0.00    -0.031 NA 
HETATM   21  C   UNL     1      -9.238   9.852  62.691  1.00  0.00    -0.273 A  
HETATM   22  C   UNL     1     -11.794  12.649  65.445  1.00  0.00    -0.473 A  
HETATM   23  N   UNL     1      -8.541   9.327  63.695  1.00  0.00    -0.207 NA 
HETATM   24  C   UNL     1      -8.827   9.721  64.945  1.00  0.00    -0.197 A  
BRANCH  24  25
HETATM   25  N   UNL     1      -8.051   9.223  66.031  1.00  0.00    -0.109 NA 
HETATM   26  H   UNL     1      -7.040   9.296  65.924  1.00  0.00     0.000 HD 
BRANCH  25  27
HETATM   27  C   UNL     1      -8.500   8.642  67.240  1.00  0.00    -0.115 A  
HETATM   28  C   UNL     1      -9.470   7.641  67.292  1.00  0.00    -0.185 A  
HETATM   29  C   UNL     1      -9.834   7.006  68.482  1.00  0.00    -0.147 A  
HETATM   30  C   UNL     1      -9.193   7.349  69.678  1.00  0.00    -0.146 A  
HETATM   31 CL   UNL     1     -11.123   5.862  68.302  1.00  0.00    -0.267 Cl 
HETATM   32  C   UNL     1      -8.265   8.402  69.652  1.00  0.00    -0.117 A  
HETATM   33  C   UNL     1      -7.927   9.043  68.450  1.00  0.00    -0.104 A  
BRANCH  30  34
HETATM   34  O   UNL     1      -9.351   6.793  70.924  1.00  0.00    -0.157 OA 
BRANCH  34  35
HETATM   35  C   UNL     1      -9.800   7.675  71.949  1.00  0.00    -0.165 C  
BRANCH  35  36
HETATM   36  C   UNL     1     -11.243   8.059  71.757  1.00  0.00    -0.317 A  
HETATM   37  C   UNL     1     -11.628   9.403  71.757  1.00  0.00    -0.433 A  
HETATM   38  C   UNL     1     -12.979   9.729  71.697  1.00  0.00    -0.419 A  
HETATM   39  C   UNL     1     -13.954   8.739  71.637  1.00  0.00    -0.450 A  
HETATM   40  F   UNL     1     -13.346  11.016  71.719  1.00  0.00    -0.485 F  
HETATM   41  C   UNL     1     -13.578   7.401  71.633  1.00  0.00    -0.449 A  
HETATM   42  C   UNL     1     -12.230   7.059  71.694  1.00  0.00    -0.395 A  
ENDBRANCH  35  36
ENDBRANCH  34  35
ENDBRANCH  30  34
ENDBRANCH  25  27
ENDBRANCH  24  25
ENDBRANCH  13  15
ENDBRANCH   9  10
ENDBRANCH   7   9
ENDBRANCH   6   7
ENDBRANCH   5   6
ENDBRANCH   2   5
TORSDOF 11
ENDMDL
MODEL        7
REMARK 921   NORMALIZED FREE ENERGY PREDICTED BY IDOCK:   -7.00 KCAL/MOL
REMARK 922        TOTAL FREE ENERGY PREDICTED BY IDOCK:  -14.24 KCAL/MOL
REMARK 923 INTER-LIGAND FREE ENERGY PREDICTED BY IDOCK:  -11.60 KCAL/MOL
REMARK 924 INTRA-LIGAND FREE ENERGY PREDICTED BY IDOCK:   -2.64 KCAL/MOL
REMARK 927      BINDING AFFINITY PREDICTED BY RF-SCORE:    0.00 PKD
ROOT
HETATM    1  C   UNL     1     -10.412   5.929  71.445  1.00  0.00    -0.236 C  
HETATM    2  S   UNL     1     -11.466   6.787  70.305  1.00  0.00    -0.351 S  
HETATM    3  O   UNL     1     -12.704   7.099  70.991  1.00  0.00    -0.352 OA 
HETATM    4  O   UNL     1     -11.461   6.049  69.058  1.00  0.00    -0.275 OA 
ENDROOT
BRANCH   2   5
HETATM    5  C   UNL     1     -10.575   8.305  70.051  1.00  0.00    -0.235 C  
BRANCH   5   6
HETATM    6  C   UNL     1     -11.022   9.382  71.029  1.00  0.00    -0.338 C  
BRANCH   6   7
HETATM    7  N   UNL     1     -12.245  10.075  70.612  1.00  0.00    -0.370 NA 
HETATM    8  H   UNL     1     -12.812   9.478  70.009  1.00  0.00     0.000 HD 
BRANCH   7   9
HETATM    9  C   UNL     1     -13.038  10.583  71.733  1.00  0.00    -0.464 C  
BRANCH   9  10
HETATM   10  C   UNL     1     -13.138  12.064  71.669  1.00  0.00    -0.318 A  
HETATM   11  C   UNL     1     -13.784  13.002  72.444  1.00  0.00    -0.593 A  
HETATM   12  C   UNL     1     -13.496  14.261  71.866  1.00  0.00    -0.485 A  
HETATM   13  C   UNL     1     -12.671  14.025  70.785  1.00  0.00    -0.326 A  
HETATM   14  O   UNL     1     -12.449  12.681  70.671  1.00  0.00    -0.318 OA 
BRANCH  13  15
HETATM   15  C   UNL     1     -12.020  14.863  69.787  1.00  0.00    -0.366 A  
HETATM   16  C   UNL     1     -12.023  14.511  68.430  1.00  0.00    -0.309 A  
HETATM   17  C   UNL     1     -11.381  15.322  67.455  1.00  0.00    -0.300 A  
HETATM   18  C   UNL     1     -10.729  16.497  67.859  1.00  0.00    -0.337 A  
HETATM   19  C   UNL     1     -10.731  16.836  69.198  1.00  0.00    -0.329 A  
HETATM   20  N   UNL     1     -10.086  17.312  67.024  1.00  0.00    -0.294 NA 
HETATM   21  C   UNL     1     -10.064  16.945  65.746  1.00  0.00    -0.229 A  
HETATM   22  C   UNL     1     -11.364  16.039  70.154  1.00  0.00    -0.369 A  
HETATM   23  N   UNL     1     -10.632  15.852  65.243  1.00  0.00    -0.447 NA 
HETATM   24  C   UNL     1     -11.300  15.040  66.076  1.00  0.00    -0.270 A  
BRANCH  24  25
HETATM   25  N   UNL     1     -11.861  13.830  65.575  1.00  0.00    -0.346 NA 
HETATM   26  H   UNL     1     -12.838  13.880  65.287  1.00  0.00     0.000 HD 
BRANCH  25  27
HETATM   27  C   UNL     1     -11.240  12.568  65.425  1.00  0.00    -0.307 A  
HETATM   28  C   UNL     1     -10.637  12.150  64.239  1.00  0.00    -0.385 A  
HETATM   29  C   UNL     1      -9.942  10.943  64.133  1.00  0.00    -0.344 A  
HETATM   30  C   UNL     1      -9.805  10.117  65.254  1.00  0.00    -0.319 A  
HETATM   31 CL   UNL     1      -9.360  10.606  62.536  1.00  0.00    -0.309 Cl 
HETATM   32  C   UNL     1     -10.465  10.492  66.435  1.00  0.00    -0.258 A  
HETATM   33  C   UNL     1     -11.178  11.698  66.518  1.00  0.00    -0.356 A  
BRANCH  30  34
HETATM   34  O   UNL     1      -9.102   8.944  65.373  1.00  0.00    -0.206 OA 
BRANCH  34  35
HETATM   35  C   UNL     1      -8.398   8.759  66.598  1.00  0.00    -0.108 C  
BRANCH  35  36
HETATM   36  C   UNL     1      -8.472   7.330  67.070  1.00  0.00    -0.118 A  
HETATM   37  C   UNL     1      -7.781   6.922  68.214  1.00  0.00    -0.113 A  
HETATM   38  C   UNL     1      -7.768   5.576  68.563  1.00  0.00    -0.085 A  
HETATM   39  C   UNL     1      -8.432   4.627  67.792  1.00  0.00    -0.103 A  
HETATM   40  F   UNL     1      -7.088   5.184  69.647  1.00  0.00    -0.049 F  
HETATM   41  C   UNL     1      -9.124   5.027  66.654  1.00  0.00    -0.119 A  
HETATM   42  C   UNL     1      -9.145   6.371  66.291  1.00  0.00    -0.167 A  
ENDBRANCH  35  36
ENDBRANCH  34  35
ENDBRANCH  30  34
ENDBRANCH  25  27
ENDBRANCH  24  25
ENDBRANCH  13  15
ENDBRANCH   9  10
ENDBRANCH   7   9
ENDBRANCH   6   7
ENDBRANCH   5   6
ENDBRANCH   2   5
TORSDOF 11
ENDMDL
MODEL        8
REMARK 921   NORMALIZED FREE ENERGY PREDICTED BY IDOCK:   -6.98 KCAL/MOL
REMARK 922        TOTAL FREE ENERGY PREDICTED BY IDOCK:  -14.22 KCAL/MOL
REMARK 923 INTER-LIGAND FREE ENERGY PREDICTED BY IDOCK:  -12.09 KCAL/MOL
REMARK 924 INTRA-LIGAND FREE ENERGY PREDICTED BY IDOCK:   -2.13 KCAL/MOL
REMARK 927      BINDING AFFINITY PREDICTED BY RF-SCORE:    0.00 PKD
ROOT
HETATM    1  C   UNL     1     -10.429  13.267  64.442  1.00  0.00    -0.404 C  
HETATM    2  S   UNL     1     -11.486  14.643  64.809  1.00  0.00    -0.402 S  
HETATM    3  O   UNL     1     -12.594  14.614  63.875  1.00  0.00    -0.834 OA 
HETATM    4  O   UNL     1     -10.649  15.817  64.950  1.00  0.00    -0.490 OA 
ENDROOT
BRANCH   2   5
HETATM    5  C   UNL     1     -12.107  14.211  66.419  1.00  0.00    -0.451 C  
BRANCH   5   6
HETATM    6  C   UNL     1     -11.389  14.984  67.517  1.00  0.00    -0.333 C  
BRANCH   6   7
HETATM    7  N   UNL     1     -12.294  15.516  68.541  1.00  0.00    -0.442 NA 
HETATM    8  H   UNL     1     -13.187  15.022  68.526  1.00  0.00     0.000 HD 
BRANCH   7   9
HETATM    9  C   UNL     1     -11.719  15.507  69.887  1.00  0.00    -0.352 C  
BRANCH   9  10
HETATM   10  C   UNL     1     -12.393  14.488  70.733  1.00  0.00    -0.340 A  
HETATM   11  C   UNL     1     -13.356  14.561  71.715  1.00  0.00    -0.445 A  
HETATM   12  C   UNL     1     -13.585  13.233  72.147  1.00  0.00    -0.655 A  
HETATM   13  C   UNL     1     -12.767  12.420  71.388  1.00  0.00    -0.243 A  
HETATM   14  O   UNL     1     -12.045  13.190  70.520  1.00  0.00    -0.357 OA 
BRANCH  13  15
HETATM   15  C   UNL     1     -12.521  10.986  71.321  1.00  0.00    -0.475 A  
HETATM   16  C   UNL     1     -11.629  10.445  70.385  1.00  0.00    -0.423 A  
HETATM   17  C   UNL     1     -11.393   9.046  70.310  1.00  0.00    -0.202 A  
HETATM   18  C   UNL     1     -12.070   8.188  71.191  1.00  0.00    -0.260 A  
HETATM   19  C   UNL     1     -12.948   8.728  72.109  1.00  0.00    -0.457 A  
HETATM   20  N   UNL     1     -11.929   6.863  71.187  1.00  0.00    -0.349 NA 
HETATM   21  C   UNL     1     -11.109   6.361  70.268  1.00  0.00    -0.354 A  
HETATM   22  C   UNL     1     -13.176  10.104  72.181  1.00  0.00    -0.463 A  
HETATM   23  N   UNL     1     -10.422   7.067  69.374  1.00  0.00    -0.207 NA 
HETATM   24  C   UNL     1     -10.543   8.403  69.388  1.00  0.00    -0.197 A  
BRANCH  24  25
HETATM   25  N   UNL     1      -9.870   9.179  68.399  1.00  0.00    -0.159 NA 
HETATM   26  H   UNL     1      -9.951   8.841  67.440  1.00  0.00     0.000 HD 
BRANCH  25  27
HETATM   27  C   UNL     1      -9.105  10.355  68.574  1.00  0.00    -0.145 A  
HETATM   28  C   UNL     1      -7.955  10.408  69.360  1.00  0.00    -0.161 A  
HETATM   29  C   UNL     1      -7.153  11.549  69.446  1.00  0.00    -0.037 A  
HETATM   30  C   UNL     1      -7.479  12.687  68.698  1.00  0.00    -0.094 A  
HETATM   31 CL   UNL     1      -5.831  11.397  70.556  1.00  0.00    -0.149 Cl 
HETATM   32  C   UNL     1      -8.671  12.671  67.957  1.00  0.00    -0.190 A  
HETATM   33  C   UNL     1      -9.476  11.522  67.899  1.00  0.00    -0.178 A  
BRANCH  30  34
HETATM   34  O   UNL     1      -6.784  13.866  68.587  1.00  0.00    -0.085 OA 
BRANCH  34  35
HETATM   35  C   UNL     1      -6.949  14.574  67.361  1.00  0.00    -0.077 C  
BRANCH  35  36
HETATM   36  C   UNL     1      -7.089  16.056  67.591  1.00  0.00    -0.178 A  
HETATM   37  C   UNL     1      -7.549  16.895  66.572  1.00  0.00    -0.328 A  
HETATM   38  C   UNL     1      -7.557  18.271  66.769  1.00  0.00    -0.222 A  
HETATM   39  C   UNL     1      -7.115  18.829  67.964  1.00  0.00    -0.255 A  
HETATM   40  F   UNL     1      -7.978  19.073  65.783  1.00  0.00    -0.280 F  
HETATM   41  C   UNL     1      -6.660  18.000  68.983  1.00  0.00    -0.251 A  
HETATM   42  C   UNL     1      -6.644  16.620  68.801  1.00  0.00    -0.169 A  
ENDBRANCH  35  36
ENDBRANCH  34  35
ENDBRANCH  30  34
ENDBRANCH  25  27
ENDBRANCH  24  25
ENDBRANCH  13  15
ENDBRANCH   9  10
ENDBRANCH   7   9
ENDBRANCH   6   7
ENDBRANCH   5   6
ENDBRANCH   2   5
TORSDOF 11
ENDMDL
MODEL        9
REMARK 921   NORMALIZED FREE ENERGY PREDICTED BY IDOCK:   -6.96 KCAL/MOL
REMARK 922        TOTAL FREE ENERGY PREDICTED BY IDOCK:  -14.17 KCAL/MOL
REMARK 923 INTER-LIGAND FREE ENERGY PREDICTED BY IDOCK:  -11.86 KCAL/MOL
REMARK 924 INTRA-LIGAND FREE ENERGY PREDICTED BY IDOCK:   -2.31 KCAL/MOL
REMARK 927      BINDING AFFINITY PREDICTED BY RF-SCORE:    0.00 PKD
ROOT
HETATM    1  C   UNL     1     -13.750   8.673  72.105  1.00  0.00    -0.415 C  
HETATM    2  S   UNL     1     -12.237   8.128  71.355  1.00  0.00    -0.284 S  
HETATM    3  O   UNL     1     -11.686   9.240  70.608  1.00  0.00    -0.268 OA 
HETATM    4  O   UNL     1     -12.494   6.849  70.725  1.00  0.00    -0.356 OA 
ENDROOT
BRANCH   2   5
HETATM    5  C   UNL     1     -11.204   7.846  72.775  1.00  0.00    -0.405 C  
BRANCH   5   6
HETATM    6  C   UNL     1      -9.754   7.618  72.371  1.00  0.00    -0.178 C  
BRANCH   6   7
HETATM    7  N   UNL     1      -9.611   6.839  71.136  1.00  0.00    -0.173 NA 
HETATM    8  H   UNL     1     -10.372   7.045  70.489  1.00  0.00     0.000 HD 
BRANCH   7   9
HETATM    9  C   UNL     1      -8.313   7.017  70.483  1.00  0.00    -0.132 C  
BRANCH   9  10
HETATM   10  C   UNL     1      -8.219   8.369  69.876  1.00  0.00    -0.122 A  
HETATM   11  C   UNL     1      -7.581   9.532  70.250  1.00  0.00    -0.162 A  
HETATM   12  C   UNL     1      -7.871  10.485  69.246  1.00  0.00    -0.144 A  
HETATM   13  C   UNL     1      -8.650   9.847  68.302  1.00  0.00    -0.115 A  
HETATM   14  O   UNL     1      -8.855   8.552  68.687  1.00  0.00    -0.135 OA 
BRANCH  13  15
HETATM   15  C   UNL     1      -9.271  10.242  67.045  1.00  0.00    -0.169 A  
HETATM   16  C   UNL     1     -10.245  11.249  67.001  1.00  0.00    -0.250 A  
HETATM   17  C   UNL     1     -10.859  11.631  65.778  1.00  0.00    -0.334 A  
HETATM   18  C   UNL     1     -10.484  10.985  64.590  1.00  0.00    -0.329 A  
HETATM   19  C   UNL     1      -9.525   9.993  64.642  1.00  0.00    -0.367 A  
HETATM   20  N   UNL     1     -11.014  11.260  63.399  1.00  0.00    -0.287 NA 
HETATM   21  C   UNL     1     -11.964  12.190  63.378  1.00  0.00    -0.481 A  
HETATM   22  C   UNL     1      -8.922   9.621  65.845  1.00  0.00    -0.203 A  
HETATM   23  N   UNL     1     -12.412  12.863  64.435  1.00  0.00    -0.606 NA 
HETATM   24  C   UNL     1     -11.867  12.606  65.633  1.00  0.00    -0.437 A  
BRANCH  24  25
HETATM   25  N   UNL     1     -12.374  13.264  66.791  1.00  0.00    -0.289 NA 
HETATM   26  H   UNL     1     -13.191  12.834  67.223  1.00  0.00     0.000 HD 
BRANCH  25  27
HETATM   27  C   UNL     1     -11.892  14.437  67.419  1.00  0.00    -0.400 A  
HETATM   28  C   UNL     1     -12.083  14.711  68.772  1.00  0.00    -0.237 A  
HETATM   29  C   UNL     1     -11.518  15.823  69.402  1.00  0.00    -0.355 A  
HETATM   30  C   UNL     1     -10.700  16.694  68.674  1.00  0.00    -0.349 A  
HETATM   31 CL   UNL     1     -11.974  15.995  71.065  1.00  0.00    -0.437 Cl 
HETATM   32  C   UNL     1     -10.555  16.469  67.296  1.00  0.00    -0.285 A  
HETATM   33  C   UNL     1     -11.148  15.358  66.676  1.00  0.00    -0.236 A  
BRANCH  30  34
HETATM   34  O   UNL     1      -9.998  17.786  69.123  1.00  0.00    -0.291 OA 
BRANCH  34  35
HETATM   35  C   UNL     1     -10.107  18.967  68.333  1.00  0.00    -0.392 C  
BRANCH  35  36
HETATM   36  C   UNL     1      -8.757  19.457  67.879  1.00  0.00    -0.359 A  
HETATM   37  C   UNL     1      -8.511  19.716  66.528  1.00  0.00    -0.374 A  
HETATM   38  C   UNL     1      -7.226  20.053  66.118  1.00  0.00    -0.289 A  
HETATM   39  C   UNL     1      -6.179  20.137  67.030  1.00  0.00    -0.213 A  
HETATM   40  F   UNL     1      -6.989  20.281  64.820  1.00  0.00    -0.318 F  
HETATM   41  C   UNL     1      -6.417  19.883  68.376  1.00  0.00    -0.313 A  
HETATM   42  C   UNL     1      -7.698  19.543  68.802  1.00  0.00    -0.375 A  
ENDBRANCH  35  36
ENDBRANCH  34  35
ENDBRANCH  30  34
ENDBRANCH  25  27
ENDBRANCH  24  25
ENDBRANCH  13  15
ENDBRANCH   9  10
ENDBRANCH   7   9
ENDBRANCH   6   7
ENDBRANCH   5   6
ENDBRANCH   2   5
TORSDOF 11
ENDMDL
MODEL       10
REMARK 921   NORMALIZED FREE ENERGY PREDICTED BY IDOCK:   -6.91 KCAL/MOL
REMARK 922        TOTAL FREE ENERGY PREDICTED BY IDOCK:  -14.11 KCAL/MOL
REMARK 923 INTER-LIGAND FREE ENERGY PREDICTED BY IDOCK:  -11.05 KCAL/MOL
REMARK 924 INTRA-LIGAND FREE ENERGY PREDICTED BY IDOCK:   -3.05 KCAL/MOL
REMARK 927      BINDING AFFINITY PREDICTED BY RF-SCORE:    0.00 PKD
ROOT
HETATM    1  C   UNL     1      -7.515   9.391  68.632  1.00  0.00    -0.079 C  
HETATM    2  S   UNL     1      -8.667   8.309  69.438  1.00  0.00    -0.142 S  
HETATM    3  O   UNL     1      -9.798   8.124  68.551  1.00  0.00    -0.169 OA 
HETATM    4  O   UNL     1      -8.844   8.786  70.795  1.00  0.00    -0.155 OA 
ENDROOT
BRANCH   2   5
HETATM    5  C   UNL     1      -7.757   6.783  69.503  1.00  0.00    -0.104 C  
BRANCH   5   6
HETATM    6  C   UNL     1      -7.178   6.423  68.142  1.00  0.00    -0.085 C  
BRANCH   6   7
HETATM    7  N   UNL     1      -8.202   6.165  67.124  1.00  0.00    -0.106 NA 
HETATM    8  H   UNL     1      -9.024   6.748  67.283  1.00  0.00     0.000 HD 
BRANCH   7   9
HETATM    9  C   UNL     1      -7.712   6.321  65.754  1.00  0.00    -0.091 C  
BRANCH   9  10
HETATM   10  C   UNL     1      -7.525   7.759  65.430  1.00  0.00    -0.081 A  
HETATM   11  C   UNL     1      -6.412   8.547  65.231  1.00  0.00    -0.059 A  
HETATM   12  C   UNL     1      -6.892   9.848  64.951  1.00  0.00    -0.127 A  
HETATM   13  C   UNL     1      -8.270   9.779  64.972  1.00  0.00    -0.142 A  
HETATM   14  O   UNL     1      -8.654   8.499  65.258  1.00  0.00    -0.171 OA 
BRANCH  13  15
HETATM   15  C   UNL     1      -9.350  10.734  64.764  1.00  0.00    -0.264 A  
HETATM   16  C   UNL     1      -9.766  11.594  65.790  1.00  0.00    -0.262 A  
HETATM   17  C   UNL     1     -10.825  12.521  65.593  1.00  0.00    -0.311 A  
HETATM   18  C   UNL     1     -11.469  12.576  64.347  1.00  0.00    -0.349 A  
HETATM   19  C   UNL     1     -11.053  11.725  63.342  1.00  0.00    -0.448 A  
HETATM   20  N   UNL     1     -12.481  13.397  64.072  1.00  0.00    -0.674 NA 
HETATM   21  C   UNL     1     -12.890  14.179  65.067  1.00  0.00    -0.221 A  
HETATM   22  C   UNL     1     -10.011  10.816  63.537  1.00  0.00    -0.403 A  
HETATM   23  N   UNL     1     -12.371  14.212  66.291  1.00  0.00    -0.458 NA 
HETATM   24  C   UNL     1     -11.337  13.403  66.567  1.00  0.00    -0.320 A  
BRANCH  24  25
HETATM   25  N   UNL     1     -10.805  13.370  67.889  1.00  0.00    -0.242 NA 
HETATM   26  H   UNL     1      -9.949  13.903  68.035  1.00  0.00     0.000 HD 
BRANCH  25  27
HETATM   27  C   UNL     1     -11.311  12.695  69.025  1.00  0.00    -0.292 A  
HETATM   28  C   UNL     1     -12.058  13.326  70.018  1.00  0.00    -0.385 A  
HETATM   29  C   UNL     1     -12.634  12.630  71.084  1.00  0.00    -0.258 A  
HETATM   30  C   UNL     1     -12.497  11.239  71.162  1.00  0.00    -0.373 A  
HETATM   31 CL   UNL     1     -13.437  13.646  72.235  1.00  0.00    -0.598 Cl 
HETATM   32  C   UNL     1     -11.691  10.600  70.207  1.00  0.00    -0.433 A  
HETATM   33  C   UNL     1     -11.101  11.319  69.155  1.00  0.00    -0.312 A  
BRANCH  30  34
HETATM   34  O   UNL     1     -13.047  10.375  72.076  1.00  0.00    -0.455 OA 
BRANCH  34  35
HETATM   35  C   UNL     1     -13.510   9.130  71.559  1.00  0.00    -0.356 C  
BRANCH  35  36
HETATM   36  C   UNL     1     -12.531   8.018  71.831  1.00  0.00    -0.364 A  
HETATM   37  C   UNL     1     -11.686   8.070  72.943  1.00  0.00    -0.222 A  
HETATM   38  C   UNL     1     -10.711   7.092  73.109  1.00  0.00    -0.346 A  
HETATM   39  C   UNL     1     -10.563   6.062  72.186  1.00  0.00    -0.256 A  
HETATM   40  F   UNL     1      -9.889   7.156  74.163  1.00  0.00    -0.279 F  
HETATM   41  C   UNL     1     -11.402   6.002  71.080  1.00  0.00    -0.300 A  
HETATM   42  C   UNL     1     -12.383   6.975  70.899  1.00  0.00    -0.361 A  
ENDBRANCH  35  36
ENDBRANCH  34  35
ENDBRANCH  30  34
ENDBRANCH  25  27
ENDBRANCH  24  25
ENDBRANCH  13  15
ENDBRANCH   9  10
ENDBRANCH   7   9
ENDBRANCH   6   7
ENDBRANCH   5   6
ENDBRANCH   2   5
TORSDOF 11
ENDMDL
MODEL       11
REMARK 921   NORMALIZED FREE ENERGY PREDICTED BY IDOCK:   -6.91 KCAL/MOL
REMARK 922        TOTAL FREE ENERGY PREDICTED BY IDOCK:  -14.09 KCAL/MOL
REMARK 923 INTER-LIGAND FREE ENERGY PREDICTED BY IDOCK:  -11.89 KCAL/MOL
REMARK 924 INTRA-LIGAND FREE ENERGY PREDICTED BY IDOCK:   -2.20 KCAL/MOL
REMARK 927      BINDING AFFINITY PREDICTED BY RF-SCORE:    0.00 PKD
ROOT
HETATM    1  C   UNL     1      -6.590   6.480  72.933  1.00  0.00    -0.068 C  
HETATM    2  S   UNL     1      -8.121   7.287  72.544  1.00  0.00    -0.101 S  
HETATM    3  O   UNL     1      -8.517   6.871  71.214  1.00  0.00    -0.119 OA 
HETATM    4  O   UNL     1      -7.979   8.688  72.885  1.00  0.00    -0.381 OA 
ENDROOT
BRANCH   2   5
HETATM    5  C   UNL     1      -9.237   6.546  73.714  1.00  0.00    -0.144 C  
BRANCH   5   6
HETATM    6  C   UNL     1     -10.614   7.190  73.653  1.00  0.00    -0.333 C  
BRANCH   6   7
HETATM    7  N   UNL     1     -10.936   7.751  72.337  1.00  0.00    -0.284 NA 
HETATM    8  H   UNL     1     -11.005   7.012  71.636  1.00  0.00     0.000 HD 
BRANCH   7   9
HETATM    9  C   UNL     1     -12.143   8.580  72.336  1.00  0.00    -0.367 C  
BRANCH   9  10
HETATM   10  C   UNL     1     -12.017   9.678  71.343  1.00  0.00    -0.399 A  
HETATM   11  C   UNL     1     -12.309  11.024  71.380  1.00  0.00    -0.368 A  
HETATM   12  C   UNL     1     -11.962  11.541  70.109  1.00  0.00    -0.452 A  
HETATM   13  C   UNL     1     -11.456  10.487  69.375  1.00  0.00    -0.262 A  
HETATM   14  O   UNL     1     -11.484   9.352  70.135  1.00  0.00    -0.230 OA 
BRANCH  13  15
HETATM   15  C   UNL     1     -10.925  10.337  68.027  1.00  0.00    -0.345 A  
HETATM   16  C   UNL     1     -10.928  11.406  67.121  1.00  0.00    -0.340 A  
HETATM   17  C   UNL     1     -10.420  11.260  65.802  1.00  0.00    -0.310 A  
HETATM   18  C   UNL     1      -9.904  10.019  65.398  1.00  0.00    -0.314 A  
HETATM   19  C   UNL     1      -9.905   8.970  66.296  1.00  0.00    -0.361 A  
HETATM   20  N   UNL     1      -9.421   9.779  64.180  1.00  0.00    -0.193 NA 
HETATM   21  C   UNL     1      -9.467  10.792  63.319  1.00  0.00    -0.326 A  
HETATM   22  C   UNL     1     -10.404   9.117  67.592  1.00  0.00    -0.314 A  
HETATM   23  N   UNL     1      -9.940  12.008  63.579  1.00  0.00    -0.403 NA 
HETATM   24  C   UNL     1     -10.407  12.262  64.810  1.00  0.00    -0.291 A  
BRANCH  24  25
HETATM   25  N   UNL     1     -10.980  13.535  65.095  1.00  0.00    -0.308 NA 
HETATM   26  H   UNL     1     -11.751  13.819  64.492  1.00  0.00     0.000 HD 
BRANCH  25  27
HETATM   27  C   UNL     1     -10.618  14.457  66.105  1.00  0.00    -0.298 A  
HETATM   28  C   UNL     1      -9.347  15.021  66.204  1.00  0.00    -0.327 A  
HETATM   29  C   UNL     1      -9.031  16.004  67.146  1.00  0.00    -0.202 A  
HETATM   30  C   UNL     1     -10.020  16.480  68.014  1.00  0.00    -0.245 A  
HETATM   31 CL   UNL     1      -7.365  16.482  67.130  1.00  0.00    -0.198 Cl 
HETATM   32  C   UNL     1     -11.284  15.872  67.972  1.00  0.00    -0.319 A  
HETATM   33  C   UNL     1     -11.578  14.871  67.033  1.00  0.00    -0.314 A  
BRANCH  30  34
HETATM   34  O   UNL     1      -9.930  17.485  68.945  1.00  0.00    -0.317 OA 
BRANCH  34  35
HETATM   35  C   UNL     1     -10.136  18.808  68.459  1.00  0.00    -0.392 C  
BRANCH  35  36
HETATM   36  C   UNL     1      -8.850  19.433  67.988  1.00  0.00    -0.369 A  
HETATM   37  C   UNL     1      -8.674  19.776  66.644  1.00  0.00    -0.406 A  
HETATM   38  C   UNL     1      -7.438  20.240  66.211  1.00  0.00    -0.230 A  
HETATM   39  C   UNL     1      -6.370  20.370  67.093  1.00  0.00    -0.254 A  
HETATM   40  F   UNL     1      -7.267  20.548  64.919  1.00  0.00    -0.309 F  
HETATM   41  C   UNL     1      -6.538  20.035  68.431  1.00  0.00    -0.331 A  
HETATM   42  C   UNL     1      -7.770  19.566  68.880  1.00  0.00    -0.369 A  
ENDBRANCH  35  36
ENDBRANCH  34  35
ENDBRANCH  30  34
ENDBRANCH  25  27
ENDBRANCH  24  25
ENDBRANCH  13  15
ENDBRANCH   9  10
ENDBRANCH   7   9
ENDBRANCH   6   7
ENDBRANCH   5   6
ENDBRANCH   2   5
TORSDOF 11
ENDMDL
MODEL       12
REMARK 921   NORMALIZED FREE ENERGY PREDICTED BY IDOCK:   -6.87 KCAL/MOL
REMARK 922        TOTAL FREE ENERGY PREDICTED BY IDOCK:  -14.04 KCAL/MOL
REMARK 923 INTER-LIGAND FREE ENERGY PREDICTED BY IDOCK:  -11.53 KCAL/MOL
REMARK 924 INTRA-LIGAND FREE ENERGY PREDICTED BY IDOCK:   -2.51 KCAL/MOL
REMARK 927      BINDING AFFINITY PREDICTED BY RF-SCORE:    0.00 PKD
ROOT
HETATM    1  C   UNL     1     -10.384  11.327  64.181  1.00  0.00    -0.351 C  
HETATM    2  S   UNL     1      -9.379  10.695  65.499  1.00  0.00    -0.220 S  
HETATM    3  O   UNL     1      -9.972   9.454  65.955  1.00  0.00    -0.303 OA 
HETATM    4  O   UNL     1      -9.116  11.786  66.416  1.00  0.00    -0.208 OA 
ENDROOT
BRANCH   2   5
HETATM    5  C   UNL     1      -7.863  10.308  64.653  1.00  0.00    -0.123 C  
BRANCH   5   6
HETATM    6  C   UNL     1      -7.559   8.817  64.711  1.00  0.00    -0.107 C  
BRANCH   6   7
HETATM    7  N   UNL     1      -7.230   8.343  66.059  1.00  0.00    -0.072 NA 
HETATM    8  H   UNL     1      -7.148   7.326  66.075  1.00  0.00     0.000 HD 
BRANCH   7   9
HETATM    9  C   UNL     1      -6.032   8.968  66.620  1.00  0.00    -0.056 C  
BRANCH   9  10
HETATM   10  C   UNL     1      -6.235   9.281  68.059  1.00  0.00    -0.050 A  
HETATM   11  C   UNL     1      -5.417   9.801  69.038  1.00  0.00    -0.036 A  
HETATM   12  C   UNL     1      -6.196   9.860  70.217  1.00  0.00    -0.082 A  
HETATM   13  C   UNL     1      -7.454   9.394  69.888  1.00  0.00    -0.100 A  
HETATM   14  O   UNL     1      -7.475   9.047  68.566  1.00  0.00    -0.083 OA 
BRANCH  13  15
HETATM   15  C   UNL     1      -8.701   9.202  70.616  1.00  0.00    -0.272 A  
HETATM   16  C   UNL     1      -9.913   9.704  70.123  1.00  0.00    -0.309 A  
HETATM   17  C   UNL     1     -11.130   9.527  70.835  1.00  0.00    -0.406 A  
HETATM   18  C   UNL     1     -11.118   8.836  72.057  1.00  0.00    -0.371 A  
HETATM   19  C   UNL     1      -9.919   8.345  72.535  1.00  0.00    -0.356 A  
HETATM   20  N   UNL     1     -12.202   8.633  72.804  1.00  0.00    -0.223 NA 
HETATM   21  C   UNL     1     -13.338   9.149  72.343  1.00  0.00    -0.463 A  
HETATM   22  C   UNL     1      -8.725   8.519  71.833  1.00  0.00    -0.270 A  
HETATM   23  N   UNL     1     -13.476   9.831  71.209  1.00  0.00    -0.350 NA 
HETATM   24  C   UNL     1     -12.392  10.019  70.442  1.00  0.00    -0.135 A  
BRANCH  24  25
HETATM   25  N   UNL     1     -12.499  10.802  69.256  1.00  0.00    -0.684 NA 
HETATM   26  H   UNL     1     -12.875  10.321  68.440  1.00  0.00     0.000 HD 
BRANCH  25  27
HETATM   27  C   UNL     1     -12.151  12.159  69.064  1.00  0.00    -0.153 A  
HETATM   28  C   UNL     1     -11.907  12.714  67.808  1.00  0.00    -0.381 A  
HETATM   29  C   UNL     1     -11.661  14.077  67.622  1.00  0.00    -0.377 A  
HETATM   30  C   UNL     1     -11.687  14.945  68.719  1.00  0.00    -0.325 A  
HETATM   31 CL   UNL     1     -11.298  14.508  65.983  1.00  0.00    -0.338 Cl 
HETATM   32  C   UNL     1     -11.863  14.390  69.997  1.00  0.00    -0.377 A  
HETATM   33  C   UNL     1     -12.087  13.015  70.167  1.00  0.00    -0.377 A  
BRANCH  30  34
HETATM   34  O   UNL     1     -11.550  16.311  68.734  1.00  0.00    -0.342 OA 
BRANCH  34  35
HETATM   35  C   UNL     1     -10.261  16.806  69.089  1.00  0.00    -0.306 C  
BRANCH  35  36
HETATM   36  C   UNL     1      -9.904  18.039  68.301  1.00  0.00    -0.357 A  
HETATM   37  C   UNL     1     -10.709  18.465  67.241  1.00  0.00    -0.389 A  
HETATM   38  C   UNL     1     -10.297  19.535  66.455  1.00  0.00    -0.496 A  
HETATM   39  C   UNL     1      -9.096  20.190  66.705  1.00  0.00    -0.453 A  
HETATM   40  F   UNL     1     -11.060  19.927  65.427  1.00  0.00    -0.529 F  
HETATM   41  C   UNL     1      -8.293  19.775  67.761  1.00  0.00    -0.344 A  
HETATM   42  C   UNL     1      -8.691  18.703  68.556  1.00  0.00    -0.362 A  
ENDBRANCH  35  36
ENDBRANCH  34  35
ENDBRANCH  30  34
ENDBRANCH  25  27
ENDBRANCH  24  25
ENDBRANCH  13  15
ENDBRANCH   9  10
ENDBRANCH   7   9
ENDBRANCH   6   7
ENDBRANCH   5   6
ENDBRANCH   2   5
TORSDOF 11
ENDMDL
MODEL       13
REMARK 921   NORMALIZED FREE ENERGY PREDICTED BY IDOCK:   -6.85 KCAL/MOL
REMARK 922        TOTAL FREE ENERGY PREDICTED BY IDOCK:  -14.00 KCAL/MOL
REMARK 923 INTER-LIGAND FREE ENERGY PREDICTED BY IDOCK:  -11.07 KCAL/MOL
REMARK 924 INTRA-LIGAND FREE ENERGY PREDICTED BY IDOCK:   -2.93 KCAL/MOL
REMARK 927      BINDING AFFINITY PREDICTED BY RF-SCORE:    0.00 PKD
ROOT
HETATM    1  C   UNL     1      -9.229  11.413  65.755  1.00  0.00    -0.208 C  
HETATM    2  S   UNL     1      -9.350  10.295  67.127  1.00  0.00    -0.155 S  
HETATM    3  O   UNL     1     -10.668   9.696  67.097  1.00  0.00    -0.250 OA 
HETATM    4  O   UNL     1      -8.862  10.987  68.303  1.00  0.00    -0.132 OA 
ENDROOT
BRANCH   2   5
HETATM    5  C   UNL     1      -8.162   9.045  66.690  1.00  0.00    -0.118 C  
BRANCH   5   6
HETATM    6  C   UNL     1      -8.356   7.781  67.514  1.00  0.00    -0.120 C  
BRANCH   6   7
HETATM    7  N   UNL     1      -8.694   8.047  68.916  1.00  0.00    -0.131 NA 
HETATM    8  H   UNL     1      -9.225   8.914  69.003  1.00  0.00     0.000 HD 
BRANCH   7   9
HETATM    9  C   UNL     1      -9.399   6.941  69.566  1.00  0.00    -0.147 C  
BRANCH   9  10
HETATM   10  C   UNL     1     -10.601   7.442  70.282  1.00  0.00    -0.231 A  
HETATM   11  C   UNL     1     -11.604   6.821  70.993  1.00  0.00    -0.388 A  
HETATM   12  C   UNL     1     -12.470   7.848  71.438  1.00  0.00    -0.330 A  
HETATM   13  C   UNL     1     -11.936   9.041  70.993  1.00  0.00    -0.269 A  
HETATM   14  O   UNL     1     -10.790   8.789  70.293  1.00  0.00    -0.226 OA 
BRANCH  13  15
HETATM   15  C   UNL     1     -12.317  10.442  71.106  1.00  0.00    -0.505 A  
HETATM   16  C   UNL     1     -11.765  11.415  70.260  1.00  0.00    -0.397 A  
HETATM   17  C   UNL     1     -12.128  12.784  70.373  1.00  0.00    -0.382 A  
HETATM   18  C   UNL     1     -13.055  13.171  71.353  1.00  0.00    -0.266 A  
HETATM   19  C   UNL     1     -13.593  12.207  72.182  1.00  0.00    -0.285 A  
HETATM   20  N   UNL     1     -13.445  14.430  71.547  1.00  0.00    -0.353 NA 
HETATM   21  C   UNL     1     -12.884  15.347  70.763  1.00  0.00    -0.466 A  
HETATM   22  C   UNL     1     -13.237  10.862  72.068  1.00  0.00    -0.456 A  
HETATM   23  N   UNL     1     -11.987  15.107  69.810  1.00  0.00    -0.318 NA 
HETATM   24  C   UNL     1     -11.608  13.839  69.595  1.00  0.00    -0.281 A  
BRANCH  24  25
HETATM   25  N   UNL     1     -10.601  13.562  68.626  1.00  0.00    -0.248 NA 
HETATM   26  H   UNL     1     -10.641  12.639  68.196  1.00  0.00     0.000 HD 
BRANCH  25  27
HETATM   27  C   UNL     1      -9.553  14.402  68.181  1.00  0.00    -0.218 A  
HETATM   28  C   UNL     1      -8.396  14.637  68.924  1.00  0.00    -0.142 A  
HETATM   29  C   UNL     1      -7.326  15.388  68.433  1.00  0.00    -0.114 A  
HETATM   30  C   UNL     1      -7.379  15.911  67.135  1.00  0.00    -0.223 A  
HETATM   31 CL   UNL     1      -6.043  15.613  69.575  1.00  0.00    -0.131 Cl 
HETATM   32  C   UNL     1      -8.565  15.741  66.403  1.00  0.00    -0.346 A  
HETATM   33  C   UNL     1      -9.639  15.000  66.921  1.00  0.00    -0.251 A  
BRANCH  30  34
HETATM   34  O   UNL     1      -6.411  16.601  66.449  1.00  0.00    -0.252 OA 
BRANCH  34  35
HETATM   35  C   UNL     1      -6.130  17.917  66.919  1.00  0.00    -0.153 C  
BRANCH  35  36
HETATM   36  C   UNL     1      -7.390  18.723  67.095  1.00  0.00    -0.222 A  
HETATM   37  C   UNL     1      -7.964  18.881  68.360  1.00  0.00    -0.373 A  
HETATM   38  C   UNL     1      -9.188  19.529  68.480  1.00  0.00    -0.356 A  
HETATM   39  C   UNL     1      -9.853  20.023  67.363  1.00  0.00    -0.558 A  
HETATM   40  F   UNL     1      -9.745  19.660  69.691  1.00  0.00    -0.395 F  
HETATM   41  C   UNL     1      -9.287  19.872  66.103  1.00  0.00    -0.442 A  
HETATM   42  C   UNL     1      -8.062  19.225  65.965  1.00  0.00    -0.234 A  
ENDBRANCH  35  36
ENDBRANCH  34  35
ENDBRANCH  30  34
ENDBRANCH  25  27
ENDBRANCH  24  25
ENDBRANCH  13  15
ENDBRANCH   9  10
ENDBRANCH   7   9
ENDBRANCH   6   7
ENDBRANCH   5   6
ENDBRANCH   2   5
TORSDOF 11
ENDMDL
MODEL       14
REMARK 921   NORMALIZED FREE ENERGY PREDICTED BY IDOCK:   -6.85 KCAL/MOL
REMARK 922        TOTAL FREE ENERGY PREDICTED BY IDOCK:  -14.00 KCAL/MOL
REMARK 923 INTER-LIGAND FREE ENERGY PREDICTED BY IDOCK:  -11.67 KCAL/MOL
REMARK 924 INTRA-LIGAND FREE ENERGY PREDICTED BY IDOCK:   -2.33 KCAL/MOL
REMARK 927      BINDING AFFINITY PREDICTED BY RF-SCORE:    0.00 PKD
ROOT
HETATM    1  C   UNL     1     -10.856   5.407  71.996  1.00  0.00    -0.202 C  
HETATM    2  S   UNL     1     -11.408   6.503  70.714  1.00  0.00    -0.360 S  
HETATM    3  O   UNL     1     -12.762   6.909  71.030  1.00  0.00    -0.356 OA 
HETATM    4  O   UNL     1     -11.081   5.892  69.442  1.00  0.00    -0.363 OA 
ENDROOT
BRANCH   2   5
HETATM    5  C   UNL     1     -10.339   7.906  70.944  1.00  0.00    -0.200 C  
BRANCH   5   6
HETATM    6  C   UNL     1     -11.033   9.011  71.727  1.00  0.00    -0.372 C  
BRANCH   6   7
HETATM    7  N   UNL     1     -11.733   9.977  70.874  1.00  0.00    -0.344 NA 
HETATM    8  H   UNL     1     -11.885   9.593  69.942  1.00  0.00     0.000 HD 
BRANCH   7   9
HETATM    9  C   UNL     1     -12.990  10.458  71.449  1.00  0.00    -0.443 C  
BRANCH   9  10
HETATM   10  C   UNL     1     -13.014  11.943  71.475  1.00  0.00    -0.323 A  
HETATM   11  C   UNL     1     -13.619  12.865  72.302  1.00  0.00    -0.611 A  
HETATM   12  C   UNL     1     -13.260  14.140  71.805  1.00  0.00    -0.450 A  
HETATM   13  C   UNL     1     -12.438  13.928  70.717  1.00  0.00    -0.375 A  
HETATM   14  O   UNL     1     -12.284  12.584  70.523  1.00  0.00    -0.365 OA 
BRANCH  13  15
HETATM   15  C   UNL     1     -11.734  14.790  69.777  1.00  0.00    -0.354 A  
HETATM   16  C   UNL     1     -11.756  14.533  68.400  1.00  0.00    -0.367 A  
HETATM   17  C   UNL     1     -11.063  15.367  67.481  1.00  0.00    -0.315 A  
HETATM   18  C   UNL     1     -10.342  16.470  67.963  1.00  0.00    -0.294 A  
HETATM   19  C   UNL     1     -10.325  16.716  69.322  1.00  0.00    -0.318 A  
HETATM   20  N   UNL     1      -9.648  17.299  67.184  1.00  0.00    -0.250 NA 
HETATM   21  C   UNL     1      -9.646  17.020  65.884  1.00  0.00    -0.112 A  
HETATM   22  C   UNL     1     -11.008  15.896  70.222  1.00  0.00    -0.370 A  
HETATM   23  N   UNL     1     -10.279  16.000  65.309  1.00  0.00    -0.520 NA 
HETATM   24  C   UNL     1     -10.997  15.176  66.086  1.00  0.00    -0.331 A  
BRANCH  24  25
HETATM   25  N   UNL     1     -11.631  14.040  65.505  1.00  0.00    -0.323 NA 
HETATM   26  H   UNL     1     -12.589  14.181  65.186  1.00  0.00     0.000 HD 
BRANCH  25  27
HETATM   27  C   UNL     1     -11.104  12.741  65.312  1.00  0.00    -0.287 A  
HETATM   28  C   UNL     1     -10.406  12.363  64.166  1.00  0.00    -0.409 A  
HETATM   29  C   UNL     1      -9.806  11.109  64.029  1.00  0.00    -0.302 A  
HETATM   30  C   UNL     1      -9.868  10.189  65.082  1.00  0.00    -0.325 A  
HETATM   31 CL   UNL     1      -9.075  10.845  62.480  1.00  0.00    -0.343 Cl 
HETATM   32  C   UNL     1     -10.626  10.530  66.213  1.00  0.00    -0.203 A  
HETATM   33  C   UNL     1     -11.241  11.787  66.324  1.00  0.00    -0.370 A  
BRANCH  30  34
HETATM   34  O   UNL     1      -9.284   8.950  65.172  1.00  0.00    -0.162 OA 
BRANCH  34  35
HETATM   35  C   UNL     1      -7.902   8.934  65.517  1.00  0.00    -0.100 C  
BRANCH  35  36
HETATM   36  C   UNL     1      -7.606   9.865  66.663  1.00  0.00    -0.103 A  
HETATM   37  C   UNL     1      -7.957   9.518  67.971  1.00  0.00    -0.091 A  
HETATM   38  C   UNL     1      -7.782  10.442  68.995  1.00  0.00    -0.116 A  
HETATM   39  C   UNL     1      -7.262  11.706  68.741  1.00  0.00    -0.116 A  
HETATM   40  F   UNL     1      -8.139  10.114  70.243  1.00  0.00    -0.192 F  
HETATM   41  C   UNL     1      -6.907  12.057  67.444  1.00  0.00    -0.142 A  
HETATM   42  C   UNL     1      -7.078  11.143  66.407  1.00  0.00    -0.091 A  
ENDBRANCH  35  36
ENDBRANCH  34  35
ENDBRANCH  30  34
ENDBRANCH  25  27
ENDBRANCH  24  25
ENDBRANCH  13  15
ENDBRANCH   9  10
ENDBRANCH   7   9
ENDBRANCH   6   7
ENDBRANCH   5   6
ENDBRANCH   2   5
TORSDOF 11
ENDMDL
MODEL       15
REMARK 921   NORMALIZED FREE ENERGY PREDICTED BY IDOCK:   -6.84 KCAL/MOL
REMARK 922        TOTAL FREE ENERGY PREDICTED BY IDOCK:  -13.98 KCAL/MOL
REMARK 923 INTER-LIGAND FREE ENERGY PREDICTED BY IDOCK:  -12.03 KCAL/MOL
REMARK 924 INTRA-LIGAND FREE ENERGY PREDICTED BY IDOCK:   -1.95 KCAL/MOL
REMARK 927      BINDING AFFINITY PREDICTED BY RF-SCORE:    0.00 PKD
ROOT
HETATM    1  C   UNL     1      -6.340  14.608  69.988  1.00  0.00    -0.165 C  
HETATM    2  S   UNL     1      -6.869  15.988  69.006  1.00  0.00    -0.171 S  
HETATM    3  O   UNL     1      -8.298  16.140  69.188  1.00  0.00    -0.237 OA 
HETATM    4  O   UNL     1      -6.289  15.839  67.687  1.00  0.00    -0.137 OA 
ENDROOT
BRANCH   2   5
HETATM    5  C   UNL     1      -6.058  17.348  69.816  1.00  0.00    -0.228 C  
BRANCH   5   6
HETATM    6  C   UNL     1      -5.581  18.388  68.812  1.00  0.00    -0.187 C  
BRANCH   6   7
HETATM    7  N   UNL     1      -6.579  19.426  68.531  1.00  0.00    -0.247 NA 
HETATM    8  H   UNL     1      -6.255  20.336  68.858  1.00  0.00     0.000 HD 
BRANCH   7   9
HETATM    9  C   UNL     1      -6.971  19.490  67.123  1.00  0.00    -0.198 C  
BRANCH   9  10
HETATM   10  C   UNL     1      -8.430  19.247  66.979  1.00  0.00    -0.284 A  
HETATM   11  C   UNL     1      -9.547  20.000  67.270  1.00  0.00    -0.527 A  
HETATM   12  C   UNL     1     -10.664  19.212  66.903  1.00  0.00    -0.515 A  
HETATM   13  C   UNL     1     -10.167  18.032  66.386  1.00  0.00    -0.393 A  
HETATM   14  O   UNL     1      -8.801  18.060  66.429  1.00  0.00    -0.317 OA 
BRANCH  13  15
HETATM   15  C   UNL     1     -10.761  16.822  65.834  1.00  0.00    -0.166 A  
HETATM   16  C   UNL     1     -10.759  15.619  66.553  1.00  0.00    -0.293 A  
HETATM   17  C   UNL     1     -11.329  14.434  66.014  1.00  0.00    -0.335 A  
HETATM   18  C   UNL     1     -11.905  14.469  64.735  1.00  0.00    -0.441 A  
HETATM   19  C   UNL     1     -11.903  15.659  64.033  1.00  0.00     0.058 A  
HETATM   20  N   UNL     1     -12.449  13.410  64.138  1.00  0.00    -0.653 NA 
HETATM   21  C   UNL     1     -12.405  12.266  64.816  1.00  0.00    -0.339 A  
HETATM   22  C   UNL     1     -11.343  16.821  64.566  1.00  0.00     0.259 A  
HETATM   23  N   UNL     1     -11.878  12.103  66.027  1.00  0.00    -0.561 NA 
HETATM   24  C   UNL     1     -11.349  13.172  66.642  1.00  0.00    -0.325 A  
BRANCH  24  25
HETATM   25  N   UNL     1     -10.720  13.012  67.910  1.00  0.00    -0.230 NA 
HETATM   26  H   UNL     1      -9.902  13.598  68.077  1.00  0.00     0.000 HD 
BRANCH  25  27
HETATM   27  C   UNL     1     -11.082  12.146  68.969  1.00  0.00    -0.237 A  
HETATM   28  C   UNL     1     -11.958  12.512  69.989  1.00  0.00    -0.372 A  
HETATM   29  C   UNL     1     -12.384  11.617  70.974  1.00  0.00    -0.301 A  
HETATM   30  C   UNL     1     -11.951  10.287  70.939  1.00  0.00    -0.375 A  
HETATM   31 CL   UNL     1     -13.400  12.333  72.182  1.00  0.00    -0.587 Cl 
HETATM   32  C   UNL     1     -11.015   9.922  69.959  1.00  0.00    -0.338 A  
HETATM   33  C   UNL     1     -10.582  10.840  68.990  1.00  0.00    -0.250 A  
BRANCH  30  34
HETATM   34  O   UNL     1     -12.313   9.247  71.760  1.00  0.00    -0.332 OA 
BRANCH  34  35
HETATM   35  C   UNL     1     -12.102   7.938  71.239  1.00  0.00    -0.296 C  
BRANCH  35  36
HETATM   36  C   UNL     1     -11.424   7.044  72.243  1.00  0.00    -0.308 A  
HETATM   37  C   UNL     1     -11.785   5.698  72.358  1.00  0.00    -0.240 A  
HETATM   38  C   UNL     1     -11.230   4.924  73.370  1.00  0.00    -0.338 A  
HETATM   39  C   UNL     1     -10.319   5.465  74.272  1.00  0.00    -0.302 A  
HETATM   40  F   UNL     1     -11.594   3.641  73.491  1.00  0.00    -0.330 F  
HETATM   41  C   UNL     1      -9.952   6.801  74.161  1.00  0.00    -0.373 A  
HETATM   42  C   UNL     1     -10.501   7.590  73.153  1.00  0.00    -0.419 A  
ENDBRANCH  35  36
ENDBRANCH  34  35
ENDBRANCH  30  34
ENDBRANCH  25  27
ENDBRANCH  24  25
ENDBRANCH  13  15
ENDBRANCH   9  10
ENDBRANCH   7   9
ENDBRANCH   6   7
ENDBRANCH   5   6
ENDBRANCH   2   5
TORSDOF 11
ENDMDL
MODEL       16
REMARK 921   NORMALIZED FREE ENERGY PREDICTED BY IDOCK:   -6.80 KCAL/MOL
REMARK 922        TOTAL FREE ENERGY PREDICTED BY IDOCK:  -13.91 KCAL/MOL
REMARK 923 INTER-LIGAND FREE ENERGY PREDICTED BY IDOCK:  -12.49 KCAL/MOL
REMARK 924 INTRA-LIGAND FREE ENERGY PREDICTED BY IDOCK:   -1.43 KCAL/MOL
REMARK 927      BINDING AFFINITY PREDICTED BY RF-SCORE:    0.00 PKD
ROOT
HETATM    1  C   UNL     1      -7.583  19.751  67.560  1.00  0.00    -0.275 C  
HETATM    2  S   UNL     1      -8.314  18.502  66.535  1.00  0.00    -0.268 S  
HETATM    3  O   UNL     1      -7.382  18.201  65.467  1.00  0.00    -0.543 OA 
HETATM    4  O   UNL     1      -9.677  18.904  66.254  1.00  0.00    -0.348 OA 
ENDROOT
BRANCH   2   5
HETATM    5  C   UNL     1      -8.366  17.105  67.636  1.00  0.00    -0.192 C  
BRANCH   5   6
HETATM    6  C   UNL     1      -9.424  16.099  67.208  1.00  0.00    -0.226 C  
BRANCH   6   7
HETATM    7  N   UNL     1      -9.503  15.920  65.754  1.00  0.00    -0.361 NA 
HETATM    8  H   UNL     1      -9.031  15.062  65.469  1.00  0.00     0.000 HD 
BRANCH   7   9
HETATM    9  C   UNL     1     -10.871  15.955  65.236  1.00  0.00    -0.387 C  
BRANCH   9  10
HETATM   10  C   UNL     1     -11.251  14.629  64.685  1.00  0.00    -0.346 A  
HETATM   11  C   UNL     1     -12.360  14.168  64.010  1.00  0.00    -0.315 A  
HETATM   12  C   UNL     1     -12.126  12.797  63.750  1.00  0.00    -0.596 A  
HETATM   13  C   UNL     1     -10.877  12.502  64.259  1.00  0.00    -0.364 A  
HETATM   14  O   UNL     1     -10.343  13.626  64.824  1.00  0.00    -0.400 OA 
BRANCH  13  15
HETATM   15  C   UNL     1     -10.050  11.305  64.321  1.00  0.00    -0.366 A  
HETATM   16  C   UNL     1      -9.587  10.804  65.545  1.00  0.00    -0.269 A  
HETATM   17  C   UNL     1      -8.772   9.642  65.608  1.00  0.00    -0.163 A  
HETATM   18  C   UNL     1      -8.422   8.983  64.420  1.00  0.00    -0.174 A  
HETATM   19  C   UNL     1      -8.882   9.483  63.217  1.00  0.00    -0.233 A  
HETATM   20  N   UNL     1      -7.650   7.898  64.375  1.00  0.00    -0.108 NA 
HETATM   21  C   UNL     1      -7.186   7.457  65.540  1.00  0.00    -0.066 A  
HETATM   22  C   UNL     1      -9.684  10.624  63.159  1.00  0.00    -0.375 A  
HETATM   23  N   UNL     1      -7.437   8.000  66.729  1.00  0.00    -0.089 NA 
HETATM   24  C   UNL     1      -8.232   9.079  66.783  1.00  0.00    -0.115 A  
BRANCH  24  25
HETATM   25  N   UNL     1      -8.462   9.719  68.035  1.00  0.00    -0.117 NA 
HETATM   26  H   UNL     1      -7.648  10.153  68.467  1.00  0.00     0.000 HD 
BRANCH  25  27
HETATM   27  C   UNL     1      -9.674   9.830  68.756  1.00  0.00    -0.161 A  
HETATM   28  C   UNL     1      -9.883   9.228  69.996  1.00  0.00    -0.232 A  
HETATM   29  C   UNL     1     -11.046   9.426  70.743  1.00  0.00    -0.300 A  
HETATM   30  C   UNL     1     -12.043  10.283  70.265  1.00  0.00    -0.249 A  
HETATM   31 CL   UNL     1     -11.108   8.499  72.206  1.00  0.00    -0.432 Cl 
HETATM   32  C   UNL     1     -11.877  10.842  68.988  1.00  0.00    -0.370 A  
HETATM   33  C   UNL     1     -10.710  10.615  68.241  1.00  0.00    -0.260 A  
BRANCH  30  34
HETATM   34  O   UNL     1     -13.211  10.666  70.878  1.00  0.00    -0.317 OA 
BRANCH  34  35
HETATM   35  C   UNL     1     -13.068  11.468  72.047  1.00  0.00    -0.324 C  
BRANCH  35  36
HETATM   36  C   UNL     1     -13.168  12.937  71.727  1.00  0.00    -0.479 A  
HETATM   37  C   UNL     1     -12.200  13.561  70.935  1.00  0.00    -0.387 A  
HETATM   38  C   UNL     1     -12.248  14.938  70.753  1.00  0.00    -0.325 A  
HETATM   39  C   UNL     1     -13.245  15.707  71.344  1.00  0.00    -0.540 A  
HETATM   40  F   UNL     1     -11.307  15.536  70.011  1.00  0.00    -0.234 F  
HETATM   41  C   UNL     1     -14.213  15.093  72.130  1.00  0.00    -0.656 A  
HETATM   42  C   UNL     1     -14.178  13.714  72.324  1.00  0.00    -0.521 A  
ENDBRANCH  35  36
ENDBRANCH  34  35
ENDBRANCH  30  34
ENDBRANCH  25  27
ENDBRANCH  24  25
ENDBRANCH  13  15
ENDBRANCH   9  10
ENDBRANCH   7   9
ENDBRANCH   6   7
ENDBRANCH   5   6
ENDBRANCH   2   5
TORSDOF 11
ENDMDL
MODEL       17
REMARK 921   NORMALIZED FREE ENERGY PREDICTED BY IDOCK:   -6.79 KCAL/MOL
REMARK 922        TOTAL FREE ENERGY PREDICTED BY IDOCK:  -13.91 KCAL/MOL
REMARK 923 INTER-LIGAND FREE ENERGY PREDICTED BY IDOCK:  -12.04 KCAL/MOL
REMARK 924 INTRA-LIGAND FREE ENERGY PREDICTED BY IDOCK:   -1.87 KCAL/MOL
REMARK 927      BINDING AFFINITY PREDICTED BY RF-SCORE:    0.00 PKD
ROOT
HETATM    1  C   UNL     1     -11.911  15.731  64.118  1.00  0.00    -0.030 C  
HETATM    2  S   UNL     1     -12.062  14.149  64.905  1.00  0.00    -0.447 S  
HETATM    3  O   UNL     1     -13.374  14.080  65.517  1.00  0.00    -0.673 OA 
HETATM    4  O   UNL     1     -10.857  13.924  65.678  1.00  0.00    -0.283 OA 
ENDROOT
BRANCH   2   5
HETATM    5  C   UNL     1     -12.039  13.042  63.513  1.00  0.00    -0.542 C  
BRANCH   5   6
HETATM    6  C   UNL     1     -10.677  12.382  63.349  1.00  0.00    -0.352 C  
BRANCH   6   7
HETATM    7  N   UNL     1     -10.742  10.918  63.301  1.00  0.00    -0.697 NA 
HETATM    8  H   UNL     1     -10.923  10.595  62.350  1.00  0.00     0.000 HD 
BRANCH   7   9
HETATM    9  C   UNL     1      -9.555  10.264  63.854  1.00  0.00    -0.293 C  
BRANCH   9  10
HETATM   10  C   UNL     1      -9.784   9.886  65.272  1.00  0.00    -0.313 A  
HETATM   11  C   UNL     1      -9.548   8.737  65.994  1.00  0.00    -0.297 A  
HETATM   12  C   UNL     1      -9.987   8.999  67.314  1.00  0.00    -0.275 A  
HETATM   13  C   UNL     1     -10.446  10.301  67.330  1.00  0.00    -0.253 A  
HETATM   14  O   UNL     1     -10.314  10.842  66.082  1.00  0.00    -0.241 OA 
BRANCH  13  15
HETATM   15  C   UNL     1     -11.014  11.177  68.345  1.00  0.00    -0.277 A  
HETATM   16  C   UNL     1     -11.779  10.664  69.402  1.00  0.00    -0.344 A  
HETATM   17  C   UNL     1     -12.342  11.516  70.390  1.00  0.00    -0.390 A  
HETATM   18  C   UNL     1     -12.130  12.901  70.304  1.00  0.00    -0.302 A  
HETATM   19  C   UNL     1     -11.377  13.399  69.259  1.00  0.00    -0.314 A  
HETATM   20  N   UNL     1     -12.630  13.781  71.170  1.00  0.00    -0.360 NA 
HETATM   21  C   UNL     1     -13.386  13.283  72.145  1.00  0.00    -0.523 A  
HETATM   22  C   UNL     1     -10.823  12.559  68.291  1.00  0.00    -0.258 A  
HETATM   23  N   UNL     1     -13.668  11.995  72.325  1.00  0.00    -0.152 NA 
HETATM   24  C   UNL     1     -13.149  11.103  71.469  1.00  0.00    -0.385 A  
BRANCH  24  25
HETATM   25  N   UNL     1     -13.489   9.725  71.601  1.00  0.00    -0.372 NA 
HETATM   26  H   UNL     1     -14.476   9.499  71.485  1.00  0.00     0.000 HD 
BRANCH  25  27
HETATM   27  C   UNL     1     -12.635   8.630  71.872  1.00  0.00    -0.359 A  
HETATM   28  C   UNL     1     -11.418   8.757  72.538  1.00  0.00    -0.183 A  
HETATM   29  C   UNL     1     -10.631   7.656  72.886  1.00  0.00    -0.354 A  
HETATM   30  C   UNL     1     -11.076   6.362  72.593  1.00  0.00    -0.261 A  
HETATM   31 CL   UNL     1      -9.122   8.077  73.627  1.00  0.00    -0.329 Cl 
HETATM   32  C   UNL     1     -12.266   6.223  71.862  1.00  0.00    -0.256 A  
HETATM   33  C   UNL     1     -13.033   7.342  71.501  1.00  0.00    -0.434 A  
BRANCH  30  34
HETATM   34  O   UNL     1     -10.493   5.162  72.918  1.00  0.00    -0.188 OA 
BRANCH  34  35
HETATM   35  C   UNL     1      -9.163   4.966  72.448  1.00  0.00    -0.133 C  
BRANCH  35  36
HETATM   36  C   UNL     1      -9.098   4.978  70.944  1.00  0.00    -0.181 A  
HETATM   37  C   UNL     1      -9.610   3.911  70.200  1.00  0.00    -0.267 A  
HETATM   38  C   UNL     1      -9.433   3.889  68.822  1.00  0.00    -0.155 A  
HETATM   39  C   UNL     1      -8.754   4.912  68.168  1.00  0.00    -0.108 A  
HETATM   40  F   UNL     1      -9.906   2.855  68.115  1.00  0.00    -0.229 F  
HETATM   41  C   UNL     1      -8.245   5.978  68.900  1.00  0.00    -0.104 A  
HETATM   42  C   UNL     1      -8.413   6.014  70.282  1.00  0.00    -0.124 A  
ENDBRANCH  35  36
ENDBRANCH  34  35
ENDBRANCH  30  34
ENDBRANCH  25  27
ENDBRANCH  24  25
ENDBRANCH  13  15
ENDBRANCH   9  10
ENDBRANCH   7   9
ENDBRANCH   6   7
ENDBRANCH   5   6
ENDBRANCH   2   5
TORSDOF 11
ENDMDL
MODEL       18
REMARK 921   NORMALIZED FREE ENERGY PREDICTED BY IDOCK:   -6.79 KCAL/MOL
REMARK 922        TOTAL FREE ENERGY PREDICTED BY IDOCK:  -13.89 KCAL/MOL
REMARK 923 INTER-LIGAND FREE ENERGY PREDICTED BY IDOCK:  -12.14 KCAL/MOL
REMARK 924 INTRA-LIGAND FREE ENERGY PREDICTED BY IDOCK:   -1.76 KCAL/MOL
REMARK 927      BINDING AFFINITY PREDICTED BY RF-SCORE:    0.00 PKD
ROOT
HETATM    1  C   UNL     1     -12.154  14.639  64.480  1.00  0.00    -0.475 C  
HETATM    2  S   UNL     1     -12.226  13.035  65.234  1.00  0.00    -0.487 S  
HETATM    3  O   UNL     1     -13.234  12.262  64.538  1.00  0.00    -0.799 OA 
HETATM    4  O   UNL     1     -12.278  13.225  66.669  1.00  0.00    -0.370 OA 
ENDROOT
BRANCH   2   5
HETATM    5  C   UNL     1     -10.630  12.364  64.824  1.00  0.00    -0.300 C  
BRANCH   5   6
HETATM    6  C   UNL     1     -10.734  11.316  63.725  1.00  0.00    -0.379 C  
BRANCH   6   7
HETATM    7  N   UNL     1      -9.950  10.107  63.998  1.00  0.00    -0.473 NA 
HETATM    8  H   UNL     1      -9.022  10.176  63.580  1.00  0.00     0.000 HD 
BRANCH   7   9
HETATM    9  C   UNL     1      -9.855   9.784  65.422  1.00  0.00    -0.295 C  
BRANCH   9  10
HETATM   10  C   UNL     1      -9.061   8.544  65.620  1.00  0.00    -0.132 A  
HETATM   11  C   UNL     1      -7.953   8.019  64.990  1.00  0.00    -0.126 A  
HETATM   12  C   UNL     1      -7.666   6.798  65.643  1.00  0.00    -0.102 A  
HETATM   13  C   UNL     1      -8.599   6.655  66.651  1.00  0.00    -0.123 A  
HETATM   14  O   UNL     1      -9.445   7.727  66.638  1.00  0.00    -0.181 OA 
BRANCH  13  15
HETATM   15  C   UNL     1      -8.860   5.652  67.674  1.00  0.00    -0.105 A  
HETATM   16  C   UNL     1      -9.046   6.014  69.016  1.00  0.00    -0.122 A  
HETATM   17  C   UNL     1      -9.292   5.037  70.018  1.00  0.00    -0.208 A  
HETATM   18  C   UNL     1      -9.348   3.682  69.658  1.00  0.00    -0.173 A  
HETATM   19  C   UNL     1      -9.162   3.333  68.335  1.00  0.00    -0.235 A  
HETATM   20  N   UNL     1      -9.556   2.693  70.526  1.00  0.00    -0.121 NA 
HETATM   21  C   UNL     1      -9.692   3.049  71.800  1.00  0.00    -0.160 A  
HETATM   22  C   UNL     1      -8.922   4.295  67.351  1.00  0.00    -0.134 A  
HETATM   23  N   UNL     1      -9.648   4.294  72.266  1.00  0.00    -0.135 NA 
HETATM   24  C   UNL     1      -9.461   5.295  71.393  1.00  0.00    -0.151 A  
BRANCH  24  25
HETATM   25  N   UNL     1      -9.344   6.632  71.874  1.00  0.00    -0.148 NA 
HETATM   26  H   UNL     1      -8.549   6.815  72.485  1.00  0.00     0.000 HD 
BRANCH  25  27
HETATM   27  C   UNL     1     -10.187   7.738  71.613  1.00  0.00    -0.186 A  
HETATM   28  C   UNL     1      -9.874   8.736  70.691  1.00  0.00    -0.237 A  
HETATM   29  C   UNL     1     -10.757   9.770  70.371  1.00  0.00    -0.308 A  
HETATM   30  C   UNL     1     -12.025   9.810  70.964  1.00  0.00    -0.352 A  
HETATM   31 CL   UNL     1     -10.105  10.935  69.267  1.00  0.00    -0.204 Cl 
HETATM   32  C   UNL     1     -12.327   8.852  71.944  1.00  0.00    -0.445 A  
HETATM   33  C   UNL     1     -11.418   7.833  72.269  1.00  0.00    -0.384 A  
BRANCH  30  34
HETATM   34  O   UNL     1     -13.053  10.688  70.726  1.00  0.00    -0.341 OA 
BRANCH  34  35
HETATM   35  C   UNL     1     -13.498  11.448  71.847  1.00  0.00    -0.176 C  
BRANCH  35  36
HETATM   36  C   UNL     1     -13.222  12.917  71.665  1.00  0.00    -0.416 A  
HETATM   37  C   UNL     1     -13.860  13.866  72.470  1.00  0.00    -0.620 A  
HETATM   38  C   UNL     1     -13.681  15.219  72.206  1.00  0.00    -0.510 A  
HETATM   39  C   UNL     1     -12.878  15.646  71.154  1.00  0.00    -0.540 A  
HETATM   40  F   UNL     1     -14.310  16.125  72.966  1.00  0.00    -0.665 F  
HETATM   41  C   UNL     1     -12.238  14.708  70.352  1.00  0.00    -0.391 A  
HETATM   42  C   UNL     1     -12.408  13.349  70.602  1.00  0.00    -0.423 A  
ENDBRANCH  35  36
ENDBRANCH  34  35
ENDBRANCH  30  34
ENDBRANCH  25  27
ENDBRANCH  24  25
ENDBRANCH  13  15
ENDBRANCH   9  10
ENDBRANCH   7   9
ENDBRANCH   6   7
ENDBRANCH   5   6
ENDBRANCH   2   5
TORSDOF 11
ENDMDL
MODEL       19
REMARK 921   NORMALIZED FREE ENERGY PREDICTED BY IDOCK:   -6.78 KCAL/MOL
REMARK 922        TOTAL FREE ENERGY PREDICTED BY IDOCK:  -13.88 KCAL/MOL
REMARK 923 INTER-LIGAND FREE ENERGY PREDICTED BY IDOCK:  -10.51 KCAL/MOL
REMARK 924 INTRA-LIGAND FREE ENERGY PREDICTED BY IDOCK:   -3.37 KCAL/MOL
REMARK 927      BINDING AFFINITY PREDICTED BY RF-SCORE:    0.00 PKD
ROOT
HETATM    1  C   UNL     1      -8.025  12.920  67.494  1.00  0.00    -0.178 C  
HETATM    2  S   UNL     1      -7.607  11.196  67.550  1.00  0.00    -0.113 S  
HETATM    3  O   UNL     1      -8.235  10.625  68.724  1.00  0.00    -0.125 OA 
HETATM    4  O   UNL     1      -6.180  11.081  67.326  1.00  0.00    -0.058 OA 
ENDROOT
BRANCH   2   5
HETATM    5  C   UNL     1      -8.443  10.568  66.111  1.00  0.00    -0.153 C  
BRANCH   5   6
HETATM    6  C   UNL     1      -7.673   9.418  65.478  1.00  0.00    -0.099 C  
BRANCH   6   7
HETATM    7  N   UNL     1      -7.131   8.472  66.459  1.00  0.00    -0.078 NA 
HETATM    8  H   UNL     1      -7.460   8.696  67.399  1.00  0.00     0.000 HD 
BRANCH   7   9
HETATM    9  C   UNL     1      -7.410   7.072  66.134  1.00  0.00    -0.075 C  
BRANCH   9  10
HETATM   10  C   UNL     1      -8.105   6.405  67.265  1.00  0.00    -0.113 A  
HETATM   11  C   UNL     1      -8.003   5.153  67.831  1.00  0.00    -0.095 A  
HETATM   12  C   UNL     1      -8.941   5.118  68.890  1.00  0.00    -0.122 A  
HETATM   13  C   UNL     1      -9.548   6.358  68.927  1.00  0.00    -0.126 A  
HETATM   14  O   UNL     1      -9.029   7.144  67.936  1.00  0.00    -0.124 OA 
BRANCH  13  15
HETATM   15  C   UNL     1     -10.574   6.975  69.756  1.00  0.00    -0.253 A  
HETATM   16  C   UNL     1     -10.703   8.368  69.835  1.00  0.00    -0.227 A  
HETATM   17  C   UNL     1     -11.697   8.974  70.650  1.00  0.00    -0.237 A  
HETATM   18  C   UNL     1     -12.566   8.160  71.393  1.00  0.00    -0.283 A  
HETATM   19  C   UNL     1     -12.432   6.788  71.310  1.00  0.00    -0.365 A  
HETATM   20  N   UNL     1     -13.517   8.633  72.197  1.00  0.00    -0.386 NA 
HETATM   21  C   UNL     1     -13.602   9.957  72.292  1.00  0.00    -0.242 A  
HETATM   22  C   UNL     1     -11.455   6.196  70.507  1.00  0.00    -0.330 A  
HETATM   23  N   UNL     1     -12.832  10.831  71.649  1.00  0.00    -0.449 NA 
HETATM   24  C   UNL     1     -11.887  10.360  70.821  1.00  0.00    -0.368 A  
BRANCH  24  25
HETATM   25  N   UNL     1     -11.006  11.273  70.171  1.00  0.00    -0.433 NA 
HETATM   26  H   UNL     1     -10.029  11.227  70.461  1.00  0.00     0.000 HD 
BRANCH  25  27
HETATM   27  C   UNL     1     -11.308  12.233  69.178  1.00  0.00    -0.272 A  
HETATM   28  C   UNL     1     -11.336  13.605  69.425  1.00  0.00    -0.303 A  
HETATM   29  C   UNL     1     -11.539  14.548  68.415  1.00  0.00    -0.326 A  
HETATM   30  C   UNL     1     -11.692  14.127  67.090  1.00  0.00    -0.403 A  
HETATM   31 CL   UNL     1     -11.620  16.182  68.987  1.00  0.00    -0.336 Cl 
HETATM   32  C   UNL     1     -11.736  12.747  66.836  1.00  0.00    -0.447 A  
HETATM   33  C   UNL     1     -11.551  11.812  67.867  1.00  0.00    -0.377 A  
BRANCH  30  34
HETATM   34  O   UNL     1     -11.822  14.892  65.957  1.00  0.00    -0.257 OA 
BRANCH  34  35
HETATM   35  C   UNL     1     -10.608  15.267  65.314  1.00  0.00    -0.417 C  
BRANCH  35  36
HETATM   36  C   UNL     1      -9.985  16.474  65.965  1.00  0.00    -0.359 A  
HETATM   37  C   UNL     1     -10.609  17.722  65.897  1.00  0.00    -0.205 A  
HETATM   38  C   UNL     1      -9.958  18.842  66.402  1.00  0.00    -0.393 A  
HETATM   39  C   UNL     1      -8.695  18.742  66.974  1.00  0.00    -0.291 A  
HETATM   40  F   UNL     1     -10.550  20.040  66.316  1.00  0.00    -0.526 F  
HETATM   41  C   UNL     1      -8.069  17.503  67.049  1.00  0.00    -0.240 A  
HETATM   42  C   UNL     1      -8.707  16.372  66.546  1.00  0.00    -0.324 A  
ENDBRANCH  35  36
ENDBRANCH  34  35
ENDBRANCH  30  34
ENDBRANCH  25  27
ENDBRANCH  24  25
ENDBRANCH  13  15
ENDBRANCH   9  10
ENDBRANCH   7   9
ENDBRANCH   6   7
ENDBRANCH   5   6
ENDBRANCH   2   5
TORSDOF 11
ENDMDL
MODEL       20
REMARK 921   NORMALIZED FREE ENERGY PREDICTED BY IDOCK:   -6.76 KCAL/MOL
REMARK 922        TOTAL FREE ENERGY PREDICTED BY IDOCK:  -13.85 KCAL/MOL
REMARK 923 INTER-LIGAND FREE ENERGY PREDICTED BY IDOCK:  -11.84 KCAL/MOL
REMARK 924 INTRA-LIGAND FREE ENERGY PREDICTED BY IDOCK:   -2.01 KCAL/MOL
REMARK 927      BINDING AFFINITY PREDICTED BY RF-SCORE:    0.00 PKD
ROOT
HETATM    1  C   UNL     1     -13.740   8.922  72.534  1.00  0.00    -0.414 C  
HETATM    2  S   UNL     1     -12.230   8.516  71.695  1.00  0.00    -0.340 S  
HETATM    3  O   UNL     1     -11.515   9.751  71.446  1.00  0.00    -0.371 OA 
HETATM    4  O   UNL     1     -12.556   7.603  70.619  1.00  0.00    -0.020 OA 
ENDROOT
BRANCH   2   5
HETATM    5  C   UNL     1     -11.349   7.606  72.944  1.00  0.00    -0.341 C  
BRANCH   5   6
HETATM    6  C   UNL     1      -9.854   7.884  72.883  1.00  0.00    -0.282 C  
BRANCH   6   7
HETATM    7  N   UNL     1      -9.358   8.101  71.520  1.00  0.00    -0.149 NA 
HETATM    8  H   UNL     1      -8.667   8.852  71.502  1.00  0.00     0.000 HD 
BRANCH   7   9
HETATM    9  C   UNL     1      -8.824   6.891  70.895  1.00  0.00    -0.149 C  
BRANCH   9  10
HETATM   10  C   UNL     1      -9.427   6.691  69.552  1.00  0.00    -0.147 A  
HETATM   11  C   UNL     1     -10.423   5.867  69.076  1.00  0.00    -0.332 A  
HETATM   12  C   UNL     1     -10.543   6.146  67.694  1.00  0.00    -0.340 A  
HETATM   13  C   UNL     1      -9.630   7.141  67.407  1.00  0.00    -0.137 A  
HETATM   14  O   UNL     1      -8.955   7.477  68.546  1.00  0.00    -0.130 OA 
BRANCH  13  15
HETATM   15  C   UNL     1      -9.251   7.872  66.205  1.00  0.00    -0.231 A  
HETATM   16  C   UNL     1      -9.853   9.096  65.880  1.00  0.00    -0.305 A  
HETATM   17  C   UNL     1      -9.493   9.807  64.704  1.00  0.00    -0.295 A  
HETATM   18  C   UNL     1      -8.516   9.274  63.850  1.00  0.00    -0.190 A  
HETATM   19  C   UNL     1      -7.928   8.068  64.177  1.00  0.00    -0.137 A  
HETATM   20  N   UNL     1      -8.123   9.857  62.718  1.00  0.00    -0.126 NA 
HETATM   21  C   UNL     1      -8.731  10.997  62.403  1.00  0.00    -0.303 A  
HETATM   22  C   UNL     1      -8.283   7.371  65.334  1.00  0.00    -0.135 A  
HETATM   23  N   UNL     1      -9.677  11.596  63.122  1.00  0.00    -0.399 NA 
HETATM   24  C   UNL     1     -10.059  11.025  64.274  1.00  0.00    -0.339 A  
BRANCH  24  25
HETATM   25  N   UNL     1     -11.116  11.610  65.030  1.00  0.00    -0.281 NA 
HETATM   26  H   UNL     1     -12.050  11.244  64.843  1.00  0.00     0.000 HD 
BRANCH  25  27
HETATM   27  C   UNL     1     -11.040  12.632  66.005  1.00  0.00    -0.287 A  
HETATM   28  C   UNL     1      -9.849  13.011  66.622  1.00  0.00    -0.252 A  
HETATM   29  C   UNL     1      -9.769  14.086  67.511  1.00  0.00    -0.232 A  
HETATM   30  C   UNL     1     -10.911  14.848  67.785  1.00  0.00    -0.293 A  
HETATM   31 CL   UNL     1      -8.201  14.302  68.213  1.00  0.00    -0.141 Cl 
HETATM   32  C   UNL     1     -12.130  14.435  67.225  1.00  0.00    -0.358 A  
HETATM   33  C   UNL     1     -12.195  13.339  66.351  1.00  0.00    -0.419 A  
BRANCH  30  34
HETATM   34  O   UNL     1     -11.022  15.976  68.559  1.00  0.00    -0.290 OA 
BRANCH  34  35
HETATM   35  C   UNL     1     -10.619  15.843  69.919  1.00  0.00    -0.326 C  
BRANCH  35  36
HETATM   36  C   UNL     1     -11.709  15.238  70.763  1.00  0.00    -0.377 A  
HETATM   37  C   UNL     1     -12.380  16.006  71.719  1.00  0.00    -0.496 A  
HETATM   38  C   UNL     1     -13.298  15.396  72.567  1.00  0.00    -0.471 A  
HETATM   39  C   UNL     1     -13.561  14.034  72.480  1.00  0.00    -0.670 A  
HETATM   40  F   UNL     1     -13.923  16.131  73.496  1.00  0.00    -0.553 F  
HETATM   41  C   UNL     1     -12.901  13.264  71.529  1.00  0.00    -0.419 A  
HETATM   42  C   UNL     1     -11.978  13.859  70.674  1.00  0.00    -0.364 A  
ENDBRANCH  35  36
ENDBRANCH  34  35
ENDBRANCH  30  34
ENDBRANCH  25  27
ENDBRANCH  24  25
ENDBRANCH  13  15
ENDBRANCH   9  10
ENDBRANCH   7   9
ENDBRANCH   6   7
ENDBRANCH   5   6
ENDBRANCH   2   5
TORSDOF 11
ENDMDL
MODEL       21
REMARK 921   NORMALIZED FREE ENERGY PREDICTED BY IDOCK:   -6.74 KCAL/MOL
REMARK 922        TOTAL FREE ENERGY PREDICTED BY IDOCK:  -13.82 KCAL/MOL
REMARK 923 INTER-LIGAND FREE ENERGY PREDICTED BY IDOCK:  -11.63 KCAL/MOL
REMARK 924 INTRA-LIGAND FREE ENERGY PREDICTED BY IDOCK:   -2.19 KCAL/MOL
REMARK 927      BINDING AFFINITY PREDICTED BY RF-SCORE:    0.00 PKD
ROOT
HETATM    1  C   UNL     1     -11.205  15.102  64.957  1.00  0.00    -0.409 C  
HETATM    2  S   UNL     1     -12.380  13.791  64.740  1.00  0.00    -0.366 S  
HETATM    3  O   UNL     1     -12.415  13.453  63.332  1.00  0.00    -0.753 OA 
HETATM    4  O   UNL     1     -13.585  14.156  65.458  1.00  0.00    -0.568 OA 
ENDROOT
BRANCH   2   5
HETATM    5  C   UNL     1     -11.602  12.451  65.614  1.00  0.00    -0.392 C  
BRANCH   5   6
HETATM    6  C   UNL     1     -10.091  12.476  65.436  1.00  0.00    -0.267 C  
BRANCH   6   7
HETATM    7  N   UNL     1      -9.663  12.212  64.058  1.00  0.00    -0.548 NA 
HETATM    8  H   UNL     1      -8.683  12.466  63.928  1.00  0.00     0.000 HD 
BRANCH   7   9
HETATM    9  C   UNL     1      -9.903  10.835  63.627  1.00  0.00    -0.350 C  
BRANCH   9  10
HETATM   10  C   UNL     1      -8.904   9.919  64.237  1.00  0.00    -0.225 A  
HETATM   11  C   UNL     1      -7.528   9.869  64.211  1.00  0.00    -0.136 A  
HETATM   12  C   UNL     1      -7.156   8.751  64.994  1.00  0.00    -0.080 A  
HETATM   13  C   UNL     1      -8.324   8.194  65.475  1.00  0.00    -0.153 A  
HETATM   14  O   UNL     1      -9.390   8.915  65.015  1.00  0.00    -0.083 OA 
BRANCH  13  15
HETATM   15  C   UNL     1      -8.646   7.056  66.325  1.00  0.00    -0.142 A  
HETATM   16  C   UNL     1      -8.923   7.223  67.689  1.00  0.00    -0.126 A  
HETATM   17  C   UNL     1      -9.228   6.114  68.523  1.00  0.00    -0.115 A  
HETATM   18  C   UNL     1      -9.251   4.824  67.970  1.00  0.00    -0.123 A  
HETATM   19  C   UNL     1      -8.976   4.668  66.626  1.00  0.00    -0.112 A  
HETATM   20  N   UNL     1      -9.509   3.723  68.673  1.00  0.00    -0.163 NA 
HETATM   21  C   UNL     1      -9.731   3.893  69.974  1.00  0.00    -0.172 A  
HETATM   22  C   UNL     1      -8.678   5.759  65.809  1.00  0.00    -0.152 A  
HETATM   23  N   UNL     1      -9.726   5.059  70.614  1.00  0.00    -0.183 NA 
HETATM   24  C   UNL     1      -9.489   6.174  69.907  1.00  0.00    -0.152 A  
BRANCH  24  25
HETATM   25  N   UNL     1      -9.412   7.428  70.580  1.00  0.00    -0.162 NA 
HETATM   26  H   UNL     1      -8.503   7.662  70.978  1.00  0.00     0.000 HD 
BRANCH  25  27
HETATM   27  C   UNL     1     -10.431   8.391  70.767  1.00  0.00    -0.197 A  
HETATM   28  C   UNL     1     -11.594   8.141  71.495  1.00  0.00    -0.315 A  
HETATM   29  C   UNL     1     -12.547   9.128  71.755  1.00  0.00    -0.370 A  
HETATM   30  C   UNL     1     -12.334  10.436  71.304  1.00  0.00    -0.401 A  
HETATM   31 CL   UNL     1     -13.944   8.551  72.601  1.00  0.00    -0.286 Cl 
HETATM   32  C   UNL     1     -11.203  10.687  70.512  1.00  0.00    -0.270 A  
HETATM   33  C   UNL     1     -10.267   9.676  70.242  1.00  0.00    -0.333 A  
BRANCH  30  34
HETATM   34  O   UNL     1     -13.104  11.553  71.522  1.00  0.00    -0.422 OA 
BRANCH  34  35
HETATM   35  C   UNL     1     -12.904  12.635  70.618  1.00  0.00     0.056 C  
BRANCH  35  36
HETATM   36  C   UNL     1     -12.681  13.934  71.347  1.00  0.00    -0.445 A  
HETATM   37  C   UNL     1     -11.995  14.986  70.734  1.00  0.00    -0.371 A  
HETATM   38  C   UNL     1     -11.698  16.129  71.468  1.00  0.00    -0.464 A  
HETATM   39  C   UNL     1     -12.073  16.245  72.802  1.00  0.00    -0.637 A  
HETATM   40  F   UNL     1     -11.022  17.127  70.885  1.00  0.00    -0.031 F  
HETATM   41  C   UNL     1     -12.760  15.204  73.416  1.00  0.00    -0.661 A  
HETATM   42  C   UNL     1     -13.063  14.051  72.696  1.00  0.00    -0.553 A  
ENDBRANCH  35  36
ENDBRANCH  34  35
ENDBRANCH  30  34
ENDBRANCH  25  27
ENDBRANCH  24  25
ENDBRANCH  13  15
ENDBRANCH   9  10
ENDBRANCH   7   9
ENDBRANCH   6   7
ENDBRANCH   5   6
ENDBRANCH   2   5
TORSDOF 11
ENDMDL
MODEL       22
REMARK 921   NORMALIZED FREE ENERGY PREDICTED BY IDOCK:   -6.73 KCAL/MOL
REMARK 922        TOTAL FREE ENERGY PREDICTED BY IDOCK:  -13.80 KCAL/MOL
REMARK 923 INTER-LIGAND FREE ENERGY PREDICTED BY IDOCK:  -11.72 KCAL/MOL
REMARK 924 INTRA-LIGAND FREE ENERGY PREDICTED BY IDOCK:   -2.08 KCAL/MOL
REMARK 927      BINDING AFFINITY PREDICTED BY RF-SCORE:    0.00 PKD
ROOT
HETATM    1  C   UNL     1     -10.774  20.201  65.333  1.00  0.00     0.017 C  
HETATM    2  S   UNL     1      -9.783  19.315  66.506  1.00  0.00    -0.390 S  
HETATM    3  O   UNL     1      -8.828  18.513  65.767  1.00  0.00    -0.419 OA 
HETATM    4  O   UNL     1     -10.677  18.717  67.477  1.00  0.00    -0.438 OA 
ENDROOT
BRANCH   2   5
HETATM    5  C   UNL     1      -8.897  20.632  67.309  1.00  0.00    -0.224 C  
BRANCH   5   6
HETATM    6  C   UNL     1      -7.639  20.119  67.994  1.00  0.00    -0.243 C  
BRANCH   6   7
HETATM    7  N   UNL     1      -7.873  18.937  68.831  1.00  0.00    -0.313 NA 
HETATM    8  H   UNL     1      -8.721  18.451  68.541  1.00  0.00     0.000 HD 
BRANCH   7   9
HETATM    9  C   UNL     1      -6.735  18.018  68.872  1.00  0.00    -0.245 C  
BRANCH   9  10
HETATM   10  C   UNL     1      -7.191  16.619  68.661  1.00  0.00    -0.192 A  
HETATM   11  C   UNL     1      -6.879  15.421  69.266  1.00  0.00    -0.157 A  
HETATM   12  C   UNL     1      -7.653  14.433  68.614  1.00  0.00    -0.132 A  
HETATM   13  C   UNL     1      -8.412  15.084  67.662  1.00  0.00    -0.160 A  
HETATM   14  O   UNL     1      -8.132  16.421  67.698  1.00  0.00    -0.152 OA 
BRANCH  13  15
HETATM   15  C   UNL     1      -9.398  14.668  66.674  1.00  0.00    -0.293 A  
HETATM   16  C   UNL     1      -9.488  13.334  66.254  1.00  0.00    -0.196 A  
HETATM   17  C   UNL     1     -10.444  12.927  65.284  1.00  0.00    -0.312 A  
HETATM   18  C   UNL     1     -11.314  13.880  64.734  1.00  0.00    -0.363 A  
HETATM   19  C   UNL     1     -11.218  15.193  65.152  1.00  0.00    -0.392 A  
HETATM   20  N   UNL     1     -12.230  13.600  63.808  1.00  0.00    -0.654 NA 
HETATM   21  C   UNL     1     -12.277  12.337  63.392  1.00  0.00    -0.527 A  
HETATM   22  C   UNL     1     -10.280  15.590  66.106  1.00  0.00    -0.322 A  
HETATM   23  N   UNL     1     -11.501  11.348  63.827  1.00  0.00    -0.282 NA 
HETATM   24  C   UNL     1     -10.593  11.620  64.775  1.00  0.00    -0.304 A  
BRANCH  24  25
HETATM   25  N   UNL     1      -9.705  10.594  65.211  1.00  0.00    -0.238 NA 
HETATM   26  H   UNL     1      -8.930  10.382  64.584  1.00  0.00     0.000 HD 
BRANCH  25  27
HETATM   27  C   UNL     1      -9.758   9.832  66.402  1.00  0.00    -0.216 A  
HETATM   28  C   UNL     1     -10.287   8.543  66.459  1.00  0.00    -0.215 A  
HETATM   29  C   UNL     1     -10.245   7.763  67.617  1.00  0.00    -0.219 A  
HETATM   30  C   UNL     1      -9.624   8.260  68.769  1.00  0.00    -0.150 A  
HETATM   31 CL   UNL     1     -11.046   6.234  67.464  1.00  0.00    -0.432 Cl 
HETATM   32  C   UNL     1      -9.149   9.581  68.746  1.00  0.00    -0.133 A  
HETATM   33  C   UNL     1      -9.220  10.358  67.579  1.00  0.00    -0.156 A  
BRANCH  30  34
HETATM   34  O   UNL     1      -9.413   7.627  69.969  1.00  0.00    -0.161 OA 
BRANCH  34  35
HETATM   35  C   UNL     1      -9.695   8.392  71.138  1.00  0.00    -0.186 C  
BRANCH  35  36
HETATM   36  C   UNL     1     -11.177   8.539  71.359  1.00  0.00    -0.327 A  
HETATM   37  C   UNL     1     -11.731   9.784  71.672  1.00  0.00    -0.390 A  
HETATM   38  C   UNL     1     -13.081   9.873  71.989  1.00  0.00    -0.448 A  
HETATM   39  C   UNL     1     -13.894   8.745  71.998  1.00  0.00    -0.504 A  
HETATM   40  F   UNL     1     -13.604  11.064  72.309  1.00  0.00    -0.505 F  
HETATM   41  C   UNL     1     -13.351   7.504  71.684  1.00  0.00    -0.414 A  
HETATM   42  C   UNL     1     -12.000   7.397  71.366  1.00  0.00    -0.340 A  
ENDBRANCH  35  36
ENDBRANCH  34  35
ENDBRANCH  30  34
ENDBRANCH  25  27
ENDBRANCH  24  25
ENDBRANCH  13  15
ENDBRANCH   9  10
ENDBRANCH   7   9
ENDBRANCH   6   7
ENDBRANCH   5   6
ENDBRANCH   2   5
TORSDOF 11
ENDMDL
MODEL       23
REMARK 921   NORMALIZED FREE ENERGY PREDICTED BY IDOCK:   -6.72 KCAL/MOL
REMARK 922        TOTAL FREE ENERGY PREDICTED BY IDOCK:  -13.79 KCAL/MOL
REMARK 923 INTER-LIGAND FREE ENERGY PREDICTED BY IDOCK:  -12.00 KCAL/MOL
REMARK 924 INTRA-LIGAND FREE ENERGY PREDICTED BY IDOCK:   -1.79 KCAL/MOL
REMARK 927      BINDING AFFINITY PREDICTED BY RF-SCORE:    0.00 PKD
ROOT
HETATM    1  C   UNL     1     -14.194   8.864  72.124  1.00  0.00    -0.388 C  
HETATM    2  S   UNL     1     -13.107  10.085  71.435  1.00  0.00    -0.423 S  
HETATM    3  O   UNL     1     -13.228  11.288  72.233  1.00  0.00    -0.402 OA 
HETATM    4  O   UNL     1     -13.319  10.106  70.002  1.00  0.00     0.124 OA 
ENDROOT
BRANCH   2   5
HETATM    5  C   UNL     1     -11.508   9.371  71.746  1.00  0.00    -0.343 C  
BRANCH   5   6
HETATM    6  C   UNL     1     -11.625   8.050  72.492  1.00  0.00    -0.403 C  
BRANCH   6   7
HETATM    7  N   UNL     1     -11.057   6.915  71.757  1.00  0.00    -0.238 NA 
HETATM    8  H   UNL     1     -11.161   6.050  72.289  1.00  0.00     0.000 HD 
BRANCH   7   9
HETATM    9  C   UNL     1     -11.604   6.762  70.408  1.00  0.00    -0.367 C  
BRANCH   9  10
HETATM   10  C   UNL     1     -10.506   6.627  69.416  1.00  0.00    -0.219 A  
HETATM   11  C   UNL     1      -9.454   5.747  69.283  1.00  0.00    -0.159 A  
HETATM   12  C   UNL     1      -8.750   6.141  68.121  1.00  0.00    -0.114 A  
HETATM   13  C   UNL     1      -9.423   7.226  67.596  1.00  0.00    -0.131 A  
HETATM   14  O   UNL     1     -10.499   7.516  68.386  1.00  0.00    -0.194 OA 
BRANCH  13  15
HETATM   15  C   UNL     1      -9.237   8.086  66.435  1.00  0.00    -0.245 A  
HETATM   16  C   UNL     1     -10.008   9.243  66.258  1.00  0.00    -0.357 A  
HETATM   17  C   UNL     1      -9.835  10.079  65.122  1.00  0.00    -0.388 A  
HETATM   18  C   UNL     1      -8.875   9.738  64.157  1.00  0.00    -0.231 A  
HETATM   19  C   UNL     1      -8.121   8.596  64.338  1.00  0.00    -0.156 A  
HETATM   20  N   UNL     1      -8.652  10.448  63.052  1.00  0.00    -0.174 NA 
HETATM   21  C   UNL     1      -9.417  11.522  62.878  1.00  0.00    -0.277 A  
HETATM   22  C   UNL     1      -8.291   7.777  65.456  1.00  0.00    -0.151 A  
HETATM   23  N   UNL     1     -10.365  11.941  63.712  1.00  0.00    -0.374 NA 
HETATM   24  C   UNL     1     -10.579  11.243  64.837  1.00  0.00    -0.300 A  
BRANCH  24  25
HETATM   25  N   UNL     1     -11.632  11.632  65.715  1.00  0.00    -0.281 NA 
HETATM   26  H   UNL     1     -12.433  11.002  65.753  1.00  0.00     0.000 HD 
BRANCH  25  27
HETATM   27  C   UNL     1     -11.712  12.778  66.540  1.00  0.00    -0.400 A  
HETATM   28  C   UNL     1     -11.770  12.714  67.931  1.00  0.00    -0.412 A  
HETATM   29  C   UNL     1     -11.750  13.854  68.739  1.00  0.00    -0.357 A  
HETATM   30  C   UNL     1     -11.636  15.120  68.153  1.00  0.00    -0.341 A  
HETATM   31 CL   UNL     1     -11.922  13.520  70.430  1.00  0.00    -0.392 Cl 
HETATM   32  C   UNL     1     -11.647  15.203  66.752  1.00  0.00    -0.136 A  
HETATM   33  C   UNL     1     -11.689  14.048  65.956  1.00  0.00    -0.378 A  
BRANCH  30  34
HETATM   34  O   UNL     1     -11.522  16.342  68.769  1.00  0.00    -0.353 OA 
BRANCH  34  35
HETATM   35  C   UNL     1     -10.199  16.754  69.099  1.00  0.00    -0.306 C  
BRANCH  35  36
HETATM   36  C   UNL     1      -9.703  17.827  68.166  1.00  0.00    -0.313 A  
HETATM   37  C   UNL     1     -10.570  18.432  67.251  1.00  0.00    -0.435 A  
HETATM   38  C   UNL     1     -10.064  19.333  66.321  1.00  0.00    -0.442 A  
HETATM   39  C   UNL     1      -8.709  19.644  66.284  1.00  0.00    -0.401 A  
HETATM   40  F   UNL     1     -10.894  19.894  65.432  1.00  0.00    -0.600 F  
HETATM   41  C   UNL     1      -7.842  19.050  67.193  1.00  0.00    -0.262 A  
HETATM   42  C   UNL     1      -8.333  18.144  68.130  1.00  0.00    -0.285 A  
ENDBRANCH  35  36
ENDBRANCH  34  35
ENDBRANCH  30  34
ENDBRANCH  25  27
ENDBRANCH  24  25
ENDBRANCH  13  15
ENDBRANCH   9  10
ENDBRANCH   7   9
ENDBRANCH   6   7
ENDBRANCH   5   6
ENDBRANCH   2   5
TORSDOF 11
ENDMDL
MODEL       24
REMARK 921   NORMALIZED FREE ENERGY PREDICTED BY IDOCK:   -6.68 KCAL/MOL
REMARK 922        TOTAL FREE ENERGY PREDICTED BY IDOCK:  -13.73 KCAL/MOL
REMARK 923 INTER-LIGAND FREE ENERGY PREDICTED BY IDOCK:  -11.70 KCAL/MOL
REMARK 924 INTRA-LIGAND FREE ENERGY PREDICTED BY IDOCK:   -2.02 KCAL/MOL
REMARK 927      BINDING AFFINITY PREDICTED BY RF-SCORE:    0.00 PKD
ROOT
HETATM    1  C   UNL     1      -6.713  21.027  67.455  1.00  0.00    -0.383 C  
HETATM    2  S   UNL     1      -7.537  19.471  67.239  1.00  0.00    -0.251 S  
HETATM    3  O   UNL     1      -7.099  18.585  68.299  1.00  0.00    -0.241 OA 
HETATM    4  O   UNL     1      -7.414  19.097  65.845  1.00  0.00    -0.311 OA 
ENDROOT
BRANCH   2   5
HETATM    5  C   UNL     1      -9.234  19.907  67.545  1.00  0.00    -0.346 C  
BRANCH   5   6
HETATM    6  C   UNL     1      -9.694  19.423  68.913  1.00  0.00    -0.437 C  
BRANCH   6   7
HETATM    7  N   UNL     1     -10.077  18.007  68.930  1.00  0.00    -0.376 NA 
HETATM    8  H   UNL     1     -10.639  17.794  69.755  1.00  0.00     0.000 HD 
BRANCH   7   9
HETATM    9  C   UNL     1     -10.760  17.574  67.711  1.00  0.00    -0.332 C  
BRANCH   9  10
HETATM   10  C   UNL     1     -11.028  16.113  67.758  1.00  0.00    -0.293 A  
HETATM   11  C   UNL     1     -11.611  15.288  68.695  1.00  0.00    -0.370 A  
HETATM   12  C   UNL     1     -11.574  13.982  68.153  1.00  0.00    -0.369 A  
HETATM   13  C   UNL     1     -10.992  14.084  66.905  1.00  0.00    -0.298 A  
HETATM   14  O   UNL     1     -10.666  15.389  66.664  1.00  0.00    -0.304 OA 
BRANCH  13  15
HETATM   15  C   UNL     1     -10.666  13.142  65.843  1.00  0.00    -0.287 A  
HETATM   16  C   UNL     1      -9.854  12.026  66.086  1.00  0.00    -0.255 A  
HETATM   17  C   UNL     1      -9.527  11.109  65.050  1.00  0.00    -0.259 A  
HETATM   18  C   UNL     1     -10.027  11.327  63.757  1.00  0.00    -0.342 A  
HETATM   19  C   UNL     1     -10.826  12.429  63.526  1.00  0.00    -0.487 A  
HETATM   20  N   UNL     1      -9.763  10.535  62.719  1.00  0.00    -0.287 NA 
HETATM   21  C   UNL     1      -8.959   9.503  62.956  1.00  0.00    -0.201 A  
HETATM   22  C   UNL     1     -11.147  13.327  64.546  1.00  0.00    -0.392 A  
HETATM   23  N   UNL     1      -8.415   9.198  64.131  1.00  0.00    -0.187 NA 
HETATM   24  C   UNL     1      -8.696   9.979  65.185  1.00  0.00    -0.164 A  
BRANCH  24  25
HETATM   25  N   UNL     1      -8.074   9.713  66.440  1.00  0.00    -0.111 NA 
HETATM   26  H   UNL     1      -7.219  10.236  66.630  1.00  0.00     0.000 HD 
BRANCH  25  27
HETATM   27  C   UNL     1      -8.488   8.820  67.456  1.00  0.00    -0.120 A  
HETATM   28  C   UNL     1      -7.799   8.659  68.657  1.00  0.00    -0.107 A  
HETATM   29  C   UNL     1      -8.271   7.847  69.692  1.00  0.00    -0.122 A  
HETATM   30  C   UNL     1      -9.496   7.185  69.554  1.00  0.00    -0.151 A  
HETATM   31 CL   UNL     1      -7.194   7.739  71.046  1.00  0.00    -0.053 Cl 
HETATM   32  C   UNL     1     -10.165   7.283  68.325  1.00  0.00    -0.208 A  
HETATM   33  C   UNL     1      -9.666   8.086  67.287  1.00  0.00    -0.232 A  
BRANCH  30  34
HETATM   34  O   UNL     1     -10.161   6.414  70.475  1.00  0.00    -0.182 OA 
BRANCH  34  35
HETATM   35  C   UNL     1     -10.452   7.040  71.721  1.00  0.00    -0.202 C  
BRANCH  35  36
HETATM   36  C   UNL     1     -11.769   7.770  71.681  1.00  0.00    -0.316 A  
HETATM   37  C   UNL     1     -11.813   9.165  71.756  1.00  0.00    -0.453 A  
HETATM   38  C   UNL     1     -13.043   9.808  71.837  1.00  0.00    -0.446 A  
HETATM   39  C   UNL     1     -14.232   9.086  71.845  1.00  0.00    -0.357 A  
HETATM   40  F   UNL     1     -13.082  11.143  71.930  1.00  0.00    -0.522 F  
HETATM   41  C   UNL     1     -14.196   7.699  71.767  1.00  0.00    -0.549 A  
HETATM   42  C   UNL     1     -12.972   7.040  71.687  1.00  0.00    -0.400 A  
ENDBRANCH  35  36
ENDBRANCH  34  35
ENDBRANCH  30  34
ENDBRANCH  25  27
ENDBRANCH  24  25
ENDBRANCH  13  15
ENDBRANCH   9  10
ENDBRANCH   7   9
ENDBRANCH   6   7
ENDBRANCH   5   6
ENDBRANCH   2   5
TORSDOF 11
ENDMDL
MODEL       25
REMARK 921   NORMALIZED FREE ENERGY PREDICTED BY IDOCK:   -6.68 KCAL/MOL
REMARK 922        TOTAL FREE ENERGY PREDICTED BY IDOCK:  -13.73 KCAL/MOL
REMARK 923 INTER-LIGAND FREE ENERGY PREDICTED BY IDOCK:  -11.90 KCAL/MOL
REMARK 924 INTRA-LIGAND FREE ENERGY PREDICTED BY IDOCK:   -1.83 KCAL/MOL
REMARK 927      BINDING AFFINITY PREDICTED BY RF-SCORE:    0.00 PKD
ROOT
HETATM    1  C   UNL     1     -12.684  14.152  72.949  1.00  0.00    -0.251 C  
HETATM    2  S   UNL     1     -12.488  15.604  71.950  1.00  0.00    -0.470 S  
HETATM    3  O   UNL     1     -12.160  16.709  72.829  1.00  0.00    -0.450 OA 
HETATM    4  O   UNL     1     -13.617  15.672  71.044  1.00  0.00    -0.588 OA 
ENDROOT
BRANCH   2   5
HETATM    5  C   UNL     1     -11.039  15.204  70.998  1.00  0.00    -0.238 C  
BRANCH   5   6
HETATM    6  C   UNL     1     -11.410  14.665  69.623  1.00  0.00    -0.280 C  
BRANCH   6   7
HETATM    7  N   UNL     1     -12.253  13.466  69.676  1.00  0.00    -0.265 NA 
HETATM    8  H   UNL     1     -12.992  13.512  68.975  1.00  0.00     0.000 HD 
BRANCH   7   9
HETATM    9  C   UNL     1     -11.499  12.218  69.554  1.00  0.00    -0.249 C  
BRANCH   9  10
HETATM   10  C   UNL     1     -12.002  11.211  70.525  1.00  0.00    -0.380 A  
HETATM   11  C   UNL     1     -13.021  11.218  71.451  1.00  0.00    -0.482 A  
HETATM   12  C   UNL     1     -12.999   9.949  72.076  1.00  0.00    -0.518 A  
HETATM   13  C   UNL     1     -11.982   9.229  71.481  1.00  0.00    -0.368 A  
HETATM   14  O   UNL     1     -11.379  10.001  70.529  1.00  0.00    -0.284 OA 
BRANCH  13  15
HETATM   15  C   UNL     1     -11.442   7.886  71.646  1.00  0.00    -0.304 A  
HETATM   16  C   UNL     1     -11.022   7.132  70.542  1.00  0.00    -0.287 A  
HETATM   17  C   UNL     1     -10.502   5.819  70.698  1.00  0.00    -0.331 A  
HETATM   18  C   UNL     1     -10.409   5.265  71.985  1.00  0.00    -0.215 A  
HETATM   19  C   UNL     1     -10.826   6.015  73.067  1.00  0.00    -0.290 A  
HETATM   20  N   UNL     1      -9.953   4.038  72.231  1.00  0.00    -0.163 NA 
HETATM   21  C   UNL     1      -9.594   3.319  71.171  1.00  0.00    -0.160 A  
HETATM   22  C   UNL     1     -11.334   7.305  72.910  1.00  0.00    -0.290 A  
HETATM   23  N   UNL     1      -9.646   3.727  69.905  1.00  0.00    -0.196 NA 
HETATM   24  C   UNL     1     -10.084   4.970  69.653  1.00  0.00    -0.251 A  
BRANCH  24  25
HETATM   25  N   UNL     1     -10.212   5.408  68.303  1.00  0.00    -0.172 NA 
HETATM   26  H   UNL     1     -10.701   4.771  67.675  1.00  0.00     0.000 HD 
BRANCH  25  27
HETATM   27  C   UNL     1      -9.749   6.611  67.720  1.00  0.00    -0.123 A  
HETATM   28  C   UNL     1      -8.402   6.962  67.662  1.00  0.00    -0.123 A  
HETATM   29  C   UNL     1      -7.949   8.105  66.998  1.00  0.00    -0.104 A  
HETATM   30  C   UNL     1      -8.862   8.929  66.330  1.00  0.00    -0.158 A  
HETATM   31 CL   UNL     1      -6.243   8.373  67.142  1.00  0.00    -0.055 Cl 
HETATM   32  C   UNL     1     -10.228   8.626  66.439  1.00  0.00    -0.224 A  
HETATM   33  C   UNL     1     -10.667   7.485  67.129  1.00  0.00    -0.379 A  
BRANCH  30  34
HETATM   34  O   UNL     1      -8.611  10.040  65.563  1.00  0.00    -0.139 OA 
BRANCH  34  35
HETATM   35  C   UNL     1      -8.942  11.294  66.153  1.00  0.00    -0.202 C  
BRANCH  35  36
HETATM   36  C   UNL     1     -10.144  11.918  65.494  1.00  0.00    -0.277 A  
HETATM   37  C   UNL     1     -10.899  12.888  66.160  1.00  0.00    -0.300 A  
HETATM   38  C   UNL     1     -12.070  13.362  65.580  1.00  0.00    -0.428 A  
HETATM   39  C   UNL     1     -12.504  12.888  64.347  1.00  0.00    -0.447 A  
HETATM   40  F   UNL     1     -12.802  14.276  66.230  1.00  0.00    -0.474 F  
HETATM   41  C   UNL     1     -11.757  11.926  63.677  1.00  0.00    -0.572 A  
HETATM   42  C   UNL     1     -10.582  11.440  64.245  1.00  0.00    -0.416 A  
ENDBRANCH  35  36
ENDBRANCH  34  35
ENDBRANCH  30  34
ENDBRANCH  25  27
ENDBRANCH  24  25
ENDBRANCH  13  15
ENDBRANCH   9  10
ENDBRANCH   7   9
ENDBRANCH   6   7
ENDBRANCH   5   6
ENDBRANCH   2   5
TORSDOF 11
ENDMDL
MODEL       26
REMARK 921   NORMALIZED FREE ENERGY PREDICTED BY IDOCK:   -6.66 KCAL/MOL
REMARK 922        TOTAL FREE ENERGY PREDICTED BY IDOCK:  -13.70 KCAL/MOL
REMARK 923 INTER-LIGAND FREE ENERGY PREDICTED BY IDOCK:  -11.42 KCAL/MOL
REMARK 924 INTRA-LIGAND FREE ENERGY PREDICTED BY IDOCK:   -2.27 KCAL/MOL
REMARK 927      BINDING AFFINITY PREDICTED BY RF-SCORE:    0.00 PKD
ROOT
HETATM    1  C   UNL     1      -9.814  20.517  67.402  1.00  0.00    -0.434 C  
HETATM    2  S   UNL     1     -10.037  19.111  66.344  1.00  0.00    -0.448 S  
HETATM    3  O   UNL     1      -8.738  18.738  65.820  1.00  0.00    -0.412 OA 
HETATM    4  O   UNL     1     -11.151  19.395  65.463  1.00  0.00    -0.374 OA 
ENDROOT
BRANCH   2   5
HETATM    5  C   UNL     1     -10.551  17.859  67.498  1.00  0.00    -0.376 C  
BRANCH   5   6
HETATM    6  C   UNL     1     -10.772  16.522  66.805  1.00  0.00    -0.155 C  
BRANCH   6   7
HETATM    7  N   UNL     1     -10.458  16.550  65.372  1.00  0.00    -0.602 NA 
HETATM    8  H   UNL     1      -9.618  16.006  65.175  1.00  0.00     0.000 HD 
BRANCH   7   9
HETATM    9  C   UNL     1     -11.569  16.115  64.525  1.00  0.00    -0.164 C  
BRANCH   9  10
HETATM   10  C   UNL     1     -11.849  14.671  64.737  1.00  0.00    -0.440 A  
HETATM   11  C   UNL     1     -13.004  13.956  64.969  1.00  0.00    -0.201 A  
HETATM   12  C   UNL     1     -12.615  12.601  65.087  1.00  0.00    -0.459 A  
HETATM   13  C   UNL     1     -11.248  12.560  64.897  1.00  0.00    -0.305 A  
HETATM   14  O   UNL     1     -10.785  13.826  64.677  1.00  0.00    -0.387 OA 
BRANCH  13  15
HETATM   15  C   UNL     1     -10.244  11.504  64.883  1.00  0.00    -0.324 A  
HETATM   16  C   UNL     1      -9.545  11.152  66.046  1.00  0.00    -0.248 A  
HETATM   17  C   UNL     1      -8.559  10.129  66.034  1.00  0.00    -0.150 A  
HETATM   18  C   UNL     1      -8.278   9.459  64.833  1.00  0.00    -0.142 A  
HETATM   19  C   UNL     1      -8.971   9.813  63.692  1.00  0.00    -0.270 A  
HETATM   20  N   UNL     1      -7.361   8.500  64.718  1.00  0.00    -0.088 NA 
HETATM   21  C   UNL     1      -6.678   8.203  65.820  1.00  0.00    -0.055 A  
HETATM   22  C   UNL     1      -9.940  10.817  63.707  1.00  0.00    -0.411 A  
HETATM   23  N   UNL     1      -6.844   8.773  67.011  1.00  0.00    -0.069 NA 
HETATM   24  C   UNL     1      -7.782   9.724  67.138  1.00  0.00    -0.095 A  
BRANCH  24  25
HETATM   25  N   UNL     1      -7.935  10.396  68.385  1.00  0.00    -0.106 NA 
HETATM   26  H   UNL     1      -7.355  11.225  68.516  1.00  0.00     0.000 HD 
BRANCH  25  27
HETATM   27  C   UNL     1      -8.785  10.064  69.466  1.00  0.00    -0.192 A  
HETATM   28  C   UNL     1     -10.123  10.450  69.531  1.00  0.00    -0.246 A  
HETATM   29  C   UNL     1     -10.978  10.034  70.555  1.00  0.00    -0.326 A  
HETATM   30  C   UNL     1     -10.505   9.169  71.548  1.00  0.00    -0.352 A  
HETATM   31 CL   UNL     1     -12.567  10.719  70.465  1.00  0.00    -0.422 Cl 
HETATM   32  C   UNL     1      -9.143   8.828  71.534  1.00  0.00    -0.322 A  
HETATM   33  C   UNL     1      -8.293   9.273  70.509  1.00  0.00    -0.237 A  
BRANCH  30  34
HETATM   34  O   UNL     1     -11.199   8.591  72.582  1.00  0.00    -0.331 OA 
BRANCH  34  35
HETATM   35  C   UNL     1     -12.123   7.569  72.220  1.00  0.00    -0.230 C  
BRANCH  35  36
HETATM   36  C   UNL     1     -11.450   6.456  71.461  1.00  0.00    -0.360 A  
HETATM   37  C   UNL     1     -10.680   5.500  72.132  1.00  0.00    -0.288 A  
HETATM   38  C   UNL     1      -9.973   4.554  71.399  1.00  0.00    -0.189 A  
HETATM   39  C   UNL     1     -10.017   4.541  70.009  1.00  0.00    -0.280 A  
HETATM   40  F   UNL     1      -9.220   3.653  72.043  1.00  0.00    -0.126 F  
HETATM   41  C   UNL     1     -10.783   5.485  69.336  1.00  0.00    -0.312 A  
HETATM   42  C   UNL     1     -11.496   6.441  70.055  1.00  0.00    -0.496 A  
ENDBRANCH  35  36
ENDBRANCH  34  35
ENDBRANCH  30  34
ENDBRANCH  25  27
ENDBRANCH  24  25
ENDBRANCH  13  15
ENDBRANCH   9  10
ENDBRANCH   7   9
ENDBRANCH   6   7
ENDBRANCH   5   6
ENDBRANCH   2   5
TORSDOF 11
ENDMDL
MODEL       27
REMARK 921   NORMALIZED FREE ENERGY PREDICTED BY IDOCK:   -6.65 KCAL/MOL
REMARK 922        TOTAL FREE ENERGY PREDICTED BY IDOCK:  -13.68 KCAL/MOL
REMARK 923 INTER-LIGAND FREE ENERGY PREDICTED BY IDOCK:  -13.10 KCAL/MOL
REMARK 924 INTRA-LIGAND FREE ENERGY PREDICTED BY IDOCK:   -0.57 KCAL/MOL
REMARK 927      BINDING AFFINITY PREDICTED BY RF-SCORE:    0.00 PKD
ROOT
HETATM    1  C   UNL     1      -8.410  16.701  67.145  1.00  0.00    -0.177 C  
HETATM    2  S   UNL     1      -8.961  18.342  66.756  1.00  0.00    -0.290 S  
HETATM    3  O   UNL     1      -7.992  18.935  65.858  1.00  0.00    -0.459 OA 
HETATM    4  O   UNL     1      -9.331  18.988  67.999  1.00  0.00    -0.299 OA 
ENDROOT
BRANCH   2   5
HETATM    5  C   UNL     1     -10.449  18.022  65.836  1.00  0.00    -0.264 C  
BRANCH   5   6
HETATM    6  C   UNL     1     -10.366  16.700  65.087  1.00  0.00     0.028 C  
BRANCH   6   7
HETATM    7  N   UNL     1     -11.412  16.540  64.071  1.00  0.00    -1.581 NA 
HETATM    8  H   UNL     1     -11.080  16.849  63.158  1.00  0.00     0.000 HD 
BRANCH   7   9
HETATM    9  C   UNL     1     -11.946  15.179  63.995  1.00  0.00    -0.027 C  
BRANCH   9  10
HETATM   10  C   UNL     1     -11.557  14.401  65.200  1.00  0.00    -0.361 A  
HETATM   11  C   UNL     1     -10.920  13.193  65.380  1.00  0.00    -0.298 A  
HETATM   12  C   UNL     1     -10.839  12.991  66.778  1.00  0.00    -0.285 A  
HETATM   13  C   UNL     1     -11.410  14.097  67.375  1.00  0.00    -0.327 A  
HETATM   14  O   UNL     1     -11.841  14.960  66.407  1.00  0.00    -0.272 OA 
BRANCH  13  15
HETATM   15  C   UNL     1     -11.640  14.519  68.750  1.00  0.00    -0.343 A  
HETATM   16  C   UNL     1     -12.216  13.651  69.689  1.00  0.00    -0.326 A  
HETATM   17  C   UNL     1     -12.449  14.062  71.029  1.00  0.00    -0.444 A  
HETATM   18  C   UNL     1     -12.098  15.364  71.420  1.00  0.00    -0.373 A  
HETATM   19  C   UNL     1     -11.532  16.212  70.489  1.00  0.00    -0.363 A  
HETATM   20  N   UNL     1     -12.293  15.846  72.647  1.00  0.00    -0.440 NA 
HETATM   21  C   UNL     1     -12.876  15.025  73.516  1.00  0.00    -0.505 A  
HETATM   22  C   UNL     1     -11.302  15.805  69.174  1.00  0.00    -0.349 A  
HETATM   23  N   UNL     1     -13.264  13.777  73.263  1.00  0.00    -0.327 NA 
HETATM   24  C   UNL     1     -13.049  13.279  72.036  1.00  0.00    -0.377 A  
BRANCH  24  25
HETATM   25  N   UNL     1     -13.514  11.970  71.720  1.00  0.00    -0.224 NA 
HETATM   26  H   UNL     1     -14.525  11.867  71.635  1.00  0.00     0.000 HD 
BRANCH  25  27
HETATM   27  C   UNL     1     -12.757  10.794  71.507  1.00  0.00    -0.431 A  
HETATM   28  C   UNL     1     -11.715  10.713  70.584  1.00  0.00    -0.454 A  
HETATM   29  C   UNL     1     -10.912   9.578  70.453  1.00  0.00    -0.278 A  
HETATM   30  C   UNL     1     -11.120   8.477  71.292  1.00  0.00    -0.262 A  
HETATM   31 CL   UNL     1      -9.744   9.687  69.177  1.00  0.00    -0.170 Cl 
HETATM   32  C   UNL     1     -12.208   8.518  72.178  1.00  0.00    -0.446 A  
HETATM   33  C   UNL     1     -13.019   9.659  72.281  1.00  0.00    -0.440 A  
BRANCH  30  34
HETATM   34  O   UNL     1     -10.397   7.313  71.372  1.00  0.00    -0.200 OA 
BRANCH  34  35
HETATM   35  C   UNL     1     -11.151   6.105  71.336  1.00  0.00    -0.288 C  
BRANCH  35  36
HETATM   36  C   UNL     1     -10.573   5.062  72.255  1.00  0.00    -0.269 A  
HETATM   37  C   UNL     1      -9.848   3.982  71.742  1.00  0.00    -0.249 A  
HETATM   38  C   UNL     1      -9.427   2.971  72.598  1.00  0.00    -0.106 A  
HETATM   39  C   UNL     1      -9.714   3.014  73.958  1.00  0.00    -0.137 A  
HETATM   40  F   UNL     1      -8.751   1.928  72.100  1.00  0.00    -0.063 F  
HETATM   41  C   UNL     1     -10.430   4.087  74.476  1.00  0.00    -0.266 A  
HETATM   42  C   UNL     1     -10.861   5.107  73.632  1.00  0.00    -0.363 A  
ENDBRANCH  35  36
ENDBRANCH  34  35
ENDBRANCH  30  34
ENDBRANCH  25  27
ENDBRANCH  24  25
ENDBRANCH  13  15
ENDBRANCH   9  10
ENDBRANCH   7   9
ENDBRANCH   6   7
ENDBRANCH   5   6
ENDBRANCH   2   5
TORSDOF 11
ENDMDL
MODEL       28
REMARK 921   NORMALIZED FREE ENERGY PREDICTED BY IDOCK:   -6.62 KCAL/MOL
REMARK 922        TOTAL FREE ENERGY PREDICTED BY IDOCK:  -13.62 KCAL/MOL
REMARK 923 INTER-LIGAND FREE ENERGY PREDICTED BY IDOCK:  -11.84 KCAL/MOL
REMARK 924 INTRA-LIGAND FREE ENERGY PREDICTED BY IDOCK:   -1.78 KCAL/MOL
REMARK 927      BINDING AFFINITY PREDICTED BY RF-SCORE:    0.00 PKD
ROOT
HETATM    1  C   UNL     1      -9.898  18.701  68.295  1.00  0.00    -0.371 C  
HETATM    2  S   UNL     1      -9.058  19.841  67.227  1.00  0.00    -0.341 S  
HETATM    3  O   UNL     1      -9.789  21.092  67.248  1.00  0.00    -0.386 OA 
HETATM    4  O   UNL     1      -8.776  19.153  65.983  1.00  0.00    -0.450 OA 
ENDROOT
BRANCH   2   5
HETATM    5  C   UNL     1      -7.518  20.083  68.085  1.00  0.00    -0.266 C  
BRANCH   5   6
HETATM    6  C   UNL     1      -6.330  19.714  67.208  1.00  0.00    -0.189 C  
BRANCH   6   7
HETATM    7  N   UNL     1      -5.391  18.794  67.858  1.00  0.00    -0.179 NA 
HETATM    8  H   UNL     1      -5.571  18.743  68.862  1.00  0.00     0.000 HD 
BRANCH   7   9
HETATM    9  C   UNL     1      -5.380  17.457  67.264  1.00  0.00    -0.128 C  
BRANCH   9  10
HETATM   10  C   UNL     1      -6.591  16.698  67.674  1.00  0.00    -0.149 A  
HETATM   11  C   UNL     1      -7.090  16.302  68.895  1.00  0.00    -0.182 A  
HETATM   12  C   UNL     1      -8.290  15.603  68.627  1.00  0.00    -0.177 A  
HETATM   13  C   UNL     1      -8.470  15.631  67.258  1.00  0.00    -0.191 A  
HETATM   14  O   UNL     1      -7.433  16.307  66.680  1.00  0.00    -0.234 OA 
BRANCH  13  15
HETATM   15  C   UNL     1      -9.482  15.117  66.344  1.00  0.00    -0.325 A  
HETATM   16  C   UNL     1      -9.787  13.750  66.294  1.00  0.00    -0.314 A  
HETATM   17  C   UNL     1     -10.766  13.244  65.397  1.00  0.00    -0.308 A  
HETATM   18  C   UNL     1     -11.441  14.131  64.544  1.00  0.00    -0.372 A  
HETATM   19  C   UNL     1     -11.134  15.476  64.600  1.00  0.00    -0.373 A  
HETATM   20  N   UNL     1     -12.361  13.751  63.659  1.00  0.00    -0.729 NA 
HETATM   21  C   UNL     1     -12.612  12.446  63.595  1.00  0.00    -0.443 A  
HETATM   22  C   UNL     1     -10.172  15.971  65.482  1.00  0.00    -0.389 A  
HETATM   23  N   UNL     1     -12.033  11.508  64.340  1.00  0.00    -0.031 NA 
HETATM   24  C   UNL     1     -11.122  11.888  65.248  1.00  0.00    -0.299 A  
BRANCH  24  25
HETATM   25  N   UNL     1     -10.439  10.898  66.012  1.00  0.00    -0.245 NA 
HETATM   26  H   UNL     1      -9.690  10.403  65.528  1.00  0.00     0.000 HD 
BRANCH  25  27
HETATM   27  C   UNL     1     -10.663  10.512  67.355  1.00  0.00    -0.281 A  
HETATM   28  C   UNL     1     -11.288  11.335  68.291  1.00  0.00    -0.359 A  
HETATM   29  C   UNL     1     -11.592  10.906  69.586  1.00  0.00    -0.322 A  
HETATM   30  C   UNL     1     -11.296   9.594  69.972  1.00  0.00    -0.195 A  
HETATM   31 CL   UNL     1     -12.285  12.138  70.588  1.00  0.00    -0.452 Cl 
HETATM   32  C   UNL     1     -10.606   8.778  69.063  1.00  0.00    -0.191 A  
HETATM   33  C   UNL     1     -10.289   9.232  67.773  1.00  0.00    -0.292 A  
BRANCH  30  34
HETATM   34  O   UNL     1     -11.583   8.966  71.159  1.00  0.00    -0.274 OA 
BRANCH  34  35
HETATM   35  C   UNL     1     -11.759   7.553  71.091  1.00  0.00    -0.291 C  
BRANCH  35  36
HETATM   36  C   UNL     1     -11.062   6.852  72.227  1.00  0.00    -0.284 A  
HETATM   37  C   UNL     1     -11.398   5.539  72.567  1.00  0.00    -0.323 A  
HETATM   38  C   UNL     1     -10.826   4.955  73.692  1.00  0.00    -0.309 A  
HETATM   39  C   UNL     1      -9.925   5.655  74.486  1.00  0.00    -0.279 A  
HETATM   40  F   UNL     1     -11.166   3.704  74.027  1.00  0.00    -0.266 F  
HETATM   41  C   UNL     1      -9.583   6.961  74.152  1.00  0.00    -0.308 A  
HETATM   42  C   UNL     1     -10.148   7.560  73.029  1.00  0.00    -0.342 A  
ENDBRANCH  35  36
ENDBRANCH  34  35
ENDBRANCH  30  34
ENDBRANCH  25  27
ENDBRANCH  24  25
ENDBRANCH  13  15
ENDBRANCH   9  10
ENDBRANCH   7   9
ENDBRANCH   6   7
ENDBRANCH   5   6
ENDBRANCH   2   5
TORSDOF 11
ENDMDL
MODEL       29
REMARK 921   NORMALIZED FREE ENERGY PREDICTED BY IDOCK:   -6.62 KCAL/MOL
REMARK 922        TOTAL FREE ENERGY PREDICTED BY IDOCK:  -13.61 KCAL/MOL
REMARK 923 INTER-LIGAND FREE ENERGY PREDICTED BY IDOCK:  -11.17 KCAL/MOL
REMARK 924 INTRA-LIGAND FREE ENERGY PREDICTED BY IDOCK:   -2.44 KCAL/MOL
REMARK 927      BINDING AFFINITY PREDICTED BY RF-SCORE:    0.00 PKD
ROOT
HETATM    1  C   UNL     1     -12.218  15.310  74.510  1.00  0.00    -0.431 C  
HETATM    2  S   UNL     1     -12.839  15.682  72.890  1.00  0.00    -0.527 S  
HETATM    3  O   UNL     1     -11.814  16.420  72.180  1.00  0.00    -0.525 OA 
HETATM    4  O   UNL     1     -14.179  16.211  73.044  1.00  0.00    -0.382 OA 
ENDROOT
BRANCH   2   5
HETATM    5  C   UNL     1     -12.964  14.064  72.163  1.00  0.00    -0.369 C  
BRANCH   5   6
HETATM    6  C   UNL     1     -12.189  13.981  70.856  1.00  0.00    -0.362 C  
BRANCH   6   7
HETATM    7  N   UNL     1     -12.858  14.654  69.738  1.00  0.00    -0.545 NA 
HETATM    8  H   UNL     1     -13.730  15.087  70.046  1.00  0.00     0.000 HD 
BRANCH   7   9
HETATM    9  C   UNL     1     -12.009  15.629  69.052  1.00  0.00    -0.304 C  
BRANCH   9  10
HETATM   10  C   UNL     1     -10.786  14.971  68.525  1.00  0.00    -0.244 A  
HETATM   11  C   UNL     1      -9.468  14.963  68.929  1.00  0.00    -0.209 A  
HETATM   12  C   UNL     1      -8.776  14.141  68.008  1.00  0.00    -0.177 A  
HETATM   13  C   UNL     1      -9.712  13.675  67.107  1.00  0.00    -0.245 A  
HETATM   14  O   UNL     1     -10.941  14.179  67.430  1.00  0.00    -0.288 OA 
BRANCH  13  15
HETATM   15  C   UNL     1      -9.671  12.803  65.941  1.00  0.00    -0.203 A  
HETATM   16  C   UNL     1      -9.011  11.567  65.982  1.00  0.00    -0.181 A  
HETATM   17  C   UNL     1      -8.961  10.718  64.843  1.00  0.00    -0.201 A  
HETATM   18  C   UNL     1      -9.582  11.126  63.653  1.00  0.00    -0.288 A  
HETATM   19  C   UNL     1     -10.229  12.345  63.621  1.00  0.00    -0.383 A  
HETATM   20  N   UNL     1      -9.575  10.409  62.531  1.00  0.00    -0.259 NA 
HETATM   21  C   UNL     1      -8.912   9.257  62.573  1.00  0.00    -0.175 A  
HETATM   22  C   UNL     1     -10.279  13.177  64.742  1.00  0.00    -0.321 A  
HETATM   23  N   UNL     1      -8.275   8.768  63.634  1.00  0.00    -0.170 NA 
HETATM   24  C   UNL     1      -8.298   9.475  64.774  1.00  0.00    -0.150 A  
BRANCH  24  25
HETATM   25  N   UNL     1      -7.569   9.007  65.905  1.00  0.00    -0.093 NA 
HETATM   26  H   UNL     1      -6.554   9.012  65.811  1.00  0.00     0.000 HD 
BRANCH  25  27
HETATM   27  C   UNL     1      -8.070   8.536  67.141  1.00  0.00    -0.104 A  
HETATM   28  C   UNL     1      -9.171   7.687  67.246  1.00  0.00    -0.154 A  
HETATM   29  C   UNL     1      -9.595   7.150  68.464  1.00  0.00    -0.139 A  
HETATM   30  C   UNL     1      -8.884   7.436  69.636  1.00  0.00    -0.141 A  
HETATM   31 CL   UNL     1     -11.038   6.198  68.348  1.00  0.00    -0.404 Cl 
HETATM   32  C   UNL     1      -7.816   8.343  69.556  1.00  0.00    -0.102 A  
HETATM   33  C   UNL     1      -7.417   8.890  68.326  1.00  0.00    -0.087 A  
BRANCH  30  34
HETATM   34  O   UNL     1      -9.091   6.950  70.903  1.00  0.00    -0.152 OA 
BRANCH  34  35
HETATM   35  C   UNL     1      -9.547   7.894  71.868  1.00  0.00    -0.173 C  
BRANCH  35  36
HETATM   36  C   UNL     1     -11.022   8.164  71.726  1.00  0.00    -0.322 A  
HETATM   37  C   UNL     1     -11.490   9.460  71.493  1.00  0.00    -0.467 A  
HETATM   38  C   UNL     1     -12.859   9.703  71.485  1.00  0.00    -0.392 A  
HETATM   39  C   UNL     1     -13.772   8.677  71.705  1.00  0.00    -0.456 A  
HETATM   40  F   UNL     1     -13.304  10.949  71.281  1.00  0.00    -0.413 F  
HETATM   41  C   UNL     1     -13.314   7.385  71.934  1.00  0.00    -0.292 A  
HETATM   42  C   UNL     1     -11.946   7.126  71.947  1.00  0.00    -0.343 A  
ENDBRANCH  35  36
ENDBRANCH  34  35
ENDBRANCH  30  34
ENDBRANCH  25  27
ENDBRANCH  24  25
ENDBRANCH  13  15
ENDBRANCH   9  10
ENDBRANCH   7   9
ENDBRANCH   6   7
ENDBRANCH   5   6
ENDBRANCH   2   5
TORSDOF 11
ENDMDL
MODEL       30
REMARK 921   NORMALIZED FREE ENERGY PREDICTED BY IDOCK:   -6.61 KCAL/MOL
REMARK 922        TOTAL FREE ENERGY PREDICTED BY IDOCK:  -13.61 KCAL/MOL
REMARK 923 INTER-LIGAND FREE ENERGY PREDICTED BY IDOCK:  -11.60 KCAL/MOL
REMARK 924 INTRA-LIGAND FREE ENERGY PREDICTED BY IDOCK:   -2.01 KCAL/MOL
REMARK 927      BINDING AFFINITY PREDICTED BY RF-SCORE:    0.00 PKD
ROOT
HETATM    1  C   UNL     1      -9.405   3.410  67.222  1.00  0.00    -0.201 C  
HETATM    2  S   UNL     1      -9.529   4.537  65.858  1.00  0.00    -0.188 S  
HETATM    3  O   UNL     1      -9.271   5.872  66.359  1.00  0.00    -0.143 OA 
HETATM    4  O   UNL     1     -10.746   4.225  65.138  1.00  0.00    -0.251 OA 
ENDROOT
BRANCH   2   5
HETATM    5  C   UNL     1      -8.149   4.047  64.848  1.00  0.00    -0.093 C  
BRANCH   5   6
HETATM    6  C   UNL     1      -8.384   4.387  63.383  1.00  0.00    -0.104 C  
BRANCH   6   7
HETATM    7  N   UNL     1      -8.803   5.776  63.168  1.00  0.00    -0.324 NA 
HETATM    8  H   UNL     1      -9.364   6.110  63.952  1.00  0.00     0.000 HD 
BRANCH   7   9
HETATM    9  C   UNL     1      -7.688   6.686  62.904  1.00  0.00    -0.098 C  
BRANCH   9  10
HETATM   10  C   UNL     1      -7.739   7.850  63.827  1.00  0.00    -0.135 A  
HETATM   11  C   UNL     1      -6.939   8.269  64.867  1.00  0.00    -0.074 A  
HETATM   12  C   UNL     1      -7.517   9.463  65.357  1.00  0.00    -0.099 A  
HETATM   13  C   UNL     1      -8.625   9.721  64.575  1.00  0.00    -0.184 A  
HETATM   14  O   UNL     1      -8.754   8.736  63.636  1.00  0.00    -0.110 OA 
BRANCH  13  15
HETATM   15  C   UNL     1      -9.637  10.768  64.541  1.00  0.00    -0.322 A  
HETATM   16  C   UNL     1      -9.920  11.542  65.675  1.00  0.00    -0.275 A  
HETATM   17  C   UNL     1     -10.913  12.558  65.648  1.00  0.00    -0.323 A  
HETATM   18  C   UNL     1     -11.627  12.790  64.462  1.00  0.00    -0.347 A  
HETATM   19  C   UNL     1     -11.342  12.023  63.349  1.00  0.00    -0.484 A  
HETATM   20  N   UNL     1     -12.586  13.706  64.342  1.00  0.00    -0.654 NA 
HETATM   21  C   UNL     1     -12.871  14.406  65.437  1.00  0.00    -0.221 A  
HETATM   22  C   UNL     1     -10.365  11.026  63.378  1.00  0.00    -0.373 A  
HETATM   23  N   UNL     1     -12.275  14.271  66.619  1.00  0.00    -0.440 NA 
HETATM   24  C   UNL     1     -11.293  13.366  66.739  1.00  0.00    -0.325 A  
BRANCH  24  25
HETATM   25  N   UNL     1     -10.684  13.155  68.010  1.00  0.00    -0.227 NA 
HETATM   26  H   UNL     1      -9.757  13.563  68.131  1.00  0.00     0.000 HD 
BRANCH  25  27
HETATM   27  C   UNL     1     -11.197  12.454  69.127  1.00  0.00    -0.236 A  
HETATM   28  C   UNL     1     -12.040  13.037  70.072  1.00  0.00    -0.367 A  
HETATM   29  C   UNL     1     -12.618  12.309  71.115  1.00  0.00    -0.253 A  
HETATM   30  C   UNL     1     -12.383  10.933  71.218  1.00  0.00    -0.343 A  
HETATM   31 CL   UNL     1     -13.553  13.273  72.210  1.00  0.00    -0.671 Cl 
HETATM   32  C   UNL     1     -11.483  10.348  70.315  1.00  0.00    -0.406 A  
HETATM   33  C   UNL     1     -10.893  11.099  69.286  1.00  0.00    -0.277 A  
BRANCH  30  34
HETATM   34  O   UNL     1     -12.915  10.038  72.113  1.00  0.00    -0.418 OA 
BRANCH  34  35
HETATM   35  C   UNL     1     -13.238   8.752  71.593  1.00  0.00    -0.357 C  
BRANCH  35  36
HETATM   36  C   UNL     1     -12.085   7.792  71.732  1.00  0.00    -0.332 A  
HETATM   37  C   UNL     1     -11.840   6.826  70.752  1.00  0.00    -0.446 A  
HETATM   38  C   UNL     1     -10.846   5.877  70.958  1.00  0.00    -0.273 A  
HETATM   39  C   UNL     1     -10.088   5.873  72.124  1.00  0.00    -0.210 A  
HETATM   40  F   UNL     1     -10.628   4.940  70.027  1.00  0.00    -0.338 F  
HETATM   41  C   UNL     1     -10.323   6.833  73.102  1.00  0.00    -0.270 A  
HETATM   42  C   UNL     1     -11.317   7.789  72.911  1.00  0.00    -0.406 A  
ENDBRANCH  35  36
ENDBRANCH  34  35
ENDBRANCH  30  34
ENDBRANCH  25  27
ENDBRANCH  24  25
ENDBRANCH  13  15
ENDBRANCH   9  10
ENDBRANCH   7   9
ENDBRANCH   6   7
ENDBRANCH   5   6
ENDBRANCH   2   5
TORSDOF 11
ENDMDL
MODEL       31
REMARK 921   NORMALIZED FREE ENERGY PREDICTED BY IDOCK:   -6.61 KCAL/MOL
REMARK 922        TOTAL FREE ENERGY PREDICTED BY IDOCK:  -13.61 KCAL/MOL
REMARK 923 INTER-LIGAND FREE ENERGY PREDICTED BY IDOCK:  -11.49 KCAL/MOL
REMARK 924 INTRA-LIGAND FREE ENERGY PREDICTED BY IDOCK:   -2.11 KCAL/MOL
REMARK 927      BINDING AFFINITY PREDICTED BY RF-SCORE:    0.00 PKD
ROOT
HETATM    1  C   UNL     1     -11.850  12.799  67.870  1.00  0.00    -0.339 C  
HETATM    2  S   UNL     1     -11.507  14.232  66.882  1.00  0.00    -0.379 S  
HETATM    3  O   UNL     1     -10.168  14.093  66.346  1.00  0.00    -0.276 OA 
HETATM    4  O   UNL     1     -11.895  15.398  67.649  1.00  0.00    -0.217 OA 
ENDROOT
BRANCH   2   5
HETATM    5  C   UNL     1     -12.663  14.042  65.544  1.00  0.00    -0.486 C  
BRANCH   5   6
HETATM    6  C   UNL     1     -12.086  14.556  64.233  1.00  0.00    -0.425 C  
BRANCH   6   7
HETATM    7  N   UNL     1     -12.212  13.601  63.127  1.00  0.00    -1.046 NA 
HETATM    8  H   UNL     1     -11.381  13.621  62.536  1.00  0.00     0.000 HD 
BRANCH   7   9
HETATM    9  C   UNL     1     -12.504  12.236  63.567  1.00  0.00    -0.534 C  
BRANCH   9  10
HETATM   10  C   UNL     1     -11.250  11.533  63.943  1.00  0.00    -0.355 A  
HETATM   11  C   UNL     1     -10.100  11.217  63.253  1.00  0.00    -0.426 A  
HETATM   12  C   UNL     1      -9.262  10.538  64.169  1.00  0.00    -0.283 A  
HETATM   13  C   UNL     1      -9.935  10.498  65.373  1.00  0.00    -0.289 A  
HETATM   14  O   UNL     1     -11.148  11.114  65.233  1.00  0.00    -0.147 OA 
BRANCH  13  15
HETATM   15  C   UNL     1      -9.643   9.964  66.697  1.00  0.00    -0.235 A  
HETATM   16  C   UNL     1      -8.623  10.507  67.490  1.00  0.00    -0.121 A  
HETATM   17  C   UNL     1      -8.329   9.982  68.777  1.00  0.00    -0.121 A  
HETATM   18  C   UNL     1      -9.075   8.898  69.264  1.00  0.00    -0.145 A  
HETATM   19  C   UNL     1     -10.078   8.369  68.476  1.00  0.00    -0.218 A  
HETATM   20  N   UNL     1      -8.864   8.327  70.449  1.00  0.00    -0.138 NA 
HETATM   21  C   UNL     1      -7.868   8.827  71.174  1.00  0.00    -0.134 A  
HETATM   22  C   UNL     1     -10.366   8.887  67.212  1.00  0.00    -0.350 A  
HETATM   23  N   UNL     1      -7.084   9.843  70.818  1.00  0.00    -0.329 NA 
HETATM   24  C   UNL     1      -7.307  10.435  69.636  1.00  0.00    -0.156 A  
BRANCH  24  25
HETATM   25  N   UNL     1      -6.441  11.481  69.202  1.00  0.00    -0.082 NA 
HETATM   26  H   UNL     1      -5.593  11.183  68.721  1.00  0.00     0.000 HD 
BRANCH  25  27
HETATM   27  C   UNL     1      -6.606  12.878  69.350  1.00  0.00    -0.062 A  
HETATM   28  C   UNL     1      -5.916  13.632  70.299  1.00  0.00    -0.147 A  
HETATM   29  C   UNL     1      -6.013  15.024  70.370  1.00  0.00    -0.134 A  
HETATM   30  C   UNL     1      -6.802  15.715  69.444  1.00  0.00    -0.186 A  
HETATM   31 CL   UNL     1      -5.134  15.722  71.690  1.00  0.00    -0.109 Cl 
HETATM   32  C   UNL     1      -7.555  14.965  68.527  1.00  0.00    -0.121 A  
HETATM   33  C   UNL     1      -7.462  13.565  68.484  1.00  0.00    -0.122 A  
BRANCH  30  34
HETATM   34  O   UNL     1      -6.964  17.071  69.300  1.00  0.00    -0.235 OA 
BRANCH  34  35
HETATM   35  C   UNL     1      -7.088  17.547  67.962  1.00  0.00    -0.201 C  
BRANCH  35  36
HETATM   36  C   UNL     1      -8.415  18.220  67.734  1.00  0.00    -0.256 A  
HETATM   37  C   UNL     1      -9.138  17.990  66.560  1.00  0.00    -0.283 A  
HETATM   38  C   UNL     1     -10.301  18.713  66.319  1.00  0.00    -0.444 A  
HETATM   39  C   UNL     1     -10.759  19.662  67.227  1.00  0.00    -0.583 A  
HETATM   40  F   UNL     1     -10.980  18.506  65.184  1.00  0.00    -0.420 F  
HETATM   41  C   UNL     1     -10.047  19.894  68.398  1.00  0.00    -0.557 A  
HETATM   42  C   UNL     1      -8.879  19.179  68.654  1.00  0.00    -0.404 A  
ENDBRANCH  35  36
ENDBRANCH  34  35
ENDBRANCH  30  34
ENDBRANCH  25  27
ENDBRANCH  24  25
ENDBRANCH  13  15
ENDBRANCH   9  10
ENDBRANCH   7   9
ENDBRANCH   6   7
ENDBRANCH   5   6
ENDBRANCH   2   5
TORSDOF 11
ENDMDL
MODEL       32
REMARK 921   NORMALIZED FREE ENERGY PREDICTED BY IDOCK:   -6.61 KCAL/MOL
REMARK 922        TOTAL FREE ENERGY PREDICTED BY IDOCK:  -13.61 KCAL/MOL
REMARK 923 INTER-LIGAND FREE ENERGY PREDICTED BY IDOCK:  -11.11 KCAL/MOL
REMARK 924 INTRA-LIGAND FREE ENERGY PREDICTED BY IDOCK:   -2.49 KCAL/MOL
REMARK 927      BINDING AFFINITY PREDICTED BY RF-SCORE:    0.00 PKD
ROOT
HETATM    1  C   UNL     1     -10.776  12.125  63.596  1.00  0.00    -0.467 C  
HETATM    2  S   UNL     1     -12.281  12.935  64.070  1.00  0.00    -0.428 S  
HETATM    3  O   UNL     1     -13.276  11.913  64.322  1.00  0.00    -0.618 OA 
HETATM    4  O   UNL     1     -12.523  14.005  63.123  1.00  0.00    -0.733 OA 
ENDROOT
BRANCH   2   5
HETATM    5  C   UNL     1     -11.830  13.668  65.627  1.00  0.00    -0.364 C  
BRANCH   5   6
HETATM    6  C   UNL     1     -10.751  14.727  65.451  1.00  0.00    -0.371 C  
BRANCH   6   7
HETATM    7  N   UNL     1      -9.453  14.332  66.006  1.00  0.00    -0.499 NA 
HETATM    8  H   UNL     1      -8.738  15.026  65.785  1.00  0.00     0.000 HD 
BRANCH   7   9
HETATM    9  C   UNL     1      -9.491  14.068  67.445  1.00  0.00    -0.225 C  
BRANCH   9  10
HETATM   10  C   UNL     1      -8.682  12.866  67.774  1.00  0.00    -0.188 A  
HETATM   11  C   UNL     1      -7.673  12.624  68.681  1.00  0.00    -0.066 A  
HETATM   12  C   UNL     1      -7.304  11.269  68.513  1.00  0.00    -0.106 A  
HETATM   13  C   UNL     1      -8.122  10.751  67.529  1.00  0.00    -0.111 A  
HETATM   14  O   UNL     1      -8.968  11.729  67.084  1.00  0.00    -0.166 OA 
BRANCH  13  15
HETATM   15  C   UNL     1      -8.268   9.449  66.894  1.00  0.00    -0.116 A  
HETATM   16  C   UNL     1      -8.395   8.279  67.656  1.00  0.00    -0.127 A  
HETATM   17  C   UNL     1      -8.528   7.006  67.040  1.00  0.00    -0.121 A  
HETATM   18  C   UNL     1      -8.531   6.917  65.639  1.00  0.00    -0.136 A  
HETATM   19  C   UNL     1      -8.404   8.074  64.896  1.00  0.00    -0.108 A  
HETATM   20  N   UNL     1      -8.633   5.769  64.971  1.00  0.00    -0.127 NA 
HETATM   21  C   UNL     1      -8.714   4.665  65.707  1.00  0.00    -0.124 A  
HETATM   22  C   UNL     1      -8.275   9.324  65.503  1.00  0.00    -0.125 A  
HETATM   23  N   UNL     1      -8.710   4.618  67.037  1.00  0.00    -0.104 NA 
HETATM   24  C   UNL     1      -8.630   5.773  67.715  1.00  0.00    -0.101 A  
BRANCH  24  25
HETATM   25  N   UNL     1      -8.558   5.746  69.138  1.00  0.00    -0.110 NA 
HETATM   26  H   UNL     1      -7.775   5.227  69.533  1.00  0.00     0.000 HD 
BRANCH  25  27
HETATM   27  C   UNL     1      -9.431   6.347  70.075  1.00  0.00    -0.156 A  
HETATM   28  C   UNL     1      -8.986   7.000  71.224  1.00  0.00    -0.137 A  
HETATM   29  C   UNL     1      -9.851   7.674  72.090  1.00  0.00    -0.178 A  
HETATM   30  C   UNL     1     -11.218   7.737  71.798  1.00  0.00    -0.256 A  
HETATM   31 CL   UNL     1      -9.072   8.327  73.493  1.00  0.00    -0.273 Cl 
HETATM   32  C   UNL     1     -11.689   7.027  70.683  1.00  0.00    -0.384 A  
HETATM   33  C   UNL     1     -10.809   6.337  69.835  1.00  0.00    -0.399 A  
BRANCH  30  34
HETATM   34  O   UNL     1     -12.208   8.408  72.473  1.00  0.00    -0.386 OA 
BRANCH  34  35
HETATM   35  C   UNL     1     -13.191   9.050  71.665  1.00  0.00    -0.371 C  
BRANCH  35  36
HETATM   36  C   UNL     1     -12.789  10.459  71.317  1.00  0.00    -0.533 A  
HETATM   37  C   UNL     1     -13.268  11.541  72.060  1.00  0.00    -0.443 A  
HETATM   38  C   UNL     1     -12.979  12.837  71.648  1.00  0.00    -0.303 A  
HETATM   39  C   UNL     1     -12.221  13.076  70.507  1.00  0.00    -0.392 A  
HETATM   40  F   UNL     1     -13.457  13.872  72.350  1.00  0.00    -0.450 F  
HETATM   41  C   UNL     1     -11.738  12.005  69.765  1.00  0.00    -0.390 A  
HETATM   42  C   UNL     1     -12.019  10.701  70.164  1.00  0.00    -0.417 A  
ENDBRANCH  35  36
ENDBRANCH  34  35
ENDBRANCH  30  34
ENDBRANCH  25  27
ENDBRANCH  24  25
ENDBRANCH  13  15
ENDBRANCH   9  10
ENDBRANCH   7   9
ENDBRANCH   6   7
ENDBRANCH   5   6
ENDBRANCH   2   5
TORSDOF 11
ENDMDL
MODEL       33
REMARK 921   NORMALIZED FREE ENERGY PREDICTED BY IDOCK:   -6.60 KCAL/MOL
REMARK 922        TOTAL FREE ENERGY PREDICTED BY IDOCK:  -13.58 KCAL/MOL
REMARK 923 INTER-LIGAND FREE ENERGY PREDICTED BY IDOCK:  -11.18 KCAL/MOL
REMARK 924 INTRA-LIGAND FREE ENERGY PREDICTED BY IDOCK:   -2.40 KCAL/MOL
REMARK 927      BINDING AFFINITY PREDICTED BY RF-SCORE:    0.00 PKD
ROOT
HETATM    1  C   UNL     1     -10.378  19.742  67.535  1.00  0.00    -0.440 C  
HETATM    2  S   UNL     1     -10.073  18.551  66.256  1.00  0.00    -0.381 S  
HETATM    3  O   UNL     1      -8.648  18.532  65.997  1.00  0.00    -0.497 OA 
HETATM    4  O   UNL     1     -11.029  18.790  65.195  1.00  0.00    -0.514 OA 
ENDROOT
BRANCH   2   5
HETATM    5  C   UNL     1     -10.511  17.026  67.061  1.00  0.00    -0.279 C  
BRANCH   5   6
HETATM    6  C   UNL     1      -9.993  15.822  66.289  1.00  0.00    -0.295 C  
BRANCH   6   7
HETATM    7  N   UNL     1     -10.418  15.804  64.885  1.00  0.00    -0.605 NA 
HETATM    8  H   UNL     1      -9.639  15.552  64.275  1.00  0.00     0.000 HD 
BRANCH   7   9
HETATM    9  C   UNL     1     -11.572  14.939  64.637  1.00  0.00    -0.395 C  
BRANCH   9  10
HETATM   10  C   UNL     1     -11.392  13.627  65.312  1.00  0.00    -0.296 A  
HETATM   11  C   UNL     1     -12.035  13.009  66.362  1.00  0.00    -0.466 A  
HETATM   12  C   UNL     1     -11.397  11.758  66.537  1.00  0.00    -0.370 A  
HETATM   13  C   UNL     1     -10.416  11.672  65.570  1.00  0.00    -0.273 A  
HETATM   14  O   UNL     1     -10.420  12.814  64.819  1.00  0.00    -0.306 OA 
BRANCH  13  15
HETATM   15  C   UNL     1      -9.424  10.671  65.199  1.00  0.00    -0.276 A  
HETATM   16  C   UNL     1      -9.567   9.331  65.581  1.00  0.00    -0.324 A  
HETATM   17  C   UNL     1      -8.596   8.354  65.229  1.00  0.00    -0.177 A  
HETATM   18  C   UNL     1      -7.472   8.740  64.484  1.00  0.00    -0.106 A  
HETATM   19  C   UNL     1      -7.338  10.063  64.112  1.00  0.00    -0.132 A  
HETATM   20  N   UNL     1      -6.501   7.903  64.121  1.00  0.00    -0.060 NA 
HETATM   21  C   UNL     1      -6.631   6.642  64.524  1.00  0.00    -0.042 A  
HETATM   22  C   UNL     1      -8.294  11.020  64.458  1.00  0.00     0.256 A  
HETATM   23  N   UNL     1      -7.641   6.158  65.242  1.00  0.00    -0.084 NA 
HETATM   24  C   UNL     1      -8.632   6.992  65.591  1.00  0.00    -0.111 A  
BRANCH  24  25
HETATM   25  N   UNL     1      -9.693   6.515  66.415  1.00  0.00    -0.333 NA 
HETATM   26  H   UNL     1     -10.530   6.203  65.923  1.00  0.00     0.000 HD 
BRANCH  25  27
HETATM   27  C   UNL     1      -9.736   6.417  67.825  1.00  0.00    -0.121 A  
HETATM   28  C   UNL     1      -8.673   6.785  68.649  1.00  0.00    -0.125 A  
HETATM   29  C   UNL     1      -8.763   6.776  70.043  1.00  0.00    -0.141 A  
HETATM   30  C   UNL     1      -9.967   6.419  70.661  1.00  0.00    -0.185 A  
HETATM   31 CL   UNL     1      -7.283   7.187  70.845  1.00  0.00    -0.069 Cl 
HETATM   32  C   UNL     1     -11.023   5.981  69.846  1.00  0.00    -0.458 A  
HETATM   33  C   UNL     1     -10.907   5.975  68.447  1.00  0.00    -0.361 A  
BRANCH  30  34
HETATM   34  O   UNL     1     -10.277   6.423  71.998  1.00  0.00    -0.192 OA 
BRANCH  34  35
HETATM   35  C   UNL     1     -10.256   7.695  72.641  1.00  0.00    -0.265 C  
BRANCH  35  36
HETATM   36  C   UNL     1     -11.341   8.599  72.117  1.00  0.00    -0.434 A  
HETATM   37  C   UNL     1     -11.029   9.679  71.287  1.00  0.00    -0.399 A  
HETATM   38  C   UNL     1     -12.031  10.568  70.914  1.00  0.00    -0.377 A  
HETATM   39  C   UNL     1     -13.341  10.400  71.352  1.00  0.00    -0.373 A  
HETATM   40  F   UNL     1     -11.726  11.614  70.136  1.00  0.00    -0.354 F  
HETATM   41  C   UNL     1     -13.659   9.326  72.174  1.00  0.00    -0.536 A  
HETATM   42  C   UNL     1     -12.666   8.428  72.559  1.00  0.00    -0.286 A  
ENDBRANCH  35  36
ENDBRANCH  34  35
ENDBRANCH  30  34
ENDBRANCH  25  27
ENDBRANCH  24  25
ENDBRANCH  13  15
ENDBRANCH   9  10
ENDBRANCH   7   9
ENDBRANCH   6   7
ENDBRANCH   5   6
ENDBRANCH   2   5
TORSDOF 11
ENDMDL
MODEL       34
REMARK 921   NORMALIZED FREE ENERGY PREDICTED BY IDOCK:   -6.59 KCAL/MOL
REMARK 922        TOTAL FREE ENERGY PREDICTED BY IDOCK:  -13.58 KCAL/MOL
REMARK 923 INTER-LIGAND FREE ENERGY PREDICTED BY IDOCK:  -10.95 KCAL/MOL
REMARK 924 INTRA-LIGAND FREE ENERGY PREDICTED BY IDOCK:   -2.63 KCAL/MOL
REMARK 927      BINDING AFFINITY PREDICTED BY RF-SCORE:    0.00 PKD
ROOT
HETATM    1  C   UNL     1     -11.877  12.187  63.707  1.00  0.00    -0.500 C  
HETATM    2  S   UNL     1     -11.761  13.792  64.456  1.00  0.00    -0.420 S  
HETATM    3  O   UNL     1     -12.712  14.661  63.793  1.00  0.00    -0.778 OA 
HETATM    4  O   UNL     1     -10.357  14.137  64.542  1.00  0.00    -0.390 OA 
ENDROOT
BRANCH   2   5
HETATM    5  C   UNL     1     -12.354  13.473  66.103  1.00  0.00    -0.407 C  
BRANCH   5   6
HETATM    6  C   UNL     1     -11.543  14.235  67.141  1.00  0.00    -0.380 C  
BRANCH   6   7
HETATM    7  N   UNL     1     -12.373  14.926  68.134  1.00  0.00    -0.538 NA 
HETATM    8  H   UNL     1     -13.286  14.479  68.216  1.00  0.00     0.000 HD 
BRANCH   7   9
HETATM    9  C   UNL     1     -11.734  15.045  69.445  1.00  0.00    -0.326 C  
BRANCH   9  10
HETATM   10  C   UNL     1     -12.357  14.105  70.413  1.00  0.00    -0.359 A  
HETATM   11  C   UNL     1     -13.270  14.264  71.432  1.00  0.00    -0.419 A  
HETATM   12  C   UNL     1     -13.467  12.981  71.993  1.00  0.00    -0.584 A  
HETATM   13  C   UNL     1     -12.682  12.104  71.271  1.00  0.00    -0.261 A  
HETATM   14  O   UNL     1     -12.010  12.794  70.302  1.00  0.00    -0.343 OA 
BRANCH  13  15
HETATM   15  C   UNL     1     -12.429  10.671  71.322  1.00  0.00    -0.515 A  
HETATM   16  C   UNL     1     -11.606  10.045  70.375  1.00  0.00    -0.379 A  
HETATM   17  C   UNL     1     -11.365   8.645  70.417  1.00  0.00    -0.203 A  
HETATM   18  C   UNL     1     -11.963   7.873  71.425  1.00  0.00    -0.303 A  
HETATM   19  C   UNL     1     -12.772   8.498  72.353  1.00  0.00    -0.394 A  
HETATM   20  N   UNL     1     -11.811   6.555  71.536  1.00  0.00    -0.327 NA 
HETATM   21  C   UNL     1     -11.060   5.969  70.608  1.00  0.00    -0.301 A  
HETATM   22  C   UNL     1     -13.007   9.874  72.311  1.00  0.00    -0.387 A  
HETATM   23  N   UNL     1     -10.451   6.588  69.600  1.00  0.00    -0.201 NA 
HETATM   24  C   UNL     1     -10.582   7.918  69.496  1.00  0.00    -0.219 A  
BRANCH  24  25
HETATM   25  N   UNL     1      -9.995   8.597  68.389  1.00  0.00    -0.177 NA 
HETATM   26  H   UNL     1     -10.563   8.639  67.543  1.00  0.00     0.000 HD 
BRANCH  25  27
HETATM   27  C   UNL     1      -8.728   9.219  68.309  1.00  0.00    -0.129 A  
HETATM   28  C   UNL     1      -8.116   9.554  67.102  1.00  0.00    -0.106 A  
HETATM   29  C   UNL     1      -6.910  10.256  67.038  1.00  0.00    -0.084 A  
HETATM   30  C   UNL     1      -6.288  10.679  68.218  1.00  0.00    -0.054 A  
HETATM   31 CL   UNL     1      -6.307  10.473  65.428  1.00  0.00    -0.119 Cl 
HETATM   32  C   UNL     1      -6.856  10.290  69.441  1.00  0.00    -0.076 A  
HETATM   33  C   UNL     1      -8.057   9.565  69.486  1.00  0.00    -0.117 A  
BRANCH  30  34
HETATM   34  O   UNL     1      -5.153  11.439  68.363  1.00  0.00    -0.040 OA 
BRANCH  34  35
HETATM   35  C   UNL     1      -5.144  12.686  67.673  1.00  0.00    -0.101 C  
BRANCH  35  36
HETATM   36  C   UNL     1      -6.134  13.654  68.264  1.00  0.00    -0.108 A  
HETATM   37  C   UNL     1      -7.147  14.208  67.475  1.00  0.00    -0.184 A  
HETATM   38  C   UNL     1      -7.974  15.188  68.011  1.00  0.00    -0.132 A  
HETATM   39  C   UNL     1      -7.812  15.628  69.321  1.00  0.00    -0.230 A  
HETATM   40  F   UNL     1      -8.929  15.732  67.247  1.00  0.00    -0.183 F  
HETATM   41  C   UNL     1      -6.810  15.079  70.112  1.00  0.00    -0.062 A  
HETATM   42  C   UNL     1      -5.972  14.098  69.589  1.00  0.00    -0.114 A  
ENDBRANCH  35  36
ENDBRANCH  34  35
ENDBRANCH  30  34
ENDBRANCH  25  27
ENDBRANCH  24  25
ENDBRANCH  13  15
ENDBRANCH   9  10
ENDBRANCH   7   9
ENDBRANCH   6   7
ENDBRANCH   5   6
ENDBRANCH   2   5
TORSDOF 11
ENDMDL
MODEL       35
REMARK 921   NORMALIZED FREE ENERGY PREDICTED BY IDOCK:   -6.59 KCAL/MOL
REMARK 922        TOTAL FREE ENERGY PREDICTED BY IDOCK:  -13.57 KCAL/MOL
REMARK 923 INTER-LIGAND FREE ENERGY PREDICTED BY IDOCK:  -11.25 KCAL/MOL
REMARK 924 INTRA-LIGAND FREE ENERGY PREDICTED BY IDOCK:   -2.32 KCAL/MOL
REMARK 927      BINDING AFFINITY PREDICTED BY RF-SCORE:    0.00 PKD
ROOT
HETATM    1  C   UNL     1      -7.766   6.696  65.015  1.00  0.00    -0.103 C  
HETATM    2  S   UNL     1      -7.294   8.405  64.952  1.00  0.00    -0.091 S  
HETATM    3  O   UNL     1      -7.865   8.980  63.751  1.00  0.00    -0.123 OA 
HETATM    4  O   UNL     1      -5.872   8.478  65.221  1.00  0.00    -0.047 OA 
ENDROOT
BRANCH   2   5
HETATM    5  C   UNL     1      -8.156   9.077  66.355  1.00  0.00    -0.110 C  
BRANCH   5   6
HETATM    6  C   UNL     1      -7.771  10.529  66.600  1.00  0.00    -0.123 C  
BRANCH   6   7
HETATM    7  N   UNL     1      -6.558  10.680  67.411  1.00  0.00    -0.069 NA 
HETATM    8  H   UNL     1      -6.079   9.785  67.514  1.00  0.00     0.000 HD 
BRANCH   7   9
HETATM    9  C   UNL     1      -5.643  11.704  66.905  1.00  0.00    -0.136 C  
BRANCH   9  10
HETATM   10  C   UNL     1      -5.742  12.939  67.726  1.00  0.00    -0.135 A  
HETATM   11  C   UNL     1      -5.169  13.331  68.915  1.00  0.00    -0.073 A  
HETATM   12  C   UNL     1      -5.659  14.631  69.183  1.00  0.00    -0.091 A  
HETATM   13  C   UNL     1      -6.486  14.970  68.130  1.00  0.00    -0.131 A  
HETATM   14  O   UNL     1      -6.528  13.936  67.238  1.00  0.00    -0.282 OA 
BRANCH  13  15
HETATM   15  C   UNL     1      -7.285  16.139  67.786  1.00  0.00    -0.157 A  
HETATM   16  C   UNL     1      -8.342  16.052  66.870  1.00  0.00    -0.278 A  
HETATM   17  C   UNL     1      -9.117  17.192  66.525  1.00  0.00    -0.294 A  
HETATM   18  C   UNL     1      -8.817  18.430  67.113  1.00  0.00    -0.264 A  
HETATM   19  C   UNL     1      -7.774  18.507  68.014  1.00  0.00    -0.281 A  
HETATM   20  N   UNL     1      -9.474  19.557  66.842  1.00  0.00    -0.326 NA 
HETATM   21  C   UNL     1     -10.449  19.467  65.941  1.00  0.00    -0.491 A  
HETATM   22  C   UNL     1      -7.015  17.386  68.352  1.00  0.00    -0.201 A  
HETATM   23  N   UNL     1     -10.819  18.357  65.309  1.00  0.00    -0.493 NA 
HETATM   24  C   UNL     1     -10.176  17.215  65.595  1.00  0.00    -0.144 A  
BRANCH  24  25
HETATM   25  N   UNL     1     -10.508  16.026  64.883  1.00  0.00    -0.627 NA 
HETATM   26  H   UNL     1     -10.460  16.089  63.867  1.00  0.00     0.000 HD 
BRANCH  25  27
HETATM   27  C   UNL     1     -10.895  14.768  65.403  1.00  0.00    -0.363 A  
HETATM   28  C   UNL     1     -10.589  13.558  64.782  1.00  0.00    -0.429 A  
HETATM   29  C   UNL     1     -10.891  12.320  65.355  1.00  0.00    -0.286 A  
HETATM   30  C   UNL     1     -11.497  12.266  66.615  1.00  0.00    -0.373 A  
HETATM   31 CL   UNL     1     -10.493  10.966  64.350  1.00  0.00    -0.429 Cl 
HETATM   32  C   UNL     1     -11.873  13.475  67.220  1.00  0.00    -0.427 A  
HETATM   33  C   UNL     1     -11.581  14.710  66.620  1.00  0.00    -0.359 A  
BRANCH  30  34
HETATM   34  O   UNL     1     -11.800  11.161  67.373  1.00  0.00    -0.570 OA 
BRANCH  34  35
HETATM   35  C   UNL     1     -10.931  10.900  68.471  1.00  0.00    -0.230 C  
BRANCH  35  36
HETATM   36  C   UNL     1     -11.702  10.605  69.731  1.00  0.00    -0.385 A  
HETATM   37  C   UNL     1     -12.357  11.629  70.421  1.00  0.00    -0.373 A  
HETATM   38  C   UNL     1     -12.962  11.354  71.642  1.00  0.00    -0.418 A  
HETATM   39  C   UNL     1     -12.927  10.076  72.190  1.00  0.00    -0.460 A  
HETATM   40  F   UNL     1     -13.570  12.341  72.311  1.00  0.00    -0.589 F  
HETATM   41  C   UNL     1     -12.281   9.052  71.507  1.00  0.00    -0.403 A  
HETATM   42  C   UNL     1     -11.669   9.312  70.284  1.00  0.00    -0.088 A  
ENDBRANCH  35  36
ENDBRANCH  34  35
ENDBRANCH  30  34
ENDBRANCH  25  27
ENDBRANCH  24  25
ENDBRANCH  13  15
ENDBRANCH   9  10
ENDBRANCH   7   9
ENDBRANCH   6   7
ENDBRANCH   5   6
ENDBRANCH   2   5
TORSDOF 11
ENDMDL
MODEL       36
REMARK 921   NORMALIZED FREE ENERGY PREDICTED BY IDOCK:   -6.58 KCAL/MOL
REMARK 922        TOTAL FREE ENERGY PREDICTED BY IDOCK:  -13.56 KCAL/MOL
REMARK 923 INTER-LIGAND FREE ENERGY PREDICTED BY IDOCK:  -11.59 KCAL/MOL
REMARK 924 INTRA-LIGAND FREE ENERGY PREDICTED BY IDOCK:   -1.97 KCAL/MOL
REMARK 927      BINDING AFFINITY PREDICTED BY RF-SCORE:    0.00 PKD
ROOT
HETATM    1  C   UNL     1     -10.462   3.539  74.466  1.00  0.00    -0.183 C  
HETATM    2  S   UNL     1     -10.523   4.874  73.299  1.00  0.00    -0.232 S  
HETATM    3  O   UNL     1     -11.904   5.050  72.898  1.00  0.00    -0.231 OA 
HETATM    4  O   UNL     1      -9.476   4.653  72.321  1.00  0.00    -0.135 OA 
ENDROOT
BRANCH   2   5
HETATM    5  C   UNL     1     -10.054   6.264  74.305  1.00  0.00    -0.335 C  
BRANCH   5   6
HETATM    6  C   UNL     1      -9.894   7.526  73.469  1.00  0.00    -0.317 C  
BRANCH   6   7
HETATM    7  N   UNL     1     -11.120   7.918  72.767  1.00  0.00    -0.386 NA 
HETATM    8  H   UNL     1     -11.799   8.313  73.418  1.00  0.00     0.000 HD 
BRANCH   7   9
HETATM    9  C   UNL     1     -10.884   8.831  71.648  1.00  0.00    -0.329 C  
BRANCH   9  10
HETATM   10  C   UNL     1     -10.867   8.084  70.363  1.00  0.00    -0.247 A  
HETATM   11  C   UNL     1     -11.242   6.806  70.008  1.00  0.00    -0.380 A  
HETATM   12  C   UNL     1     -10.982   6.687  68.623  1.00  0.00    -0.317 A  
HETATM   13  C   UNL     1     -10.484   7.905  68.204  1.00  0.00    -0.173 A  
HETATM   14  O   UNL     1     -10.422   8.758  69.269  1.00  0.00    -0.219 OA 
BRANCH  13  15
HETATM   15  C   UNL     1     -10.032   8.446  66.929  1.00  0.00    -0.341 A  
HETATM   16  C   UNL     1     -10.437   9.715  66.495  1.00  0.00    -0.213 A  
HETATM   17  C   UNL     1     -10.005  10.243  65.248  1.00  0.00    -0.387 A  
HETATM   18  C   UNL     1      -9.157   9.476  64.434  1.00  0.00    -0.182 A  
HETATM   19  C   UNL     1      -8.763   8.226  64.869  1.00  0.00    -0.008 A  
HETATM   20  N   UNL     1      -8.713   9.876  63.243  1.00  0.00    -0.202 NA 
HETATM   21  C   UNL     1      -9.137  11.066  62.827  1.00  0.00    -0.337 A  
HETATM   22  C   UNL     1      -9.188   7.711  66.095  1.00  0.00    -0.168 A  
HETATM   23  N   UNL     1      -9.948  11.878  63.499  1.00  0.00    -0.405 NA 
HETATM   24  C   UNL     1     -10.380  11.490  64.709  1.00  0.00    -0.289 A  
BRANCH  24  25
HETATM   25  N   UNL     1     -11.301  12.311  65.421  1.00  0.00    -0.332 NA 
HETATM   26  H   UNL     1     -12.278  12.022  65.378  1.00  0.00     0.000 HD 
BRANCH  25  27
HETATM   27  C   UNL     1     -11.038  13.476  66.180  1.00  0.00    -0.291 A  
HETATM   28  C   UNL     1      -9.867  14.221  66.054  1.00  0.00    -0.336 A  
HETATM   29  C   UNL     1      -9.662  15.422  66.737  1.00  0.00    -0.240 A  
HETATM   30  C   UNL     1     -10.669  15.934  67.563  1.00  0.00    -0.318 A  
HETATM   31 CL   UNL     1      -8.093  16.114  66.485  1.00  0.00    -0.329 Cl 
HETATM   32  C   UNL     1     -11.824  15.160  67.753  1.00  0.00    -0.165 A  
HETATM   33  C   UNL     1     -12.005  13.945  67.075  1.00  0.00    -0.459 A  
BRANCH  30  34
HETATM   34  O   UNL     1     -10.691  17.123  68.250  1.00  0.00    -0.366 OA 
BRANCH  34  35
HETATM   35  C   UNL     1     -10.661  18.305  67.456  1.00  0.00    -0.409 C  
BRANCH  35  36
HETATM   36  C   UNL     1      -9.347  19.029  67.587  1.00  0.00    -0.342 A  
HETATM   37  C   UNL     1      -8.766  19.657  66.482  1.00  0.00    -0.402 A  
HETATM   38  C   UNL     1      -7.498  20.215  66.600  1.00  0.00    -0.279 A  
HETATM   39  C   UNL     1      -6.797  20.160  67.800  1.00  0.00    -0.309 A  
HETATM   40  F   UNL     1      -6.935  20.798  65.534  1.00  0.00    -0.247 F  
HETATM   41  C   UNL     1      -7.370  19.541  68.904  1.00  0.00    -0.398 A  
HETATM   42  C   UNL     1      -8.639  18.975  68.802  1.00  0.00    -0.356 A  
ENDBRANCH  35  36
ENDBRANCH  34  35
ENDBRANCH  30  34
ENDBRANCH  25  27
ENDBRANCH  24  25
ENDBRANCH  13  15
ENDBRANCH   9  10
ENDBRANCH   7   9
ENDBRANCH   6   7
ENDBRANCH   5   6
ENDBRANCH   2   5
TORSDOF 11
ENDMDL
MODEL       37
REMARK 921   NORMALIZED FREE ENERGY PREDICTED BY IDOCK:   -6.57 KCAL/MOL
REMARK 922        TOTAL FREE ENERGY PREDICTED BY IDOCK:  -13.54 KCAL/MOL
REMARK 923 INTER-LIGAND FREE ENERGY PREDICTED BY IDOCK:  -11.42 KCAL/MOL
REMARK 924 INTRA-LIGAND FREE ENERGY PREDICTED BY IDOCK:   -2.12 KCAL/MOL
REMARK 927      BINDING AFFINITY PREDICTED BY RF-SCORE:    0.00 PKD
ROOT
HETATM    1  C   UNL     1      -8.371  16.515  66.296  1.00  0.00    -0.329 C  
HETATM    2  S   UNL     1     -10.145  16.519  66.248  1.00  0.00    -0.348 S  
HETATM    3  O   UNL     1     -10.551  16.622  64.861  1.00  0.00    -0.694 OA 
HETATM    4  O   UNL     1     -10.610  17.463  67.242  1.00  0.00    -0.339 OA 
ENDROOT
BRANCH   2   5
HETATM    5  C   UNL     1     -10.532  14.879  66.819  1.00  0.00    -0.284 C  
BRANCH   5   6
HETATM    6  C   UNL     1     -11.898  14.427  66.324  1.00  0.00    -0.379 C  
BRANCH   6   7
HETATM    7  N   UNL     1     -11.874  13.893  64.958  1.00  0.00    -0.355 NA 
HETATM    8  H   UNL     1     -10.952  14.014  64.539  1.00  0.00     0.000 HD 
BRANCH   7   9
HETATM    9  C   UNL     1     -12.305  12.497  64.871  1.00  0.00    -0.470 C  
BRANCH   9  10
HETATM   10  C   UNL     1     -11.160  11.623  64.503  1.00  0.00    -0.301 A  
HETATM   11  C   UNL     1     -10.517  11.359  63.314  1.00  0.00    -0.397 A  
HETATM   12  C   UNL     1      -9.491  10.432  63.615  1.00  0.00    -0.353 A  
HETATM   13  C   UNL     1      -9.549  10.200  64.974  1.00  0.00    -0.299 A  
HETATM   14  O   UNL     1     -10.566  10.935  65.515  1.00  0.00    -0.243 OA 
BRANCH  13  15
HETATM   15  C   UNL     1      -8.794   9.376  65.909  1.00  0.00    -0.193 A  
HETATM   16  C   UNL     1      -9.430   8.699  66.958  1.00  0.00    -0.221 A  
HETATM   17  C   UNL     1      -8.695   7.902  67.877  1.00  0.00    -0.124 A  
HETATM   18  C   UNL     1      -7.304   7.792  67.732  1.00  0.00    -0.095 A  
HETATM   19  C   UNL     1      -6.684   8.463  66.696  1.00  0.00    -0.061 A  
HETATM   20  N   UNL     1      -6.527   7.084  68.551  1.00  0.00    -0.035 NA 
HETATM   21  C   UNL     1      -7.140   6.479  69.565  1.00  0.00    -0.073 A  
HETATM   22  C   UNL     1      -7.409   9.244  65.794  1.00  0.00    -0.094 A  
HETATM   23  N   UNL     1      -8.447   6.516  69.814  1.00  0.00    -0.130 NA 
HETATM   24  C   UNL     1      -9.235   7.209  68.980  1.00  0.00    -0.135 A  
BRANCH  24  25
HETATM   25  N   UNL     1     -10.628   7.320  69.261  1.00  0.00    -0.222 NA 
HETATM   26  H   UNL     1     -11.215   6.571  68.895  1.00  0.00     0.000 HD 
BRANCH  25  27
HETATM   27  C   UNL     1     -11.302   8.333  69.983  1.00  0.00     0.000 A  
HETATM   28  C   UNL     1     -12.364   8.075  70.848  1.00  0.00    -0.073 A  
HETATM   29  C   UNL     1     -12.958   9.070  71.629  1.00  0.00    -0.361 A  
HETATM   30  C   UNL     1     -12.464  10.379  71.583  1.00  0.00    -0.370 A  
HETATM   31 CL   UNL     1     -14.315   8.520  72.555  1.00  0.00    -0.407 Cl 
HETATM   32  C   UNL     1     -11.441  10.666  70.665  1.00  0.00    -0.374 A  
HETATM   33  C   UNL     1     -10.871   9.658  69.872  1.00  0.00    -0.287 A  
BRANCH  30  34
HETATM   34  O   UNL     1     -12.854  11.468  72.322  1.00  0.00    -0.167 OA 
BRANCH  34  35
HETATM   35  C   UNL     1     -13.643  12.437  71.638  1.00  0.00     0.140 C  
BRANCH  35  36
HETATM   36  C   UNL     1     -13.076  13.824  71.793  1.00  0.00    -0.463 A  
HETATM   37  C   UNL     1     -12.309  14.398  70.775  1.00  0.00    -0.417 A  
HETATM   38  C   UNL     1     -11.699  15.628  70.988  1.00  0.00    -0.403 A  
HETATM   39  C   UNL     1     -11.838  16.300  72.198  1.00  0.00    -0.585 A  
HETATM   40  F   UNL     1     -10.948  16.166  70.018  1.00  0.00    -0.274 F  
HETATM   41  C   UNL     1     -12.602  15.737  73.213  1.00  0.00    -0.627 A  
HETATM   42  C   UNL     1     -13.219  14.504  73.016  1.00  0.00    -0.575 A  
ENDBRANCH  35  36
ENDBRANCH  34  35
ENDBRANCH  30  34
ENDBRANCH  25  27
ENDBRANCH  24  25
ENDBRANCH  13  15
ENDBRANCH   9  10
ENDBRANCH   7   9
ENDBRANCH   6   7
ENDBRANCH   5   6
ENDBRANCH   2   5
TORSDOF 11
ENDMDL
MODEL       38
REMARK 921   NORMALIZED FREE ENERGY PREDICTED BY IDOCK:   -6.53 KCAL/MOL
REMARK 922        TOTAL FREE ENERGY PREDICTED BY IDOCK:  -13.48 KCAL/MOL
REMARK 923 INTER-LIGAND FREE ENERGY PREDICTED BY IDOCK:  -11.45 KCAL/MOL
REMARK 924 INTRA-LIGAND FREE ENERGY PREDICTED BY IDOCK:   -2.03 KCAL/MOL
REMARK 927      BINDING AFFINITY PREDICTED BY RF-SCORE:    0.00 PKD
ROOT
HETATM    1  C   UNL     1      -6.787  15.104  67.484  1.00  0.00    -0.174 C  
HETATM    2  S   UNL     1      -7.559  15.620  68.996  1.00  0.00    -0.203 S  
HETATM    3  O   UNL     1      -7.473  17.065  69.068  1.00  0.00    -0.239 OA 
HETATM    4  O   UNL     1      -7.049  14.781  70.060  1.00  0.00    -0.165 OA 
ENDROOT
BRANCH   2   5
HETATM    5  C   UNL     1      -9.258  15.179  68.711  1.00  0.00    -0.200 C  
BRANCH   5   6
HETATM    6  C   UNL     1     -10.205  16.257  69.220  1.00  0.00    -0.269 C  
BRANCH   6   7
HETATM    7  N   UNL     1     -11.621  15.922  69.033  1.00  0.00    -0.390 NA 
HETATM    8  H   UNL     1     -12.046  16.528  68.331  1.00  0.00     0.000 HD 
BRANCH   7   9
HETATM    9  C   UNL     1     -11.849  14.513  68.710  1.00  0.00    -0.315 C  
BRANCH   9  10
HETATM   10  C   UNL     1     -12.303  13.772  69.915  1.00  0.00    -0.275 A  
HETATM   11  C   UNL     1     -12.945  14.152  71.073  1.00  0.00    -0.399 A  
HETATM   12  C   UNL     1     -13.106  12.976  71.843  1.00  0.00    -0.483 A  
HETATM   13  C   UNL     1     -12.573  11.939  71.103  1.00  0.00    -0.288 A  
HETATM   14  O   UNL     1     -12.090  12.428  69.922  1.00  0.00    -0.299 OA 
BRANCH  13  15
HETATM   15  C   UNL     1     -12.424  10.504  71.306  1.00  0.00    -0.524 A  
HETATM   16  C   UNL     1     -11.317   9.811  70.797  1.00  0.00    -0.416 A  
HETATM   17  C   UNL     1     -11.173   8.409  70.985  1.00  0.00    -0.304 A  
HETATM   18  C   UNL     1     -12.160   7.706  71.693  1.00  0.00    -0.306 A  
HETATM   19  C   UNL     1     -13.247   8.397  72.190  1.00  0.00    -0.346 A  
HETATM   20  N   UNL     1     -12.122   6.391  71.905  1.00  0.00    -0.337 NA 
HETATM   21  C   UNL     1     -11.086   5.740  71.383  1.00  0.00    -0.204 A  
HETATM   22  C   UNL     1     -13.385   9.773  72.005  1.00  0.00    -0.547 A  
HETATM   23  N   UNL     1     -10.097   6.291  70.685  1.00  0.00    -0.186 NA 
HETATM   24  C   UNL     1     -10.118   7.618  70.487  1.00  0.00    -0.189 A  
BRANCH  24  25
HETATM   25  N   UNL     1      -9.106   8.224  69.688  1.00  0.00    -0.153 NA 
HETATM   26  H   UNL     1      -8.216   8.395  70.154  1.00  0.00     0.000 HD 
BRANCH  25  27
HETATM   27  C   UNL     1      -9.175   8.619  68.331  1.00  0.00    -0.138 A  
HETATM   28  C   UNL     1      -8.764   7.804  67.277  1.00  0.00    -0.128 A  
HETATM   29  C   UNL     1      -8.928   8.166  65.938  1.00  0.00    -0.151 A  
HETATM   30  C   UNL     1      -9.554   9.375  65.615  1.00  0.00    -0.274 A  
HETATM   31 CL   UNL     1      -8.257   7.028  64.816  1.00  0.00    -0.092 Cl 
HETATM   32  C   UNL     1      -9.910  10.236  66.665  1.00  0.00    -0.256 A  
HETATM   33  C   UNL     1      -9.718   9.865  68.005  1.00  0.00    -0.160 A  
BRANCH  30  34
HETATM   34  O   UNL     1      -9.876   9.869  64.375  1.00  0.00    -0.236 OA 
BRANCH  34  35
HETATM   35  C   UNL     1      -9.238  11.087  64.003  1.00  0.00    -0.162 C  
BRANCH  35  36
HETATM   36  C   UNL     1     -10.191  12.252  64.057  1.00  0.00    -0.399 A  
HETATM   37  C   UNL     1      -9.863  13.407  64.772  1.00  0.00    -0.021 A  
HETATM   38  C   UNL     1     -10.806  14.420  64.906  1.00  0.00    -0.416 A  
HETATM   39  C   UNL     1     -12.072  14.303  64.341  1.00  0.00    -0.490 A  
HETATM   40  F   UNL     1     -10.497  15.516  65.610  1.00  0.00    -0.289 F  
HETATM   41  C   UNL     1     -12.403  13.159  63.625  1.00  0.00    -0.482 A  
HETATM   42  C   UNL     1     -11.470  12.135  63.483  1.00  0.00    -0.544 A  
ENDBRANCH  35  36
ENDBRANCH  34  35
ENDBRANCH  30  34
ENDBRANCH  25  27
ENDBRANCH  24  25
ENDBRANCH  13  15
ENDBRANCH   9  10
ENDBRANCH   7   9
ENDBRANCH   6   7
ENDBRANCH   5   6
ENDBRANCH   2   5
TORSDOF 11
ENDMDL
MODEL       39
REMARK 921   NORMALIZED FREE ENERGY PREDICTED BY IDOCK:   -6.51 KCAL/MOL
REMARK 922        TOTAL FREE ENERGY PREDICTED BY IDOCK:  -13.44 KCAL/MOL
REMARK 923 INTER-LIGAND FREE ENERGY PREDICTED BY IDOCK:  -11.60 KCAL/MOL
REMARK 924 INTRA-LIGAND FREE ENERGY PREDICTED BY IDOCK:   -1.85 KCAL/MOL
REMARK 927      BINDING AFFINITY PREDICTED BY RF-SCORE:    0.00 PKD
ROOT
HETATM    1  C   UNL     1     -12.243  14.042  63.963  1.00  0.00    -0.355 C  
HETATM    2  S   UNL     1     -12.182  12.271  64.035  1.00  0.00    -0.480 S  
HETATM    3  O   UNL     1     -13.104  11.753  63.044  1.00  0.00    -0.508 OA 
HETATM    4  O   UNL     1     -12.275  11.883  65.428  1.00  0.00    -0.377 OA 
ENDROOT
BRANCH   2   5
HETATM    5  C   UNL     1     -10.525  11.937  63.480  1.00  0.00    -0.459 C  
BRANCH   5   6
HETATM    6  C   UNL     1      -9.878  10.827  64.296  1.00  0.00    -0.326 C  
BRANCH   6   7
HETATM    7  N   UNL     1      -9.271   9.777  63.472  1.00  0.00    -0.371 NA 
HETATM    8  H   UNL     1      -9.095  10.115  62.526  1.00  0.00     0.000 HD 
BRANCH   7   9
HETATM    9  C   UNL     1      -8.054   9.210  64.055  1.00  0.00    -0.151 C  
BRANCH   9  10
HETATM   10  C   UNL     1      -8.387   8.056  64.930  1.00  0.00    -0.099 A  
HETATM   11  C   UNL     1      -8.089   6.712  64.876  1.00  0.00    -0.115 A  
HETATM   12  C   UNL     1      -8.697   6.125  66.011  1.00  0.00    -0.157 A  
HETATM   13  C   UNL     1      -9.312   7.146  66.708  1.00  0.00    -0.161 A  
HETATM   14  O   UNL     1      -9.114   8.326  66.048  1.00  0.00    -0.179 OA 
BRANCH  13  15
HETATM   15  C   UNL     1     -10.090   7.228  67.937  1.00  0.00    -0.217 A  
HETATM   16  C   UNL     1     -10.181   8.425  68.660  1.00  0.00    -0.220 A  
HETATM   17  C   UNL     1     -10.931   8.507  69.864  1.00  0.00    -0.165 A  
HETATM   18  C   UNL     1     -11.594   7.364  70.339  1.00  0.00    -0.183 A  
HETATM   19  C   UNL     1     -11.498   6.189  69.621  1.00  0.00    -0.332 A  
HETATM   20  N   UNL     1     -12.306   7.336  71.464  1.00  0.00    -0.343 NA 
HETATM   21  C   UNL     1     -12.352   8.469  72.160  1.00  0.00    -0.382 A  
HETATM   22  C   UNL     1     -10.761   6.112  68.438  1.00  0.00    -0.361 A  
HETATM   23  N   UNL     1     -11.759   9.611  71.821  1.00  0.00    -0.362 NA 
HETATM   24  C   UNL     1     -11.059   9.651  70.677  1.00  0.00    -0.319 A  
BRANCH  24  25
HETATM   25  N   UNL     1     -10.360  10.841  70.324  1.00  0.00    -0.277 NA 
HETATM   26  H   UNL     1      -9.366  10.857  70.554  1.00  0.00     0.000 HD 
BRANCH  25  27
HETATM   27  C   UNL     1     -10.863  12.005  69.696  1.00  0.00     0.205 A  
HETATM   28  C   UNL     1     -11.752  12.882  70.315  1.00  0.00    -0.187 A  
HETATM   29  C   UNL     1     -12.166  14.078  69.722  1.00  0.00    -0.341 A  
HETATM   30  C   UNL     1     -11.658  14.447  68.472  1.00  0.00    -0.314 A  
HETATM   31 CL   UNL     1     -13.341  14.951  70.648  1.00  0.00    -0.322 Cl 
HETATM   32  C   UNL     1     -10.816  13.541  67.807  1.00  0.00    -0.267 A  
HETATM   33  C   UNL     1     -10.428  12.334  68.409  1.00  0.00    -0.244 A  
BRANCH  30  34
HETATM   34  O   UNL     1     -11.877  15.604  67.766  1.00  0.00    -0.153 OA 
BRANCH  34  35
HETATM   35  C   UNL     1     -10.800  16.049  66.947  1.00  0.00    -0.203 C  
BRANCH  35  36
HETATM   36  C   UNL     1     -10.467  17.495  67.205  1.00  0.00    -0.327 A  
HETATM   37  C   UNL     1     -10.648  18.457  66.207  1.00  0.00    -0.343 A  
HETATM   38  C   UNL     1     -10.223  19.762  66.429  1.00  0.00    -0.503 A  
HETATM   39  C   UNL     1      -9.621  20.128  67.628  1.00  0.00    -0.534 A  
HETATM   40  F   UNL     1     -10.379  20.677  65.464  1.00  0.00    -0.347 F  
HETATM   41  C   UNL     1      -9.442  19.178  68.627  1.00  0.00    -0.460 A  
HETATM   42  C   UNL     1      -9.860  17.866  68.419  1.00  0.00    -0.355 A  
ENDBRANCH  35  36
ENDBRANCH  34  35
ENDBRANCH  30  34
ENDBRANCH  25  27
ENDBRANCH  24  25
ENDBRANCH  13  15
ENDBRANCH   9  10
ENDBRANCH   7   9
ENDBRANCH   6   7
ENDBRANCH   5   6
ENDBRANCH   2   5
TORSDOF 11
ENDMDL
MODEL       40
REMARK 921   NORMALIZED FREE ENERGY PREDICTED BY IDOCK:   -6.48 KCAL/MOL
REMARK 922        TOTAL FREE ENERGY PREDICTED BY IDOCK:  -13.40 KCAL/MOL
REMARK 923 INTER-LIGAND FREE ENERGY PREDICTED BY IDOCK:  -11.34 KCAL/MOL
REMARK 924 INTRA-LIGAND FREE ENERGY PREDICTED BY IDOCK:   -2.06 KCAL/MOL
REMARK 927      BINDING AFFINITY PREDICTED BY RF-SCORE:    0.00 PKD
ROOT
HETATM    1  C   UNL     1      -7.070  18.927  67.943  1.00  0.00    -0.234 C  
HETATM    2  S   UNL     1      -7.630  20.143  66.779  1.00  0.00    -0.291 S  
HETATM    3  O   UNL     1      -7.661  19.523  65.469  1.00  0.00    -0.425 OA 
HETATM    4  O   UNL     1      -6.883  21.360  67.019  1.00  0.00    -0.514 OA 
ENDROOT
BRANCH   2   5
HETATM    5  C   UNL     1      -9.308  20.411  67.305  1.00  0.00    -0.413 C  
BRANCH   5   6
HETATM    6  C   UNL     1     -10.297  19.710  66.386  1.00  0.00    -0.504 C  
BRANCH   6   7
HETATM    7  N   UNL     1     -10.290  18.250  66.528  1.00  0.00    -0.385 NA 
HETATM    8  H   UNL     1      -9.441  17.852  66.124  1.00  0.00     0.000 HD 
BRANCH   7   9
HETATM    9  C   UNL     1     -10.468  17.798  67.909  1.00  0.00    -0.397 C  
BRANCH   9  10
HETATM   10  C   UNL     1     -10.912  16.380  67.937  1.00  0.00    -0.298 A  
HETATM   11  C   UNL     1     -11.725  15.662  68.785  1.00  0.00    -0.382 A  
HETATM   12  C   UNL     1     -11.762  14.342  68.276  1.00  0.00    -0.377 A  
HETATM   13  C   UNL     1     -10.989  14.333  67.133  1.00  0.00    -0.302 A  
HETATM   14  O   UNL     1     -10.476  15.583  66.925  1.00  0.00    -0.289 OA 
BRANCH  13  15
HETATM   15  C   UNL     1     -10.620  13.323  66.150  1.00  0.00    -0.293 A  
HETATM   16  C   UNL     1      -9.997  12.128  66.536  1.00  0.00    -0.230 A  
HETATM   17  C   UNL     1      -9.628  11.145  65.578  1.00  0.00    -0.263 A  
HETATM   18  C   UNL     1      -9.890  11.376  64.219  1.00  0.00    -0.261 A  
HETATM   19  C   UNL     1     -10.503  12.557  63.848  1.00  0.00    -0.464 A  
HETATM   20  N   UNL     1      -9.567  10.524  63.247  1.00  0.00    -0.316 NA 
HETATM   21  C   UNL     1      -8.942   9.412  63.624  1.00  0.00    -0.115 A  
HETATM   22  C   UNL     1     -10.866  13.520  64.791  1.00  0.00    -0.392 A  
HETATM   23  N   UNL     1      -8.629   9.085  64.875  1.00  0.00    -0.178 NA 
HETATM   24  C   UNL     1      -8.972   9.929  65.860  1.00  0.00    -0.152 A  
BRANCH  24  25
HETATM   25  N   UNL     1      -8.590   9.635  67.201  1.00  0.00    -0.131 NA 
HETATM   26  H   UNL     1      -7.600   9.747  67.415  1.00  0.00     0.000 HD 
BRANCH  25  27
HETATM   27  C   UNL     1      -9.406   9.207  68.275  1.00  0.00    -0.135 A  
HETATM   28  C   UNL     1      -9.913   7.912  68.379  1.00  0.00    -0.198 A  
HETATM   29  C   UNL     1     -10.635   7.474  69.492  1.00  0.00    -0.236 A  
HETATM   30  C   UNL     1     -10.843   8.340  70.572  1.00  0.00    -0.232 A  
HETATM   31 CL   UNL     1     -11.235   5.855  69.347  1.00  0.00    -0.398 Cl 
HETATM   32  C   UNL     1     -10.398   9.666  70.451  1.00  0.00    -0.350 A  
HETATM   33  C   UNL     1      -9.693  10.095  69.315  1.00  0.00    -0.238 A  
BRANCH  30  34
HETATM   34  O   UNL     1     -11.452   8.079  71.774  1.00  0.00    -0.256 OA 
BRANCH  34  35
HETATM   35  C   UNL     1     -10.583   7.773  72.861  1.00  0.00    -0.366 C  
BRANCH  35  36
HETATM   36  C   UNL     1     -10.229   6.309  72.894  1.00  0.00    -0.207 A  
HETATM   37  C   UNL     1      -8.949   5.878  72.532  1.00  0.00    -0.132 A  
HETATM   38  C   UNL     1      -8.682   4.516  72.456  1.00  0.00    -0.114 A  
HETATM   39  C   UNL     1      -9.667   3.573  72.733  1.00  0.00    -0.192 A  
HETATM   40  F   UNL     1      -7.462   4.105  72.089  1.00  0.00    -0.060 F  
HETATM   41  C   UNL     1     -10.940   3.995  73.097  1.00  0.00    -0.261 A  
HETATM   42  C   UNL     1     -11.224   5.356  73.177  1.00  0.00    -0.355 A  
ENDBRANCH  35  36
ENDBRANCH  34  35
ENDBRANCH  30  34
ENDBRANCH  25  27
ENDBRANCH  24  25
ENDBRANCH  13  15
ENDBRANCH   9  10
ENDBRANCH   7   9
ENDBRANCH   6   7
ENDBRANCH   5   6
ENDBRANCH   2   5
TORSDOF 11
ENDMDL
MODEL       41
REMARK 921   NORMALIZED FREE ENERGY PREDICTED BY IDOCK:   -6.47 KCAL/MOL
REMARK 922        TOTAL FREE ENERGY PREDICTED BY IDOCK:  -13.38 KCAL/MOL
REMARK 923 INTER-LIGAND FREE ENERGY PREDICTED BY IDOCK:  -10.87 KCAL/MOL
REMARK 924 INTRA-LIGAND FREE ENERGY PREDICTED BY IDOCK:   -2.51 KCAL/MOL
REMARK 927      BINDING AFFINITY PREDICTED BY RF-SCORE:    0.00 PKD
ROOT
HETATM    1  C   UNL     1     -11.424   9.507  71.107  1.00  0.00    -0.360 C  
HETATM    2  S   UNL     1     -10.026   8.416  71.073  1.00  0.00    -0.200 S  
HETATM    3  O   UNL     1     -10.524   7.055  71.090  1.00  0.00    -0.211 OA 
HETATM    4  O   UNL     1      -9.078   8.884  72.063  1.00  0.00    -0.353 OA 
ENDROOT
BRANCH   2   5
HETATM    5  C   UNL     1      -9.346   8.739  69.461  1.00  0.00    -0.157 C  
BRANCH   5   6
HETATM    6  C   UNL     1      -8.847  10.171  69.346  1.00  0.00    -0.185 C  
BRANCH   6   7
HETATM    7  N   UNL     1      -7.603  10.415  70.085  1.00  0.00    -0.408 NA 
HETATM    8  H   UNL     1      -7.247   9.549  70.489  1.00  0.00     0.000 HD 
BRANCH   7   9
HETATM    9  C   UNL     1      -6.571  11.077  69.286  1.00  0.00    -0.091 C  
BRANCH   9  10
HETATM   10  C   UNL     1      -6.260  12.417  69.848  1.00  0.00    -0.102 A  
HETATM   11  C   UNL     1      -5.419  12.849  70.850  1.00  0.00    -0.185 A  
HETATM   12  C   UNL     1      -5.566  14.255  70.913  1.00  0.00    -0.185 A  
HETATM   13  C   UNL     1      -6.471  14.606  69.931  1.00  0.00    -0.164 A  
HETATM   14  O   UNL     1      -6.887  13.481  69.277  1.00  0.00    -0.106 OA 
BRANCH  13  15
HETATM   15  C   UNL     1      -7.048  15.861  69.467  1.00  0.00    -0.184 A  
HETATM   16  C   UNL     1      -8.412  15.964  69.162  1.00  0.00    -0.254 A  
HETATM   17  C   UNL     1      -8.976  17.183  68.700  1.00  0.00    -0.267 A  
HETATM   18  C   UNL     1      -8.150  18.307  68.545  1.00  0.00    -0.314 A  
HETATM   19  C   UNL     1      -6.808  18.197  68.847  1.00  0.00    -0.263 A  
HETATM   20  N   UNL     1      -8.582  19.488  68.103  1.00  0.00    -0.321 NA 
HETATM   21  C   UNL     1      -9.871  19.560  67.780  1.00  0.00    -0.366 A  
HETATM   22  C   UNL     1      -6.256  16.998  69.301  1.00  0.00    -0.222 A  
HETATM   23  N   UNL     1     -10.749  18.564  67.873  1.00  0.00    -0.353 NA 
HETATM   24  C   UNL     1     -10.325  17.380  68.338  1.00  0.00    -0.379 A  
BRANCH  24  25
HETATM   25  N   UNL     1     -11.229  16.280  68.385  1.00  0.00    -0.363 NA 
HETATM   26  H   UNL     1     -11.886  16.279  69.164  1.00  0.00     0.000 HD 
BRANCH  25  27
HETATM   27  C   UNL     1     -11.334  15.189  67.491  1.00  0.00    -0.320 A  
HETATM   28  C   UNL     1     -11.546  13.876  67.909  1.00  0.00    -0.377 A  
HETATM   29  C   UNL     1     -11.747  12.823  67.014  1.00  0.00    -0.374 A  
HETATM   30  C   UNL     1     -11.771  13.074  65.637  1.00  0.00    -0.375 A  
HETATM   31 CL   UNL     1     -11.898  11.273  67.775  1.00  0.00    -0.253 Cl 
HETATM   32  C   UNL     1     -11.490  14.378  65.199  1.00  0.00    -0.362 A  
HETATM   33  C   UNL     1     -11.270  15.421  66.113  1.00  0.00    -0.161 A  
BRANCH  30  34
HETATM   34  O   UNL     1     -12.028  12.199  64.611  1.00  0.00    -0.366 OA 
BRANCH  34  35
HETATM   35  C   UNL     1     -11.107  12.223  63.524  1.00  0.00    -0.464 C  
BRANCH  35  36
HETATM   36  C   UNL     1     -10.120  11.089  63.609  1.00  0.00    -0.428 A  
HETATM   37  C   UNL     1     -10.028  10.309  64.765  1.00  0.00    -0.392 A  
HETATM   38  C   UNL     1      -9.030   9.346  64.864  1.00  0.00    -0.209 A  
HETATM   39  C   UNL     1      -8.120   9.145  63.832  1.00  0.00    -0.155 A  
HETATM   40  F   UNL     1      -8.932   8.615  65.981  1.00  0.00    -0.155 F  
HETATM   41  C   UNL     1      -8.207   9.915  62.678  1.00  0.00    -0.145 A  
HETATM   42  C   UNL     1      -9.200  10.885  62.563  1.00  0.00    -0.339 A  
ENDBRANCH  35  36
ENDBRANCH  34  35
ENDBRANCH  30  34
ENDBRANCH  25  27
ENDBRANCH  24  25
ENDBRANCH  13  15
ENDBRANCH   9  10
ENDBRANCH   7   9
ENDBRANCH   6   7
ENDBRANCH   5   6
ENDBRANCH   2   5
TORSDOF 11
ENDMDL
MODEL       42
REMARK 921   NORMALIZED FREE ENERGY PREDICTED BY IDOCK:   -6.45 KCAL/MOL
REMARK 922        TOTAL FREE ENERGY PREDICTED BY IDOCK:  -13.34 KCAL/MOL
REMARK 923 INTER-LIGAND FREE ENERGY PREDICTED BY IDOCK:  -10.21 KCAL/MOL
REMARK 924 INTRA-LIGAND FREE ENERGY PREDICTED BY IDOCK:   -3.13 KCAL/MOL
REMARK 927      BINDING AFFINITY PREDICTED BY RF-SCORE:    0.00 PKD
ROOT
HETATM    1  C   UNL     1     -12.238   7.211  70.509  1.00  0.00    -0.127 C  
HETATM    2  S   UNL     1     -11.896   8.874  71.022  1.00  0.00    -0.251 S  
HETATM    3  O   UNL     1     -11.388   9.598  69.875  1.00  0.00    -0.230 OA 
HETATM    4  O   UNL     1     -11.151   8.809  72.263  1.00  0.00    -0.359 OA 
ENDROOT
BRANCH   2   5
HETATM    5  C   UNL     1     -13.525   9.488  71.389  1.00  0.00    -0.333 C  
BRANCH   5   6
HETATM    6  C   UNL     1     -13.466  10.835  72.095  1.00  0.00    -0.122 C  
BRANCH   6   7
HETATM    7  N   UNL     1     -12.544  11.784  71.462  1.00  0.00    -0.269 NA 
HETATM    8  H   UNL     1     -12.393  11.542  70.482  1.00  0.00     0.000 HD 
BRANCH   7   9
HETATM    9  C   UNL     1     -12.966  13.179  71.592  1.00  0.00    -0.335 C  
BRANCH   9  10
HETATM   10  C   UNL     1     -12.531  13.964  70.407  1.00  0.00    -0.334 A  
HETATM   11  C   UNL     1     -12.263  15.301  70.205  1.00  0.00    -0.403 A  
HETATM   12  C   UNL     1     -11.889  15.430  68.847  1.00  0.00    -0.350 A  
HETATM   13  C   UNL     1     -11.927  14.163  68.300  1.00  0.00    -0.332 A  
HETATM   14  O   UNL     1     -12.314  13.269  69.258  1.00  0.00    -0.207 OA 
BRANCH  13  15
HETATM   15  C   UNL     1     -11.657  13.604  66.982  1.00  0.00    -0.389 A  
HETATM   16  C   UNL     1     -10.701  12.594  66.803  1.00  0.00    -0.261 A  
HETATM   17  C   UNL     1     -10.429  12.054  65.517  1.00  0.00    -0.307 A  
HETATM   18  C   UNL     1     -11.130  12.541  64.404  1.00  0.00    -0.339 A  
HETATM   19  C   UNL     1     -12.070  13.536  64.589  1.00  0.00    -0.450 A  
HETATM   20  N   UNL     1     -10.934  12.111  63.159  1.00  0.00    -0.297 NA 
HETATM   21  C   UNL     1      -9.997  11.181  62.999  1.00  0.00    -0.311 A  
HETATM   22  C   UNL     1     -12.336  14.065  65.853  1.00  0.00    -0.515 A  
HETATM   23  N   UNL     1      -9.259  10.649  63.971  1.00  0.00    -0.221 NA 
HETATM   24  C   UNL     1      -9.469  11.063  65.229  1.00  0.00    -0.223 A  
BRANCH  24  25
HETATM   25  N   UNL     1      -8.648  10.558  66.279  1.00  0.00    -0.142 NA 
HETATM   26  H   UNL     1      -7.794  11.084  66.466  1.00  0.00     0.000 HD 
BRANCH  25  27
HETATM   27  C   UNL     1      -8.862   9.423  67.096  1.00  0.00    -0.127 A  
HETATM   28  C   UNL     1      -9.749   8.400  66.764  1.00  0.00    -0.309 A  
HETATM   29  C   UNL     1      -9.879   7.238  67.529  1.00  0.00    -0.155 A  
HETATM   30  C   UNL     1      -9.076   7.056  68.660  1.00  0.00    -0.132 A  
HETATM   31 CL   UNL     1     -11.109   6.158  66.962  1.00  0.00    -0.393 Cl 
HETATM   32  C   UNL     1      -8.229   8.107  69.045  1.00  0.00    -0.127 A  
HETATM   33  C   UNL     1      -8.126   9.277  68.276  1.00  0.00    -0.107 A  
BRANCH  30  34
HETATM   34  O   UNL     1      -8.998   5.964  69.489  1.00  0.00    -0.127 OA 
BRANCH  34  35
HETATM   35  C   UNL     1      -8.081   6.068  70.575  1.00  0.00    -0.112 C  
BRANCH  35  36
HETATM   36  C   UNL     1      -8.764   5.854  71.900  1.00  0.00    -0.138 A  
HETATM   37  C   UNL     1      -9.774   4.897  72.035  1.00  0.00    -0.219 A  
HETATM   38  C   UNL     1     -10.470   4.801  73.234  1.00  0.00    -0.202 A  
HETATM   39  C   UNL     1     -10.179   5.641  74.304  1.00  0.00    -0.293 A  
HETATM   40  F   UNL     1     -11.451   3.897  73.354  1.00  0.00    -0.322 F  
HETATM   41  C   UNL     1      -9.174   6.592  74.178  1.00  0.00    -0.215 A  
HETATM   42  C   UNL     1      -8.468   6.703  72.983  1.00  0.00    -0.123 A  
ENDBRANCH  35  36
ENDBRANCH  34  35
ENDBRANCH  30  34
ENDBRANCH  25  27
ENDBRANCH  24  25
ENDBRANCH  13  15
ENDBRANCH   9  10
ENDBRANCH   7   9
ENDBRANCH   6   7
ENDBRANCH   5   6
ENDBRANCH   2   5
TORSDOF 11
ENDMDL
MODEL       43
REMARK 921   NORMALIZED FREE ENERGY PREDICTED BY IDOCK:   -6.43 KCAL/MOL
REMARK 922        TOTAL FREE ENERGY PREDICTED BY IDOCK:  -13.31 KCAL/MOL
REMARK 923 INTER-LIGAND FREE ENERGY PREDICTED BY IDOCK:  -11.88 KCAL/MOL
REMARK 924 INTRA-LIGAND FREE ENERGY PREDICTED BY IDOCK:   -1.42 KCAL/MOL
REMARK 927      BINDING AFFINITY PREDICTED BY RF-SCORE:    0.00 PKD
ROOT
HETATM    1  C   UNL     1     -11.682  15.373  72.269  1.00  0.00    -0.469 C  
HETATM    2  S   UNL     1     -13.454  15.440  72.265  1.00  0.00    -0.520 S  
HETATM    3  O   UNL     1     -13.885  15.715  70.909  1.00  0.00    -0.516 OA 
HETATM    4  O   UNL     1     -13.866  16.279  73.372  1.00  0.00    -0.562 OA 
ENDROOT
BRANCH   2   5
HETATM    5  C   UNL     1     -13.888  13.760  72.656  1.00  0.00    -0.391 C  
BRANCH   5   6
HETATM    6  C   UNL     1     -13.072  12.771  71.836  1.00  0.00    -0.371 C  
BRANCH   6   7
HETATM    7  N   UNL     1     -13.440  11.372  72.077  1.00  0.00    -0.454 NA 
HETATM    8  H   UNL     1     -14.366  11.309  72.500  1.00  0.00     0.000 HD 
BRANCH   7   9
HETATM    9  C   UNL     1     -13.359  10.533  70.880  1.00  0.00    -0.071 C  
BRANCH   9  10
HETATM   10  C   UNL     1     -13.397   9.095  71.251  1.00  0.00    -0.227 A  
HETATM   11  C   UNL     1     -14.337   8.304  71.874  1.00  0.00    -0.564 A  
HETATM   12  C   UNL     1     -13.782   7.004  71.940  1.00  0.00    -0.244 A  
HETATM   13  C   UNL     1     -12.544   7.068  71.333  1.00  0.00    -0.386 A  
HETATM   14  O   UNL     1     -12.315   8.346  70.907  1.00  0.00    -0.197 OA 
BRANCH  13  15
HETATM   15  C   UNL     1     -11.481   6.108  71.064  1.00  0.00    -0.316 A  
HETATM   16  C   UNL     1     -10.995   5.908  69.765  1.00  0.00    -0.452 A  
HETATM   17  C   UNL     1      -9.964   4.967  69.498  1.00  0.00    -0.295 A  
HETATM   18  C   UNL     1      -9.423   4.221  70.557  1.00  0.00    -0.174 A  
HETATM   19  C   UNL     1      -9.908   4.425  71.834  1.00  0.00    -0.247 A  
HETATM   20  N   UNL     1      -8.468   3.305  70.405  1.00  0.00    -0.055 NA 
HETATM   21  C   UNL     1      -8.044   3.098  69.162  1.00  0.00    -0.055 A  
HETATM   22  C   UNL     1     -10.919   5.351  72.094  1.00  0.00    -0.265 A  
HETATM   23  N   UNL     1      -8.485   3.730  68.077  1.00  0.00    -0.092 NA 
HETATM   24  C   UNL     1      -9.431   4.670  68.228  1.00  0.00    -0.147 A  
BRANCH  24  25
HETATM   25  N   UNL     1      -9.968   5.315  67.076  1.00  0.00    -0.169 NA 
HETATM   26  H   UNL     1     -10.556   4.736  66.477  1.00  0.00     0.000 HD 
BRANCH  25  27
HETATM   27  C   UNL     1      -9.791   6.654  66.654  1.00  0.00    -0.149 A  
HETATM   28  C   UNL     1     -10.446   7.733  67.244  1.00  0.00    -0.392 A  
HETATM   29  C   UNL     1     -10.189   9.058  66.885  1.00  0.00    -0.269 A  
HETATM   30  C   UNL     1      -9.217   9.341  65.918  1.00  0.00    -0.219 A  
HETATM   31 CL   UNL     1     -11.194  10.214  67.696  1.00  0.00    -0.284 Cl 
HETATM   32  C   UNL     1      -8.599   8.262  65.267  1.00  0.00    -0.159 A  
HETATM   33  C   UNL     1      -8.886   6.936  65.626  1.00  0.00    -0.039 A  
BRANCH  30  34
HETATM   34  O   UNL     1      -8.768  10.566  65.488  1.00  0.00    -0.173 OA 
BRANCH  34  35
HETATM   35  C   UNL     1      -9.171  10.953  64.177  1.00  0.00    -0.194 C  
BRANCH  35  36
HETATM   36  C   UNL     1     -10.164  12.085  64.214  1.00  0.00    -0.347 A  
HETATM   37  C   UNL     1     -10.051  13.101  65.168  1.00  0.00    -0.239 A  
HETATM   38  C   UNL     1     -11.045  14.069  65.258  1.00  0.00    -0.325 A  
HETATM   39  C   UNL     1     -12.151  14.045  64.415  1.00  0.00    -0.486 A  
HETATM   40  F   UNL     1     -10.944  15.029  66.186  1.00  0.00    -0.313 F  
HETATM   41  C   UNL     1     -12.268  13.040  63.462  1.00  0.00    -0.580 A  
HETATM   42  C   UNL     1     -11.282  12.062  63.360  1.00  0.00    -0.481 A  
ENDBRANCH  35  36
ENDBRANCH  34  35
ENDBRANCH  30  34
ENDBRANCH  25  27
ENDBRANCH  24  25
ENDBRANCH  13  15
ENDBRANCH   9  10
ENDBRANCH   7   9
ENDBRANCH   6   7
ENDBRANCH   5   6
ENDBRANCH   2   5
TORSDOF 11
ENDMDL
MODEL       44
REMARK 921   NORMALIZED FREE ENERGY PREDICTED BY IDOCK:   -6.42 KCAL/MOL
REMARK 922        TOTAL FREE ENERGY PREDICTED BY IDOCK:  -13.29 KCAL/MOL
REMARK 923 INTER-LIGAND FREE ENERGY PREDICTED BY IDOCK:  -11.46 KCAL/MOL
REMARK 924 INTRA-LIGAND FREE ENERGY PREDICTED BY IDOCK:   -1.84 KCAL/MOL
REMARK 927      BINDING AFFINITY PREDICTED BY RF-SCORE:    0.00 PKD
ROOT
HETATM    1  C   UNL     1      -9.336   3.472  65.185  1.00  0.00    -0.156 C  
HETATM    2  S   UNL     1      -8.863   3.499  66.895  1.00  0.00    -0.146 S  
HETATM    3  O   UNL     1      -7.484   3.937  66.967  1.00  0.00    -0.071 OA 
HETATM    4  O   UNL     1      -9.289   2.249  67.489  1.00  0.00    -0.166 OA 
ENDROOT
BRANCH   2   5
HETATM    5  C   UNL     1      -9.893   4.797  67.542  1.00  0.00    -0.162 C  
BRANCH   5   6
HETATM    6  C   UNL     1     -10.747   5.425  66.450  1.00  0.00    -0.217 C  
BRANCH   6   7
HETATM    7  N   UNL     1     -11.384   6.681  66.860  1.00  0.00    -0.824 NA 
HETATM    8  H   UNL     1     -11.803   6.589  67.786  1.00  0.00     0.000 HD 
BRANCH   7   9
HETATM    9  C   UNL     1     -10.484   7.834  66.809  1.00  0.00    -0.248 C  
BRANCH   9  10
HETATM   10  C   UNL     1     -10.306   8.413  68.167  1.00  0.00    -0.204 A  
HETATM   11  C   UNL     1      -9.409   8.176  69.185  1.00  0.00    -0.151 A  
HETATM   12  C   UNL     1      -9.761   9.055  70.237  1.00  0.00    -0.229 A  
HETATM   13  C   UNL     1     -10.839   9.796  69.793  1.00  0.00    -0.257 A  
HETATM   14  O   UNL     1     -11.165   9.405  68.525  1.00  0.00    -0.007 OA 
BRANCH  13  15
HETATM   15  C   UNL     1     -11.662  10.854  70.363  1.00  0.00    -0.444 A  
HETATM   16  C   UNL     1     -11.722  12.125  69.775  1.00  0.00    -0.381 A  
HETATM   17  C   UNL     1     -12.518  13.161  70.333  1.00  0.00    -0.280 A  
HETATM   18  C   UNL     1     -13.257  12.908  71.499  1.00  0.00    -0.257 A  
HETATM   19  C   UNL     1     -13.192  11.654  72.073  1.00  0.00    -0.443 A  
HETATM   20  N   UNL     1     -14.017  13.819  72.106  1.00  0.00    -0.528 NA 
HETATM   21  C   UNL     1     -14.033  15.031  71.558  1.00  0.00    -0.501 A  
HETATM   22  C   UNL     1     -12.411  10.637  71.521  1.00  0.00    -0.414 A  
HETATM   23  N   UNL     1     -13.369  15.396  70.465  1.00  0.00    -0.301 NA 
HETATM   24  C   UNL     1     -12.620  14.477  69.837  1.00  0.00    -0.180 A  
BRANCH  24  25
HETATM   25  N   UNL     1     -11.847  14.858  68.702  1.00  0.00    -0.463 NA 
HETATM   26  H   UNL     1     -12.174  14.504  67.804  1.00  0.00     0.000 HD 
BRANCH  25  27
HETATM   27  C   UNL     1     -10.685  15.664  68.659  1.00  0.00    -0.256 A  
HETATM   28  C   UNL     1     -10.700  17.005  68.278  1.00  0.00    -0.372 A  
HETATM   29  C   UNL     1      -9.564  17.816  68.334  1.00  0.00    -0.323 A  
HETATM   30  C   UNL     1      -8.359  17.294  68.817  1.00  0.00    -0.228 A  
HETATM   31 CL   UNL     1      -9.814  19.418  67.723  1.00  0.00    -0.418 Cl 
HETATM   32  C   UNL     1      -8.312  15.929  69.139  1.00  0.00    -0.253 A  
HETATM   33  C   UNL     1      -9.459  15.123  69.057  1.00  0.00    -0.221 A  
BRANCH  30  34
HETATM   34  O   UNL     1      -7.165  17.942  69.022  1.00  0.00    -0.261 OA 
BRANCH  34  35
HETATM   35  C   UNL     1      -6.170  17.748  68.021  1.00  0.00    -0.167 C  
BRANCH  35  36
HETATM   36  C   UNL     1      -6.218  18.828  66.973  1.00  0.00    -0.188 A  
HETATM   37  C   UNL     1      -6.090  18.512  65.617  1.00  0.00    -0.279 A  
HETATM   38  C   UNL     1      -6.019  19.536  64.680  1.00  0.00    -0.267 A  
HETATM   39  C   UNL     1      -6.073  20.871  65.066  1.00  0.00    -0.291 A  
HETATM   40  F   UNL     1      -5.875  19.231  63.384  1.00  0.00    -0.343 F  
HETATM   41  C   UNL     1      -6.204  21.192  66.412  1.00  0.00    -0.333 A  
HETATM   42  C   UNL     1      -6.275  20.178  67.365  1.00  0.00    -0.227 A  
ENDBRANCH  35  36
ENDBRANCH  34  35
ENDBRANCH  30  34
ENDBRANCH  25  27
ENDBRANCH  24  25
ENDBRANCH  13  15
ENDBRANCH   9  10
ENDBRANCH   7   9
ENDBRANCH   6   7
ENDBRANCH   5   6
ENDBRANCH   2   5
TORSDOF 11
ENDMDL
MODEL       45
REMARK 921   NORMALIZED FREE ENERGY PREDICTED BY IDOCK:   -6.41 KCAL/MOL
REMARK 922        TOTAL FREE ENERGY PREDICTED BY IDOCK:  -13.28 KCAL/MOL
REMARK 923 INTER-LIGAND FREE ENERGY PREDICTED BY IDOCK:  -11.16 KCAL/MOL
REMARK 924 INTRA-LIGAND FREE ENERGY PREDICTED BY IDOCK:   -2.12 KCAL/MOL
REMARK 927      BINDING AFFINITY PREDICTED BY RF-SCORE:    0.00 PKD
ROOT
HETATM    1  C   UNL     1      -9.413   2.377  64.821  1.00  0.00    -0.085 C  
HETATM    2  S   UNL     1     -10.504   3.424  63.894  1.00  0.00    -0.232 S  
HETATM    3  O   UNL     1     -11.166   4.313  64.827  1.00  0.00    -0.310 OA 
HETATM    4  O   UNL     1     -11.261   2.581  62.990  1.00  0.00    -0.217 OA 
ENDROOT
BRANCH   2   5
HETATM    5  C   UNL     1      -9.360   4.383  62.927  1.00  0.00    -0.117 C  
BRANCH   5   6
HETATM    6  C   UNL     1      -8.202   4.887  63.775  1.00  0.00    -0.122 C  
BRANCH   6   7
HETATM    7  N   UNL     1      -8.544   6.054  64.594  1.00  0.00    -0.343 NA 
HETATM    8  H   UNL     1      -9.497   5.978  64.952  1.00  0.00     0.000 HD 
BRANCH   7   9
HETATM    9  C   UNL     1      -7.599   6.298  65.685  1.00  0.00    -0.085 C  
BRANCH   9  10
HETATM   10  C   UNL     1      -8.144   5.782  66.968  1.00  0.00    -0.102 A  
HETATM   11  C   UNL     1      -7.953   4.614  67.673  1.00  0.00    -0.093 A  
HETATM   12  C   UNL     1      -8.759   4.714  68.833  1.00  0.00    -0.110 A  
HETATM   13  C   UNL     1      -9.378   5.947  68.783  1.00  0.00    -0.122 A  
HETATM   14  O   UNL     1      -8.994   6.599  67.645  1.00  0.00    -0.114 OA 
BRANCH  13  15
HETATM   15  C   UNL     1     -10.309   6.664  69.643  1.00  0.00    -0.226 A  
HETATM   16  C   UNL     1     -10.429   8.060  69.579  1.00  0.00    -0.226 A  
HETATM   17  C   UNL     1     -11.330   8.763  70.423  1.00  0.00    -0.213 A  
HETATM   18  C   UNL     1     -12.114   8.047  71.341  1.00  0.00    -0.305 A  
HETATM   19  C   UNL     1     -11.990   6.673  71.397  1.00  0.00    -0.405 A  
HETATM   20  N   UNL     1     -12.973   8.618  72.184  1.00  0.00    -0.368 NA 
HETATM   21  C   UNL     1     -13.048   9.945  72.139  1.00  0.00    -0.403 A  
HETATM   22  C   UNL     1     -11.105   5.984  70.566  1.00  0.00    -0.385 A  
HETATM   23  N   UNL     1     -12.350  10.733  71.325  1.00  0.00    -0.370 NA 
HETATM   24  C   UNL     1     -11.501  10.162  70.458  1.00  0.00    -0.337 A  
BRANCH  24  25
HETATM   25  N   UNL     1     -10.694  10.987  69.622  1.00  0.00    -0.428 NA 
HETATM   26  H   UNL     1      -9.687  10.847  69.701  1.00  0.00     0.000 HD 
BRANCH  25  27
HETATM   27  C   UNL     1     -11.107  11.973  68.695  1.00  0.00    -0.250 A  
HETATM   28  C   UNL     1     -11.361  13.296  69.052  1.00  0.00    -0.334 A  
HETATM   29  C   UNL     1     -11.673  14.282  68.113  1.00  0.00    -0.350 A  
HETATM   30  C   UNL     1     -11.707  13.961  66.751  1.00  0.00    -0.399 A  
HETATM   31 CL   UNL     1     -12.035  15.827  68.810  1.00  0.00    -0.331 Cl 
HETATM   32  C   UNL     1     -11.520  12.619  66.384  1.00  0.00    -0.409 A  
HETATM   33  C   UNL     1     -11.229  11.637  67.344  1.00  0.00    -0.358 A  
BRANCH  30  34
HETATM   34  O   UNL     1     -11.913  14.794  65.679  1.00  0.00    -0.284 OA 
BRANCH  34  35
HETATM   35  C   UNL     1     -10.742  15.271  65.023  1.00  0.00    -0.439 C  
BRANCH  35  36
HETATM   36  C   UNL     1     -10.072  16.367  65.810  1.00  0.00    -0.352 A  
HETATM   37  C   UNL     1     -10.613  17.655  65.838  1.00  0.00    -0.203 A  
HETATM   38  C   UNL     1      -9.915  18.677  66.472  1.00  0.00    -0.380 A  
HETATM   39  C   UNL     1      -8.687  18.440  67.079  1.00  0.00    -0.270 A  
HETATM   40  F   UNL     1     -10.426  19.915  66.479  1.00  0.00    -0.496 F  
HETATM   41  C   UNL     1      -8.145  17.160  67.058  1.00  0.00    -0.228 A  
HETATM   42  C   UNL     1      -8.831  16.126  66.426  1.00  0.00    -0.355 A  
ENDBRANCH  35  36
ENDBRANCH  34  35
ENDBRANCH  30  34
ENDBRANCH  25  27
ENDBRANCH  24  25
ENDBRANCH  13  15
ENDBRANCH   9  10
ENDBRANCH   7   9
ENDBRANCH   6   7
ENDBRANCH   5   6
ENDBRANCH   2   5
TORSDOF 11
ENDMDL
MODEL       46
REMARK 921   NORMALIZED FREE ENERGY PREDICTED BY IDOCK:   -6.39 KCAL/MOL
REMARK 922        TOTAL FREE ENERGY PREDICTED BY IDOCK:  -13.25 KCAL/MOL
REMARK 923 INTER-LIGAND FREE ENERGY PREDICTED BY IDOCK:  -11.16 KCAL/MOL
REMARK 924 INTRA-LIGAND FREE ENERGY PREDICTED BY IDOCK:   -2.09 KCAL/MOL
REMARK 927      BINDING AFFINITY PREDICTED BY RF-SCORE:    0.00 PKD
ROOT
HETATM    1  C   UNL     1     -12.338  13.450  66.078  1.00  0.00    -0.413 C  
HETATM    2  S   UNL     1     -11.723  13.882  64.471  1.00  0.00    -0.415 S  
HETATM    3  O   UNL     1     -10.318  14.210  64.607  1.00  0.00    -0.432 OA 
HETATM    4  O   UNL     1     -12.661  14.813  63.877  1.00  0.00    -0.834 OA 
ENDROOT
BRANCH   2   5
HETATM    5  C   UNL     1     -11.851  12.337  63.600  1.00  0.00    -0.522 C  
BRANCH   5   6
HETATM    6  C   UNL     1     -10.668  11.429  63.901  1.00  0.00    -0.397 C  
BRANCH   6   7
HETATM    7  N   UNL     1      -9.457  11.785  63.153  1.00  0.00    -0.594 NA 
HETATM    8  H   UNL     1      -8.833  12.355  63.725  1.00  0.00     0.000 HD 
BRANCH   7   9
HETATM    9  C   UNL     1      -8.748  10.626  62.609  1.00  0.00    -0.253 C  
BRANCH   9  10
HETATM   10  C   UNL     1      -8.115   9.844  63.703  1.00  0.00    -0.153 A  
HETATM   11  C   UNL     1      -7.148  10.139  64.639  1.00  0.00    -0.124 A  
HETATM   12  C   UNL     1      -6.975   8.968  65.413  1.00  0.00    -0.080 A  
HETATM   13  C   UNL     1      -7.861   8.030  64.922  1.00  0.00    -0.129 A  
HETATM   14  O   UNL     1      -8.561   8.571  63.881  1.00  0.00    -0.087 OA 
BRANCH  13  15
HETATM   15  C   UNL     1      -8.191   6.652  65.262  1.00  0.00    -0.133 A  
HETATM   16  C   UNL     1      -8.310   6.241  66.597  1.00  0.00    -0.112 A  
HETATM   17  C   UNL     1      -8.623   4.896  66.931  1.00  0.00    -0.104 A  
HETATM   18  C   UNL     1      -8.815   3.959  65.904  1.00  0.00    -0.125 A  
HETATM   19  C   UNL     1      -8.696   4.372  64.592  1.00  0.00    -0.142 A  
HETATM   20  N   UNL     1      -9.095   2.674  66.117  1.00  0.00    -0.136 NA 
HETATM   21  C   UNL     1      -9.166   2.291  67.389  1.00  0.00    -0.126 A  
HETATM   22  C   UNL     1      -8.390   5.695  64.266  1.00  0.00    -0.081 A  
HETATM   23  N   UNL     1      -8.992   3.079  68.447  1.00  0.00    -0.124 NA 
HETATM   24  C   UNL     1      -8.733   4.379  68.238  1.00  0.00    -0.101 A  
BRANCH  24  25
HETATM   25  N   UNL     1      -8.477   5.231  69.351  1.00  0.00    -0.094 NA 
HETATM   26  H   UNL     1      -7.495   5.377  69.581  1.00  0.00     0.000 HD 
BRANCH  25  27
HETATM   27  C   UNL     1      -9.409   5.900  70.179  1.00  0.00    -0.156 A  
HETATM   28  C   UNL     1      -9.049   6.562  71.352  1.00  0.00    -0.148 A  
HETATM   29  C   UNL     1      -9.961   7.302  72.109  1.00  0.00    -0.165 A  
HETATM   30  C   UNL     1     -11.287   7.425  71.677  1.00  0.00    -0.256 A  
HETATM   31 CL   UNL     1      -9.295   7.956  73.569  1.00  0.00    -0.345 Cl 
HETATM   32  C   UNL     1     -11.679   6.707  70.536  1.00  0.00    -0.453 A  
HETATM   33  C   UNL     1     -10.753   5.951  69.800  1.00  0.00    -0.411 A  
BRANCH  30  34
HETATM   34  O   UNL     1     -12.303   8.163  72.231  1.00  0.00    -0.333 OA 
BRANCH  34  35
HETATM   35  C   UNL     1     -13.181   8.806  71.311  1.00  0.00    -0.164 C  
BRANCH  35  36
HETATM   36  C   UNL     1     -12.845  10.265  71.152  1.00  0.00    -0.504 A  
HETATM   37  C   UNL     1     -13.311  11.208  72.073  1.00  0.00    -0.384 A  
HETATM   38  C   UNL     1     -13.088  12.561  71.840  1.00  0.00    -0.368 A  
HETATM   39  C   UNL     1     -12.410  12.993  70.706  1.00  0.00    -0.394 A  
HETATM   40  F   UNL     1     -13.553  13.463  72.714  1.00  0.00    -0.606 F  
HETATM   41  C   UNL     1     -11.941  12.060  69.788  1.00  0.00    -0.370 A  
HETATM   42  C   UNL     1     -12.157  10.702  70.005  1.00  0.00    -0.393 A  
ENDBRANCH  35  36
ENDBRANCH  34  35
ENDBRANCH  30  34
ENDBRANCH  25  27
ENDBRANCH  24  25
ENDBRANCH  13  15
ENDBRANCH   9  10
ENDBRANCH   7   9
ENDBRANCH   6   7
ENDBRANCH   5   6
ENDBRANCH   2   5
TORSDOF 11
ENDMDL
MODEL       47
REMARK 921   NORMALIZED FREE ENERGY PREDICTED BY IDOCK:   -6.35 KCAL/MOL
REMARK 922        TOTAL FREE ENERGY PREDICTED BY IDOCK:  -13.18 KCAL/MOL
REMARK 923 INTER-LIGAND FREE ENERGY PREDICTED BY IDOCK:  -10.60 KCAL/MOL
REMARK 924 INTRA-LIGAND FREE ENERGY PREDICTED BY IDOCK:   -2.58 KCAL/MOL
REMARK 927      BINDING AFFINITY PREDICTED BY RF-SCORE:    0.00 PKD
ROOT
HETATM    1  C   UNL     1     -12.185  10.251  71.164  1.00  0.00    -0.397 C  
HETATM    2  S   UNL     1     -11.087   8.859  71.222  1.00  0.00    -0.327 S  
HETATM    3  O   UNL     1      -9.771   9.346  71.582  1.00  0.00    -0.241 OA 
HETATM    4  O   UNL     1     -11.299   8.080  70.019  1.00  0.00    -0.161 OA 
ENDROOT
BRANCH   2   5
HETATM    5  C   UNL     1     -11.734   7.937  72.598  1.00  0.00    -0.341 C  
BRANCH   5   6
HETATM    6  C   UNL     1     -10.935   6.665  72.839  1.00  0.00    -0.253 C  
BRANCH   6   7
HETATM    7  N   UNL     1     -10.911   5.765  71.682  1.00  0.00    -0.255 NA 
HETATM    8  H   UNL     1     -11.195   6.257  70.834  1.00  0.00     0.000 HD 
BRANCH   7   9
HETATM    9  C   UNL     1      -9.621   5.101  71.487  1.00  0.00    -0.156 C  
BRANCH   9  10
HETATM   10  C   UNL     1      -8.682   5.995  70.762  1.00  0.00    -0.135 A  
HETATM   11  C   UNL     1      -7.599   6.750  71.158  1.00  0.00    -0.088 A  
HETATM   12  C   UNL     1      -7.113   7.388  69.993  1.00  0.00    -0.065 A  
HETATM   13  C   UNL     1      -7.910   6.971  68.946  1.00  0.00    -0.115 A  
HETATM   14  O   UNL     1      -8.864   6.114  69.419  1.00  0.00    -0.125 OA 
BRANCH  13  15
HETATM   15  C   UNL     1      -7.950   7.238  67.514  1.00  0.00    -0.113 A  
HETATM   16  C   UNL     1      -7.876   8.546  67.018  1.00  0.00    -0.096 A  
HETATM   17  C   UNL     1      -7.923   8.811  65.622  1.00  0.00    -0.103 A  
HETATM   18  C   UNL     1      -8.048   7.741  64.723  1.00  0.00    -0.131 A  
HETATM   19  C   UNL     1      -8.121   6.455  65.221  1.00  0.00    -0.133 A  
HETATM   20  N   UNL     1      -8.118   7.888  63.401  1.00  0.00    -0.123 NA 
HETATM   21  C   UNL     1      -8.086   9.138  62.947  1.00  0.00    -0.157 A  
HETATM   22  C   UNL     1      -8.073   6.197  66.592  1.00  0.00    -0.109 A  
HETATM   23  N   UNL     1      -7.982  10.233  63.696  1.00  0.00    -0.158 NA 
HETATM   24  C   UNL     1      -7.888  10.088  65.026  1.00  0.00    -0.137 A  
BRANCH  24  25
HETATM   25  N   UNL     1      -7.842  11.246  65.856  1.00  0.00    -0.370 NA 
HETATM   26  H   UNL     1      -6.911  11.560  66.128  1.00  0.00     0.000 HD 
BRANCH  25  27
HETATM   27  C   UNL     1      -8.920  12.018  66.351  1.00  0.00    -0.161 A  
HETATM   28  C   UNL     1     -10.124  12.175  65.667  1.00  0.00    -0.274 A  
HETATM   29  C   UNL     1     -11.215  12.857  66.210  1.00  0.00    -0.301 A  
HETATM   30  C   UNL     1     -11.132  13.386  67.503  1.00  0.00    -0.274 A  
HETATM   31 CL   UNL     1     -12.565  12.995  65.133  1.00  0.00    -0.545 Cl 
HETATM   32  C   UNL     1      -9.903  13.295  68.176  1.00  0.00    -0.231 A  
HETATM   33  C   UNL     1      -8.810  12.625  67.606  1.00  0.00    -0.184 A  
BRANCH  30  34
HETATM   34  O   UNL     1     -12.108  14.015  68.236  1.00  0.00    -0.355 OA 
BRANCH  34  35
HETATM   35  C   UNL     1     -11.693  15.157  68.980  1.00  0.00    -0.335 C  
BRANCH  35  36
HETATM   36  C   UNL     1     -12.073  15.042  70.432  1.00  0.00    -0.384 A  
HETATM   37  C   UNL     1     -12.885  13.994  70.875  1.00  0.00    -0.389 A  
HETATM   38  C   UNL     1     -13.319  13.975  72.196  1.00  0.00    -0.453 A  
HETATM   39  C   UNL     1     -12.957  14.981  73.086  1.00  0.00    -0.631 A  
HETATM   40  F   UNL     1     -14.114  12.982  72.612  1.00  0.00    -0.617 F  
HETATM   41  C   UNL     1     -12.146  16.024  72.653  1.00  0.00    -0.640 A  
HETATM   42  C   UNL     1     -11.705  16.058  71.333  1.00  0.00    -0.536 A  
ENDBRANCH  35  36
ENDBRANCH  34  35
ENDBRANCH  30  34
ENDBRANCH  25  27
ENDBRANCH  24  25
ENDBRANCH  13  15
ENDBRANCH   9  10
ENDBRANCH   7   9
ENDBRANCH   6   7
ENDBRANCH   5   6
ENDBRANCH   2   5
TORSDOF 11
ENDMDL
MODEL       48
REMARK 921   NORMALIZED FREE ENERGY PREDICTED BY IDOCK:   -6.35 KCAL/MOL
REMARK 922        TOTAL FREE ENERGY PREDICTED BY IDOCK:  -13.18 KCAL/MOL
REMARK 923 INTER-LIGAND FREE ENERGY PREDICTED BY IDOCK:  -10.76 KCAL/MOL
REMARK 924 INTRA-LIGAND FREE ENERGY PREDICTED BY IDOCK:   -2.42 KCAL/MOL
REMARK 927      BINDING AFFINITY PREDICTED BY RF-SCORE:    0.00 PKD
ROOT
HETATM    1  C   UNL     1      -6.651   7.924  69.591  1.00  0.00    -0.038 C  
HETATM    2  S   UNL     1      -7.626   7.560  68.154  1.00  0.00    -0.116 S  
HETATM    3  O   UNL     1      -7.530   6.137  67.901  1.00  0.00    -0.082 OA 
HETATM    4  O   UNL     1      -7.288   8.532  67.134  1.00  0.00    -0.082 OA 
ENDROOT
BRANCH   2   5
HETATM    5  C   UNL     1      -9.273   7.912  68.728  1.00  0.00    -0.143 C  
BRANCH   5   6
HETATM    6  C   UNL     1     -10.304   7.043  68.024  1.00  0.00    -0.193 C  
BRANCH   6   7
HETATM    7  N   UNL     1     -11.524   6.835  68.811  1.00  0.00    -0.567 NA 
HETATM    8  H   UNL     1     -12.013   5.993  68.506  1.00  0.00     0.000 HD 
BRANCH   7   9
HETATM    9  C   UNL     1     -11.288   6.804  70.255  1.00  0.00    -0.352 C  
BRANCH   9  10
HETATM   10  C   UNL     1     -12.203   7.746  70.950  1.00  0.00    -0.145 A  
HETATM   11  C   UNL     1     -13.265   7.571  71.811  1.00  0.00    -0.364 A  
HETATM   12  C   UNL     1     -13.733   8.867  72.133  1.00  0.00    -0.527 A  
HETATM   13  C   UNL     1     -12.918   9.762  71.470  1.00  0.00    -0.407 A  
HETATM   14  O   UNL     1     -11.979   9.074  70.754  1.00  0.00    -0.264 OA 
BRANCH  13  15
HETATM   15  C   UNL     1     -12.849  11.214  71.377  1.00  0.00    -0.544 A  
HETATM   16  C   UNL     1     -11.971  11.844  70.484  1.00  0.00    -0.360 A  
HETATM   17  C   UNL     1     -11.895  13.260  70.396  1.00  0.00    -0.270 A  
HETATM   18  C   UNL     1     -12.716  14.044  71.222  1.00  0.00    -0.365 A  
HETATM   19  C   UNL     1     -13.578  13.416  72.098  1.00  0.00    -0.660 A  
HETATM   20  N   UNL     1     -12.705  15.376  71.224  1.00  0.00    -0.400 NA 
HETATM   21  C   UNL     1     -11.839  15.960  70.401  1.00  0.00    -0.338 A  
HETATM   22  C   UNL     1     -13.651  12.025  72.182  1.00  0.00    -0.236 A  
HETATM   23  N   UNL     1     -11.003  15.327  69.580  1.00  0.00    -0.266 NA 
HETATM   24  C   UNL     1     -11.026  13.986  69.557  1.00  0.00    -0.095 A  
BRANCH  24  25
HETATM   25  N   UNL     1     -10.096  13.283  68.737  1.00  0.00    -0.415 NA 
HETATM   26  H   UNL     1      -9.146  13.215  69.102  1.00  0.00     0.000 HD 
BRANCH  25  27
HETATM   27  C   UNL     1     -10.318  12.668  67.483  1.00  0.00    -0.218 A  
HETATM   28  C   UNL     1     -10.934  13.316  66.413  1.00  0.00    -0.301 A  
HETATM   29  C   UNL     1     -11.059  12.731  65.150  1.00  0.00    -0.291 A  
HETATM   30  C   UNL     1     -10.526  11.459  64.916  1.00  0.00    -0.305 A  
HETATM   31 CL   UNL     1     -11.940  13.698  64.013  1.00  0.00    -0.487 Cl 
HETATM   32  C   UNL     1      -9.966  10.767  66.001  1.00  0.00    -0.295 A  
HETATM   33  C   UNL     1      -9.867  11.362  67.269  1.00  0.00    -0.209 A  
BRANCH  30  34
HETATM   34  O   UNL     1     -10.478  10.754  63.739  1.00  0.00    -0.319 OA 
BRANCH  34  35
HETATM   35  C   UNL     1      -9.474  11.155  62.811  1.00  0.00    -0.329 C  
BRANCH  35  36
HETATM   36  C   UNL     1      -8.410  10.101  62.655  1.00  0.00    -0.167 A  
HETATM   37  C   UNL     1      -8.747   8.744  62.642  1.00  0.00    -0.097 A  
HETATM   38  C   UNL     1      -7.738   7.788  62.617  1.00  0.00    -0.129 A  
HETATM   39  C   UNL     1      -6.398   8.157  62.604  1.00  0.00    -0.086 A  
HETATM   40  F   UNL     1      -8.064   6.489  62.626  1.00  0.00    -0.097 F  
HETATM   41  C   UNL     1      -6.055   9.504  62.612  1.00  0.00    -0.097 A  
HETATM   42  C   UNL     1      -7.053  10.474  62.639  1.00  0.00    -0.109 A  
ENDBRANCH  35  36
ENDBRANCH  34  35
ENDBRANCH  30  34
ENDBRANCH  25  27
ENDBRANCH  24  25
ENDBRANCH  13  15
ENDBRANCH   9  10
ENDBRANCH   7   9
ENDBRANCH   6   7
ENDBRANCH   5   6
ENDBRANCH   2   5
TORSDOF 11
ENDMDL
MODEL       49
REMARK 921   NORMALIZED FREE ENERGY PREDICTED BY IDOCK:   -6.32 KCAL/MOL
REMARK 922        TOTAL FREE ENERGY PREDICTED BY IDOCK:  -13.14 KCAL/MOL
REMARK 923 INTER-LIGAND FREE ENERGY PREDICTED BY IDOCK:  -11.41 KCAL/MOL
REMARK 924 INTRA-LIGAND FREE ENERGY PREDICTED BY IDOCK:   -1.73 KCAL/MOL
REMARK 927      BINDING AFFINITY PREDICTED BY RF-SCORE:    0.00 PKD
ROOT
HETATM    1  C   UNL     1      -8.974   8.610  66.092  1.00  0.00    -0.180 C  
HETATM    2  S   UNL     1      -7.667   8.314  64.930  1.00  0.00    -0.123 S  
HETATM    3  O   UNL     1      -6.420   8.706  65.555  1.00  0.00    -0.058 OA 
HETATM    4  O   UNL     1      -8.078   8.865  63.655  1.00  0.00    -0.151 OA 
ENDROOT
BRANCH   2   5
HETATM    5  C   UNL     1      -7.688   6.540  64.797  1.00  0.00    -0.106 C  
BRANCH   5   6
HETATM    6  C   UNL     1      -8.839   5.937  65.590  1.00  0.00    -0.118 C  
BRANCH   6   7
HETATM    7  N   UNL     1      -8.398   5.125  66.729  1.00  0.00    -0.108 NA 
HETATM    8  H   UNL     1      -7.963   5.709  67.443  1.00  0.00     0.000 HD 
BRANCH   7   9
HETATM    9  C   UNL     1      -9.465   4.306  67.307  1.00  0.00    -0.181 C  
BRANCH   9  10
HETATM   10  C   UNL     1      -9.686   4.672  68.730  1.00  0.00    -0.160 A  
HETATM   11  C   UNL     1      -9.301   4.101  69.924  1.00  0.00    -0.235 A  
HETATM   12  C   UNL     1      -9.824   4.927  70.946  1.00  0.00    -0.277 A  
HETATM   13  C   UNL     1     -10.480   5.969  70.321  1.00  0.00    -0.242 A  
HETATM   14  O   UNL     1     -10.387   5.813  68.966  1.00  0.00    -0.197 OA 
BRANCH  13  15
HETATM   15  C   UNL     1     -11.214   7.142  70.776  1.00  0.00    -0.309 A  
HETATM   16  C   UNL     1     -10.979   8.407  70.221  1.00  0.00    -0.236 A  
HETATM   17  C   UNL     1     -11.688   9.554  70.670  1.00  0.00    -0.330 A  
HETATM   18  C   UNL     1     -12.641   9.418  71.690  1.00  0.00    -0.375 A  
HETATM   19  C   UNL     1     -12.866   8.168  72.232  1.00  0.00    -0.263 A  
HETATM   20  N   UNL     1     -13.343  10.435  72.189  1.00  0.00    -0.381 NA 
HETATM   21  C   UNL     1     -13.081  11.636  71.680  1.00  0.00    -0.351 A  
HETATM   22  C   UNL     1     -12.170   7.042  71.789  1.00  0.00    -0.387 A  
HETATM   23  N   UNL     1     -12.195  11.894  70.721  1.00  0.00    -0.363 NA 
HETATM   24  C   UNL     1     -11.502  10.871  70.200  1.00  0.00    -0.319 A  
BRANCH  24  25
HETATM   25  N   UNL     1     -10.501  11.128  69.219  1.00  0.00    -0.369 NA 
HETATM   26  H   UNL     1      -9.713  10.481  69.209  1.00  0.00     0.000 HD 
BRANCH  25  27
HETATM   27  C   UNL     1     -10.457  12.165  68.258  1.00  0.00    -0.213 A  
HETATM   28  C   UNL     1     -11.464  12.379  67.318  1.00  0.00    -0.421 A  
HETATM   29  C   UNL     1     -11.456  13.464  66.439  1.00  0.00    -0.329 A  
HETATM   30  C   UNL     1     -10.423  14.406  66.505  1.00  0.00    -0.289 A  
HETATM   31 CL   UNL     1     -12.769  13.462  65.308  1.00  0.00    -0.517 Cl 
HETATM   32  C   UNL     1      -9.367  14.167  67.398  1.00  0.00    -0.215 A  
HETATM   33  C   UNL     1      -9.381  13.058  68.260  1.00  0.00    -0.199 A  
BRANCH  30  34
HETATM   34  O   UNL     1     -10.278  15.569  65.790  1.00  0.00    -0.312 OA 
BRANCH  34  35
HETATM   35  C   UNL     1      -9.063  16.284  66.000  1.00  0.00    -0.297 C  
BRANCH  35  36
HETATM   36  C   UNL     1      -9.308  17.610  66.671  1.00  0.00    -0.289 A  
HETATM   37  C   UNL     1      -8.432  18.085  67.651  1.00  0.00    -0.239 A  
HETATM   38  C   UNL     1      -8.742  19.252  68.339  1.00  0.00    -0.357 A  
HETATM   39  C   UNL     1      -9.911  19.957  68.070  1.00  0.00    -0.534 A  
HETATM   40  F   UNL     1      -7.911  19.694  69.292  1.00  0.00    -0.390 F  
HETATM   41  C   UNL     1     -10.785  19.492  67.094  1.00  0.00    -0.599 A  
HETATM   42  C   UNL     1     -10.490  18.323  66.397  1.00  0.00    -0.387 A  
ENDBRANCH  35  36
ENDBRANCH  34  35
ENDBRANCH  30  34
ENDBRANCH  25  27
ENDBRANCH  24  25
ENDBRANCH  13  15
ENDBRANCH   9  10
ENDBRANCH   7   9
ENDBRANCH   6   7
ENDBRANCH   5   6
ENDBRANCH   2   5
TORSDOF 11
ENDMDL
MODEL       50
REMARK 921   NORMALIZED FREE ENERGY PREDICTED BY IDOCK:   -6.31 KCAL/MOL
REMARK 922        TOTAL FREE ENERGY PREDICTED BY IDOCK:  -13.12 KCAL/MOL
REMARK 923 INTER-LIGAND FREE ENERGY PREDICTED BY IDOCK:  -11.26 KCAL/MOL
REMARK 924 INTRA-LIGAND FREE ENERGY PREDICTED BY IDOCK:   -1.85 KCAL/MOL
REMARK 927      BINDING AFFINITY PREDICTED BY RF-SCORE:    0.00 PKD
ROOT
HETATM    1  C   UNL     1      -5.754  14.348  69.969  1.00  0.00    -0.121 C  
HETATM    2  S   UNL     1      -6.436  15.770  69.157  1.00  0.00    -0.153 S  
HETATM    3  O   UNL     1      -7.833  15.867  69.529  1.00  0.00    -0.226 OA 
HETATM    4  O   UNL     1      -6.027  15.723  67.768  1.00  0.00    -0.130 OA 
ENDROOT
BRANCH   2   5
HETATM    5  C   UNL     1      -5.558  17.101  69.946  1.00  0.00    -0.225 C  
BRANCH   5   6
HETATM    6  C   UNL     1      -5.342  18.267  68.991  1.00  0.00    -0.193 C  
BRANCH   6   7
HETATM    7  N   UNL     1      -6.445  19.233  68.994  1.00  0.00    -0.276 NA 
HETATM    8  H   UNL     1      -6.174  20.090  69.477  1.00  0.00     0.000 HD 
BRANCH   7   9
HETATM    9  C   UNL     1      -6.961  19.532  67.658  1.00  0.00    -0.234 C  
BRANCH   9  10
HETATM   10  C   UNL     1      -8.414  19.231  67.583  1.00  0.00    -0.292 A  
HETATM   11  C   UNL     1      -9.540  19.891  68.027  1.00  0.00    -0.482 A  
HETATM   12  C   UNL     1     -10.644  19.090  67.648  1.00  0.00    -0.526 A  
HETATM   13  C   UNL     1     -10.133  17.999  66.975  1.00  0.00    -0.346 A  
HETATM   14  O   UNL     1      -8.770  18.092  66.931  1.00  0.00    -0.245 OA 
BRANCH  13  15
HETATM   15  C   UNL     1     -10.711  16.826  66.333  1.00  0.00    -0.105 A  
HETATM   16  C   UNL     1     -10.973  15.656  67.059  1.00  0.00    -0.261 A  
HETATM   17  C   UNL     1     -11.528  14.507  66.434  1.00  0.00    -0.362 A  
HETATM   18  C   UNL     1     -11.817  14.543  65.062  1.00  0.00    -0.399 A  
HETATM   19  C   UNL     1     -11.555  15.699  64.353  1.00  0.00    -0.250 A  
HETATM   20  N   UNL     1     -12.322  13.513  64.384  1.00  0.00    -0.581 NA 
HETATM   21  C   UNL     1     -12.529  12.397  65.078  1.00  0.00    -0.316 A  
HETATM   22  C   UNL     1     -11.012  16.827  64.970  1.00  0.00    -0.118 A  
HETATM   23  N   UNL     1     -12.285  12.235  66.376  1.00  0.00    -0.536 NA 
HETATM   24  C   UNL     1     -11.798  13.277  67.068  1.00  0.00    -0.390 A  
BRANCH  24  25
HETATM   25  N   UNL     1     -11.466  13.111  68.444  1.00  0.00    -0.292 NA 
HETATM   26  H   UNL     1     -11.492  13.957  69.011  1.00  0.00     0.000 HD 
BRANCH  25  27
HETATM   27  C   UNL     1     -11.106  11.925  69.126  1.00  0.00    -0.228 A  
HETATM   28  C   UNL     1     -11.872  11.370  70.150  1.00  0.00    -0.440 A  
HETATM   29  C   UNL     1     -11.557  10.148  70.749  1.00  0.00    -0.357 A  
HETATM   30  C   UNL     1     -10.453   9.416  70.298  1.00  0.00    -0.251 A  
HETATM   31 CL   UNL     1     -12.607   9.716  72.058  1.00  0.00    -0.456 Cl 
HETATM   32  C   UNL     1      -9.634   9.994  69.315  1.00  0.00    -0.227 A  
HETATM   33  C   UNL     1      -9.953  11.234  68.740  1.00  0.00    -0.203 A  
BRANCH  30  34
HETATM   34  O   UNL     1     -10.029   8.173  70.697  1.00  0.00    -0.187 OA 
BRANCH  34  35
HETATM   35  C   UNL     1     -10.996   7.129  70.624  1.00  0.00    -0.258 C  
BRANCH  35  36
HETATM   36  C   UNL     1     -10.710   6.186  69.485  1.00  0.00    -0.386 A  
HETATM   37  C   UNL     1      -9.874   5.081  69.668  1.00  0.00    -0.290 A  
HETATM   38  C   UNL     1      -9.530   4.294  68.575  1.00  0.00    -0.153 A  
HETATM   39  C   UNL     1     -10.004   4.587  67.301  1.00  0.00    -0.187 A  
HETATM   40  F   UNL     1      -8.713   3.248  68.750  1.00  0.00    -0.096 F  
HETATM   41  C   UNL     1     -10.839   5.682  67.112  1.00  0.00    -0.242 A  
HETATM   42  C   UNL     1     -11.191   6.482  68.197  1.00  0.00    -0.250 A  
ENDBRANCH  35  36
ENDBRANCH  34  35
ENDBRANCH  30  34
ENDBRANCH  25  27
ENDBRANCH  24  25
ENDBRANCH  13  15
ENDBRANCH   9  10
ENDBRANCH   7   9
ENDBRANCH   6   7
ENDBRANCH   5   6
ENDBRANCH   2   5
TORSDOF 11
ENDMDL
MODEL       51
REMARK 921   NORMALIZED FREE ENERGY PREDICTED BY IDOCK:   -6.29 KCAL/MOL
REMARK 922        TOTAL FREE ENERGY PREDICTED BY IDOCK:  -13.09 KCAL/MOL
REMARK 923 INTER-LIGAND FREE ENERGY PREDICTED BY IDOCK:  -11.03 KCAL/MOL
REMARK 924 INTRA-LIGAND FREE ENERGY PREDICTED BY IDOCK:   -2.05 KCAL/MOL
REMARK 927      BINDING AFFINITY PREDICTED BY RF-SCORE:    0.00 PKD
ROOT
HETATM    1  C   UNL     1      -9.055   6.247  68.552  1.00  0.00    -0.125 C  
HETATM    2  S   UNL     1      -9.071   7.044  66.968  1.00  0.00    -0.142 S  
HETATM    3  O   UNL     1      -9.423   6.051  65.974  1.00  0.00    -0.135 OA 
HETATM    4  O   UNL     1      -7.856   7.826  66.856  1.00  0.00    -0.104 OA 
ENDROOT
BRANCH   2   5
HETATM    5  C   UNL     1     -10.438   8.170  67.136  1.00  0.00    -0.326 C  
BRANCH   5   6
HETATM    6  C   UNL     1     -10.176   9.475  66.398  1.00  0.00    -0.232 C  
BRANCH   6   7
HETATM    7  N   UNL     1      -9.718   9.282  65.019  1.00  0.00    -0.408 NA 
HETATM    8  H   UNL     1     -10.479   8.949  64.427  1.00  0.00     0.000 HD 
BRANCH   7   9
HETATM    9  C   UNL     1      -9.095  10.473  64.440  1.00  0.00    -0.225 C  
BRANCH   9  10
HETATM   10  C   UNL     1     -10.102  11.552  64.265  1.00  0.00    -0.291 A  
HETATM   11  C   UNL     1     -11.306  11.622  63.598  1.00  0.00    -0.485 A  
HETATM   12  C   UNL     1     -11.800  12.932  63.807  1.00  0.00    -0.571 A  
HETATM   13  C   UNL     1     -10.882  13.581  64.608  1.00  0.00    -0.405 A  
HETATM   14  O   UNL     1      -9.849  12.732  64.892  1.00  0.00    -0.170 OA 
BRANCH  13  15
HETATM   15  C   UNL     1     -10.785  14.915  65.186  1.00  0.00    -0.429 A  
HETATM   16  C   UNL     1     -10.378  15.103  66.514  1.00  0.00    -0.286 A  
HETATM   17  C   UNL     1     -10.292  16.402  67.084  1.00  0.00    -0.290 A  
HETATM   18  C   UNL     1     -10.622  17.519  66.301  1.00  0.00    -0.198 A  
HETATM   19  C   UNL     1     -11.022  17.325  64.994  1.00  0.00     0.203 A  
HETATM   20  N   UNL     1     -10.588  18.773  66.750  1.00  0.00    -0.413 NA 
HETATM   21  C   UNL     1     -10.238  18.933  68.023  1.00  0.00    -0.388 A  
HETATM   22  C   UNL     1     -11.105  16.048  64.436  1.00  0.00    -0.141 A  
HETATM   23  N   UNL     1      -9.914  17.956  68.866  1.00  0.00    -0.358 NA 
HETATM   24  C   UNL     1      -9.925  16.693  68.414  1.00  0.00    -0.255 A  
BRANCH  24  25
HETATM   25  N   UNL     1      -9.647  15.624  69.313  1.00  0.00    -0.252 NA 
HETATM   26  H   UNL     1      -8.685  15.562  69.645  1.00  0.00     0.000 HD 
BRANCH  25  27
HETATM   27  C   UNL     1     -10.531  14.636  69.806  1.00  0.00     0.007 A  
HETATM   28  C   UNL     1     -11.420  14.862  70.856  1.00  0.00    -0.305 A  
HETATM   29  C   UNL     1     -12.356  13.911  71.269  1.00  0.00    -0.335 A  
HETATM   30  C   UNL     1     -12.446  12.686  70.598  1.00  0.00    -0.239 A  
HETATM   31 CL   UNL     1     -13.286  14.393  72.649  1.00  0.00    -0.542 Cl 
HETATM   32  C   UNL     1     -11.512  12.418  69.585  1.00  0.00    -0.264 A  
HETATM   33  C   UNL     1     -10.564  13.377  69.197  1.00  0.00    -0.035 A  
BRANCH  30  34
HETATM   34  O   UNL     1     -13.340  11.663  70.798  1.00  0.00     0.221 OA 
BRANCH  34  35
HETATM   35  C   UNL     1     -13.266  11.007  72.060  1.00  0.00    -0.342 C  
BRANCH  35  36
HETATM   36  C   UNL     1     -12.942   9.544  71.907  1.00  0.00    -0.514 A  
HETATM   37  C   UNL     1     -11.614   9.114  71.821  1.00  0.00    -0.457 A  
HETATM   38  C   UNL     1     -11.344   7.775  71.560  1.00  0.00    -0.255 A  
HETATM   39  C   UNL     1     -12.372   6.855  71.384  1.00  0.00    -0.421 A  
HETATM   40  F   UNL     1     -10.072   7.370  71.458  1.00  0.00    -0.184 F  
HETATM   41  C   UNL     1     -13.694   7.275  71.472  1.00  0.00    -0.451 A  
HETATM   42  C   UNL     1     -13.982   8.613  71.730  1.00  0.00    -0.492 A  
ENDBRANCH  35  36
ENDBRANCH  34  35
ENDBRANCH  30  34
ENDBRANCH  25  27
ENDBRANCH  24  25
ENDBRANCH  13  15
ENDBRANCH   9  10
ENDBRANCH   7   9
ENDBRANCH   6   7
ENDBRANCH   5   6
ENDBRANCH   2   5
TORSDOF 11
ENDMDL
MODEL       52
REMARK 921   NORMALIZED FREE ENERGY PREDICTED BY IDOCK:   -6.25 KCAL/MOL
REMARK 922        TOTAL FREE ENERGY PREDICTED BY IDOCK:  -13.01 KCAL/MOL
REMARK 923 INTER-LIGAND FREE ENERGY PREDICTED BY IDOCK:  -10.76 KCAL/MOL
REMARK 924 INTRA-LIGAND FREE ENERGY PREDICTED BY IDOCK:   -2.25 KCAL/MOL
REMARK 927      BINDING AFFINITY PREDICTED BY RF-SCORE:    0.00 PKD
ROOT
HETATM    1  C   UNL     1      -5.347  18.314  69.310  1.00  0.00    -0.196 C  
HETATM    2  S   UNL     1      -6.588  18.066  68.067  1.00  0.00    -0.199 S  
HETATM    3  O   UNL     1      -7.758  17.507  68.713  1.00  0.00    -0.266 OA 
HETATM    4  O   UNL     1      -5.959  17.404  66.942  1.00  0.00    -0.137 OA 
ENDROOT
BRANCH   2   5
HETATM    5  C   UNL     1      -6.965  19.736  67.584  1.00  0.00    -0.245 C  
BRANCH   5   6
HETATM    6  C   UNL     1      -8.166  19.788  66.652  1.00  0.00    -0.323 C  
BRANCH   6   7
HETATM    7  N   UNL     1      -9.442  19.540  67.333  1.00  0.00    -0.310 NA 
HETATM    8  H   UNL     1      -9.814  20.404  67.728  1.00  0.00     0.000 HD 
BRANCH   7   9
HETATM    9  C   UNL     1     -10.438  18.887  66.483  1.00  0.00    -0.432 C  
BRANCH   9  10
HETATM   10  C   UNL     1     -10.393  17.413  66.671  1.00  0.00    -0.306 A  
HETATM   11  C   UNL     1      -9.811  16.387  65.959  1.00  0.00    -0.362 A  
HETATM   12  C   UNL     1     -10.127  15.194  66.651  1.00  0.00    -0.271 A  
HETATM   13  C   UNL     1     -10.865  15.560  67.760  1.00  0.00    -0.309 A  
HETATM   14  O   UNL     1     -11.020  16.917  67.772  1.00  0.00    -0.315 OA 
BRANCH  13  15
HETATM   15  C   UNL     1     -11.485  14.840  68.864  1.00  0.00    -0.321 A  
HETATM   16  C   UNL     1     -11.455  13.440  68.926  1.00  0.00    -0.347 A  
HETATM   17  C   UNL     1     -12.066  12.734  69.997  1.00  0.00    -0.355 A  
HETATM   18  C   UNL     1     -12.714  13.453  71.013  1.00  0.00    -0.307 A  
HETATM   19  C   UNL     1     -12.740  14.832  70.944  1.00  0.00    -0.405 A  
HETATM   20  N   UNL     1     -13.330  12.882  72.047  1.00  0.00    -0.500 NA 
HETATM   21  C   UNL     1     -13.327  11.553  72.073  1.00  0.00    -0.292 A  
HETATM   22  C   UNL     1     -12.137  15.523  69.891  1.00  0.00    -0.378 A  
HETATM   23  N   UNL     1     -12.759  10.762  71.166  1.00  0.00    -0.398 NA 
HETATM   24  C   UNL     1     -12.118  11.332  70.134  1.00  0.00    -0.366 A  
BRANCH  24  25
HETATM   25  N   UNL     1     -11.558  10.508  69.115  1.00  0.00    -0.423 NA 
HETATM   26  H   UNL     1     -11.929  10.652  68.176  1.00  0.00     0.000 HD 
BRANCH  25  27
HETATM   27  C   UNL     1     -10.555   9.518  69.235  1.00  0.00    -0.220 A  
HETATM   28  C   UNL     1      -9.647   9.476  70.292  1.00  0.00    -0.314 A  
HETATM   29  C   UNL     1      -8.725   8.438  70.452  1.00  0.00    -0.141 A  
HETATM   30  C   UNL     1      -8.714   7.372  69.545  1.00  0.00    -0.137 A  
HETATM   31 CL   UNL     1      -7.647   8.657  71.790  1.00  0.00    -0.142 Cl 
HETATM   32  C   UNL     1      -9.575   7.436  68.439  1.00  0.00    -0.149 A  
HETATM   33  C   UNL     1     -10.480   8.498  68.282  1.00  0.00    -0.222 A  
BRANCH  30  34
HETATM   34  O   UNL     1      -7.948   6.233  69.573  1.00  0.00    -0.104 OA 
BRANCH  34  35
HETATM   35  C   UNL     1      -8.635   5.026  69.891  1.00  0.00    -0.098 C  
BRANCH  35  36
HETATM   36  C   UNL     1      -9.257   5.085  71.261  1.00  0.00    -0.186 A  
HETATM   37  C   UNL     1     -10.634   5.274  71.410  1.00  0.00    -0.247 A  
HETATM   38  C   UNL     1     -11.167   5.445  72.683  1.00  0.00    -0.275 A  
HETATM   39  C   UNL     1     -10.355   5.430  73.811  1.00  0.00    -0.277 A  
HETATM   40  F   UNL     1     -12.484   5.647  72.821  1.00  0.00    -0.240 F  
HETATM   41  C   UNL     1      -8.985   5.239  73.670  1.00  0.00    -0.124 A  
HETATM   42  C   UNL     1      -8.435   5.068  72.402  1.00  0.00    -0.121 A  
ENDBRANCH  35  36
ENDBRANCH  34  35
ENDBRANCH  30  34
ENDBRANCH  25  27
ENDBRANCH  24  25
ENDBRANCH  13  15
ENDBRANCH   9  10
ENDBRANCH   7   9
ENDBRANCH   6   7
ENDBRANCH   5   6
ENDBRANCH   2   5
TORSDOF 11
ENDMDL
MODEL       53
REMARK 921   NORMALIZED FREE ENERGY PREDICTED BY IDOCK:   -6.24 KCAL/MOL
REMARK 922        TOTAL FREE ENERGY PREDICTED BY IDOCK:  -12.99 KCAL/MOL
REMARK 923 INTER-LIGAND FREE ENERGY PREDICTED BY IDOCK:  -10.84 KCAL/MOL
REMARK 924 INTRA-LIGAND FREE ENERGY PREDICTED BY IDOCK:   -2.15 KCAL/MOL
REMARK 927      BINDING AFFINITY PREDICTED BY RF-SCORE:    0.00 PKD
ROOT
HETATM    1  C   UNL     1      -9.623  19.877  66.609  1.00  0.00    -0.411 C  
HETATM    2  S   UNL     1      -9.247  18.165  66.340  1.00  0.00    -0.211 S  
HETATM    3  O   UNL     1      -7.921  18.087  65.760  1.00  0.00    -0.532 OA 
HETATM    4  O   UNL     1     -10.391  17.559  65.689  1.00  0.00    -0.601 OA 
ENDROOT
BRANCH   2   5
HETATM    5  C   UNL     1      -9.163  17.540  68.003  1.00  0.00    -0.275 C  
BRANCH   5   6
HETATM    6  C   UNL     1     -10.549  17.233  68.552  1.00  0.00    -0.350 C  
BRANCH   6   7
HETATM    7  N   UNL     1     -10.974  15.849  68.318  1.00  0.00    -0.314 NA 
HETATM    8  H   UNL     1     -10.175  15.216  68.345  1.00  0.00     0.000 HD 
BRANCH   7   9
HETATM    9  C   UNL     1     -12.023  15.400  69.235  1.00  0.00    -0.310 C  
BRANCH   9  10
HETATM   10  C   UNL     1     -11.905  13.940  69.483  1.00  0.00    -0.329 A  
HETATM   11  C   UNL     1     -12.390  13.105  70.465  1.00  0.00    -0.380 A  
HETATM   12  C   UNL     1     -11.931  11.806  70.146  1.00  0.00    -0.421 A  
HETATM   13  C   UNL     1     -11.210  11.914  68.974  1.00  0.00    -0.258 A  
HETATM   14  O   UNL     1     -11.202  13.219  68.568  1.00  0.00    -0.240 OA 
BRANCH  13  15
HETATM   15  C   UNL     1     -10.489  10.979  68.120  1.00  0.00    -0.216 A  
HETATM   16  C   UNL     1     -10.824   9.618  68.089  1.00  0.00    -0.241 A  
HETATM   17  C   UNL     1     -10.118   8.702  67.265  1.00  0.00    -0.310 A  
HETATM   18  C   UNL     1      -9.062   9.168  66.466  1.00  0.00    -0.156 A  
HETATM   19  C   UNL     1      -8.738  10.510  66.503  1.00  0.00    -0.145 A  
HETATM   20  N   UNL     1      -8.331   8.384  65.675  1.00  0.00    -0.145 NA 
HETATM   21  C   UNL     1      -8.635   7.090  65.685  1.00  0.00    -0.111 A  
HETATM   22  C   UNL     1      -9.435  11.408  67.313  1.00  0.00    -0.176 A  
HETATM   23  N   UNL     1      -9.602   6.527  66.405  1.00  0.00    -0.142 NA 
HETATM   24  C   UNL     1     -10.356   7.314  67.187  1.00  0.00    -0.297 A  
BRANCH  24  25
HETATM   25  N   UNL     1     -11.355   6.728  68.017  1.00  0.00    -0.555 NA 
HETATM   26  H   UNL     1     -12.271   6.601  67.587  1.00  0.00     0.000 HD 
BRANCH  25  27
HETATM   27  C   UNL     1     -11.242   6.300  69.361  1.00  0.00    -0.420 A  
HETATM   28  C   UNL     1     -10.344   5.318  69.776  1.00  0.00    -0.369 A  
HETATM   29  C   UNL     1     -10.173   4.974  71.119  1.00  0.00    -0.211 A  
HETATM   30  C   UNL     1     -10.898   5.648  72.108  1.00  0.00    -0.245 A  
HETATM   31 CL   UNL     1      -9.066   3.665  71.373  1.00  0.00    -0.164 Cl 
HETATM   32  C   UNL     1     -11.856   6.589  71.700  1.00  0.00    -0.384 A  
HETATM   33  C   UNL     1     -12.030   6.907  70.344  1.00  0.00    -0.312 A  
BRANCH  30  34
HETATM   34  O   UNL     1     -10.817   5.512  73.472  1.00  0.00    -0.267 OA 
BRANCH  34  35
HETATM   35  C   UNL     1     -10.406   6.671  74.192  1.00  0.00    -0.321 C  
BRANCH  35  36
HETATM   36  C   UNL     1      -8.906   6.753  74.303  1.00  0.00    -0.197 A  
HETATM   37  C   UNL     1      -8.255   7.989  74.262  1.00  0.00    -0.308 A  
HETATM   38  C   UNL     1      -6.866   8.031  74.246  1.00  0.00    -0.129 A  
HETATM   39  C   UNL     1      -6.111   6.864  74.271  1.00  0.00    -0.071 A  
HETATM   40  F   UNL     1      -6.245   9.216  74.185  1.00  0.00    -0.133 F  
HETATM   41  C   UNL     1      -6.751   5.631  74.316  1.00  0.00    -0.080 A  
HETATM   42  C   UNL     1      -8.143   5.571  74.331  1.00  0.00    -0.104 A  
ENDBRANCH  35  36
ENDBRANCH  34  35
ENDBRANCH  30  34
ENDBRANCH  25  27
ENDBRANCH  24  25
ENDBRANCH  13  15
ENDBRANCH   9  10
ENDBRANCH   7   9
ENDBRANCH   6   7
ENDBRANCH   5   6
ENDBRANCH   2   5
TORSDOF 11
ENDMDL
MODEL       54
REMARK 921   NORMALIZED FREE ENERGY PREDICTED BY IDOCK:   -6.23 KCAL/MOL
REMARK 922        TOTAL FREE ENERGY PREDICTED BY IDOCK:  -12.98 KCAL/MOL
REMARK 923 INTER-LIGAND FREE ENERGY PREDICTED BY IDOCK:  -10.50 KCAL/MOL
REMARK 924 INTRA-LIGAND FREE ENERGY PREDICTED BY IDOCK:   -2.49 KCAL/MOL
REMARK 927      BINDING AFFINITY PREDICTED BY RF-SCORE:    0.00 PKD
ROOT
HETATM    1  C   UNL     1      -6.514  19.725  66.290  1.00  0.00    -0.195 C  
HETATM    2  S   UNL     1      -7.856  18.768  66.945  1.00  0.00    -0.250 S  
HETATM    3  O   UNL     1      -7.476  18.319  68.269  1.00  0.00    -0.259 OA 
HETATM    4  O   UNL     1      -8.270  17.831  65.921  1.00  0.00    -0.525 OA 
ENDROOT
BRANCH   2   5
HETATM    5  C   UNL     1      -9.133  19.994  67.119  1.00  0.00    -0.363 C  
BRANCH   5   6
HETATM    6  C   UNL     1     -10.454  19.365  67.535  1.00  0.00    -0.462 C  
BRANCH   6   7
HETATM    7  N   UNL     1     -10.295  18.085  68.234  1.00  0.00    -0.383 NA 
HETATM    8  H   UNL     1     -10.450  18.198  69.236  1.00  0.00     0.000 HD 
BRANCH   7   9
HETATM    9  C   UNL     1     -11.141  17.019  67.695  1.00  0.00    -0.051 C  
BRANCH   9  10
HETATM   10  C   UNL     1     -10.578  15.687  68.039  1.00  0.00    -0.271 A  
HETATM   11  C   UNL     1      -9.377  15.070  67.766  1.00  0.00    -0.186 A  
HETATM   12  C   UNL     1      -9.440  13.793  68.374  1.00  0.00    -0.198 A  
HETATM   13  C   UNL     1     -10.666  13.711  69.003  1.00  0.00    -0.165 A  
HETATM   14  O   UNL     1     -11.356  14.873  68.802  1.00  0.00    -0.259 OA 
BRANCH  13  15
HETATM   15  C   UNL     1     -11.347  12.697  69.797  1.00  0.00    -0.108 A  
HETATM   16  C   UNL     1     -10.903  11.367  69.811  1.00  0.00    -0.019 A  
HETATM   17  C   UNL     1     -11.570  10.373  70.577  1.00  0.00    -0.433 A  
HETATM   18  C   UNL     1     -12.698  10.730  71.333  1.00  0.00    -0.439 A  
HETATM   19  C   UNL     1     -13.128  12.042  71.313  1.00  0.00    -0.209 A  
HETATM   20  N   UNL     1     -13.399   9.868  72.068  1.00  0.00    -0.442 NA 
HETATM   21  C   UNL     1     -12.990   8.603  72.041  1.00  0.00    -0.378 A  
HETATM   22  C   UNL     1     -12.470  13.017  70.561  1.00  0.00    -0.306 A  
HETATM   23  N   UNL     1     -11.946   8.141  71.357  1.00  0.00    -0.293 NA 
HETATM   24  C   UNL     1     -11.223   9.008  70.633  1.00  0.00    -0.270 A  
BRANCH  24  25
HETATM   25  N   UNL     1     -10.141   8.528  69.839  1.00  0.00    -0.190 NA 
HETATM   26  H   UNL     1      -9.559   7.811  70.270  1.00  0.00     0.000 HD 
BRANCH  25  27
HETATM   27  C   UNL     1      -9.769   8.917  68.531  1.00  0.00    -0.161 A  
HETATM   28  C   UNL     1      -8.645   9.694  68.256  1.00  0.00    -0.119 A  
HETATM   29  C   UNL     1      -8.233   9.989  66.954  1.00  0.00    -0.121 A  
HETATM   30  C   UNL     1      -8.943   9.470  65.865  1.00  0.00    -0.173 A  
HETATM   31 CL   UNL     1      -6.862  11.045  66.873  1.00  0.00    -0.111 Cl 
HETATM   32  C   UNL     1     -10.115   8.744  66.127  1.00  0.00    -0.154 A  
HETATM   33  C   UNL     1     -10.526   8.475  67.442  1.00  0.00    -0.351 A  
BRANCH  30  34
HETATM   34  O   UNL     1      -8.657   9.578  64.527  1.00  0.00    -0.163 OA 
BRANCH  34  35
HETATM   35  C   UNL     1      -8.552  10.904  64.016  1.00  0.00     0.057 C  
BRANCH  35  36
HETATM   36  C   UNL     1      -9.833  11.673  64.200  1.00  0.00    -0.270 A  
HETATM   37  C   UNL     1     -11.000  11.283  63.536  1.00  0.00    -0.329 A  
HETATM   38  C   UNL     1     -12.138  12.076  63.628  1.00  0.00    -0.527 A  
HETATM   39  C   UNL     1     -12.136  13.252  64.371  1.00  0.00    -0.471 A  
HETATM   40  F   UNL     1     -13.247  11.712  62.974  1.00  0.00    -0.551 F  
HETATM   41  C   UNL     1     -10.981  13.644  65.037  1.00  0.00    -0.350 A  
HETATM   42  C   UNL     1      -9.832  12.861  64.953  1.00  0.00    -0.048 A  
ENDBRANCH  35  36
ENDBRANCH  34  35
ENDBRANCH  30  34
ENDBRANCH  25  27
ENDBRANCH  24  25
ENDBRANCH  13  15
ENDBRANCH   9  10
ENDBRANCH   7   9
ENDBRANCH   6   7
ENDBRANCH   5   6
ENDBRANCH   2   5
TORSDOF 11
ENDMDL
MODEL       55
REMARK 921   NORMALIZED FREE ENERGY PREDICTED BY IDOCK:   -6.20 KCAL/MOL
REMARK 922        TOTAL FREE ENERGY PREDICTED BY IDOCK:  -12.94 KCAL/MOL
REMARK 923 INTER-LIGAND FREE ENERGY PREDICTED BY IDOCK:  -10.68 KCAL/MOL
REMARK 924 INTRA-LIGAND FREE ENERGY PREDICTED BY IDOCK:   -2.25 KCAL/MOL
REMARK 927      BINDING AFFINITY PREDICTED BY RF-SCORE:    0.00 PKD
ROOT
HETATM    1  C   UNL     1     -10.894   6.476  67.670  1.00  0.00    -0.337 C  
HETATM    2  S   UNL     1      -9.707   7.795  67.713  1.00  0.00    -0.161 S  
HETATM    3  O   UNL     1      -9.969   8.665  66.584  1.00  0.00    -0.241 OA 
HETATM    4  O   UNL     1      -8.401   7.205  67.924  1.00  0.00    -0.118 OA 
ENDROOT
BRANCH   2   5
HETATM    5  C   UNL     1     -10.169   8.658  69.198  1.00  0.00    -0.208 C  
BRANCH   5   6
HETATM    6  C   UNL     1      -9.221   9.813  69.487  1.00  0.00    -0.213 C  
BRANCH   6   7
HETATM    7  N   UNL     1      -8.185   9.985  68.464  1.00  0.00    -0.105 NA 
HETATM    8  H   UNL     1      -8.315   9.319  67.702  1.00  0.00     0.000 HD 
BRANCH   7   9
HETATM    9  C   UNL     1      -8.097  11.352  67.947  1.00  0.00    -0.126 C  
BRANCH   9  10
HETATM   10  C   UNL     1      -7.160  12.158  68.772  1.00  0.00    -0.110 A  
HETATM   11  C   UNL     1      -6.173  11.829  69.675  1.00  0.00    -0.128 A  
HETATM   12  C   UNL     1      -5.628  13.053  70.131  1.00  0.00    -0.134 A  
HETATM   13  C   UNL     1      -6.297  14.061  69.465  1.00  0.00    -0.121 A  
HETATM   14  O   UNL     1      -7.228  13.509  68.630  1.00  0.00    -0.100 OA 
BRANCH  13  15
HETATM   15  C   UNL     1      -6.225  15.515  69.464  1.00  0.00    -0.145 A  
HETATM   16  C   UNL     1      -6.992  16.280  68.574  1.00  0.00    -0.143 A  
HETATM   17  C   UNL     1      -6.918  17.699  68.564  1.00  0.00    -0.231 A  
HETATM   18  C   UNL     1      -6.058  18.348  69.463  1.00  0.00    -0.255 A  
HETATM   19  C   UNL     1      -5.305  17.588  70.336  1.00  0.00    -0.263 A  
HETATM   20  N   UNL     1      -5.906  19.671  69.519  1.00  0.00    -0.245 NA 
HETATM   21  C   UNL     1      -6.611  20.381  68.642  1.00  0.00    -0.253 A  
HETATM   22  C   UNL     1      -5.381  16.194  70.345  1.00  0.00    -0.178 A  
HETATM   23  N   UNL     1      -7.448  19.882  67.736  1.00  0.00    -0.284 NA 
HETATM   24  C   UNL     1      -7.621  18.553  67.691  1.00  0.00    -0.230 A  
BRANCH  24  25
HETATM   25  N   UNL     1      -8.461  17.989  66.687  1.00  0.00    -0.254 NA 
HETATM   26  H   UNL     1      -8.347  18.370  65.748  1.00  0.00     0.000 HD 
BRANCH  25  27
HETATM   27  C   UNL     1      -9.433  16.970  66.823  1.00  0.00    -0.258 A  
HETATM   28  C   UNL     1      -9.546  15.900  65.936  1.00  0.00    -0.378 A  
HETATM   29  C   UNL     1     -10.444  14.848  66.135  1.00  0.00    -0.306 A  
HETATM   30  C   UNL     1     -11.251  14.829  67.278  1.00  0.00    -0.346 A  
HETATM   31 CL   UNL     1     -10.461  13.686  64.850  1.00  0.00    -0.405 Cl 
HETATM   32  C   UNL     1     -11.197  15.933  68.144  1.00  0.00    -0.339 A  
HETATM   33  C   UNL     1     -10.303  16.992  67.916  1.00  0.00    -0.338 A  
BRANCH  30  34
HETATM   34  O   UNL     1     -12.130  13.858  67.690  1.00  0.00    -0.377 OA 
BRANCH  34  35
HETATM   35  C   UNL     1     -11.566  12.779  68.430  1.00  0.00    -0.325 C  
BRANCH  35  36
HETATM   36  C   UNL     1     -12.128  12.709  69.825  1.00  0.00    -0.301 A  
HETATM   37  C   UNL     1     -12.403  11.475  70.422  1.00  0.00    -0.390 A  
HETATM   38  C   UNL     1     -13.030  11.439  71.662  1.00  0.00    -0.418 A  
HETATM   39  C   UNL     1     -13.390  12.610  72.321  1.00  0.00    -0.527 A  
HETATM   40  F   UNL     1     -13.311  10.256  72.222  1.00  0.00    -0.509 F  
HETATM   41  C   UNL     1     -13.116  13.841  71.735  1.00  0.00    -0.463 A  
HETATM   42  C   UNL     1     -12.490  13.894  70.492  1.00  0.00    -0.422 A  
ENDBRANCH  35  36
ENDBRANCH  34  35
ENDBRANCH  30  34
ENDBRANCH  25  27
ENDBRANCH  24  25
ENDBRANCH  13  15
ENDBRANCH   9  10
ENDBRANCH   7   9
ENDBRANCH   6   7
ENDBRANCH   5   6
ENDBRANCH   2   5
TORSDOF 11
ENDMDL
MODEL       56
REMARK 921   NORMALIZED FREE ENERGY PREDICTED BY IDOCK:   -6.18 KCAL/MOL
REMARK 922        TOTAL FREE ENERGY PREDICTED BY IDOCK:  -12.90 KCAL/MOL
REMARK 923 INTER-LIGAND FREE ENERGY PREDICTED BY IDOCK:  -11.64 KCAL/MOL
REMARK 924 INTRA-LIGAND FREE ENERGY PREDICTED BY IDOCK:   -1.26 KCAL/MOL
REMARK 927      BINDING AFFINITY PREDICTED BY RF-SCORE:    0.00 PKD
ROOT
HETATM    1  C   UNL     1     -14.392  15.592  72.033  1.00  0.00    -0.496 C  
HETATM    2  S   UNL     1     -13.291  14.258  72.427  1.00  0.00    -0.515 S  
HETATM    3  O   UNL     1     -14.073  13.039  72.486  1.00  0.00    -0.621 OA 
HETATM    4  O   UNL     1     -12.469  14.680  73.543  1.00  0.00    -0.412 OA 
ENDROOT
BRANCH   2   5
HETATM    5  C   UNL     1     -12.262  14.189  70.978  1.00  0.00    -0.358 C  
BRANCH   5   6
HETATM    6  C   UNL     1     -11.860  15.582  70.516  1.00  0.00    -0.356 C  
BRANCH   6   7
HETATM    7  N   UNL     1     -11.924  15.753  69.061  1.00  0.00    -0.532 NA 
HETATM    8  H   UNL     1     -12.053  16.736  68.817  1.00  0.00     0.000 HD 
BRANCH   7   9
HETATM    9  C   UNL     1     -10.771  15.191  68.356  1.00  0.00    -0.248 C  
BRANCH   9  10
HETATM   10  C   UNL     1     -11.210  14.144  67.396  1.00  0.00    -0.318 A  
HETATM   11  C   UNL     1     -12.309  14.015  66.577  1.00  0.00    -0.442 A  
HETATM   12  C   UNL     1     -12.154  12.784  65.896  1.00  0.00    -0.485 A  
HETATM   13  C   UNL     1     -10.958  12.241  66.321  1.00  0.00    -0.291 A  
HETATM   14  O   UNL     1     -10.380  13.079  67.233  1.00  0.00    -0.236 OA 
BRANCH  13  15
HETATM   15  C   UNL     1     -10.218  11.023  66.019  1.00  0.00    -0.305 A  
HETATM   16  C   UNL     1     -10.526   9.810  66.649  1.00  0.00    -0.233 A  
HETATM   17  C   UNL     1      -9.800   8.622  66.363  1.00  0.00    -0.341 A  
HETATM   18  C   UNL     1      -8.752   8.665  65.432  1.00  0.00    -0.174 A  
HETATM   19  C   UNL     1      -8.454   9.864  64.815  1.00  0.00    -0.179 A  
HETATM   20  N   UNL     1      -8.004   7.611  65.110  1.00  0.00    -0.124 NA 
HETATM   21  C   UNL     1      -8.283   6.476  65.745  1.00  0.00    -0.135 A  
HETATM   22  C   UNL     1      -9.170  11.029  65.097  1.00  0.00    -0.227 A  
HETATM   23  N   UNL     1      -9.241   6.312  66.654  1.00  0.00    -0.142 NA 
HETATM   24  C   UNL     1     -10.012   7.365  66.965  1.00  0.00    -0.231 A  
BRANCH  24  25
HETATM   25  N   UNL     1     -11.001   7.234  67.982  1.00  0.00    -0.476 NA 
HETATM   26  H   UNL     1     -11.960   7.115  67.656  1.00  0.00     0.000 HD 
BRANCH  25  27
HETATM   27  C   UNL     1     -10.827   7.246  69.386  1.00  0.00    -0.190 A  
HETATM   28  C   UNL     1      -9.678   7.731  70.009  1.00  0.00    -0.176 A  
HETATM   29  C   UNL     1      -9.558   7.829  71.397  1.00  0.00    -0.155 A  
HETATM   30  C   UNL     1     -10.632   7.461  72.216  1.00  0.00    -0.232 A  
HETATM   31 CL   UNL     1      -8.003   8.376  71.931  1.00  0.00    -0.168 Cl 
HETATM   32  C   UNL     1     -11.768   6.906  71.607  1.00  0.00    -0.343 A  
HETATM   33  C   UNL     1     -11.863   6.796  70.210  1.00  0.00    -0.359 A  
BRANCH  30  34
HETATM   34  O   UNL     1     -10.739   7.555  73.582  1.00  0.00    -0.343 OA 
BRANCH  34  35
HETATM   35  C   UNL     1     -10.015   6.585  74.334  1.00  0.00    -0.351 C  
BRANCH  35  36
HETATM   36  C   UNL     1     -10.065   5.228  73.682  1.00  0.00    -0.213 A  
HETATM   37  C   UNL     1     -11.029   4.290  74.063  1.00  0.00    -0.251 A  
HETATM   38  C   UNL     1     -10.982   3.005  73.534  1.00  0.00    -0.225 A  
HETATM   39  C   UNL     1      -9.991   2.636  72.630  1.00  0.00    -0.219 A  
HETATM   40  F   UNL     1     -11.894   2.103  73.916  1.00  0.00    -0.273 F  
HETATM   41  C   UNL     1      -9.031   3.565  72.244  1.00  0.00    -0.130 A  
HETATM   42  C   UNL     1      -9.064   4.856  72.767  1.00  0.00    -0.135 A  
ENDBRANCH  35  36
ENDBRANCH  34  35
ENDBRANCH  30  34
ENDBRANCH  25  27
ENDBRANCH  24  25
ENDBRANCH  13  15
ENDBRANCH   9  10
ENDBRANCH   7   9
ENDBRANCH   6   7
ENDBRANCH   5   6
ENDBRANCH   2   5
TORSDOF 11
ENDMDL
MODEL       57
REMARK 921   NORMALIZED FREE ENERGY PREDICTED BY IDOCK:   -6.18 KCAL/MOL
REMARK 922        TOTAL FREE ENERGY PREDICTED BY IDOCK:  -12.89 KCAL/MOL
REMARK 923 INTER-LIGAND FREE ENERGY PREDICTED BY IDOCK:  -10.81 KCAL/MOL
REMARK 924 INTRA-LIGAND FREE ENERGY PREDICTED BY IDOCK:   -2.08 KCAL/MOL
REMARK 927      BINDING AFFINITY PREDICTED BY RF-SCORE:    0.00 PKD
ROOT
HETATM    1  C   UNL     1      -8.357  19.329  66.765  1.00  0.00    -0.296 C  
HETATM    2  S   UNL     1      -9.847  18.430  66.421  1.00  0.00    -0.349 S  
HETATM    3  O   UNL     1      -9.476  17.174  65.801  1.00  0.00    -0.525 OA 
HETATM    4  O   UNL     1     -10.774  19.341  65.782  1.00  0.00    -0.467 OA 
ENDROOT
BRANCH   2   5
HETATM    5  C   UNL     1     -10.454  18.083  68.057  1.00  0.00    -0.375 C  
BRANCH   5   6
HETATM    6  C   UNL     1      -9.808  16.833  68.636  1.00  0.00    -0.261 C  
BRANCH   6   7
HETATM    7  N   UNL     1     -10.578  16.233  69.731  1.00  0.00    -0.322 NA 
HETATM    8  H   UNL     1     -10.686  16.894  70.501  1.00  0.00     0.000 HD 
BRANCH   7   9
HETATM    9  C   UNL     1     -11.879  15.711  69.310  1.00  0.00    -0.363 C  
BRANCH   9  10
HETATM   10  C   UNL     1     -11.779  14.262  68.996  1.00  0.00    -0.317 A  
HETATM   11  C   UNL     1     -12.029  13.118  69.723  1.00  0.00    -0.382 A  
HETATM   12  C   UNL     1     -11.744  12.031  68.863  1.00  0.00    -0.383 A  
HETATM   13  C   UNL     1     -11.358  12.571  67.652  1.00  0.00    -0.306 A  
HETATM   14  O   UNL     1     -11.387  13.934  67.736  1.00  0.00    -0.281 OA 
BRANCH  13  15
HETATM   15  C   UNL     1     -10.945  12.021  66.368  1.00  0.00    -0.337 A  
HETATM   16  C   UNL     1      -9.809  11.207  66.257  1.00  0.00    -0.253 A  
HETATM   17  C   UNL     1      -9.399  10.677  65.004  1.00  0.00    -0.259 A  
HETATM   18  C   UNL     1     -10.145  10.976  63.854  1.00  0.00    -0.356 A  
HETATM   19  C   UNL     1     -11.262  11.779  63.971  1.00  0.00    -0.461 A  
HETATM   20  N   UNL     1      -9.831  10.541  62.635  1.00  0.00    -0.185 NA 
HETATM   21  C   UNL     1      -8.729   9.802  62.539  1.00  0.00    -0.224 A  
HETATM   22  C   UNL     1     -11.664  12.297  65.204  1.00  0.00    -0.414 A  
HETATM   23  N   UNL     1      -7.935   9.461  63.551  1.00  0.00    -0.133 NA 
HETATM   24  C   UNL     1      -8.259   9.878  64.784  1.00  0.00    -0.151 A  
BRANCH  24  25
HETATM   25  N   UNL     1      -7.390   9.583  65.874  1.00  0.00    -0.095 NA 
HETATM   26  H   UNL     1      -6.612  10.228  66.008  1.00  0.00     0.000 HD 
BRANCH  25  27
HETATM   27  C   UNL     1      -7.466   8.512  66.796  1.00  0.00    -0.083 A  
HETATM   28  C   UNL     1      -7.539   8.696  68.176  1.00  0.00    -0.097 A  
HETATM   29  C   UNL     1      -7.713   7.636  69.069  1.00  0.00    -0.117 A  
HETATM   30  C   UNL     1      -7.853   6.331  68.581  1.00  0.00    -0.102 A  
HETATM   31 CL   UNL     1      -7.682   8.109  70.735  1.00  0.00    -0.076 Cl 
HETATM   32  C   UNL     1      -7.712   6.123  67.200  1.00  0.00    -0.101 A  
HETATM   33  C   UNL     1      -7.517   7.199  66.319  1.00  0.00    -0.087 A  
BRANCH  30  34
HETATM   34  O   UNL     1      -8.107   5.178  69.282  1.00  0.00    -0.083 OA 
BRANCH  34  35
HETATM   35  C   UNL     1      -9.451   4.706  69.243  1.00  0.00    -0.162 C  
BRANCH  35  36
HETATM   36  C   UNL     1     -10.305   5.376  70.286  1.00  0.00    -0.357 A  
HETATM   37  C   UNL     1     -10.172   5.043  71.637  1.00  0.00    -0.275 A  
HETATM   38  C   UNL     1     -11.051   5.586  72.567  1.00  0.00    -0.270 A  
HETATM   39  C   UNL     1     -12.062   6.458  72.176  1.00  0.00    -0.316 A  
HETATM   40  F   UNL     1     -10.934   5.249  73.857  1.00  0.00    -0.303 F  
HETATM   41  C   UNL     1     -12.198   6.797  70.834  1.00  0.00    -0.386 A  
HETATM   42  C   UNL     1     -11.326   6.259  69.891  1.00  0.00    -0.504 A  
ENDBRANCH  35  36
ENDBRANCH  34  35
ENDBRANCH  30  34
ENDBRANCH  25  27
ENDBRANCH  24  25
ENDBRANCH  13  15
ENDBRANCH   9  10
ENDBRANCH   7   9
ENDBRANCH   6   7
ENDBRANCH   5   6
ENDBRANCH   2   5
TORSDOF 11
ENDMDL
MODEL       58
REMARK 921   NORMALIZED FREE ENERGY PREDICTED BY IDOCK:   -6.15 KCAL/MOL
REMARK 922        TOTAL FREE ENERGY PREDICTED BY IDOCK:  -12.86 KCAL/MOL
REMARK 923 INTER-LIGAND FREE ENERGY PREDICTED BY IDOCK:  -11.58 KCAL/MOL
REMARK 924 INTRA-LIGAND FREE ENERGY PREDICTED BY IDOCK:   -1.27 KCAL/MOL
REMARK 927      BINDING AFFINITY PREDICTED BY RF-SCORE:    0.00 PKD
ROOT
HETATM    1  C   UNL     1     -12.485  13.478  65.925  1.00  0.00    -0.429 C  
HETATM    2  S   UNL     1     -11.776  14.195  64.465  1.00  0.00    -0.405 S  
HETATM    3  O   UNL     1     -10.455  14.683  64.806  1.00  0.00    -0.418 OA 
HETATM    4  O   UNL     1     -12.772  15.065  63.873  1.00  0.00    -0.775 OA 
ENDROOT
BRANCH   2   5
HETATM    5  C   UNL     1     -11.587  12.774  63.411  1.00  0.00    -0.443 C  
BRANCH   5   6
HETATM    6  C   UNL     1     -11.127  11.556  64.198  1.00  0.00    -0.344 C  
BRANCH   6   7
HETATM    7  N   UNL     1      -9.779  11.701  64.759  1.00  0.00    -0.338 NA 
HETATM    8  H   UNL     1      -9.812  12.180  65.659  1.00  0.00     0.000 HD 
BRANCH   7   9
HETATM    9  C   UNL     1      -9.056  10.434  64.871  1.00  0.00    -0.208 C  
BRANCH   9  10
HETATM   10  C   UNL     1      -9.575   9.640  66.015  1.00  0.00    -0.242 A  
HETATM   11  C   UNL     1     -10.267   9.972  67.159  1.00  0.00    -0.284 A  
HETATM   12  C   UNL     1     -10.475   8.761  67.862  1.00  0.00    -0.275 A  
HETATM   13  C   UNL     1      -9.919   7.755  67.098  1.00  0.00    -0.230 A  
HETATM   14  O   UNL     1      -9.376   8.295  65.966  1.00  0.00    -0.199 OA 
BRANCH  13  15
HETATM   15  C   UNL     1      -9.794   6.310  67.236  1.00  0.00    -0.165 A  
HETATM   16  C   UNL     1      -9.644   5.711  68.494  1.00  0.00    -0.160 A  
HETATM   17  C   UNL     1      -9.513   4.303  68.631  1.00  0.00    -0.221 A  
HETATM   18  C   UNL     1      -9.532   3.496  67.484  1.00  0.00    -0.186 A  
HETATM   19  C   UNL     1      -9.679   4.094  66.248  1.00  0.00    -0.219 A  
HETATM   20  N   UNL     1      -9.399   2.170  67.509  1.00  0.00    -0.135 NA 
HETATM   21  C   UNL     1      -9.219   1.620  68.706  1.00  0.00    -0.149 A  
HETATM   22  C   UNL     1      -9.810   5.478  66.116  1.00  0.00    -0.137 A  
HETATM   23  N   UNL     1      -9.171   2.277  69.862  1.00  0.00    -0.115 NA 
HETATM   24  C   UNL     1      -9.327   3.609  69.844  1.00  0.00    -0.176 A  
BRANCH  24  25
HETATM   25  N   UNL     1      -9.214   4.344  71.060  1.00  0.00    -0.129 NA 
HETATM   26  H   UNL     1      -8.743   3.864  71.826  1.00  0.00     0.000 HD 
BRANCH  25  27
HETATM   27  C   UNL     1      -9.669   5.653  71.343  1.00  0.00    -0.162 A  
HETATM   28  C   UNL     1      -8.908   6.796  71.102  1.00  0.00    -0.137 A  
HETATM   29  C   UNL     1      -9.405   8.087  71.294  1.00  0.00    -0.150 A  
HETATM   30  C   UNL     1     -10.728   8.268  71.714  1.00  0.00    -0.266 A  
HETATM   31 CL   UNL     1      -8.240   9.338  71.013  1.00  0.00    -0.185 Cl 
HETATM   32  C   UNL     1     -11.484   7.127  72.026  1.00  0.00    -0.310 A  
HETATM   33  C   UNL     1     -10.960   5.837  71.848  1.00  0.00    -0.318 A  
BRANCH  30  34
HETATM   34  O   UNL     1     -11.420   9.442  71.882  1.00  0.00    -0.373 OA 
BRANCH  34  35
HETATM   35  C   UNL     1     -12.192   9.878  70.767  1.00  0.00    -0.291 C  
BRANCH  35  36
HETATM   36  C   UNL     1     -12.534  11.341  70.867  1.00  0.00    -0.493 A  
HETATM   37  C   UNL     1     -12.018  12.258  69.947  1.00  0.00    -0.377 A  
HETATM   38  C   UNL     1     -12.251  13.617  70.129  1.00  0.00    -0.342 A  
HETATM   39  C   UNL     1     -12.990  14.080  71.213  1.00  0.00    -0.418 A  
HETATM   40  F   UNL     1     -11.737  14.494  69.258  1.00  0.00    -0.270 F  
HETATM   41  C   UNL     1     -13.509  13.174  72.129  1.00  0.00    -0.653 A  
HETATM   42  C   UNL     1     -13.283  11.810  71.962  1.00  0.00    -0.460 A  
ENDBRANCH  35  36
ENDBRANCH  34  35
ENDBRANCH  30  34
ENDBRANCH  25  27
ENDBRANCH  24  25
ENDBRANCH  13  15
ENDBRANCH   9  10
ENDBRANCH   7   9
ENDBRANCH   6   7
ENDBRANCH   5   6
ENDBRANCH   2   5
TORSDOF 11
ENDMDL
MODEL       59
REMARK 921   NORMALIZED FREE ENERGY PREDICTED BY IDOCK:   -6.15 KCAL/MOL
REMARK 922        TOTAL FREE ENERGY PREDICTED BY IDOCK:  -12.85 KCAL/MOL
REMARK 923 INTER-LIGAND FREE ENERGY PREDICTED BY IDOCK:  -10.95 KCAL/MOL
REMARK 924 INTRA-LIGAND FREE ENERGY PREDICTED BY IDOCK:   -1.90 KCAL/MOL
REMARK 927      BINDING AFFINITY PREDICTED BY RF-SCORE:    0.00 PKD
ROOT
HETATM    1  C   UNL     1      -8.440  17.530  66.848  1.00  0.00    -0.239 C  
HETATM    2  S   UNL     1     -10.168  17.911  66.976  1.00  0.00    -0.368 S  
HETATM    3  O   UNL     1     -10.744  17.810  65.651  1.00  0.00    -0.505 OA 
HETATM    4  O   UNL     1     -10.296  19.120  67.764  1.00  0.00    -0.375 OA 
ENDROOT
BRANCH   2   5
HETATM    5  C   UNL     1     -10.773  16.551  67.950  1.00  0.00    -0.337 C  
BRANCH   5   6
HETATM    6  C   UNL     1     -10.439  15.213  67.305  1.00  0.00    -0.271 C  
BRANCH   6   7
HETATM    7  N   UNL     1     -10.988  15.067  65.952  1.00  0.00    -0.337 NA 
HETATM    8  H   UNL     1     -10.276  14.722  65.308  1.00  0.00     0.000 HD 
BRANCH   7   9
HETATM    9  C   UNL     1     -12.187  14.229  65.898  1.00  0.00    -0.407 C  
BRANCH   9  10
HETATM   10  C   UNL     1     -12.036  13.175  64.861  1.00  0.00    -0.388 A  
HETATM   11  C   UNL     1     -12.885  12.662  63.905  1.00  0.00    -0.243 A  
HETATM   12  C   UNL     1     -12.151  11.668  63.215  1.00  0.00    -0.255 A  
HETATM   13  C   UNL     1     -10.888  11.646  63.771  1.00  0.00    -0.424 A  
HETATM   14  O   UNL     1     -10.819  12.574  64.773  1.00  0.00    -0.277 OA 
BRANCH  13  15
HETATM   15  C   UNL     1      -9.672  10.880  63.530  1.00  0.00    -0.384 A  
HETATM   16  C   UNL     1      -9.389   9.718  64.261  1.00  0.00    -0.253 A  
HETATM   17  C   UNL     1      -8.200   8.974  64.035  1.00  0.00    -0.167 A  
HETATM   18  C   UNL     1      -7.289   9.412  63.061  1.00  0.00    -0.106 A  
HETATM   19  C   UNL     1      -7.575  10.559  62.346  1.00  0.00    -0.173 A  
HETATM   20  N   UNL     1      -6.142   8.793  62.789  1.00  0.00    -0.090 NA 
HETATM   21  C   UNL     1      -5.868   7.714  63.516  1.00  0.00    -0.053 A  
HETATM   22  C   UNL     1      -8.745  11.287  62.569  1.00  0.00    -0.241 A  
HETATM   23  N   UNL     1      -6.643   7.208  64.472  1.00  0.00    -0.042 NA 
HETATM   24  C   UNL     1      -7.810   7.814  64.735  1.00  0.00    -0.129 A  
BRANCH  24  25
HETATM   25  N   UNL     1      -8.628   7.331  65.798  1.00  0.00    -0.185 NA 
HETATM   26  H   UNL     1      -8.860   6.339  65.763  1.00  0.00     0.000 HD 
BRANCH  25  27
HETATM   27  C   UNL     1      -9.159   8.049  66.896  1.00  0.00    -0.152 A  
HETATM   28  C   UNL     1      -8.371   8.565  67.924  1.00  0.00    -0.126 A  
HETATM   29  C   UNL     1      -8.895   9.355  68.950  1.00  0.00    -0.136 A  
HETATM   30  C   UNL     1     -10.256   9.681  68.951  1.00  0.00    -0.201 A  
HETATM   31 CL   UNL     1      -7.734   9.801  70.156  1.00  0.00    -0.174 Cl 
HETATM   32  C   UNL     1     -11.073   9.112  67.962  1.00  0.00     0.110 A  
HETATM   33  C   UNL     1     -10.533   8.302  66.950  1.00  0.00    -0.365 A  
BRANCH  30  34
HETATM   34  O   UNL     1     -10.940  10.498  69.817  1.00  0.00    -0.257 OA 
BRANCH  34  35
HETATM   35  C   UNL     1     -11.169  11.831  69.369  1.00  0.00    -0.234 C  
BRANCH  35  36
HETATM   36  C   UNL     1     -12.055  12.592  70.319  1.00  0.00    -0.372 A  
HETATM   37  C   UNL     1     -12.124  13.987  70.267  1.00  0.00    -0.425 A  
HETATM   38  C   UNL     1     -12.856  14.673  71.229  1.00  0.00    -0.335 A  
HETATM   39  C   UNL     1     -13.522  13.995  72.244  1.00  0.00    -0.597 A  
HETATM   40  F   UNL     1     -12.902  16.011  71.190  1.00  0.00    -0.501 F  
HETATM   41  C   UNL     1     -13.462  12.607  72.300  1.00  0.00    -0.541 A  
HETATM   42  C   UNL     1     -12.731  11.906  71.344  1.00  0.00    -0.395 A  
ENDBRANCH  35  36
ENDBRANCH  34  35
ENDBRANCH  30  34
ENDBRANCH  25  27
ENDBRANCH  24  25
ENDBRANCH  13  15
ENDBRANCH   9  10
ENDBRANCH   7   9
ENDBRANCH   6   7
ENDBRANCH   5   6
ENDBRANCH   2   5
TORSDOF 11
ENDMDL
MODEL       60
REMARK 921   NORMALIZED FREE ENERGY PREDICTED BY IDOCK:   -6.12 KCAL/MOL
REMARK 922        TOTAL FREE ENERGY PREDICTED BY IDOCK:  -12.80 KCAL/MOL
REMARK 923 INTER-LIGAND FREE ENERGY PREDICTED BY IDOCK:  -10.74 KCAL/MOL
REMARK 924 INTRA-LIGAND FREE ENERGY PREDICTED BY IDOCK:   -2.06 KCAL/MOL
REMARK 927      BINDING AFFINITY PREDICTED BY RF-SCORE:    0.00 PKD
ROOT
HETATM    1  C   UNL     1      -6.392  19.935  70.162  1.00  0.00    -0.325 C  
HETATM    2  S   UNL     1      -6.526  19.118  68.593  1.00  0.00    -0.267 S  
HETATM    3  O   UNL     1      -7.533  18.083  68.716  1.00  0.00    -0.272 OA 
HETATM    4  O   UNL     1      -5.185  18.814  68.138  1.00  0.00    -0.176 OA 
ENDROOT
BRANCH   2   5
HETATM    5  C   UNL     1      -7.180  20.409  67.559  1.00  0.00    -0.313 C  
BRANCH   5   6
HETATM    6  C   UNL     1      -8.454  19.966  66.855  1.00  0.00    -0.327 C  
BRANCH   6   7
HETATM    7  N   UNL     1      -9.605  19.845  67.756  1.00  0.00    -0.361 NA 
HETATM    8  H   UNL     1      -9.847  20.751  68.158  1.00  0.00     0.000 HD 
BRANCH   7   9
HETATM    9  C   UNL     1     -10.774  19.227  67.128  1.00  0.00    -0.480 C  
BRANCH   9  10
HETATM   10  C   UNL     1     -10.634  17.748  67.114  1.00  0.00    -0.287 A  
HETATM   11  C   UNL     1     -10.045  16.863  66.238  1.00  0.00    -0.335 A  
HETATM   12  C   UNL     1     -10.246  15.572  66.782  1.00  0.00    -0.282 A  
HETATM   13  C   UNL     1     -10.926  15.742  67.972  1.00  0.00    -0.330 A  
HETATM   14  O   UNL     1     -11.155  17.074  68.174  1.00  0.00    -0.334 OA 
BRANCH  13  15
HETATM   15  C   UNL     1     -11.428  14.847  69.005  1.00  0.00    -0.322 A  
HETATM   16  C   UNL     1     -11.512  13.464  68.790  1.00  0.00    -0.344 A  
HETATM   17  C   UNL     1     -12.010  12.589  69.793  1.00  0.00    -0.359 A  
HETATM   18  C   UNL     1     -12.426  13.120  71.023  1.00  0.00    -0.318 A  
HETATM   19  C   UNL     1     -12.340  14.483  71.227  1.00  0.00    -0.418 A  
HETATM   20  N   UNL     1     -12.921  12.384  72.017  1.00  0.00    -0.326 NA 
HETATM   21  C   UNL     1     -13.032  11.079  71.784  1.00  0.00    -0.438 A  
HETATM   22  C   UNL     1     -11.849  15.340  70.241  1.00  0.00    -0.353 A  
HETATM   23  N   UNL     1     -12.684  10.460  70.659  1.00  0.00    -0.345 NA 
HETATM   24  C   UNL     1     -12.164  11.194  69.663  1.00  0.00    -0.290 A  
BRANCH  24  25
HETATM   25  N   UNL     1     -11.844  10.567  68.424  1.00  0.00    -0.769 NA 
HETATM   26  H   UNL     1     -12.485  10.754  67.654  1.00  0.00     0.000 HD 
BRANCH  25  27
HETATM   27  C   UNL     1     -10.753   9.719  68.122  1.00  0.00    -0.233 A  
HETATM   28  C   UNL     1     -10.048   9.007  69.092  1.00  0.00    -0.201 A  
HETATM   29  C   UNL     1      -9.037   8.098  68.772  1.00  0.00    -0.144 A  
HETATM   30  C   UNL     1      -8.721   7.850  67.431  1.00  0.00    -0.128 A  
HETATM   31 CL   UNL     1      -8.250   7.408  70.153  1.00  0.00    -0.131 Cl 
HETATM   32  C   UNL     1      -9.375   8.610  66.448  1.00  0.00    -0.271 A  
HETATM   33  C   UNL     1     -10.374   9.535  66.789  1.00  0.00    -0.298 A  
BRANCH  30  34
HETATM   34  O   UNL     1      -7.825   6.947  66.915  1.00  0.00    -0.104 OA 
BRANCH  34  35
HETATM   35  C   UNL     1      -8.348   5.660  66.598  1.00  0.00    -0.112 C  
BRANCH  35  36
HETATM   36  C   UNL     1      -8.134   4.682  67.723  1.00  0.00    -0.096 A  
HETATM   37  C   UNL     1      -9.199   4.296  68.543  1.00  0.00    -0.194 A  
HETATM   38  C   UNL     1      -8.955   3.486  69.646  1.00  0.00    -0.110 A  
HETATM   39  C   UNL     1      -7.669   3.053  69.949  1.00  0.00    -0.044 A  
HETATM   40  F   UNL     1      -9.973   3.135  70.441  1.00  0.00    -0.215 F  
HETATM   41  C   UNL     1      -6.606   3.430  69.136  1.00  0.00    -0.034 A  
HETATM   42  C   UNL     1      -6.833   4.242  68.028  1.00  0.00    -0.051 A  
ENDBRANCH  35  36
ENDBRANCH  34  35
ENDBRANCH  30  34
ENDBRANCH  25  27
ENDBRANCH  24  25
ENDBRANCH  13  15
ENDBRANCH   9  10
ENDBRANCH   7   9
ENDBRANCH   6   7
ENDBRANCH   5   6
ENDBRANCH   2   5
TORSDOF 11
ENDMDL
MODEL       61
REMARK 921   NORMALIZED FREE ENERGY PREDICTED BY IDOCK:   -6.10 KCAL/MOL
REMARK 922        TOTAL FREE ENERGY PREDICTED BY IDOCK:  -12.76 KCAL/MOL
REMARK 923 INTER-LIGAND FREE ENERGY PREDICTED BY IDOCK:  -10.58 KCAL/MOL
REMARK 924 INTRA-LIGAND FREE ENERGY PREDICTED BY IDOCK:   -2.19 KCAL/MOL
REMARK 927      BINDING AFFINITY PREDICTED BY RF-SCORE:    0.00 PKD
ROOT
HETATM    1  C   UNL     1      -8.438  18.392  66.466  1.00  0.00    -0.270 C  
HETATM    2  S   UNL     1     -10.208  18.507  66.412  1.00  0.00    -0.430 S  
HETATM    3  O   UNL     1     -10.672  17.699  65.304  1.00  0.00    -0.649 OA 
HETATM    4  O   UNL     1     -10.561  19.908  66.524  1.00  0.00    -0.460 OA 
ENDROOT
BRANCH   2   5
HETATM    5  C   UNL     1     -10.676  17.697  67.925  1.00  0.00    -0.337 C  
BRANCH   5   6
HETATM    6  C   UNL     1     -10.736  16.187  67.751  1.00  0.00    -0.325 C  
BRANCH   6   7
HETATM    7  N   UNL     1     -11.821  15.557  68.510  1.00  0.00    -0.501 NA 
HETATM    8  H   UNL     1     -12.725  15.947  68.241  1.00  0.00     0.000 HD 
BRANCH   7   9
HETATM    9  C   UNL     1     -11.835  14.097  68.404  1.00  0.00    -0.353 C  
BRANCH   9  10
HETATM   10  C   UNL     1     -12.242  13.487  69.697  1.00  0.00    -0.247 A  
HETATM   11  C   UNL     1     -12.744  14.006  70.870  1.00  0.00    -0.420 A  
HETATM   12  C   UNL     1     -12.934  12.908  71.742  1.00  0.00    -0.416 A  
HETATM   13  C   UNL     1     -12.559  11.776  71.045  1.00  0.00    -0.310 A  
HETATM   14  O   UNL     1     -12.143  12.134  69.793  1.00  0.00    -0.290 OA 
BRANCH  13  15
HETATM   15  C   UNL     1     -12.513  10.352  71.347  1.00  0.00    -0.521 A  
HETATM   16  C   UNL     1     -11.329   9.616  71.202  1.00  0.00    -0.456 A  
HETATM   17  C   UNL     1     -11.284   8.225  71.487  1.00  0.00    -0.316 A  
HETATM   18  C   UNL     1     -12.449   7.574  71.920  1.00  0.00    -0.303 A  
HETATM   19  C   UNL     1     -13.611   8.306  72.060  1.00  0.00    -0.360 A  
HETATM   20  N   UNL     1     -12.510   6.272  72.195  1.00  0.00    -0.203 NA 
HETATM   21  C   UNL     1     -11.389   5.579  72.016  1.00  0.00    -0.113 A  
HETATM   22  C   UNL     1     -13.653   9.673  71.781  1.00  0.00    -0.424 A  
HETATM   23  N   UNL     1     -10.228   6.079  71.600  1.00  0.00    -0.197 NA 
HETATM   24  C   UNL     1     -10.154   7.393  71.343  1.00  0.00    -0.186 A  
BRANCH  24  25
HETATM   25  N   UNL     1      -8.942   7.942  70.833  1.00  0.00    -0.141 NA 
HETATM   26  H   UNL     1      -8.334   8.388  71.520  1.00  0.00     0.000 HD 
BRANCH  25  27
HETATM   27  C   UNL     1      -8.471   7.947  69.500  1.00  0.00    -0.133 A  
HETATM   28  C   UNL     1      -9.210   7.453  68.426  1.00  0.00    -0.138 A  
HETATM   29  C   UNL     1      -8.776   7.553  67.102  1.00  0.00    -0.121 A  
HETATM   30  C   UNL     1      -7.568   8.199  66.813  1.00  0.00    -0.094 A  
HETATM   31 CL   UNL     1      -9.826   6.785  65.958  1.00  0.00     0.109 Cl 
HETATM   32  C   UNL     1      -6.781   8.640  67.888  1.00  0.00    -0.066 A  
HETATM   33  C   UNL     1      -7.224   8.511  69.214  1.00  0.00    -0.063 A  
BRANCH  30  34
HETATM   34  O   UNL     1      -7.012   8.467  65.586  1.00  0.00    -0.065 OA 
BRANCH  34  35
HETATM   35  C   UNL     1      -6.820   9.843  65.275  1.00  0.00    -0.114 C  
BRANCH  35  36
HETATM   36  C   UNL     1      -8.120  10.603  65.288  1.00  0.00    -0.086 A  
HETATM   37  C   UNL     1      -9.057  10.430  64.265  1.00  0.00    -0.270 A  
HETATM   38  C   UNL     1     -10.195  11.228  64.236  1.00  0.00    -0.327 A  
HETATM   39  C   UNL     1     -10.418  12.196  65.209  1.00  0.00    -0.311 A  
HETATM   40  F   UNL     1     -11.079  11.075  63.243  1.00  0.00    -0.371 F  
HETATM   41  C   UNL     1      -9.493  12.371  66.231  1.00  0.00    -0.220 A  
HETATM   42  C   UNL     1      -8.348  11.581  66.274  1.00  0.00    -0.076 A  
ENDBRANCH  35  36
ENDBRANCH  34  35
ENDBRANCH  30  34
ENDBRANCH  25  27
ENDBRANCH  24  25
ENDBRANCH  13  15
ENDBRANCH   9  10
ENDBRANCH   7   9
ENDBRANCH   6   7
ENDBRANCH   5   6
ENDBRANCH   2   5
TORSDOF 11
ENDMDL
MODEL       62
REMARK 921   NORMALIZED FREE ENERGY PREDICTED BY IDOCK:   -6.09 KCAL/MOL
REMARK 922        TOTAL FREE ENERGY PREDICTED BY IDOCK:  -12.75 KCAL/MOL
REMARK 923 INTER-LIGAND FREE ENERGY PREDICTED BY IDOCK:  -10.02 KCAL/MOL
REMARK 924 INTRA-LIGAND FREE ENERGY PREDICTED BY IDOCK:   -2.74 KCAL/MOL
REMARK 927      BINDING AFFINITY PREDICTED BY RF-SCORE:    0.00 PKD
ROOT
HETATM    1  C   UNL     1     -13.435   7.181  71.471  1.00  0.00    -0.332 C  
HETATM    2  S   UNL     1     -11.683   7.437  71.362  1.00  0.00    -0.302 S  
HETATM    3  O   UNL     1     -11.278   7.163  69.998  1.00  0.00    -0.270 OA 
HETATM    4  O   UNL     1     -11.068   6.755  72.482  1.00  0.00    -0.246 OA 
ENDROOT
BRANCH   2   5
HETATM    5  C   UNL     1     -11.549   9.189  71.640  1.00  0.00    -0.379 C  
BRANCH   5   6
HETATM    6  C   UNL     1     -11.944   9.980  70.401  1.00  0.00    -0.236 C  
BRANCH   6   7
HETATM    7  N   UNL     1     -11.591  11.401  70.482  1.00  0.00    -0.472 NA 
HETATM    8  H   UNL     1     -11.154  11.714  69.615  1.00  0.00     0.000 HD 
BRANCH   7   9
HETATM    9  C   UNL     1     -12.720  12.262  70.834  1.00  0.00    -0.187 C  
BRANCH   9  10
HETATM   10  C   UNL     1     -12.302  13.689  70.839  1.00  0.00    -0.371 A  
HETATM   11  C   UNL     1     -12.709  14.790  71.560  1.00  0.00    -0.401 A  
HETATM   12  C   UNL     1     -11.923  15.875  71.104  1.00  0.00    -0.472 A  
HETATM   13  C   UNL     1     -11.064  15.372  70.148  1.00  0.00    -0.307 A  
HETATM   14  O   UNL     1     -11.295  14.033  69.993  1.00  0.00    -0.209 OA 
BRANCH  13  15
HETATM   15  C   UNL     1     -10.017  15.937  69.308  1.00  0.00    -0.254 A  
HETATM   16  C   UNL     1      -8.812  15.254  69.091  1.00  0.00    -0.238 A  
HETATM   17  C   UNL     1      -7.785  15.807  68.280  1.00  0.00    -0.132 A  
HETATM   18  C   UNL     1      -7.979  17.063  67.686  1.00  0.00    -0.176 A  
HETATM   19  C   UNL     1      -9.169  17.730  67.905  1.00  0.00    -0.265 A  
HETATM   20  N   UNL     1      -7.070  17.670  66.924  1.00  0.00    -0.173 NA 
HETATM   21  C   UNL     1      -5.917  17.028  66.759  1.00  0.00    -0.192 A  
HETATM   22  C   UNL     1     -10.177  17.184  68.701  1.00  0.00    -0.336 A  
HETATM   23  N   UNL     1      -5.610  15.842  67.279  1.00  0.00    -0.336 NA 
HETATM   24  C   UNL     1      -6.530  15.216  68.027  1.00  0.00    -0.144 A  
BRANCH  24  25
HETATM   25  N   UNL     1      -6.202  13.976  68.649  1.00  0.00    -0.083 NA 
HETATM   26  H   UNL     1      -5.562  14.033  69.441  1.00  0.00     0.000 HD 
BRANCH  25  27
HETATM   27  C   UNL     1      -6.649  12.677  68.312  1.00  0.00    -0.079 A  
HETATM   28  C   UNL     1      -7.176  11.785  69.244  1.00  0.00     0.009 A  
HETATM   29  C   UNL     1      -7.704  10.543  68.883  1.00  0.00    -0.117 A  
HETATM   30  C   UNL     1      -7.746  10.170  67.535  1.00  0.00    -0.091 A  
HETATM   31 CL   UNL     1      -8.214   9.578  70.229  1.00  0.00    -0.191 Cl 
HETATM   32  C   UNL     1      -7.157  11.028  66.593  1.00  0.00    -0.139 A  
HETATM   33  C   UNL     1      -6.611  12.263  66.977  1.00  0.00    -0.046 A  
BRANCH  30  34
HETATM   34  O   UNL     1      -8.289   9.039  66.976  1.00  0.00    -0.114 OA 
BRANCH  34  35
HETATM   35  C   UNL     1      -9.711   8.999  66.907  1.00  0.00    -0.200 C  
BRANCH  35  36
HETATM   36  C   UNL     1     -10.268  10.207  66.200  1.00  0.00    -0.285 A  
HETATM   37  C   UNL     1     -10.997  11.170  66.904  1.00  0.00    -0.333 A  
HETATM   38  C   UNL     1     -11.600  12.213  66.211  1.00  0.00    -0.360 A  
HETATM   39  C   UNL     1     -11.491  12.316  64.828  1.00  0.00    -0.382 A  
HETATM   40  F   UNL     1     -12.316  13.122  66.884  1.00  0.00    -0.406 F  
HETATM   41  C   UNL     1     -10.764  11.364  64.123  1.00  0.00    -0.434 A  
HETATM   42  C   UNL     1     -10.155  10.312  64.802  1.00  0.00    -0.336 A  
ENDBRANCH  35  36
ENDBRANCH  34  35
ENDBRANCH  30  34
ENDBRANCH  25  27
ENDBRANCH  24  25
ENDBRANCH  13  15
ENDBRANCH   9  10
ENDBRANCH   7   9
ENDBRANCH   6   7
ENDBRANCH   5   6
ENDBRANCH   2   5
TORSDOF 11
ENDMDL
MODEL       63
REMARK 921   NORMALIZED FREE ENERGY PREDICTED BY IDOCK:   -6.07 KCAL/MOL
REMARK 922        TOTAL FREE ENERGY PREDICTED BY IDOCK:  -12.71 KCAL/MOL
REMARK 923 INTER-LIGAND FREE ENERGY PREDICTED BY IDOCK:  -10.93 KCAL/MOL
REMARK 924 INTRA-LIGAND FREE ENERGY PREDICTED BY IDOCK:   -1.78 KCAL/MOL
REMARK 927      BINDING AFFINITY PREDICTED BY RF-SCORE:    0.00 PKD
ROOT
HETATM    1  C   UNL     1      -7.291   3.417  66.005  1.00  0.00    -0.072 C  
HETATM    2  S   UNL     1      -8.896   2.873  66.529  1.00  0.00    -0.152 S  
HETATM    3  O   UNL     1      -8.966   3.018  67.969  1.00  0.00    -0.116 OA 
HETATM    4  O   UNL     1      -9.163   1.604  65.885  1.00  0.00    -0.086 OA 
ENDROOT
BRANCH   2   5
HETATM    5  C   UNL     1      -9.958   4.098  65.796  1.00  0.00    -0.190 C  
BRANCH   5   6
HETATM    6  C   UNL     1      -9.194   5.376  65.478  1.00  0.00    -0.081 C  
BRANCH   6   7
HETATM    7  N   UNL     1      -9.590   6.514  66.314  1.00  0.00    -0.344 NA 
HETATM    8  H   UNL     1     -10.605   6.557  66.409  1.00  0.00     0.000 HD 
BRANCH   7   9
HETATM    9  C   UNL     1      -8.945   6.524  67.627  1.00  0.00    -0.114 C  
BRANCH   9  10
HETATM   10  C   UNL     1      -9.955   6.719  68.700  1.00  0.00    -0.146 A  
HETATM   11  C   UNL     1     -10.625   5.853  69.536  1.00  0.00    -0.378 A  
HETATM   12  C   UNL     1     -11.463   6.653  70.348  1.00  0.00    -0.444 A  
HETATM   13  C   UNL     1     -11.241   7.965  69.979  1.00  0.00    -0.100 A  
HETATM   14  O   UNL     1     -10.313   8.001  68.976  1.00  0.00    -0.214 OA 
BRANCH  13  15
HETATM   15  C   UNL     1     -11.762   9.255  70.410  1.00  0.00    -0.157 A  
HETATM   16  C   UNL     1     -11.500  10.424  69.682  1.00  0.00    -0.326 A  
HETATM   17  C   UNL     1     -11.998  11.686  70.105  1.00  0.00    -0.441 A  
HETATM   18  C   UNL     1     -12.767  11.764  71.276  1.00  0.00    -0.316 A  
HETATM   19  C   UNL     1     -13.020  10.608  71.988  1.00  0.00    -0.466 A  
HETATM   20  N   UNL     1     -13.264  12.900  71.762  1.00  0.00    -0.419 NA 
HETATM   21  C   UNL     1     -12.974  14.006  71.082  1.00  0.00    -0.332 A  
HETATM   22  C   UNL     1     -12.530   9.369  71.569  1.00  0.00    -0.450 A  
HETATM   23  N   UNL     1     -12.248  14.064  69.968  1.00  0.00    -0.339 NA 
HETATM   24  C   UNL     1     -11.765  12.919  69.462  1.00  0.00    -0.323 A  
BRANCH  24  25
HETATM   25  N   UNL     1     -10.930  12.959  68.308  1.00  0.00    -0.244 NA 
HETATM   26  H   UNL     1     -10.985  12.148  67.693  1.00  0.00     0.000 HD 
BRANCH  25  27
HETATM   27  C   UNL     1     -10.036  13.978  67.904  1.00  0.00    -0.237 A  
HETATM   28  C   UNL     1      -8.909  14.341  68.639  1.00  0.00    -0.150 A  
HETATM   29  C   UNL     1      -7.981  15.279  68.182  1.00  0.00    -0.128 A  
HETATM   30  C   UNL     1      -8.150  15.870  66.924  1.00  0.00    -0.250 A  
HETATM   31 CL   UNL     1      -6.716  15.626  69.314  1.00  0.00    -0.146 Cl 
HETATM   32  C   UNL     1      -9.316  15.566  66.204  1.00  0.00    -0.380 A  
HETATM   33  C   UNL     1     -10.249  14.637  66.689  1.00  0.00    -0.275 A  
BRANCH  30  34
HETATM   34  O   UNL     1      -7.319  16.745  66.270  1.00  0.00    -0.261 OA 
BRANCH  34  35
HETATM   35  C   UNL     1      -7.005  17.948  66.967  1.00  0.00    -0.182 C  
BRANCH  35  36
HETATM   36  C   UNL     1      -8.237  18.771  67.235  1.00  0.00    -0.276 A  
HETATM   37  C   UNL     1      -8.652  19.026  68.546  1.00  0.00    -0.393 A  
HETATM   38  C   UNL     1      -9.855  19.686  68.768  1.00  0.00    -0.432 A  
HETATM   39  C   UNL     1     -10.655  20.098  67.707  1.00  0.00    -0.319 A  
HETATM   40  F   UNL     1     -10.260  19.910  70.024  1.00  0.00    -0.394 F  
HETATM   41  C   UNL     1     -10.247  19.851  66.401  1.00  0.00    -0.617 A  
HETATM   42  C   UNL     1      -9.045  19.190  66.162  1.00  0.00    -0.239 A  
ENDBRANCH  35  36
ENDBRANCH  34  35
ENDBRANCH  30  34
ENDBRANCH  25  27
ENDBRANCH  24  25
ENDBRANCH  13  15
ENDBRANCH   9  10
ENDBRANCH   7   9
ENDBRANCH   6   7
ENDBRANCH   5   6
ENDBRANCH   2   5
TORSDOF 11
ENDMDL
MODEL       64
REMARK 921   NORMALIZED FREE ENERGY PREDICTED BY IDOCK:   -6.06 KCAL/MOL
REMARK 922        TOTAL FREE ENERGY PREDICTED BY IDOCK:  -12.71 KCAL/MOL
REMARK 923 INTER-LIGAND FREE ENERGY PREDICTED BY IDOCK:  -10.23 KCAL/MOL
REMARK 924 INTRA-LIGAND FREE ENERGY PREDICTED BY IDOCK:   -2.47 KCAL/MOL
REMARK 927      BINDING AFFINITY PREDICTED BY RF-SCORE:    0.00 PKD
ROOT
HETATM    1  C   UNL     1      -5.901   9.697  70.761  1.00  0.00    -0.072 C  
HETATM    2  S   UNL     1      -6.854   8.379  71.469  1.00  0.00    -0.079 S  
HETATM    3  O   UNL     1      -8.013   8.964  72.112  1.00  0.00    -0.364 OA 
HETATM    4  O   UNL     1      -5.943   7.518  72.196  1.00  0.00    -0.040 OA 
ENDROOT
BRANCH   2   5
HETATM    5  C   UNL     1      -7.404   7.503  70.022  1.00  0.00    -0.081 C  
BRANCH   5   6
HETATM    6  C   UNL     1      -6.315   7.443  68.961  1.00  0.00    -0.039 C  
BRANCH   6   7
HETATM    7  N   UNL     1      -6.836   7.272  67.601  1.00  0.00    -0.071 NA 
HETATM    8  H   UNL     1      -7.848   7.401  67.583  1.00  0.00     0.000 HD 
BRANCH   7   9
HETATM    9  C   UNL     1      -6.186   8.137  66.615  1.00  0.00    -0.054 C  
BRANCH   9  10
HETATM   10  C   UNL     1      -7.128   8.469  65.515  1.00  0.00    -0.082 A  
HETATM   11  C   UNL     1      -7.363   7.920  64.273  1.00  0.00    -0.088 A  
HETATM   12  C   UNL     1      -8.396   8.688  63.688  1.00  0.00    -0.115 A  
HETATM   13  C   UNL     1      -8.752   9.650  64.613  1.00  0.00    -0.201 A  
HETATM   14  O   UNL     1      -7.979   9.508  65.731  1.00  0.00    -0.108 OA 
BRANCH  13  15
HETATM   15  C   UNL     1      -9.727  10.731  64.647  1.00  0.00    -0.344 A  
HETATM   16  C   UNL     1      -9.921  11.497  65.805  1.00  0.00    -0.271 A  
HETATM   17  C   UNL     1     -10.878  12.547  65.845  1.00  0.00    -0.302 A  
HETATM   18  C   UNL     1     -11.646  12.821  64.702  1.00  0.00    -0.338 A  
HETATM   19  C   UNL     1     -11.449  12.061  63.567  1.00  0.00    -0.536 A  
HETATM   20  N   UNL     1     -12.578  13.771  64.647  1.00  0.00    -0.652 NA 
HETATM   21  C   UNL     1     -12.778  14.464  65.765  1.00  0.00    -0.246 A  
HETATM   22  C   UNL     1     -10.507  11.031  63.530  1.00  0.00    -0.365 A  
HETATM   23  N   UNL     1     -12.124  14.292  66.911  1.00  0.00    -0.440 NA 
HETATM   24  C   UNL     1     -11.169  13.352  66.965  1.00  0.00    -0.305 A  
BRANCH  24  25
HETATM   25  N   UNL     1     -10.500  13.102  68.198  1.00  0.00    -0.241 NA 
HETATM   26  H   UNL     1      -9.688  13.688  68.389  1.00  0.00     0.000 HD 
BRANCH  25  27
HETATM   27  C   UNL     1     -10.815  12.147  69.194  1.00  0.00    -0.115 A  
HETATM   28  C   UNL     1     -11.862  12.307  70.100  1.00  0.00    -0.352 A  
HETATM   29  C   UNL     1     -12.226  11.314  71.014  1.00  0.00    -0.311 A  
HETATM   30  C   UNL     1     -11.547  10.090  71.017  1.00  0.00    -0.393 A  
HETATM   31 CL   UNL     1     -13.497  11.784  72.093  1.00  0.00    -0.453 Cl 
HETATM   32  C   UNL     1     -10.448   9.941  70.158  1.00  0.00    -0.339 A  
HETATM   33  C   UNL     1     -10.083  10.958  69.261  1.00  0.00    -0.164 A  
BRANCH  30  34
HETATM   34  O   UNL     1     -11.801   8.973  71.774  1.00  0.00    -0.325 OA 
BRANCH  34  35
HETATM   35  C   UNL     1     -12.396   7.875  71.087  1.00  0.00    -0.230 C  
BRANCH  35  36
HETATM   36  C   UNL     1     -11.412   6.754  70.876  1.00  0.00    -0.384 A  
HETATM   37  C   UNL     1     -11.185   6.236  69.598  1.00  0.00    -0.506 A  
HETATM   38  C   UNL     1     -10.364   5.125  69.445  1.00  0.00    -0.195 A  
HETATM   39  C   UNL     1      -9.762   4.519  70.542  1.00  0.00    -0.290 A  
HETATM   40  F   UNL     1     -10.165   4.619  68.221  1.00  0.00    -0.197 F  
HETATM   41  C   UNL     1      -9.981   5.031  71.816  1.00  0.00    -0.250 A  
HETATM   42  C   UNL     1     -10.802   6.142  71.987  1.00  0.00    -0.292 A  
ENDBRANCH  35  36
ENDBRANCH  34  35
ENDBRANCH  30  34
ENDBRANCH  25  27
ENDBRANCH  24  25
ENDBRANCH  13  15
ENDBRANCH   9  10
ENDBRANCH   7   9
ENDBRANCH   6   7
ENDBRANCH   5   6
ENDBRANCH   2   5
TORSDOF 11
ENDMDL
MODEL       65
REMARK 921   NORMALIZED FREE ENERGY PREDICTED BY IDOCK:   -6.05 KCAL/MOL
REMARK 922        TOTAL FREE ENERGY PREDICTED BY IDOCK:  -12.69 KCAL/MOL
REMARK 923 INTER-LIGAND FREE ENERGY PREDICTED BY IDOCK:  -10.12 KCAL/MOL
REMARK 924 INTRA-LIGAND FREE ENERGY PREDICTED BY IDOCK:   -2.58 KCAL/MOL
REMARK 927      BINDING AFFINITY PREDICTED BY RF-SCORE:    0.00 PKD
ROOT
HETATM    1  C   UNL     1     -12.669  11.956  63.611  1.00  0.00    -0.390 C  
HETATM    2  S   UNL     1     -12.513  13.535  64.405  1.00  0.00    -0.215 S  
HETATM    3  O   UNL     1     -13.519  13.611  65.445  1.00  0.00    -0.550 OA 
HETATM    4  O   UNL     1     -12.423  14.543  63.368  1.00  0.00    -0.649 OA 
ENDROOT
BRANCH   2   5
HETATM    5  C   UNL     1     -10.919  13.400  65.182  1.00  0.00    -0.303 C  
BRANCH   5   6
HETATM    6  C   UNL     1     -10.861  12.209  66.128  1.00  0.00    -0.282 C  
BRANCH   6   7
HETATM    7  N   UNL     1     -11.807  12.306  67.244  1.00  0.00    -0.555 NA 
HETATM    8  H   UNL     1     -12.454  11.517  67.240  1.00  0.00     0.000 HD 
BRANCH   7   9
HETATM    9  C   UNL     1     -11.157  12.437  68.549  1.00  0.00    -0.258 C  
BRANCH   9  10
HETATM   10  C   UNL     1     -11.314  13.819  69.070  1.00  0.00    -0.289 A  
HETATM   11  C   UNL     1     -12.039  14.362  70.109  1.00  0.00    -0.397 A  
HETATM   12  C   UNL     1     -11.770  15.751  70.098  1.00  0.00    -0.367 A  
HETATM   13  C   UNL     1     -10.878  15.977  69.069  1.00  0.00    -0.283 A  
HETATM   14  O   UNL     1     -10.597  14.793  68.447  1.00  0.00    -0.233 OA 
BRANCH  13  15
HETATM   15  C   UNL     1     -10.207  17.152  68.530  1.00  0.00    -0.346 A  
HETATM   16  C   UNL     1      -8.857  17.408  68.805  1.00  0.00    -0.220 A  
HETATM   17  C   UNL     1      -8.202  18.558  68.289  1.00  0.00    -0.336 A  
HETATM   18  C   UNL     1      -8.923  19.458  67.488  1.00  0.00    -0.303 A  
HETATM   19  C   UNL     1     -10.253  19.199  67.222  1.00  0.00    -0.487 A  
HETATM   20  N   UNL     1      -8.402  20.571  66.973  1.00  0.00    -0.283 NA 
HETATM   21  C   UNL     1      -7.131  20.820  67.275  1.00  0.00    -0.362 A  
HETATM   22  C   UNL     1     -10.893  18.067  67.730  1.00  0.00    -0.246 A  
HETATM   23  N   UNL     1      -6.349  20.053  68.030  1.00  0.00    -0.237 NA 
HETATM   24  C   UNL     1      -6.862  18.920  68.532  1.00  0.00    -0.260 A  
BRANCH  24  25
HETATM   25  N   UNL     1      -6.066  18.114  69.398  1.00  0.00    -0.242 NA 
HETATM   26  H   UNL     1      -5.646  18.597  70.192  1.00  0.00     0.000 HD 
BRANCH  25  27
HETATM   27  C   UNL     1      -5.783  16.732  69.300  1.00  0.00    -0.160 A  
HETATM   28  C   UNL     1      -5.762  15.877  70.402  1.00  0.00    -0.110 A  
HETATM   29  C   UNL     1      -5.578  14.497  70.281  1.00  0.00    -0.122 A  
HETATM   30  C   UNL     1      -5.440  13.922  69.013  1.00  0.00    -0.080 A  
HETATM   31 CL   UNL     1      -5.500  13.664  71.798  1.00  0.00    -0.200 Cl 
HETATM   32  C   UNL     1      -5.390  14.778  67.901  1.00  0.00    -0.092 A  
HETATM   33  C   UNL     1      -5.555  16.164  68.043  1.00  0.00    -0.124 A  
BRANCH  30  34
HETATM   34  O   UNL     1      -5.330  12.594  68.682  1.00  0.00    -0.057 OA 
BRANCH  34  35
HETATM   35  C   UNL     1      -6.234  12.120  67.688  1.00  0.00    -0.110 C  
BRANCH  35  36
HETATM   36  C   UNL     1      -7.109  11.015  68.216  1.00  0.00    -0.072 A  
HETATM   37  C   UNL     1      -7.962  10.311  67.361  1.00  0.00    -0.107 A  
HETATM   38  C   UNL     1      -8.845   9.377  67.890  1.00  0.00    -0.124 A  
HETATM   39  C   UNL     1      -8.895   9.130  69.258  1.00  0.00    -0.144 A  
HETATM   40  F   UNL     1      -9.675   8.720  67.071  1.00  0.00    -0.187 F  
HETATM   41  C   UNL     1      -8.048   9.823  70.114  1.00  0.00    -0.202 A  
HETATM   42  C   UNL     1      -7.158  10.763  69.600  1.00  0.00    -0.136 A  
ENDBRANCH  35  36
ENDBRANCH  34  35
ENDBRANCH  30  34
ENDBRANCH  25  27
ENDBRANCH  24  25
ENDBRANCH  13  15
ENDBRANCH   9  10
ENDBRANCH   7   9
ENDBRANCH   6   7
ENDBRANCH   5   6
ENDBRANCH   2   5
TORSDOF 11
ENDMDL
MODEL       66
REMARK 921   NORMALIZED FREE ENERGY PREDICTED BY IDOCK:   -6.05 KCAL/MOL
REMARK 922        TOTAL FREE ENERGY PREDICTED BY IDOCK:  -12.68 KCAL/MOL
REMARK 923 INTER-LIGAND FREE ENERGY PREDICTED BY IDOCK:  -10.10 KCAL/MOL
REMARK 924 INTRA-LIGAND FREE ENERGY PREDICTED BY IDOCK:   -2.58 KCAL/MOL
REMARK 927      BINDING AFFINITY PREDICTED BY RF-SCORE:    0.00 PKD
ROOT
HETATM    1  C   UNL     1     -12.871  16.004  74.039  1.00  0.00    -0.460 C  
HETATM    2  S   UNL     1     -13.303  15.077  72.590  1.00  0.00    -0.495 S  
HETATM    3  O   UNL     1     -14.202  15.888  71.795  1.00  0.00    -0.359 OA 
HETATM    4  O   UNL     1     -13.669  13.741  73.014  1.00  0.00    -0.581 OA 
ENDROOT
BRANCH   2   5
HETATM    5  C   UNL     1     -11.744  14.978  71.738  1.00  0.00    -0.385 C  
BRANCH   5   6
HETATM    6  C   UNL     1     -11.700  15.926  70.549  1.00  0.00    -0.373 C  
BRANCH   6   7
HETATM    7  N   UNL     1     -12.487  15.459  69.403  1.00  0.00    -0.607 NA 
HETATM    8  H   UNL     1     -13.289  16.068  69.243  1.00  0.00     0.000 HD 
BRANCH   7   9
HETATM    9  C   UNL     1     -11.699  15.306  68.179  1.00  0.00    -0.279 C  
BRANCH   9  10
HETATM   10  C   UNL     1     -11.479  13.867  67.880  1.00  0.00    -0.318 A  
HETATM   11  C   UNL     1     -11.149  13.180  66.733  1.00  0.00    -0.314 A  
HETATM   12  C   UNL     1     -11.083  11.813  67.093  1.00  0.00    -0.350 A  
HETATM   13  C   UNL     1     -11.354  11.744  68.445  1.00  0.00    -0.270 A  
HETATM   14  O   UNL     1     -11.588  13.002  68.924  1.00  0.00    -0.269 OA 
BRANCH  13  15
HETATM   15  C   UNL     1     -11.439  10.666  69.422  1.00  0.00    -0.356 A  
HETATM   16  C   UNL     1     -11.061   9.357  69.093  1.00  0.00    -0.039 A  
HETATM   17  C   UNL     1     -11.151   8.302  70.041  1.00  0.00    -0.147 A  
HETATM   18  C   UNL     1     -11.630   8.576  71.331  1.00  0.00    -0.289 A  
HETATM   19  C   UNL     1     -12.000   9.868  71.647  1.00  0.00    -0.427 A  
HETATM   20  N   UNL     1     -11.766   7.652  72.282  1.00  0.00    -0.314 NA 
HETATM   21  C   UNL     1     -11.441   6.408  71.944  1.00  0.00    -0.304 A  
HETATM   22  C   UNL     1     -11.909  10.903  70.714  1.00  0.00    -0.424 A  
HETATM   23  N   UNL     1     -10.989   6.021  70.753  1.00  0.00    -0.294 NA 
HETATM   24  C   UNL     1     -10.828   6.951  69.800  1.00  0.00    -0.259 A  
BRANCH  24  25
HETATM   25  N   UNL     1     -10.408   6.554  68.497  1.00  0.00    -0.175 NA 
HETATM   26  H   UNL     1     -10.912   5.768  68.089  1.00  0.00     0.000 HD 
BRANCH  25  27
HETATM   27  C   UNL     1      -9.382   7.108  67.696  1.00  0.00    -0.127 A  
HETATM   28  C   UNL     1      -9.625   8.004  66.656  1.00  0.00    -0.297 A  
HETATM   29  C   UNL     1      -8.598   8.619  65.936  1.00  0.00    -0.157 A  
HETATM   30  C   UNL     1      -7.264   8.368  66.274  1.00  0.00    -0.078 A  
HETATM   31 CL   UNL     1      -9.154   9.620  64.635  1.00  0.00    -0.279 Cl 
HETATM   32  C   UNL     1      -7.003   7.416  67.273  1.00  0.00    -0.083 A  
HETATM   33  C   UNL     1      -8.048   6.791  67.971  1.00  0.00    -0.114 A  
BRANCH  30  34
HETATM   34  O   UNL     1      -6.126   8.927  65.746  1.00  0.00    -0.051 OA 
BRANCH  34  35
HETATM   35  C   UNL     1      -6.129  10.346  65.620  1.00  0.00    -0.123 C  
BRANCH  35  36
HETATM   36  C   UNL     1      -6.311  11.021  66.954  1.00  0.00    -0.104 A  
HETATM   37  C   UNL     1      -7.326  11.964  67.143  1.00  0.00    -0.142 A  
HETATM   38  C   UNL     1      -7.400  12.659  68.344  1.00  0.00    -0.118 A  
HETATM   39  C   UNL     1      -6.481  12.433  69.363  1.00  0.00    -0.103 A  
HETATM   40  F   UNL     1      -8.360  13.577  68.514  1.00  0.00    -0.152 F  
HETATM   41  C   UNL     1      -5.472  11.495  69.184  1.00  0.00    -0.047 A  
HETATM   42  C   UNL     1      -5.383  10.791  67.986  1.00  0.00    -0.036 A  
ENDBRANCH  35  36
ENDBRANCH  34  35
ENDBRANCH  30  34
ENDBRANCH  25  27
ENDBRANCH  24  25
ENDBRANCH  13  15
ENDBRANCH   9  10
ENDBRANCH   7   9
ENDBRANCH   6   7
ENDBRANCH   5   6
ENDBRANCH   2   5
TORSDOF 11
ENDMDL
MODEL       67
REMARK 921   NORMALIZED FREE ENERGY PREDICTED BY IDOCK:   -6.04 KCAL/MOL
REMARK 922        TOTAL FREE ENERGY PREDICTED BY IDOCK:  -12.66 KCAL/MOL
REMARK 923 INTER-LIGAND FREE ENERGY PREDICTED BY IDOCK:  -10.23 KCAL/MOL
REMARK 924 INTRA-LIGAND FREE ENERGY PREDICTED BY IDOCK:   -2.43 KCAL/MOL
REMARK 927      BINDING AFFINITY PREDICTED BY RF-SCORE:    0.00 PKD
ROOT
HETATM    1  C   UNL     1      -6.087  12.518  67.316  1.00  0.00    -0.117 C  
HETATM    2  S   UNL     1      -7.285  12.585  68.622  1.00  0.00    -0.088 S  
HETATM    3  O   UNL     1      -7.175  13.881  69.261  1.00  0.00    -0.081 OA 
HETATM    4  O   UNL     1      -7.176  11.358  69.384  1.00  0.00    -0.106 OA 
ENDROOT
BRANCH   2   5
HETATM    5  C   UNL     1      -8.817  12.540  67.719  1.00  0.00    -0.178 C  
BRANCH   5   6
HETATM    6  C   UNL     1      -9.701  13.730  68.065  1.00  0.00    -0.232 C  
BRANCH   6   7
HETATM    7  N   UNL     1     -10.423  13.569  69.332  1.00  0.00    -0.421 NA 
HETATM    8  H   UNL     1     -10.406  14.436  69.870  1.00  0.00     0.000 HD 
BRANCH   7   9
HETATM    9  C   UNL     1     -11.795  13.090  69.163  1.00  0.00    -0.310 C  
BRANCH   9  10
HETATM   10  C   UNL     1     -12.134  12.104  70.223  1.00  0.00    -0.302 A  
HETATM   11  C   UNL     1     -12.956  12.150  71.327  1.00  0.00    -0.303 A  
HETATM   12  C   UNL     1     -12.855  10.883  71.949  1.00  0.00    -0.432 A  
HETATM   13  C   UNL     1     -11.996  10.126  71.177  1.00  0.00    -0.386 A  
HETATM   14  O   UNL     1     -11.563  10.874  70.119  1.00  0.00    -0.289 OA 
BRANCH  13  15
HETATM   15  C   UNL     1     -11.478   8.767  71.249  1.00  0.00    -0.355 A  
HETATM   16  C   UNL     1     -11.262   8.010  70.089  1.00  0.00    -0.145 A  
HETATM   17  C   UNL     1     -10.766   6.680  70.156  1.00  0.00    -0.287 A  
HETATM   18  C   UNL     1     -10.486   6.113  71.409  1.00  0.00    -0.225 A  
HETATM   19  C   UNL     1     -10.702   6.865  72.547  1.00  0.00    -0.263 A  
HETATM   20  N   UNL     1     -10.035   4.871  71.575  1.00  0.00    -0.186 NA 
HETATM   21  C   UNL     1      -9.872   4.151  70.468  1.00  0.00    -0.182 A  
HETATM   22  C   UNL     1     -11.189   8.172  72.478  1.00  0.00    -0.459 A  
HETATM   23  N   UNL     1     -10.112   4.571  69.229  1.00  0.00    -0.122 NA 
HETATM   24  C   UNL     1     -10.546   5.829  69.054  1.00  0.00    -0.281 A  
BRANCH  24  25
HETATM   25  N   UNL     1     -10.873   6.282  67.744  1.00  0.00    -0.310 NA 
HETATM   26  H   UNL     1     -11.692   5.849  67.316  1.00  0.00     0.000 HD 
BRANCH  25  27
HETATM   27  C   UNL     1     -10.212   7.254  66.957  1.00  0.00    -0.278 A  
HETATM   28  C   UNL     1      -9.038   6.995  66.251  1.00  0.00    -0.178 A  
HETATM   29  C   UNL     1      -8.448   7.934  65.401  1.00  0.00    -0.119 A  
HETATM   30  C   UNL     1      -9.057   9.179  65.209  1.00  0.00    -0.195 A  
HETATM   31 CL   UNL     1      -6.950   7.409  64.707  1.00  0.00    -0.050 Cl 
HETATM   32  C   UNL     1     -10.201   9.479  65.966  1.00  0.00    -0.242 A  
HETATM   33  C   UNL     1     -10.768   8.531  66.833  1.00  0.00    -0.156 A  
BRANCH  30  34
HETATM   34  O   UNL     1      -8.682  10.195  64.366  1.00  0.00    -0.173 OA 
BRANCH  34  35
HETATM   35  C   UNL     1      -9.576  10.480  63.293  1.00  0.00    -0.331 C  
BRANCH  35  36
HETATM   36  C   UNL     1     -10.429  11.686  63.587  1.00  0.00    -0.483 A  
HETATM   37  C   UNL     1      -9.869  12.831  64.161  1.00  0.00    -0.011 A  
HETATM   38  C   UNL     1     -10.696  13.885  64.531  1.00  0.00    -0.366 A  
HETATM   39  C   UNL     1     -12.073  13.821  64.340  1.00  0.00    -0.474 A  
HETATM   40  F   UNL     1     -10.160  14.973  65.100  1.00  0.00    -0.362 F  
HETATM   41  C   UNL     1     -12.635  12.686  63.767  1.00  0.00    -0.436 A  
HETATM   42  C   UNL     1     -11.820  11.621  63.392  1.00  0.00    -0.317 A  
ENDBRANCH  35  36
ENDBRANCH  34  35
ENDBRANCH  30  34
ENDBRANCH  25  27
ENDBRANCH  24  25
ENDBRANCH  13  15
ENDBRANCH   9  10
ENDBRANCH   7   9
ENDBRANCH   6   7
ENDBRANCH   5   6
ENDBRANCH   2   5
TORSDOF 11
ENDMDL
MODEL       68
REMARK 921   NORMALIZED FREE ENERGY PREDICTED BY IDOCK:   -5.98 KCAL/MOL
REMARK 922        TOTAL FREE ENERGY PREDICTED BY IDOCK:  -12.57 KCAL/MOL
REMARK 923 INTER-LIGAND FREE ENERGY PREDICTED BY IDOCK:  -12.04 KCAL/MOL
REMARK 924 INTRA-LIGAND FREE ENERGY PREDICTED BY IDOCK:   -0.53 KCAL/MOL
REMARK 927      BINDING AFFINITY PREDICTED BY RF-SCORE:    0.00 PKD
ROOT
HETATM    1  C   UNL     1     -10.775  14.126  64.296  1.00  0.00     0.038 C  
HETATM    2  S   UNL     1     -11.709  12.859  65.115  1.00  0.00    -0.373 S  
HETATM    3  O   UNL     1     -11.605  11.650  64.324  1.00  0.00    -0.311 OA 
HETATM    4  O   UNL     1     -12.997  13.421  65.468  1.00  0.00    -0.544 OA 
ENDROOT
BRANCH   2   5
HETATM    5  C   UNL     1     -10.779  12.626  66.613  1.00  0.00    -0.253 C  
BRANCH   5   6
HETATM    6  C   UNL     1      -9.354  13.138  66.468  1.00  0.00    -0.216 C  
BRANCH   6   7
HETATM    7  N   UNL     1      -8.338  12.103  66.690  1.00  0.00    -0.361 NA 
HETATM    8  H   UNL     1      -7.772  11.966  65.852  1.00  0.00     0.000 HD 
BRANCH   7   9
HETATM    9  C   UNL     1      -7.488  12.361  67.853  1.00  0.00    -0.120 C  
BRANCH   9  10
HETATM   10  C   UNL     1      -7.612  11.258  68.841  1.00  0.00    -0.126 A  
HETATM   11  C   UNL     1      -6.717  10.647  69.692  1.00  0.00    -0.116 A  
HETATM   12  C   UNL     1      -7.446   9.653  70.387  1.00  0.00    -0.168 A  
HETATM   13  C   UNL     1      -8.750   9.726  69.938  1.00  0.00    -0.217 A  
HETATM   14  O   UNL     1      -8.848  10.713  68.998  1.00  0.00    -0.157 OA 
BRANCH  13  15
HETATM   15  C   UNL     1      -9.981   9.009  70.238  1.00  0.00    -0.229 A  
HETATM   16  C   UNL     1     -11.025   9.623  70.945  1.00  0.00    -0.412 A  
HETATM   17  C   UNL     1     -12.224   8.924  71.247  1.00  0.00    -0.351 A  
HETATM   18  C   UNL     1     -12.366   7.591  70.832  1.00  0.00    -0.167 A  
HETATM   19  C   UNL     1     -11.333   6.994  70.137  1.00  0.00    -0.321 A  
HETATM   20  N   UNL     1     -13.444   6.848  71.082  1.00  0.00    -0.123 NA 
HETATM   21  C   UNL     1     -14.409   7.431  71.787  1.00  0.00    -0.436 A  
HETATM   22  C   UNL     1     -10.157   7.683  69.840  1.00  0.00    -0.198 A  
HETATM   23  N   UNL     1     -14.388   8.681  72.245  1.00  0.00    -0.493 NA 
HETATM   24  C   UNL     1     -13.315   9.440  71.977  1.00  0.00    -0.450 A  
BRANCH  24  25
HETATM   25  N   UNL     1     -13.238  10.758  72.512  1.00  0.00    -0.356 NA 
HETATM   26  H   UNL     1     -13.384  10.838  73.518  1.00  0.00     0.000 HD 
BRANCH  25  27
HETATM   27  C   UNL     1     -12.984  11.971  71.830  1.00  0.00    -0.340 A  
HETATM   28  C   UNL     1     -13.419  13.213  72.292  1.00  0.00    -0.665 A  
HETATM   29  C   UNL     1     -13.079  14.412  71.662  1.00  0.00    -0.350 A  
HETATM   30  C   UNL     1     -12.243  14.397  70.540  1.00  0.00    -0.341 A  
HETATM   31 CL   UNL     1     -13.814  15.812  72.372  1.00  0.00    -0.573 Cl 
HETATM   32  C   UNL     1     -11.854  13.151  70.023  1.00  0.00    -0.360 A  
HETATM   33  C   UNL     1     -12.224  11.954  70.656  1.00  0.00    -0.424 A  
BRANCH  30  34
HETATM   34  O   UNL     1     -11.736  15.460  69.835  1.00  0.00    -0.289 OA 
BRANCH  34  35
HETATM   35  C   UNL     1     -10.379  15.343  69.417  1.00  0.00    -0.258 C  
BRANCH  35  36
HETATM   36  C   UNL     1     -10.027  16.374  68.378  1.00  0.00    -0.238 A  
HETATM   37  C   UNL     1      -9.051  16.109  67.413  1.00  0.00    -0.203 A  
HETATM   38  C   UNL     1      -8.660  17.117  66.539  1.00  0.00    -0.271 A  
HETATM   39  C   UNL     1      -9.223  18.387  66.609  1.00  0.00    -0.305 A  
HETATM   40  F   UNL     1      -7.710  16.867  65.630  1.00  0.00    -0.218 F  
HETATM   41  C   UNL     1     -10.197  18.657  67.563  1.00  0.00    -0.425 A  
HETATM   42  C   UNL     1     -10.599  17.658  68.446  1.00  0.00    -0.318 A  
ENDBRANCH  35  36
ENDBRANCH  34  35
ENDBRANCH  30  34
ENDBRANCH  25  27
ENDBRANCH  24  25
ENDBRANCH  13  15
ENDBRANCH   9  10
ENDBRANCH   7   9
ENDBRANCH   6   7
ENDBRANCH   5   6
ENDBRANCH   2   5
TORSDOF 11
ENDMDL
MODEL       69
REMARK 921   NORMALIZED FREE ENERGY PREDICTED BY IDOCK:   -5.94 KCAL/MOL
REMARK 922        TOTAL FREE ENERGY PREDICTED BY IDOCK:  -12.51 KCAL/MOL
REMARK 923 INTER-LIGAND FREE ENERGY PREDICTED BY IDOCK:  -10.50 KCAL/MOL
REMARK 924 INTRA-LIGAND FREE ENERGY PREDICTED BY IDOCK:   -2.01 KCAL/MOL
REMARK 927      BINDING AFFINITY PREDICTED BY RF-SCORE:    0.00 PKD
ROOT
HETATM    1  C   UNL     1     -10.669   6.674  67.049  1.00  0.00    -0.366 C  
HETATM    2  S   UNL     1      -9.165   7.576  66.784  1.00  0.00    -0.163 S  
HETATM    3  O   UNL     1      -8.443   6.930  65.707  1.00  0.00    -0.141 OA 
HETATM    4  O   UNL     1      -8.550   7.798  68.077  1.00  0.00    -0.123 OA 
ENDROOT
BRANCH   2   5
HETATM    5  C   UNL     1      -9.773   9.138  66.187  1.00  0.00    -0.287 C  
BRANCH   5   6
HETATM    6  C   UNL     1      -8.664  10.178  66.125  1.00  0.00    -0.142 C  
BRANCH   6   7
HETATM    7  N   UNL     1      -7.333   9.627  66.400  1.00  0.00    -0.093 NA 
HETATM    8  H   UNL     1      -7.149   8.813  65.813  1.00  0.00     0.000 HD 
BRANCH   7   9
HETATM    9  C   UNL     1      -6.257  10.611  66.273  1.00  0.00    -0.119 C  
BRANCH   9  10
HETATM   10  C   UNL     1      -6.366  11.639  67.341  1.00  0.00    -0.100 A  
HETATM   11  C   UNL     1      -6.401  11.573  68.717  1.00  0.00    -0.054 A  
HETATM   12  C   UNL     1      -6.514  12.906  69.176  1.00  0.00    -0.108 A  
HETATM   13  C   UNL     1      -6.519  13.715  68.057  1.00  0.00    -0.138 A  
HETATM   14  O   UNL     1      -6.421  12.937  66.938  1.00  0.00    -0.081 OA 
BRANCH  13  15
HETATM   15  C   UNL     1      -6.602  15.151  67.828  1.00  0.00    -0.186 A  
HETATM   16  C   UNL     1      -7.696  15.717  67.158  1.00  0.00    -0.258 A  
HETATM   17  C   UNL     1      -7.776  17.116  66.925  1.00  0.00    -0.256 A  
HETATM   18  C   UNL     1      -6.739  17.948  67.372  1.00  0.00    -0.176 A  
HETATM   19  C   UNL     1      -5.665  17.383  68.031  1.00  0.00    -0.133 A  
HETATM   20  N   UNL     1      -6.716  19.267  67.187  1.00  0.00    -0.194 NA 
HETATM   21  C   UNL     1      -7.741  19.785  66.515  1.00  0.00    -0.289 A  
HETATM   22  C   UNL     1      -5.589  16.008  68.260  1.00  0.00    -0.110 A  
HETATM   23  N   UNL     1      -8.775  19.101  66.032  1.00  0.00    -0.459 NA 
HETATM   24  C   UNL     1      -8.815  17.776  66.236  1.00  0.00    -0.173 A  
BRANCH  24  25
HETATM   25  N   UNL     1      -9.877  17.011  65.672  1.00  0.00    -0.562 NA 
HETATM   26  H   UNL     1     -10.142  17.256  64.719  1.00  0.00     0.000 HD 
BRANCH  25  27
HETATM   27  C   UNL     1     -10.611  15.956  66.262  1.00  0.00    -0.298 A  
HETATM   28  C   UNL     1     -11.083  14.859  65.543  1.00  0.00    -0.353 A  
HETATM   29  C   UNL     1     -11.721  13.776  66.153  1.00  0.00    -0.370 A  
HETATM   30  C   UNL     1     -11.877  13.754  67.544  1.00  0.00    -0.387 A  
HETATM   31 CL   UNL     1     -12.295  12.580  65.039  1.00  0.00    -0.540 Cl 
HETATM   32  C   UNL     1     -11.469  14.882  68.272  1.00  0.00    -0.343 A  
HETATM   33  C   UNL     1     -10.849  15.971  67.640  1.00  0.00    -0.311 A  
BRANCH  30  34
HETATM   34  O   UNL     1     -12.400  12.758  68.331  1.00  0.00    -0.046 OA 
BRANCH  34  35
HETATM   35  C   UNL     1     -12.035  12.793  69.708  1.00  0.00    -0.292 C  
BRANCH  35  36
HETATM   36  C   UNL     1     -11.873  11.407  70.274  1.00  0.00    -0.438 A  
HETATM   37  C   UNL     1     -12.767  10.920  71.232  1.00  0.00    -0.542 A  
HETATM   38  C   UNL     1     -12.529   9.686  71.826  1.00  0.00    -0.402 A  
HETATM   39  C   UNL     1     -11.415   8.926  71.484  1.00  0.00    -0.391 A  
HETATM   40  F   UNL     1     -13.376   9.231  72.758  1.00  0.00    -0.484 F  
HETATM   41  C   UNL     1     -10.524   9.403  70.530  1.00  0.00    -0.335 A  
HETATM   42  C   UNL     1     -10.748  10.638  69.926  1.00  0.00    -0.260 A  
ENDBRANCH  35  36
ENDBRANCH  34  35
ENDBRANCH  30  34
ENDBRANCH  25  27
ENDBRANCH  24  25
ENDBRANCH  13  15
ENDBRANCH   9  10
ENDBRANCH   7   9
ENDBRANCH   6   7
ENDBRANCH   5   6
ENDBRANCH   2   5
TORSDOF 11
ENDMDL
MODEL       70
REMARK 921   NORMALIZED FREE ENERGY PREDICTED BY IDOCK:   -5.94 KCAL/MOL
REMARK 922        TOTAL FREE ENERGY PREDICTED BY IDOCK:  -12.51 KCAL/MOL
REMARK 923 INTER-LIGAND FREE ENERGY PREDICTED BY IDOCK:  -10.98 KCAL/MOL
REMARK 924 INTRA-LIGAND FREE ENERGY PREDICTED BY IDOCK:   -1.53 KCAL/MOL
REMARK 927      BINDING AFFINITY PREDICTED BY RF-SCORE:    0.00 PKD
ROOT
HETATM    1  C   UNL     1      -8.658   5.354  74.394  1.00  0.00    -0.112 C  
HETATM    2  S   UNL     1      -8.603   6.354  72.930  1.00  0.00    -0.123 S  
HETATM    3  O   UNL     1      -7.350   6.082  72.253  1.00  0.00    -0.090 OA 
HETATM    4  O   UNL     1      -8.981   7.702  73.302  1.00  0.00    -0.160 OA 
ENDROOT
BRANCH   2   5
HETATM    5  C   UNL     1      -9.921   5.659  71.959  1.00  0.00    -0.177 C  
BRANCH   5   6
HETATM    6  C   UNL     1     -11.228   5.627  72.738  1.00  0.00    -0.299 C  
BRANCH   6   7
HETATM    7  N   UNL     1     -11.758   6.961  73.038  1.00  0.00    -0.481 NA 
HETATM    8  H   UNL     1     -11.000   7.624  73.201  1.00  0.00     0.000 HD 
BRANCH   7   9
HETATM    9  C   UNL     1     -12.678   7.466  72.017  1.00  0.00    -0.208 C  
BRANCH   9  10
HETATM   10  C   UNL     1     -12.031   8.543  71.224  1.00  0.00    -0.294 A  
HETATM   11  C   UNL     1     -11.886   9.900  71.414  1.00  0.00    -0.476 A  
HETATM   12  C   UNL     1     -11.166  10.383  70.296  1.00  0.00    -0.395 A  
HETATM   13  C   UNL     1     -10.891   9.291  69.496  1.00  0.00    -0.195 A  
HETATM   14  O   UNL     1     -11.416   8.168  70.070  1.00  0.00    -0.098 OA 
BRANCH  13  15
HETATM   15  C   UNL     1     -10.196   9.094  68.231  1.00  0.00    -0.242 A  
HETATM   16  C   UNL     1     -10.500   9.872  67.106  1.00  0.00    -0.305 A  
HETATM   17  C   UNL     1      -9.830   9.675  65.868  1.00  0.00    -0.358 A  
HETATM   18  C   UNL     1      -8.845   8.681  65.770  1.00  0.00    -0.193 A  
HETATM   19  C   UNL     1      -8.551   7.918  66.884  1.00  0.00    -0.130 A  
HETATM   20  N   UNL     1      -8.175   8.410  64.651  1.00  0.00    -0.162 NA 
HETATM   21  C   UNL     1      -8.501   9.130  63.581  1.00  0.00    -0.184 A  
HETATM   22  C   UNL     1      -9.210   8.114  68.099  1.00  0.00    -0.136 A  
HETATM   23  N   UNL     1      -9.423  10.089  63.545  1.00  0.00    -0.262 NA 
HETATM   24  C   UNL     1     -10.084  10.381  64.675  1.00  0.00    -0.308 A  
BRANCH  24  25
HETATM   25  N   UNL     1     -11.121  11.358  64.648  1.00  0.00    -0.256 NA 
HETATM   26  H   UNL     1     -11.916  11.145  64.045  1.00  0.00     0.000 HD 
BRANCH  25  27
HETATM   27  C   UNL     1     -11.193  12.585  65.347  1.00  0.00    -0.307 A  
HETATM   28  C   UNL     1     -11.580  12.681  66.683  1.00  0.00    -0.443 A  
HETATM   29  C   UNL     1     -11.553  13.885  67.391  1.00  0.00    -0.368 A  
HETATM   30  C   UNL     1     -11.093  15.050  66.765  1.00  0.00    -0.326 A  
HETATM   31 CL   UNL     1     -12.164  13.764  69.008  1.00  0.00    -0.344 Cl 
HETATM   32  C   UNL     1     -10.767  14.983  65.402  1.00  0.00    -0.389 A  
HETATM   33  C   UNL     1     -10.821  13.768  64.701  1.00  0.00    -0.416 A  
BRANCH  30  34
HETATM   34  O   UNL     1     -10.918  16.300  67.306  1.00  0.00    -0.264 OA 
BRANCH  34  35
HETATM   35  C   UNL     1     -10.423  17.300  66.420  1.00  0.00    -0.263 C  
BRANCH  35  36
HETATM   36  C   UNL     1      -9.324  18.109  67.056  1.00  0.00    -0.270 A  
HETATM   37  C   UNL     1      -8.471  17.534  68.002  1.00  0.00    -0.242 A  
HETATM   38  C   UNL     1      -7.543  18.331  68.662  1.00  0.00    -0.296 A  
HETATM   39  C   UNL     1      -7.446  19.692  68.396  1.00  0.00    -0.359 A  
HETATM   40  F   UNL     1      -6.742  17.781  69.583  1.00  0.00    -0.239 F  
HETATM   41  C   UNL     1      -8.288  20.271  67.453  1.00  0.00    -0.396 A  
HETATM   42  C   UNL     1      -9.225  19.486  66.785  1.00  0.00    -0.415 A  
ENDBRANCH  35  36
ENDBRANCH  34  35
ENDBRANCH  30  34
ENDBRANCH  25  27
ENDBRANCH  24  25
ENDBRANCH  13  15
ENDBRANCH   9  10
ENDBRANCH   7   9
ENDBRANCH   6   7
ENDBRANCH   5   6
ENDBRANCH   2   5
TORSDOF 11
ENDMDL
MODEL       71
REMARK 921   NORMALIZED FREE ENERGY PREDICTED BY IDOCK:   -5.94 KCAL/MOL
REMARK 922        TOTAL FREE ENERGY PREDICTED BY IDOCK:  -12.51 KCAL/MOL
REMARK 923 INTER-LIGAND FREE ENERGY PREDICTED BY IDOCK:  -10.05 KCAL/MOL
REMARK 924 INTRA-LIGAND FREE ENERGY PREDICTED BY IDOCK:   -2.45 KCAL/MOL
REMARK 927      BINDING AFFINITY PREDICTED BY RF-SCORE:    0.00 PKD
ROOT
HETATM    1  C   UNL     1     -14.009   7.199  71.786  1.00  0.00    -0.278 C  
HETATM    2  S   UNL     1     -12.278   6.870  71.581  1.00  0.00    -0.372 S  
HETATM    3  O   UNL     1     -11.995   6.854  70.160  1.00  0.00    -0.271 OA 
HETATM    4  O   UNL     1     -11.939   5.746  72.430  1.00  0.00    -0.275 OA 
ENDROOT
BRANCH   2   5
HETATM    5  C   UNL     1     -11.540   8.331  72.277  1.00  0.00    -0.383 C  
BRANCH   5   6
HETATM    6  C   UNL     1     -11.220   9.359  71.202  1.00  0.00    -0.357 C  
BRANCH   6   7
HETATM    7  N   UNL     1     -12.400  10.088  70.725  1.00  0.00    -0.365 NA 
HETATM    8  H   UNL     1     -13.006   9.477  70.178  1.00  0.00     0.000 HD 
BRANCH   7   9
HETATM    9  C   UNL     1     -13.153  10.741  71.797  1.00  0.00    -0.468 C  
BRANCH   9  10
HETATM   10  C   UNL     1     -13.114  12.218  71.633  1.00  0.00    -0.306 A  
HETATM   11  C   UNL     1     -13.737  13.258  72.287  1.00  0.00    -0.686 A  
HETATM   12  C   UNL     1     -13.288  14.446  71.662  1.00  0.00    -0.442 A  
HETATM   13  C   UNL     1     -12.399  14.066  70.677  1.00  0.00    -0.375 A  
HETATM   14  O   UNL     1     -12.290  12.704  70.666  1.00  0.00    -0.359 OA 
BRANCH  13  15
HETATM   15  C   UNL     1     -11.593  14.776  69.692  1.00  0.00    -0.342 A  
HETATM   16  C   UNL     1     -10.502  14.158  69.066  1.00  0.00    -0.193 A  
HETATM   17  C   UNL     1      -9.708  14.850  68.112  1.00  0.00    -0.214 A  
HETATM   18  C   UNL     1     -10.022  16.180  67.792  1.00  0.00    -0.237 A  
HETATM   19  C   UNL     1     -11.098  16.781  68.414  1.00  0.00    -0.266 A  
HETATM   20  N   UNL     1      -9.328  16.915  66.925  1.00  0.00    -0.233 NA 
HETATM   21  C   UNL     1      -8.272  16.329  66.368  1.00  0.00    -0.319 A  
HETATM   22  C   UNL     1     -11.877  16.098  69.350  1.00  0.00    -0.154 A  
HETATM   23  N   UNL     1      -7.868  15.082  66.598  1.00  0.00     0.123 NA 
HETATM   24  C   UNL     1      -8.576  14.329  67.453  1.00  0.00    -0.213 A  
BRANCH  24  25
HETATM   25  N   UNL     1      -8.126  13.014  67.767  1.00  0.00    -0.153 NA 
HETATM   26  H   UNL     1      -7.305  12.958  68.369  1.00  0.00     0.000 HD 
BRANCH  25  27
HETATM   27  C   UNL     1      -8.671  11.775  67.353  1.00  0.00    -0.162 A  
HETATM   28  C   UNL     1      -8.870  11.438  66.015  1.00  0.00    -0.177 A  
HETATM   29  C   UNL     1      -9.316  10.176  65.615  1.00  0.00    -0.199 A  
HETATM   30  C   UNL     1      -9.549   9.184  66.574  1.00  0.00    -0.227 A  
HETATM   31 CL   UNL     1      -9.572  10.030  63.908  1.00  0.00    -0.303 Cl 
HETATM   32  C   UNL     1      -9.418   9.530  67.928  1.00  0.00    -0.149 A  
HETATM   33  C   UNL     1      -8.990  10.811  68.313  1.00  0.00    -0.143 A  
BRANCH  30  34
HETATM   34  O   UNL     1      -9.910   7.873  66.381  1.00  0.00    -0.216 OA 
BRANCH  34  35
HETATM   35  C   UNL     1      -8.839   6.943  66.251  1.00  0.00    -0.148 C  
BRANCH  35  36
HETATM   36  C   UNL     1      -9.152   5.639  66.937  1.00  0.00    -0.116 A  
HETATM   37  C   UNL     1      -9.473   5.608  68.297  1.00  0.00    -0.132 A  
HETATM   38  C   UNL     1      -9.641   4.383  68.933  1.00  0.00    -0.163 A  
HETATM   39  C   UNL     1      -9.494   3.187  68.240  1.00  0.00    -0.215 A  
HETATM   40  F   UNL     1      -9.928   4.357  70.241  1.00  0.00    -0.256 F  
HETATM   41  C   UNL     1      -9.178   3.210  66.887  1.00  0.00    -0.187 A  
HETATM   42  C   UNL     1      -9.005   4.428  66.235  1.00  0.00    -0.120 A  
ENDBRANCH  35  36
ENDBRANCH  34  35
ENDBRANCH  30  34
ENDBRANCH  25  27
ENDBRANCH  24  25
ENDBRANCH  13  15
ENDBRANCH   9  10
ENDBRANCH   7   9
ENDBRANCH   6   7
ENDBRANCH   5   6
ENDBRANCH   2   5
TORSDOF 11
ENDMDL
MODEL       72
REMARK 921   NORMALIZED FREE ENERGY PREDICTED BY IDOCK:   -5.94 KCAL/MOL
REMARK 922        TOTAL FREE ENERGY PREDICTED BY IDOCK:  -12.50 KCAL/MOL
REMARK 923 INTER-LIGAND FREE ENERGY PREDICTED BY IDOCK:  -11.11 KCAL/MOL
REMARK 924 INTRA-LIGAND FREE ENERGY PREDICTED BY IDOCK:   -1.39 KCAL/MOL
REMARK 927      BINDING AFFINITY PREDICTED BY RF-SCORE:    0.00 PKD
ROOT
HETATM    1  C   UNL     1      -8.530  16.174  66.601  1.00  0.00    -0.280 C  
HETATM    2  S   UNL     1     -10.284  16.428  66.541  1.00  0.00    -0.312 S  
HETATM    3  O   UNL     1     -10.578  17.225  65.367  1.00  0.00    -0.630 OA 
HETATM    4  O   UNL     1     -10.714  16.844  67.861  1.00  0.00    -0.347 OA 
ENDROOT
BRANCH   2   5
HETATM    5  C   UNL     1     -10.886  14.779  66.259  1.00  0.00    -0.322 C  
BRANCH   5   6
HETATM    6  C   UNL     1     -10.927  14.449  64.774  1.00  0.00    -0.397 C  
BRANCH   6   7
HETATM    7  N   UNL     1     -11.229  13.041  64.498  1.00  0.00    -0.323 NA 
HETATM    8  H   UNL     1     -10.604  12.669  63.783  1.00  0.00     0.000 HD 
BRANCH   7   9
HETATM    9  C   UNL     1     -11.209  12.196  65.694  1.00  0.00    -0.335 C  
BRANCH   9  10
HETATM   10  C   UNL     1     -10.344  11.008  65.474  1.00  0.00    -0.260 A  
HETATM   11  C   UNL     1      -9.324  10.731  64.591  1.00  0.00    -0.271 A  
HETATM   12  C   UNL     1      -8.892   9.416  64.882  1.00  0.00    -0.240 A  
HETATM   13  C   UNL     1      -9.656   8.971  65.943  1.00  0.00    -0.247 A  
HETATM   14  O   UNL     1     -10.538   9.949  66.306  1.00  0.00    -0.140 OA 
BRANCH  13  15
HETATM   15  C   UNL     1      -9.718   7.739  66.718  1.00  0.00    -0.296 A  
HETATM   16  C   UNL     1      -9.745   7.763  68.119  1.00  0.00    -0.171 A  
HETATM   17  C   UNL     1      -9.797   6.563  68.878  1.00  0.00    -0.142 A  
HETATM   18  C   UNL     1      -9.821   5.328  68.211  1.00  0.00    -0.155 A  
HETATM   19  C   UNL     1      -9.794   5.313  66.831  1.00  0.00    -0.191 A  
HETATM   20  N   UNL     1      -9.852   4.151  68.834  1.00  0.00    -0.096 NA 
HETATM   21  C   UNL     1      -9.838   4.188  70.164  1.00  0.00    -0.172 A  
HETATM   22  C   UNL     1      -9.744   6.494  66.087  1.00  0.00     0.015 A  
HETATM   23  N   UNL     1      -9.804   5.292  70.907  1.00  0.00    -0.183 NA 
HETATM   24  C   UNL     1      -9.795   6.480  70.285  1.00  0.00    -0.168 A  
BRANCH  24  25
HETATM   25  N   UNL     1      -9.693   7.674  71.056  1.00  0.00    -0.164 NA 
HETATM   26  H   UNL     1      -8.855   7.761  71.630  1.00  0.00     0.000 HD 
BRANCH  25  27
HETATM   27  C   UNL     1     -10.603   8.755  71.130  1.00  0.00    -0.241 A  
HETATM   28  C   UNL     1     -10.505   9.890  70.326  1.00  0.00    -0.348 A  
HETATM   29  C   UNL     1     -11.464  10.906  70.339  1.00  0.00    -0.275 A  
HETATM   30  C   UNL     1     -12.593  10.788  71.158  1.00  0.00    -0.428 A  
HETATM   31 CL   UNL     1     -11.075  12.253  69.320  1.00  0.00    -0.254 Cl 
HETATM   32  C   UNL     1     -12.669   9.684  72.022  1.00  0.00    -0.470 A  
HETATM   33  C   UNL     1     -11.685   8.684  72.012  1.00  0.00    -0.439 A  
BRANCH  30  34
HETATM   34  O   UNL     1     -13.673  11.630  71.254  1.00  0.00     0.458 OA 
BRANCH  34  35
HETATM   35  C   UNL     1     -13.753  12.412  72.442  1.00  0.00    -0.091 C  
BRANCH  35  36
HETATM   36  C   UNL     1     -13.261  13.817  72.216  1.00  0.00    -0.563 A  
HETATM   37  C   UNL     1     -13.155  14.335  70.922  1.00  0.00    -0.368 A  
HETATM   38  C   UNL     1     -12.587  15.589  70.731  1.00  0.00    -0.452 A  
HETATM   39  C   UNL     1     -12.122  16.339  71.805  1.00  0.00    -0.408 A  
HETATM   40  F   UNL     1     -12.468  16.074  69.488  1.00  0.00    -0.293 F  
HETATM   41  C   UNL     1     -12.227  15.832  73.095  1.00  0.00    -0.605 A  
HETATM   42  C   UNL     1     -12.792  14.576  73.304  1.00  0.00    -0.510 A  
ENDBRANCH  35  36
ENDBRANCH  34  35
ENDBRANCH  30  34
ENDBRANCH  25  27
ENDBRANCH  24  25
ENDBRANCH  13  15
ENDBRANCH   9  10
ENDBRANCH   7   9
ENDBRANCH   6   7
ENDBRANCH   5   6
ENDBRANCH   2   5
TORSDOF 11
ENDMDL
MODEL       73
REMARK 921   NORMALIZED FREE ENERGY PREDICTED BY IDOCK:   -5.92 KCAL/MOL
REMARK 922        TOTAL FREE ENERGY PREDICTED BY IDOCK:  -12.47 KCAL/MOL
REMARK 923 INTER-LIGAND FREE ENERGY PREDICTED BY IDOCK:  -11.00 KCAL/MOL
REMARK 924 INTRA-LIGAND FREE ENERGY PREDICTED BY IDOCK:   -1.46 KCAL/MOL
REMARK 927      BINDING AFFINITY PREDICTED BY RF-SCORE:    0.00 PKD
ROOT
HETATM    1  C   UNL     1     -14.403  15.576  71.883  1.00  0.00    -0.472 C  
HETATM    2  S   UNL     1     -13.275  14.318  72.424  1.00  0.00    -0.493 S  
HETATM    3  O   UNL     1     -13.988  13.056  72.432  1.00  0.00    -0.552 OA 
HETATM    4  O   UNL     1     -12.600  14.810  73.607  1.00  0.00    -0.504 OA 
ENDROOT
BRANCH   2   5
HETATM    5  C   UNL     1     -12.098  14.282  71.091  1.00  0.00    -0.336 C  
BRANCH   5   6
HETATM    6  C   UNL     1     -11.861  15.673  70.521  1.00  0.00    -0.373 C  
BRANCH   6   7
HETATM    7  N   UNL     1     -11.572  15.672  69.084  1.00  0.00    -0.361 NA 
HETATM    8  H   UNL     1     -11.399  16.620  68.748  1.00  0.00     0.000 HD 
BRANCH   7   9
HETATM    9  C   UNL     1     -10.472  14.781  68.711  1.00  0.00    -0.250 C  
BRANCH   9  10
HETATM   10  C   UNL     1     -10.926  13.789  67.703  1.00  0.00    -0.264 A  
HETATM   11  C   UNL     1     -12.005  13.736  66.848  1.00  0.00    -0.460 A  
HETATM   12  C   UNL     1     -11.884  12.524  66.129  1.00  0.00    -0.459 A  
HETATM   13  C   UNL     1     -10.726  11.914  66.568  1.00  0.00    -0.258 A  
HETATM   14  O   UNL     1     -10.139  12.694  67.525  1.00  0.00    -0.208 OA 
BRANCH  13  15
HETATM   15  C   UNL     1     -10.030  10.676  66.243  1.00  0.00    -0.274 A  
HETATM   16  C   UNL     1     -10.440   9.450  66.785  1.00  0.00    -0.265 A  
HETATM   17  C   UNL     1      -9.758   8.241  66.477  1.00  0.00    -0.323 A  
HETATM   18  C   UNL     1      -8.651   8.276  65.615  1.00  0.00    -0.166 A  
HETATM   19  C   UNL     1      -8.254   9.489  65.087  1.00  0.00    -0.134 A  
HETATM   20  N   UNL     1      -7.939   7.202  65.281  1.00  0.00    -0.121 NA 
HETATM   21  C   UNL     1      -8.315   6.052  65.834  1.00  0.00    -0.138 A  
HETATM   22  C   UNL     1      -8.926  10.674  65.389  1.00  0.00    -0.208 A  
HETATM   23  N   UNL     1      -9.336   5.892  66.672  1.00  0.00    -0.141 NA 
HETATM   24  C   UNL     1     -10.071   6.967  66.993  1.00  0.00    -0.229 A  
BRANCH  24  25
HETATM   25  N   UNL     1     -11.129   6.836  67.939  1.00  0.00    -0.530 NA 
HETATM   26  H   UNL     1     -12.073   6.856  67.554  1.00  0.00     0.000 HD 
BRANCH  25  27
HETATM   27  C   UNL     1     -11.041   6.682  69.343  1.00  0.00    -0.310 A  
HETATM   28  C   UNL     1     -11.533   7.622  70.247  1.00  0.00    -0.144 A  
HETATM   29  C   UNL     1     -11.528   7.413  71.628  1.00  0.00    -0.263 A  
HETATM   30  C   UNL     1     -11.044   6.207  72.148  1.00  0.00    -0.275 A  
HETATM   31 CL   UNL     1     -12.111   8.763  72.545  1.00  0.00    -0.381 Cl 
HETATM   32  C   UNL     1     -10.482   5.281  71.255  1.00  0.00    -0.274 A  
HETATM   33  C   UNL     1     -10.476   5.517  69.871  1.00  0.00    -0.386 A  
BRANCH  30  34
HETATM   34  O   UNL     1     -11.027   5.783  73.454  1.00  0.00    -0.268 OA 
BRANCH  34  35
HETATM   35  C   UNL     1     -10.145   6.484  74.326  1.00  0.00    -0.356 C  
BRANCH  35  36
HETATM   36  C   UNL     1      -8.797   6.707  73.691  1.00  0.00    -0.143 A  
HETATM   37  C   UNL     1      -7.952   5.628  73.417  1.00  0.00    -0.110 A  
HETATM   38  C   UNL     1      -6.668   5.868  72.942  1.00  0.00    -0.074 A  
HETATM   39  C   UNL     1      -6.209   7.165  72.733  1.00  0.00    -0.056 A  
HETATM   40  F   UNL     1      -5.853   4.834  72.700  1.00  0.00    -0.013 F  
HETATM   41  C   UNL     1      -7.046   8.242  73.000  1.00  0.00    -0.137 A  
HETATM   42  C   UNL     1      -8.334   8.019  73.479  1.00  0.00    -0.292 A  
ENDBRANCH  35  36
ENDBRANCH  34  35
ENDBRANCH  30  34
ENDBRANCH  25  27
ENDBRANCH  24  25
ENDBRANCH  13  15
ENDBRANCH   9  10
ENDBRANCH   7   9
ENDBRANCH   6   7
ENDBRANCH   5   6
ENDBRANCH   2   5
TORSDOF 11
ENDMDL
MODEL       74
REMARK 921   NORMALIZED FREE ENERGY PREDICTED BY IDOCK:   -5.91 KCAL/MOL
REMARK 922        TOTAL FREE ENERGY PREDICTED BY IDOCK:  -12.46 KCAL/MOL
REMARK 923 INTER-LIGAND FREE ENERGY PREDICTED BY IDOCK:  -11.44 KCAL/MOL
REMARK 924 INTRA-LIGAND FREE ENERGY PREDICTED BY IDOCK:   -1.01 KCAL/MOL
REMARK 927      BINDING AFFINITY PREDICTED BY RF-SCORE:    0.00 PKD
ROOT
HETATM    1  C   UNL     1      -6.955  20.857  67.147  1.00  0.00    -0.364 C  
HETATM    2  S   UNL     1      -8.358  19.771  67.133  1.00  0.00    -0.329 S  
HETATM    3  O   UNL     1      -8.250  18.921  65.965  1.00  0.00    -0.443 OA 
HETATM    4  O   UNL     1      -9.539  20.575  67.373  1.00  0.00    -0.425 OA 
ENDROOT
BRANCH   2   5
HETATM    5  C   UNL     1      -8.066  18.773  68.576  1.00  0.00    -0.346 C  
BRANCH   5   6
HETATM    6  C   UNL     1      -8.381  17.308  68.311  1.00  0.00    -0.242 C  
BRANCH   6   7
HETATM    7  N   UNL     1      -9.606  16.848  68.975  1.00  0.00    -0.247 NA 
HETATM    8  H   UNL     1      -9.856  17.470  69.744  1.00  0.00     0.000 HD 
BRANCH   7   9
HETATM    9  C   UNL     1     -10.734  16.675  68.060  1.00  0.00    -0.350 C  
BRANCH   9  10
HETATM   10  C   UNL     1     -11.060  15.233  67.905  1.00  0.00    -0.321 A  
HETATM   11  C   UNL     1     -11.804  14.346  68.653  1.00  0.00    -0.366 A  
HETATM   12  C   UNL     1     -11.737  13.104  67.979  1.00  0.00    -0.394 A  
HETATM   13  C   UNL     1     -10.975  13.306  66.845  1.00  0.00    -0.283 A  
HETATM   14  O   UNL     1     -10.569  14.610  66.800  1.00  0.00    -0.281 OA 
BRANCH  13  15
HETATM   15  C   UNL     1     -10.533  12.464  65.741  1.00  0.00    -0.288 A  
HETATM   16  C   UNL     1      -9.840  11.268  65.972  1.00  0.00    -0.267 A  
HETATM   17  C   UNL     1      -9.399  10.450  64.897  1.00  0.00    -0.294 A  
HETATM   18  C   UNL     1      -9.663  10.848  63.578  1.00  0.00    -0.342 A  
HETATM   19  C   UNL     1     -10.345  12.028  63.359  1.00  0.00    -0.468 A  
HETATM   20  N   UNL     1      -9.276  10.158  62.506  1.00  0.00    -0.283 NA 
HETATM   21  C   UNL     1      -8.586   9.045  62.739  1.00  0.00    -0.189 A  
HETATM   22  C   UNL     1     -10.778  12.829  64.416  1.00  0.00    -0.398 A  
HETATM   23  N   UNL     1      -8.264   8.571  63.940  1.00  0.00    -0.153 NA 
HETATM   24  C   UNL     1      -8.670   9.250  65.024  1.00  0.00    -0.190 A  
BRANCH  24  25
HETATM   25  N   UNL     1      -8.284   8.799  66.319  1.00  0.00    -0.113 NA 
HETATM   26  H   UNL     1      -7.288   8.864  66.532  1.00  0.00     0.000 HD 
BRANCH  25  27
HETATM   27  C   UNL     1      -9.099   8.274  67.348  1.00  0.00    -0.140 A  
HETATM   28  C   UNL     1      -9.801   9.074  68.250  1.00  0.00    -0.186 A  
HETATM   29  C   UNL     1     -10.680   8.546  69.199  1.00  0.00    -0.110 A  
HETATM   30  C   UNL     1     -10.906   7.166  69.246  1.00  0.00    -0.183 A  
HETATM   31 CL   UNL     1     -11.361   9.733  70.261  1.00  0.00    -0.311 Cl 
HETATM   32  C   UNL     1     -10.156   6.344  68.392  1.00  0.00    -0.173 A  
HETATM   33  C   UNL     1      -9.260   6.890  67.459  1.00  0.00    -0.124 A  
BRANCH  30  34
HETATM   34  O   UNL     1     -11.780   6.469  70.043  1.00  0.00    -0.416 OA 
BRANCH  34  35
HETATM   35  C   UNL     1     -12.180   7.116  71.248  1.00  0.00    -0.365 C  
BRANCH  35  36
HETATM   36  C   UNL     1     -11.339   6.679  72.418  1.00  0.00    -0.309 A  
HETATM   37  C   UNL     1     -10.373   7.532  72.959  1.00  0.00    -0.376 A  
HETATM   38  C   UNL     1      -9.529   7.064  73.960  1.00  0.00    -0.253 A  
HETATM   39  C   UNL     1      -9.629   5.761  74.434  1.00  0.00    -0.179 A  
HETATM   40  F   UNL     1      -8.591   7.877  74.462  1.00  0.00    -0.267 F  
HETATM   41  C   UNL     1     -10.590   4.908  73.903  1.00  0.00    -0.342 A  
HETATM   42  C   UNL     1     -11.442   5.361  72.899  1.00  0.00    -0.340 A  
ENDBRANCH  35  36
ENDBRANCH  34  35
ENDBRANCH  30  34
ENDBRANCH  25  27
ENDBRANCH  24  25
ENDBRANCH  13  15
ENDBRANCH   9  10
ENDBRANCH   7   9
ENDBRANCH   6   7
ENDBRANCH   5   6
ENDBRANCH   2   5
TORSDOF 11
ENDMDL
MODEL       75
REMARK 921   NORMALIZED FREE ENERGY PREDICTED BY IDOCK:   -5.87 KCAL/MOL
REMARK 922        TOTAL FREE ENERGY PREDICTED BY IDOCK:  -12.39 KCAL/MOL
REMARK 923 INTER-LIGAND FREE ENERGY PREDICTED BY IDOCK:  -10.22 KCAL/MOL
REMARK 924 INTRA-LIGAND FREE ENERGY PREDICTED BY IDOCK:   -2.17 KCAL/MOL
REMARK 927      BINDING AFFINITY PREDICTED BY RF-SCORE:    0.00 PKD
ROOT
HETATM    1  C   UNL     1      -8.661  17.273  68.164  1.00  0.00    -0.242 C  
HETATM    2  S   UNL     1      -8.107  16.939  66.512  1.00  0.00    -0.317 S  
HETATM    3  O   UNL     1      -6.770  16.386  66.595  1.00  0.00    -0.235 OA 
HETATM    4  O   UNL     1      -8.391  18.110  65.707  1.00  0.00    -0.499 OA 
ENDROOT
BRANCH   2   5
HETATM    5  C   UNL     1      -9.215  15.641  66.008  1.00  0.00    -0.339 C  
BRANCH   5   6
HETATM    6  C   UNL     1     -10.540  15.721  66.752  1.00  0.00    -0.309 C  
BRANCH   6   7
HETATM    7  N   UNL     1     -11.050  14.412  67.174  1.00  0.00    -0.303 NA 
HETATM    8  H   UNL     1     -11.139  14.369  68.189  1.00  0.00     0.000 HD 
BRANCH   7   9
HETATM    9  C   UNL     1     -12.309  14.042  66.526  1.00  0.00    -0.404 C  
BRANCH   9  10
HETATM   10  C   UNL     1     -12.048  13.212  65.321  1.00  0.00    -0.429 A  
HETATM   11  C   UNL     1     -12.639  13.138  64.079  1.00  0.00    -0.249 A  
HETATM   12  C   UNL     1     -11.932  12.144  63.362  1.00  0.00    -0.578 A  
HETATM   13  C   UNL     1     -10.935  11.682  64.198  1.00  0.00    -0.376 A  
HETATM   14  O   UNL     1     -11.005  12.343  65.392  1.00  0.00    -0.283 OA 
BRANCH  13  15
HETATM   15  C   UNL     1      -9.876  10.688  64.083  1.00  0.00    -0.396 A  
HETATM   16  C   UNL     1      -9.215  10.197  65.217  1.00  0.00    -0.257 A  
HETATM   17  C   UNL     1      -8.175   9.234  65.107  1.00  0.00    -0.143 A  
HETATM   18  C   UNL     1      -7.803   8.767  63.838  1.00  0.00    -0.141 A  
HETATM   19  C   UNL     1      -8.459   9.256  62.726  1.00  0.00    -0.211 A  
HETATM   20  N   UNL     1      -6.831   7.879  63.632  1.00  0.00    -0.073 NA 
HETATM   21  C   UNL     1      -6.186   7.451  64.713  1.00  0.00    -0.038 A  
HETATM   22  C   UNL     1      -9.480  10.201  62.836  1.00  0.00    -0.288 A  
HETATM   23  N   UNL     1      -6.438   7.827  65.965  1.00  0.00    -0.042 NA 
HETATM   24  C   UNL     1      -7.431   8.703  66.180  1.00  0.00    -0.086 A  
BRANCH  24  25
HETATM   25  N   UNL     1      -7.678   9.172  67.503  1.00  0.00    -0.092 NA 
HETATM   26  H   UNL     1      -6.919   9.698  67.936  1.00  0.00     0.000 HD 
BRANCH  25  27
HETATM   27  C   UNL     1      -8.838   9.003  68.294  1.00  0.00    -0.134 A  
HETATM   28  C   UNL     1      -9.474   7.774  68.464  1.00  0.00    -0.148 A  
HETATM   29  C   UNL     1     -10.560   7.601  69.326  1.00  0.00    -0.201 A  
HETATM   30  C   UNL     1     -11.027   8.682  70.083  1.00  0.00    -0.226 A  
HETATM   31 CL   UNL     1     -11.232   6.004  69.296  1.00  0.00    -0.435 Cl 
HETATM   32  C   UNL     1     -10.441   9.939  69.870  1.00  0.00    -0.309 A  
HETATM   33  C   UNL     1      -9.364  10.099  68.984  1.00  0.00    -0.192 A  
BRANCH  30  34
HETATM   34  O   UNL     1     -12.019   8.697  71.032  1.00  0.00    -0.290 OA 
BRANCH  34  35
HETATM   35  C   UNL     1     -11.587   8.791  72.386  1.00  0.00    -0.250 C  
BRANCH  35  36
HETATM   36  C   UNL     1     -11.070   7.472  72.896  1.00  0.00    -0.426 A  
HETATM   37  C   UNL     1      -9.792   7.376  73.455  1.00  0.00    -0.363 A  
HETATM   38  C   UNL     1      -9.292   6.129  73.810  1.00  0.00    -0.131 A  
HETATM   39  C   UNL     1     -10.041   4.973  73.618  1.00  0.00    -0.207 A  
HETATM   40  F   UNL     1      -8.060   6.037  74.325  1.00  0.00    -0.103 F  
HETATM   41  C   UNL     1     -11.314   5.061  73.067  1.00  0.00    -0.374 A  
HETATM   42  C   UNL     1     -11.829   6.303  72.705  1.00  0.00    -0.108 A  
ENDBRANCH  35  36
ENDBRANCH  34  35
ENDBRANCH  30  34
ENDBRANCH  25  27
ENDBRANCH  24  25
ENDBRANCH  13  15
ENDBRANCH   9  10
ENDBRANCH   7   9
ENDBRANCH   6   7
ENDBRANCH   5   6
ENDBRANCH   2   5
TORSDOF 11
ENDMDL
MODEL       76
REMARK 921   NORMALIZED FREE ENERGY PREDICTED BY IDOCK:   -5.86 KCAL/MOL
REMARK 922        TOTAL FREE ENERGY PREDICTED BY IDOCK:  -12.38 KCAL/MOL
REMARK 923 INTER-LIGAND FREE ENERGY PREDICTED BY IDOCK:  -10.35 KCAL/MOL
REMARK 924 INTRA-LIGAND FREE ENERGY PREDICTED BY IDOCK:   -2.03 KCAL/MOL
REMARK 927      BINDING AFFINITY PREDICTED BY RF-SCORE:    0.00 PKD
ROOT
HETATM    1  C   UNL     1     -11.088  15.194  71.086  1.00  0.00    -0.225 C  
HETATM    2  S   UNL     1     -10.659  15.642  69.425  1.00  0.00    -0.277 S  
HETATM    3  O   UNL     1     -10.695  17.088  69.331  1.00  0.00    -0.322 OA 
HETATM    4  O   UNL     1     -11.436  14.810  68.529  1.00  0.00    -0.279 OA 
ENDROOT
BRANCH   2   5
HETATM    5  C   UNL     1      -8.961  15.121  69.329  1.00  0.00    -0.202 C  
BRANCH   5   6
HETATM    6  C   UNL     1      -8.009  16.274  69.615  1.00  0.00     0.261 C  
BRANCH   6   7
HETATM    7  N   UNL     1      -6.842  16.298  68.727  1.00  0.00    -0.142 NA 
HETATM    8  H   UNL     1      -6.818  15.464  68.139  1.00  0.00     0.000 HD 
BRANCH   7   9
HETATM    9  C   UNL     1      -6.755  17.510  67.912  1.00  0.00    -0.179 C  
BRANCH   9  10
HETATM   10  C   UNL     1      -8.021  17.725  67.165  1.00  0.00    -0.212 A  
HETATM   11  C   UNL     1      -8.770  18.844  66.876  1.00  0.00    -0.308 A  
HETATM   12  C   UNL     1      -9.880  18.396  66.121  1.00  0.00    -0.279 A  
HETATM   13  C   UNL     1      -9.735  17.031  65.971  1.00  0.00    -0.218 A  
HETATM   14  O   UNL     1      -8.594  16.626  66.604  1.00  0.00    -0.210 OA 
BRANCH  13  15
HETATM   15  C   UNL     1     -10.504  15.983  65.313  1.00  0.00    -0.384 A  
HETATM   16  C   UNL     1     -10.116  14.639  65.395  1.00  0.00    -0.403 A  
HETATM   17  C   UNL     1     -10.859  13.615  64.748  1.00  0.00    -0.402 A  
HETATM   18  C   UNL     1     -12.003  13.957  64.010  1.00  0.00    -0.387 A  
HETATM   19  C   UNL     1     -12.377  15.283  63.934  1.00  0.00     0.199 A  
HETATM   20  N   UNL     1     -12.753  13.072  63.355  1.00  0.00    -0.660 NA 
HETATM   21  C   UNL     1     -12.351  11.805  63.409  1.00  0.00    -0.361 A  
HETATM   22  C   UNL     1     -11.647  16.287  64.573  1.00  0.00    -0.091 A  
HETATM   23  N   UNL     1     -11.281  11.359  64.063  1.00  0.00    -0.338 NA 
HETATM   24  C   UNL     1     -10.535  12.242  64.743  1.00  0.00    -0.296 A  
BRANCH  24  25
HETATM   25  N   UNL     1      -9.348  11.801  65.397  1.00  0.00    -0.399 NA 
HETATM   26  H   UNL     1      -8.475  12.182  65.034  1.00  0.00     0.000 HD 
BRANCH  25  27
HETATM   27  C   UNL     1      -9.223  10.904  66.484  1.00  0.00    -0.171 A  
HETATM   28  C   UNL     1      -8.153  10.931  67.376  1.00  0.00    -0.114 A  
HETATM   29  C   UNL     1      -8.090  10.105  68.501  1.00  0.00    -0.106 A  
HETATM   30  C   UNL     1      -9.145   9.231  68.783  1.00  0.00    -0.136 A  
HETATM   31 CL   UNL     1      -6.619  10.260  69.405  1.00  0.00    -0.051 Cl 
HETATM   32  C   UNL     1     -10.196   9.144  67.857  1.00  0.00    -0.266 A  
HETATM   33  C   UNL     1     -10.233   9.966  66.719  1.00  0.00    -0.301 A  
BRANCH  30  34
HETATM   34  O   UNL     1      -9.307   8.404  69.867  1.00  0.00    -0.154 OA 
BRANCH  34  35
HETATM   35  C   UNL     1      -9.655   9.043  71.093  1.00  0.00    -0.286 C  
BRANCH  35  36
HETATM   36  C   UNL     1     -11.133   8.948  71.367  1.00  0.00    -0.376 A  
HETATM   37  C   UNL     1     -11.737   7.708  71.595  1.00  0.00    -0.313 A  
HETATM   38  C   UNL     1     -13.119   7.634  71.728  1.00  0.00    -0.323 A  
HETATM   39  C   UNL     1     -13.912   8.773  71.637  1.00  0.00    -0.450 A  
HETATM   40  F   UNL     1     -13.697   6.443  71.925  1.00  0.00    -0.287 F  
HETATM   41  C   UNL     1     -13.318  10.010  71.415  1.00  0.00    -0.432 A  
HETATM   42  C   UNL     1     -11.935  10.101  71.278  1.00  0.00    -0.473 A  
ENDBRANCH  35  36
ENDBRANCH  34  35
ENDBRANCH  30  34
ENDBRANCH  25  27
ENDBRANCH  24  25
ENDBRANCH  13  15
ENDBRANCH   9  10
ENDBRANCH   7   9
ENDBRANCH   6   7
ENDBRANCH   5   6
ENDBRANCH   2   5
TORSDOF 11
ENDMDL
MODEL       77
REMARK 921   NORMALIZED FREE ENERGY PREDICTED BY IDOCK:   -5.84 KCAL/MOL
REMARK 922        TOTAL FREE ENERGY PREDICTED BY IDOCK:  -12.35 KCAL/MOL
REMARK 923 INTER-LIGAND FREE ENERGY PREDICTED BY IDOCK:   -9.97 KCAL/MOL
REMARK 924 INTRA-LIGAND FREE ENERGY PREDICTED BY IDOCK:   -2.37 KCAL/MOL
REMARK 927      BINDING AFFINITY PREDICTED BY RF-SCORE:    0.00 PKD
ROOT
HETATM    1  C   UNL     1      -6.929  17.631  68.964  1.00  0.00    -0.233 C  
HETATM    2  S   UNL     1      -8.327  16.942  68.117  1.00  0.00    -0.220 S  
HETATM    3  O   UNL     1      -9.196  16.341  69.109  1.00  0.00    -0.251 OA 
HETATM    4  O   UNL     1      -7.829  16.180  66.991  1.00  0.00    -0.177 OA 
ENDROOT
BRANCH   2   5
HETATM    5  C   UNL     1      -9.130  18.398  67.486  1.00  0.00    -0.271 C  
BRANCH   5   6
HETATM    6  C   UNL     1     -10.479  18.065  66.865  1.00  0.00    -0.341 C  
BRANCH   6   7
HETATM    7  N   UNL     1     -10.607  16.657  66.475  1.00  0.00    -0.252 NA 
HETATM    8  H   UNL     1     -11.362  16.205  66.991  1.00  0.00     0.000 HD 
BRANCH   7   9
HETATM    9  C   UNL     1     -10.778  16.465  65.034  1.00  0.00    -0.259 C  
BRANCH   9  10
HETATM   10  C   UNL     1     -11.256  15.088  64.747  1.00  0.00    -0.386 A  
HETATM   11  C   UNL     1     -12.500  14.552  64.496  1.00  0.00    -0.346 A  
HETATM   12  C   UNL     1     -12.302  13.165  64.295  1.00  0.00    -0.421 A  
HETATM   13  C   UNL     1     -10.946  12.935  64.412  1.00  0.00    -0.371 A  
HETATM   14  O   UNL     1     -10.309  14.113  64.681  1.00  0.00    -0.432 OA 
BRANCH  13  15
HETATM   15  C   UNL     1     -10.092  11.759  64.315  1.00  0.00    -0.326 A  
HETATM   16  C   UNL     1      -9.436  11.242  65.442  1.00  0.00    -0.251 A  
HETATM   17  C   UNL     1      -8.595  10.101  65.349  1.00  0.00    -0.165 A  
HETATM   18  C   UNL     1      -8.416   9.478  64.104  1.00  0.00    -0.186 A  
HETATM   19  C   UNL     1      -9.064   9.994  62.999  1.00  0.00    -0.298 A  
HETATM   20  N   UNL     1      -7.636   8.416  63.913  1.00  0.00    -0.126 NA 
HETATM   21  C   UNL     1      -6.990   7.960  64.983  1.00  0.00    -0.059 A  
HETATM   22  C   UNL     1      -9.891  11.115  63.093  1.00  0.00    -0.403 A  
HETATM   23  N   UNL     1      -7.068   8.469  66.210  1.00  0.00    -0.077 NA 
HETATM   24  C   UNL     1      -7.870   9.525  66.412  1.00  0.00    -0.097 A  
BRANCH  24  25
HETATM   25  N   UNL     1      -7.922  10.130  67.702  1.00  0.00    -0.102 NA 
HETATM   26  H   UNL     1      -7.324  10.945  67.833  1.00  0.00     0.000 HD 
BRANCH  25  27
HETATM   27  C   UNL     1      -8.694   9.747  68.823  1.00  0.00    -0.128 A  
HETATM   28  C   UNL     1      -8.135   9.281  70.012  1.00  0.00    -0.140 A  
HETATM   29  C   UNL     1      -8.902   8.999  71.145  1.00  0.00    -0.215 A  
HETATM   30  C   UNL     1     -10.285   9.215  71.121  1.00  0.00    -0.314 A  
HETATM   31 CL   UNL     1      -7.990   8.348  72.467  1.00  0.00    -0.189 Cl 
HETATM   32  C   UNL     1     -10.870   9.618  69.910  1.00  0.00    -0.287 A  
HETATM   33  C   UNL     1     -10.086   9.876  68.775  1.00  0.00    -0.186 A  
BRANCH  30  34
HETATM   34  O   UNL     1     -11.192   9.076  72.143  1.00  0.00    -0.351 OA 
BRANCH  34  35
HETATM   35  C   UNL     1     -12.050   7.941  72.067  1.00  0.00    -0.320 C  
BRANCH  35  36
HETATM   36  C   UNL     1     -11.268   6.654  72.059  1.00  0.00    -0.301 A  
HETATM   37  C   UNL     1     -11.003   5.988  70.859  1.00  0.00    -0.355 A  
HETATM   38  C   UNL     1     -10.384   4.744  70.888  1.00  0.00    -0.117 A  
HETATM   39  C   UNL     1     -10.023   4.149  72.092  1.00  0.00    -0.243 A  
HETATM   40  F   UNL     1     -10.151   4.099  69.738  1.00  0.00    -0.288 F  
HETATM   41  C   UNL     1     -10.279   4.807  73.289  1.00  0.00    -0.213 A  
HETATM   42  C   UNL     1     -10.900   6.053  73.277  1.00  0.00    -0.277 A  
ENDBRANCH  35  36
ENDBRANCH  34  35
ENDBRANCH  30  34
ENDBRANCH  25  27
ENDBRANCH  24  25
ENDBRANCH  13  15
ENDBRANCH   9  10
ENDBRANCH   7   9
ENDBRANCH   6   7
ENDBRANCH   5   6
ENDBRANCH   2   5
TORSDOF 11
ENDMDL
MODEL       78
REMARK 921   NORMALIZED FREE ENERGY PREDICTED BY IDOCK:   -5.84 KCAL/MOL
REMARK 922        TOTAL FREE ENERGY PREDICTED BY IDOCK:  -12.34 KCAL/MOL
REMARK 923 INTER-LIGAND FREE ENERGY PREDICTED BY IDOCK:  -10.43 KCAL/MOL
REMARK 924 INTRA-LIGAND FREE ENERGY PREDICTED BY IDOCK:   -1.92 KCAL/MOL
REMARK 927      BINDING AFFINITY PREDICTED BY RF-SCORE:    0.00 PKD
ROOT
HETATM    1  C   UNL     1      -8.654  16.250  68.614  1.00  0.00    -0.222 C  
HETATM    2  S   UNL     1      -9.853  17.548  68.770  1.00  0.00    -0.310 S  
HETATM    3  O   UNL     1      -9.141  18.810  68.798  1.00  0.00    -0.337 OA 
HETATM    4  O   UNL     1     -10.770  17.176  69.828  1.00  0.00    -0.181 OA 
ENDROOT
BRANCH   2   5
HETATM    5  C   UNL     1     -10.722  17.435  67.222  1.00  0.00    -0.219 C  
BRANCH   5   6
HETATM    6  C   UNL     1      -9.986  16.538  66.236  1.00  0.00    -0.329 C  
BRANCH   6   7
HETATM    7  N   UNL     1     -10.444  16.697  64.852  1.00  0.00    -0.575 NA 
HETATM    8  H   UNL     1      -9.769  16.298  64.200  1.00  0.00     0.000 HD 
BRANCH   7   9
HETATM    9  C   UNL     1     -11.780  16.148  64.615  1.00  0.00    -0.010 C  
BRANCH   9  10
HETATM   10  C   UNL     1     -11.797  14.687  64.887  1.00  0.00    -0.403 A  
HETATM   11  C   UNL     1     -12.683  13.857  65.538  1.00  0.00    -0.536 A  
HETATM   12  C   UNL     1     -12.136  12.554  65.461  1.00  0.00    -0.481 A  
HETATM   13  C   UNL     1     -10.959  12.657  64.747  1.00  0.00    -0.302 A  
HETATM   14  O   UNL     1     -10.758  13.961  64.392  1.00  0.00    -0.394 OA 
BRANCH  13  15
HETATM   15  C   UNL     1      -9.934  11.716  64.315  1.00  0.00    -0.303 A  
HETATM   16  C   UNL     1      -9.141  11.029  65.244  1.00  0.00    -0.207 A  
HETATM   17  C   UNL     1      -8.134  10.118  64.826  1.00  0.00    -0.153 A  
HETATM   18  C   UNL     1      -7.930   9.902  63.454  1.00  0.00    -0.153 A  
HETATM   19  C   UNL     1      -8.715  10.583  62.546  1.00  0.00    -0.270 A  
HETATM   20  N   UNL     1      -7.001   9.081  62.964  1.00  0.00    -0.090 NA 
HETATM   21  C   UNL     1      -6.230   8.466  63.856  1.00  0.00    -0.072 A  
HETATM   22  C   UNL     1      -9.704  11.477  62.959  1.00  0.00    -0.382 A  
HETATM   23  N   UNL     1      -6.318   8.597  65.178  1.00  0.00    -0.060 NA 
HETATM   24  C   UNL     1      -7.266   9.404  65.677  1.00  0.00    -0.091 A  
BRANCH  24  25
HETATM   25  N   UNL     1      -7.340   9.613  67.085  1.00  0.00    -0.087 NA 
HETATM   26  H   UNL     1      -6.845  10.431  67.438  1.00  0.00     0.000 HD 
BRANCH  25  27
HETATM   27  C   UNL     1      -8.009   8.832  68.057  1.00  0.00    -0.106 A  
HETATM   28  C   UNL     1      -9.117   8.038  67.767  1.00  0.00    -0.136 A  
HETATM   29  C   UNL     1      -9.709   7.197  68.712  1.00  0.00    -0.145 A  
HETATM   30  C   UNL     1      -9.167   7.107  70.000  1.00  0.00    -0.144 A  
HETATM   31 CL   UNL     1     -11.126   6.381  68.138  1.00  0.00    -0.387 Cl 
HETATM   32  C   UNL     1      -8.095   7.952  70.325  1.00  0.00    -0.115 A  
HETATM   33  C   UNL     1      -7.526   8.807  69.368  1.00  0.00    -0.080 A  
BRANCH  30  34
HETATM   34  O   UNL     1      -9.551   6.291  71.035  1.00  0.00    -0.173 OA 
BRANCH  34  35
HETATM   35  C   UNL     1     -10.048   6.948  72.197  1.00  0.00    -0.181 C  
BRANCH  35  36
HETATM   36  C   UNL     1     -11.440   7.481  71.981  1.00  0.00    -0.319 A  
HETATM   37  C   UNL     1     -11.756   8.802  72.310  1.00  0.00    -0.398 A  
HETATM   38  C   UNL     1     -13.073   9.236  72.213  1.00  0.00    -0.441 A  
HETATM   39  C   UNL     1     -14.083   8.377  71.792  1.00  0.00    -0.509 A  
HETATM   40  F   UNL     1     -13.376  10.496  72.549  1.00  0.00    -0.445 F  
HETATM   41  C   UNL     1     -13.776   7.063  71.459  1.00  0.00    -0.355 A  
HETATM   42  C   UNL     1     -12.461   6.613  71.553  1.00  0.00    -0.326 A  
ENDBRANCH  35  36
ENDBRANCH  34  35
ENDBRANCH  30  34
ENDBRANCH  25  27
ENDBRANCH  24  25
ENDBRANCH  13  15
ENDBRANCH   9  10
ENDBRANCH   7   9
ENDBRANCH   6   7
ENDBRANCH   5   6
ENDBRANCH   2   5
TORSDOF 11
ENDMDL
MODEL       79
REMARK 921   NORMALIZED FREE ENERGY PREDICTED BY IDOCK:   -5.84 KCAL/MOL
REMARK 922        TOTAL FREE ENERGY PREDICTED BY IDOCK:  -12.34 KCAL/MOL
REMARK 923 INTER-LIGAND FREE ENERGY PREDICTED BY IDOCK:   -9.84 KCAL/MOL
REMARK 924 INTRA-LIGAND FREE ENERGY PREDICTED BY IDOCK:   -2.50 KCAL/MOL
REMARK 927      BINDING AFFINITY PREDICTED BY RF-SCORE:    0.00 PKD
ROOT
HETATM    1  C   UNL     1      -9.077  20.067  66.181  1.00  0.00    -0.277 C  
HETATM    2  S   UNL     1     -10.161  18.778  66.740  1.00  0.00    -0.420 S  
HETATM    3  O   UNL     1     -10.370  17.863  65.636  1.00  0.00    -0.605 OA 
HETATM    4  O   UNL     1     -11.276  19.405  67.421  1.00  0.00    -0.348 OA 
ENDROOT
BRANCH   2   5
HETATM    5  C   UNL     1      -9.160  17.957  67.960  1.00  0.00    -0.267 C  
BRANCH   5   6
HETATM    6  C   UNL     1      -9.961  16.915  68.726  1.00  0.00    -0.276 C  
BRANCH   6   7
HETATM    7  N   UNL     1     -11.012  16.282  67.921  1.00  0.00    -0.333 NA 
HETATM    8  H   UNL     1     -10.605  15.680  67.204  1.00  0.00     0.000 HD 
BRANCH   7   9
HETATM    9  C   UNL     1     -11.993  15.547  68.720  1.00  0.00    -0.243 C  
BRANCH   9  10
HETATM   10  C   UNL     1     -11.909  14.091  68.433  1.00  0.00    -0.362 A  
HETATM   11  C   UNL     1     -11.841  13.359  67.268  1.00  0.00    -0.422 A  
HETATM   12  C   UNL     1     -11.779  12.000  67.655  1.00  0.00    -0.365 A  
HETATM   13  C   UNL     1     -11.789  11.977  69.035  1.00  0.00    -0.315 A  
HETATM   14  O   UNL     1     -11.862  13.258  69.507  1.00  0.00    -0.299 OA 
BRANCH  13  15
HETATM   15  C   UNL     1     -11.742  10.929  70.046  1.00  0.00    -0.427 A  
HETATM   16  C   UNL     1     -10.524  10.363  70.448  1.00  0.00    -0.018 A  
HETATM   17  C   UNL     1     -10.476   9.334  71.427  1.00  0.00    -0.408 A  
HETATM   18  C   UNL     1     -11.671   8.875  72.002  1.00  0.00    -0.367 A  
HETATM   19  C   UNL     1     -12.866   9.438  71.600  1.00  0.00    -0.461 A  
HETATM   20  N   UNL     1     -11.729   7.905  72.913  1.00  0.00    -0.294 NA 
HETATM   21  C   UNL     1     -10.570   7.350  73.256  1.00  0.00    -0.392 A  
HETATM   22  C   UNL     1     -12.911  10.450  70.639  1.00  0.00    -0.393 A  
HETATM   23  N   UNL     1      -9.376   7.689  72.776  1.00  0.00    -0.164 NA 
HETATM   24  C   UNL     1      -9.310   8.680  71.875  1.00  0.00    -0.287 A  
BRANCH  24  25
HETATM   25  N   UNL     1      -8.052   9.018  71.296  1.00  0.00    -0.286 NA 
HETATM   26  H   UNL     1      -7.528   9.752  71.771  1.00  0.00     0.000 HD 
BRANCH  25  27
HETATM   27  C   UNL     1      -7.435   8.467  70.148  1.00  0.00    -0.060 A  
HETATM   28  C   UNL     1      -7.274   7.097  69.951  1.00  0.00    -0.079 A  
HETATM   29  C   UNL     1      -6.753   6.562  68.770  1.00  0.00    -0.057 A  
HETATM   30  C   UNL     1      -6.400   7.413  67.717  1.00  0.00    -0.048 A  
HETATM   31 CL   UNL     1      -6.567   4.839  68.801  1.00  0.00    -0.044 Cl 
HETATM   32  C   UNL     1      -6.493   8.798  67.927  1.00  0.00    -0.057 A  
HETATM   33  C   UNL     1      -6.999   9.318  69.128  1.00  0.00    -0.058 A  
BRANCH  30  34
HETATM   34  O   UNL     1      -5.950   7.082  66.463  1.00  0.00    -0.032 OA 
BRANCH  34  35
HETATM   35  C   UNL     1      -6.885   7.244  65.400  1.00  0.00    -0.052 C  
BRANCH  35  36
HETATM   36  C   UNL     1      -8.086   6.354  65.578  1.00  0.00    -0.130 A  
HETATM   37  C   UNL     1      -9.285   6.867  66.081  1.00  0.00    -0.118 A  
HETATM   38  C   UNL     1     -10.342   6.004  66.348  1.00  0.00    -0.072 A  
HETATM   39  C   UNL     1     -10.227   4.637  66.123  1.00  0.00    -0.308 A  
HETATM   40  F   UNL     1     -11.481   6.496  66.850  1.00  0.00    -0.456 F  
HETATM   41  C   UNL     1      -9.040   4.119  65.619  1.00  0.00    -0.137 A  
HETATM   42  C   UNL     1      -7.971   4.971  65.347  1.00  0.00    -0.108 A  
ENDBRANCH  35  36
ENDBRANCH  34  35
ENDBRANCH  30  34
ENDBRANCH  25  27
ENDBRANCH  24  25
ENDBRANCH  13  15
ENDBRANCH   9  10
ENDBRANCH   7   9
ENDBRANCH   6   7
ENDBRANCH   5   6
ENDBRANCH   2   5
TORSDOF 11
ENDMDL
MODEL       80
REMARK 921   NORMALIZED FREE ENERGY PREDICTED BY IDOCK:   -5.82 KCAL/MOL
REMARK 922        TOTAL FREE ENERGY PREDICTED BY IDOCK:  -12.31 KCAL/MOL
REMARK 923 INTER-LIGAND FREE ENERGY PREDICTED BY IDOCK:   -9.70 KCAL/MOL
REMARK 924 INTRA-LIGAND FREE ENERGY PREDICTED BY IDOCK:   -2.61 KCAL/MOL
REMARK 927      BINDING AFFINITY PREDICTED BY RF-SCORE:    0.00 PKD
ROOT
HETATM    1  C   UNL     1     -12.398  15.574  74.226  1.00  0.00    -0.671 C  
HETATM    2  S   UNL     1     -13.079  15.110  72.655  1.00  0.00    -0.470 S  
HETATM    3  O   UNL     1     -14.379  15.739  72.531  1.00  0.00    -0.528 OA 
HETATM    4  O   UNL     1     -12.919  13.677  72.511  1.00  0.00    -0.364 OA 
ENDROOT
BRANCH   2   5
HETATM    5  C   UNL     1     -11.965  15.907  71.521  1.00  0.00    -0.471 C  
BRANCH   5   6
HETATM    6  C   UNL     1     -12.243  15.491  70.084  1.00  0.00    -0.376 C  
BRANCH   6   7
HETATM    7  N   UNL     1     -11.771  14.139  69.768  1.00  0.00    -0.293 NA 
HETATM    8  H   UNL     1     -12.202  13.451  70.387  1.00  0.00     0.000 HD 
BRANCH   7   9
HETATM    9  C   UNL     1     -11.965  13.767  68.366  1.00  0.00    -0.360 C  
BRANCH   9  10
HETATM   10  C   UNL     1     -11.569  12.352  68.145  1.00  0.00    -0.341 A  
HETATM   11  C   UNL     1     -11.229  11.630  67.022  1.00  0.00    -0.376 A  
HETATM   12  C   UNL     1     -10.948  10.315  67.464  1.00  0.00    -0.344 A  
HETATM   13  C   UNL     1     -11.110  10.313  68.836  1.00  0.00    -0.231 A  
HETATM   14  O   UNL     1     -11.482  11.562  69.248  1.00  0.00    -0.252 OA 
BRANCH  13  15
HETATM   15  C   UNL     1     -10.975   9.311  69.884  1.00  0.00    -0.231 A  
HETATM   16  C   UNL     1     -10.741   7.964  69.576  1.00  0.00    -0.195 A  
HETATM   17  C   UNL     1     -10.618   6.982  70.596  1.00  0.00    -0.246 A  
HETATM   18  C   UNL     1     -10.735   7.369  71.940  1.00  0.00    -0.216 A  
HETATM   19  C   UNL     1     -10.966   8.698  72.235  1.00  0.00    -0.392 A  
HETATM   20  N   UNL     1     -10.652   6.522  72.964  1.00  0.00    -0.235 NA 
HETATM   21  C   UNL     1     -10.469   5.241  72.654  1.00  0.00    -0.218 A  
HETATM   22  C   UNL     1     -11.085   9.661  71.231  1.00  0.00    -0.426 A  
HETATM   23  N   UNL     1     -10.355   4.750  71.423  1.00  0.00    -0.164 NA 
HETATM   24  C   UNL     1     -10.415   5.603  70.389  1.00  0.00    -0.285 A  
BRANCH  24  25
HETATM   25  N   UNL     1     -10.362   5.096  69.058  1.00  0.00    -0.177 NA 
HETATM   26  H   UNL     1     -11.085   4.420  68.812  1.00  0.00     0.000 HD 
BRANCH  25  27
HETATM   27  C   UNL     1      -9.438   5.407  68.033  1.00  0.00    -0.118 A  
HETATM   28  C   UNL     1      -8.076   5.594  68.265  1.00  0.00    -0.103 A  
HETATM   29  C   UNL     1      -7.158   5.804  67.233  1.00  0.00    -0.074 A  
HETATM   30  C   UNL     1      -7.593   5.798  65.903  1.00  0.00    -0.086 A  
HETATM   31 CL   UNL     1      -5.541   6.099  67.780  1.00  0.00    -0.008 Cl 
HETATM   32  C   UNL     1      -8.970   5.680  65.659  1.00  0.00    -0.139 A  
HETATM   33  C   UNL     1      -9.881   5.492  66.710  1.00  0.00    -0.186 A  
BRANCH  30  34
HETATM   34  O   UNL     1      -6.845   5.907  64.757  1.00  0.00    -0.045 OA 
BRANCH  34  35
HETATM   35  C   UNL     1      -6.101   7.112  64.608  1.00  0.00    -0.037 C  
BRANCH  35  36
HETATM   36  C   UNL     1      -7.005   8.306  64.443  1.00  0.00    -0.073 A  
HETATM   37  C   UNL     1      -7.013   9.330  65.394  1.00  0.00    -0.085 A  
HETATM   38  C   UNL     1      -7.939  10.361  65.283  1.00  0.00    -0.143 A  
HETATM   39  C   UNL     1      -8.858  10.392  64.240  1.00  0.00    -0.224 A  
HETATM   40  F   UNL     1      -7.957  11.330  66.207  1.00  0.00    -0.158 F  
HETATM   41  C   UNL     1      -8.854   9.378  63.289  1.00  0.00    -0.202 A  
HETATM   42  C   UNL     1      -7.934   8.338  63.387  1.00  0.00    -0.155 A  
ENDBRANCH  35  36
ENDBRANCH  34  35
ENDBRANCH  30  34
ENDBRANCH  25  27
ENDBRANCH  24  25
ENDBRANCH  13  15
ENDBRANCH   9  10
ENDBRANCH   7   9
ENDBRANCH   6   7
ENDBRANCH   5   6
ENDBRANCH   2   5
TORSDOF 11
ENDMDL
MODEL       81
REMARK 921   NORMALIZED FREE ENERGY PREDICTED BY IDOCK:   -5.81 KCAL/MOL
REMARK 922        TOTAL FREE ENERGY PREDICTED BY IDOCK:  -12.29 KCAL/MOL
REMARK 923 INTER-LIGAND FREE ENERGY PREDICTED BY IDOCK:   -9.74 KCAL/MOL
REMARK 924 INTRA-LIGAND FREE ENERGY PREDICTED BY IDOCK:   -2.55 KCAL/MOL
REMARK 927      BINDING AFFINITY PREDICTED BY RF-SCORE:    0.00 PKD
ROOT
HETATM    1  C   UNL     1      -6.515  10.527  70.080  1.00  0.00    -0.144 C  
HETATM    2  S   UNL     1      -6.913   8.950  70.789  1.00  0.00    -0.084 S  
HETATM    3  O   UNL     1      -8.114   9.110  71.583  1.00  0.00    -0.346 OA 
HETATM    4  O   UNL     1      -5.698   8.405  71.360  1.00  0.00    -0.034 OA 
ENDROOT
BRANCH   2   5
HETATM    5  C   UNL     1      -7.323   7.992  69.347  1.00  0.00    -0.080 C  
BRANCH   5   6
HETATM    6  C   UNL     1      -7.533   6.526  69.697  1.00  0.00    -0.093 C  
BRANCH   6   7
HETATM    7  N   UNL     1      -8.946   6.132  69.729  1.00  0.00    -0.138 NA 
HETATM    8  H   UNL     1      -9.254   5.968  70.688  1.00  0.00     0.000 HD 
BRANCH   7   9
HETATM    9  C   UNL     1      -9.831   7.083  69.055  1.00  0.00    -0.154 C  
BRANCH   9  10
HETATM   10  C   UNL     1     -10.848   7.606  70.004  1.00  0.00    -0.243 A  
HETATM   11  C   UNL     1     -11.651   7.010  70.952  1.00  0.00    -0.370 A  
HETATM   12  C   UNL     1     -12.414   8.048  71.536  1.00  0.00    -0.334 A  
HETATM   13  C   UNL     1     -12.019   9.224  70.929  1.00  0.00    -0.257 A  
HETATM   14  O   UNL     1     -11.057   8.950  69.997  1.00  0.00    -0.237 OA 
BRANCH  13  15
HETATM   15  C   UNL     1     -12.393  10.625  71.062  1.00  0.00    -0.507 A  
HETATM   16  C   UNL     1     -11.756  11.622  70.311  1.00  0.00    -0.355 A  
HETATM   17  C   UNL     1     -12.112  12.991  70.445  1.00  0.00    -0.391 A  
HETATM   18  C   UNL     1     -13.122  13.352  71.351  1.00  0.00    -0.291 A  
HETATM   19  C   UNL     1     -13.744  12.365  72.088  1.00  0.00    -0.271 A  
HETATM   20  N   UNL     1     -13.513  14.608  71.559  1.00  0.00    -0.366 NA 
HETATM   21  C   UNL     1     -12.873  15.547  70.868  1.00  0.00    -0.477 A  
HETATM   22  C   UNL     1     -13.393  11.020  71.952  1.00  0.00    -0.423 A  
HETATM   23  N   UNL     1     -11.895  15.332  69.992  1.00  0.00    -0.310 NA 
HETATM   24  C   UNL     1     -11.512  14.067  69.761  1.00  0.00    -0.230 A  
BRANCH  24  25
HETATM   25  N   UNL     1     -10.423  13.814  68.877  1.00  0.00    -0.362 NA 
HETATM   26  H   UNL     1      -9.578  14.358  69.049  1.00  0.00     0.000 HD 
BRANCH  25  27
HETATM   27  C   UNL     1     -10.361  12.908  67.793  1.00  0.00    -0.222 A  
HETATM   28  C   UNL     1     -11.267  12.921  66.734  1.00  0.00    -0.337 A  
HETATM   29  C   UNL     1     -11.138  12.085  65.622  1.00  0.00    -0.313 A  
HETATM   30  C   UNL     1     -10.047  11.214  65.529  1.00  0.00    -0.257 A  
HETATM   31 CL   UNL     1     -12.437  12.224  64.484  1.00  0.00    -0.502 Cl 
HETATM   32  C   UNL     1      -9.165  11.141  66.619  1.00  0.00    -0.188 A  
HETATM   33  C   UNL     1      -9.323  11.973  67.738  1.00  0.00    -0.190 A  
BRANCH  30  34
HETATM   34  O   UNL     1      -9.703  10.379  64.495  1.00  0.00    -0.281 OA 
BRANCH  34  35
HETATM   35  C   UNL     1      -8.377   9.860  64.525  1.00  0.00    -0.166 C  
BRANCH  35  36
HETATM   36  C   UNL     1      -8.366   8.358  64.414  1.00  0.00    -0.106 A  
HETATM   37  C   UNL     1      -8.464   7.558  65.556  1.00  0.00    -0.129 A  
HETATM   38  C   UNL     1      -8.333   6.179  65.440  1.00  0.00    -0.150 A  
HETATM   39  C   UNL     1      -8.106   5.580  64.205  1.00  0.00    -0.124 A  
HETATM   40  F   UNL     1      -8.407   5.417  66.538  1.00  0.00    -0.107 F  
HETATM   41  C   UNL     1      -8.011   6.369  63.065  1.00  0.00    -0.088 A  
HETATM   42  C   UNL     1      -8.138   7.752  63.165  1.00  0.00    -0.078 A  
ENDBRANCH  35  36
ENDBRANCH  34  35
ENDBRANCH  30  34
ENDBRANCH  25  27
ENDBRANCH  24  25
ENDBRANCH  13  15
ENDBRANCH   9  10
ENDBRANCH   7   9
ENDBRANCH   6   7
ENDBRANCH   5   6
ENDBRANCH   2   5
TORSDOF 11
ENDMDL
MODEL       82
REMARK 921   NORMALIZED FREE ENERGY PREDICTED BY IDOCK:   -5.81 KCAL/MOL
REMARK 922        TOTAL FREE ENERGY PREDICTED BY IDOCK:  -12.29 KCAL/MOL
REMARK 923 INTER-LIGAND FREE ENERGY PREDICTED BY IDOCK:   -9.58 KCAL/MOL
REMARK 924 INTRA-LIGAND FREE ENERGY PREDICTED BY IDOCK:   -2.71 KCAL/MOL
REMARK 927      BINDING AFFINITY PREDICTED BY RF-SCORE:    0.00 PKD
ROOT
HETATM    1  C   UNL     1     -11.679  10.715  70.737  1.00  0.00    -0.335 C  
HETATM    2  S   UNL     1     -10.890   9.155  71.036  1.00  0.00    -0.322 S  
HETATM    3  O   UNL     1      -9.569   9.420  71.570  1.00  0.00    -0.250 OA 
HETATM    4  O   UNL     1     -11.075   8.333  69.858  1.00  0.00    -0.210 OA 
ENDROOT
BRANCH   2   5
HETATM    5  C   UNL     1     -11.890   8.480  72.343  1.00  0.00    -0.367 C  
BRANCH   5   6
HETATM    6  C   UNL     1     -11.279   7.206  72.910  1.00  0.00    -0.262 C  
BRANCH   6   7
HETATM    7  N   UNL     1     -11.434   6.044  72.028  1.00  0.00    -0.297 NA 
HETATM    8  H   UNL     1     -11.673   6.338  71.081  1.00  0.00     0.000 HD 
BRANCH   7   9
HETATM    9  C   UNL     1     -10.268   5.161  72.019  1.00  0.00    -0.202 C  
BRANCH   9  10
HETATM   10  C   UNL     1      -9.212   5.706  71.127  1.00  0.00    -0.149 A  
HETATM   11  C   UNL     1      -8.049   6.408  71.358  1.00  0.00    -0.113 A  
HETATM   12  C   UNL     1      -7.467   6.642  70.089  1.00  0.00    -0.094 A  
HETATM   13  C   UNL     1      -8.295   6.050  69.155  1.00  0.00    -0.114 A  
HETATM   14  O   UNL     1      -9.357   5.473  69.794  1.00  0.00    -0.135 OA 
BRANCH  13  15
HETATM   15  C   UNL     1      -8.279   5.918  67.705  1.00  0.00    -0.105 A  
HETATM   16  C   UNL     1      -8.117   7.037  66.876  1.00  0.00    -0.116 A  
HETATM   17  C   UNL     1      -8.110   6.913  65.460  1.00  0.00    -0.132 A  
HETATM   18  C   UNL     1      -8.268   5.645  64.880  1.00  0.00    -0.134 A  
HETATM   19  C   UNL     1      -8.427   4.548  65.704  1.00  0.00    -0.116 A  
HETATM   20  N   UNL     1      -8.292   5.429  63.566  1.00  0.00    -0.119 NA 
HETATM   21  C   UNL     1      -8.177   6.505  62.792  1.00  0.00    -0.008 A  
HETATM   22  C   UNL     1      -8.433   4.672  67.095  1.00  0.00    -0.105 A  
HETATM   23  N   UNL     1      -8.033   7.756  63.220  1.00  0.00    -0.134 NA 
HETATM   24  C   UNL     1      -7.986   7.976  64.543  1.00  0.00    -0.151 A  
BRANCH  24  25
HETATM   25  N   UNL     1      -7.900   9.313  65.029  1.00  0.00    -0.108 NA 
HETATM   26  H   UNL     1      -6.957   9.663  65.197  1.00  0.00     0.000 HD 
BRANCH  25  27
HETATM   27  C   UNL     1      -8.950  10.218  65.308  1.00  0.00    -0.186 A  
HETATM   28  C   UNL     1      -9.728  10.813  64.316  1.00  0.00    -0.357 A  
HETATM   29  C   UNL     1     -10.825  11.628  64.607  1.00  0.00    -0.314 A  
HETATM   30  C   UNL     1     -11.196  11.846  65.939  1.00  0.00    -0.322 A  
HETATM   31 CL   UNL     1     -11.576  12.322  63.208  1.00  0.00    -0.483 Cl 
HETATM   32  C   UNL     1     -10.382  11.310  66.948  1.00  0.00    -0.272 A  
HETATM   33  C   UNL     1      -9.270  10.510  66.637  1.00  0.00    -0.177 A  
BRANCH  30  34
HETATM   34  O   UNL     1     -12.276  12.542  66.424  1.00  0.00    -0.584 OA 
BRANCH  34  35
HETATM   35  C   UNL     1     -12.159  13.962  66.414  1.00  0.00    -0.455 C  
BRANCH  35  36
HETATM   36  C   UNL     1     -11.596  14.482  67.710  1.00  0.00    -0.390 A  
HETATM   37  C   UNL     1     -12.019  13.954  68.933  1.00  0.00    -0.393 A  
HETATM   38  C   UNL     1     -11.575  14.529  70.118  1.00  0.00    -0.276 A  
HETATM   39  C   UNL     1     -10.716  15.622  70.109  1.00  0.00    -0.355 A  
HETATM   40  F   UNL     1     -11.999  14.034  71.288  1.00  0.00    -0.386 F  
HETATM   41  C   UNL     1     -10.288  16.151  68.896  1.00  0.00    -0.250 A  
HETATM   42  C   UNL     1     -10.725  15.587  67.700  1.00  0.00    -0.302 A  
ENDBRANCH  35  36
ENDBRANCH  34  35
ENDBRANCH  30  34
ENDBRANCH  25  27
ENDBRANCH  24  25
ENDBRANCH  13  15
ENDBRANCH   9  10
ENDBRANCH   7   9
ENDBRANCH   6   7
ENDBRANCH   5   6
ENDBRANCH   2   5
TORSDOF 11
ENDMDL
MODEL       83
REMARK 921   NORMALIZED FREE ENERGY PREDICTED BY IDOCK:   -5.81 KCAL/MOL
REMARK 922        TOTAL FREE ENERGY PREDICTED BY IDOCK:  -12.29 KCAL/MOL
REMARK 923 INTER-LIGAND FREE ENERGY PREDICTED BY IDOCK:   -9.54 KCAL/MOL
REMARK 924 INTRA-LIGAND FREE ENERGY PREDICTED BY IDOCK:   -2.74 KCAL/MOL
REMARK 927      BINDING AFFINITY PREDICTED BY RF-SCORE:    0.00 PKD
ROOT
HETATM    1  C   UNL     1      -6.570  12.446  67.213  1.00  0.00    -0.136 C  
HETATM    2  S   UNL     1      -8.228  12.334  67.833  1.00  0.00    -0.173 S  
HETATM    3  O   UNL     1      -8.479  13.508  68.645  1.00  0.00    -0.124 OA 
HETATM    4  O   UNL     1      -8.411  10.999  68.364  1.00  0.00    -0.130 OA 
ENDROOT
BRANCH   2   5
HETATM    5  C   UNL     1      -9.189  12.473  66.343  1.00  0.00    -0.177 C  
BRANCH   5   6
HETATM    6  C   UNL     1      -8.818  11.391  65.340  1.00  0.00     0.022 C  
BRANCH   6   7
HETATM    7  N   UNL     1      -9.673  10.202  65.425  1.00  0.00    -0.270 NA 
HETATM    8  H   UNL     1     -10.625  10.418  65.126  1.00  0.00     0.000 HD 
BRANCH   7   9
HETATM    9  C   UNL     1      -9.147   9.053  64.686  1.00  0.00     0.028 C  
BRANCH   9  10
HETATM   10  C   UNL     1      -8.606   8.037  65.625  1.00  0.00    -0.145 A  
HETATM   11  C   UNL     1      -7.710   7.000  65.483  1.00  0.00    -0.105 A  
HETATM   12  C   UNL     1      -7.604   6.388  66.754  1.00  0.00    -0.098 A  
HETATM   13  C   UNL     1      -8.422   7.100  67.609  1.00  0.00    -0.120 A  
HETATM   14  O   UNL     1      -9.028   8.111  66.916  1.00  0.00    -0.131 OA 
BRANCH  13  15
HETATM   15  C   UNL     1      -8.762   7.005  69.022  1.00  0.00    -0.128 A  
HETATM   16  C   UNL     1      -9.928   7.593  69.529  1.00  0.00    -0.182 A  
HETATM   17  C   UNL     1     -10.258   7.511  70.909  1.00  0.00    -0.193 A  
HETATM   18  C   UNL     1      -9.397   6.828  71.782  1.00  0.00    -0.147 A  
HETATM   19  C   UNL     1      -8.249   6.252  71.274  1.00  0.00    -0.122 A  
HETATM   20  N   UNL     1      -9.611   6.711  73.092  1.00  0.00    -0.149 NA 
HETATM   21  C   UNL     1     -10.701   7.307  73.565  1.00  0.00    -0.321 A  
HETATM   22  C   UNL     1      -7.929   6.333  69.918  1.00  0.00    -0.115 A  
HETATM   23  N   UNL     1     -11.585   7.991  72.844  1.00  0.00    -0.337 NA 
HETATM   24  C   UNL     1     -11.387   8.093  71.521  1.00  0.00    -0.263 A  
BRANCH  24  25
HETATM   25  N   UNL     1     -12.283   8.875  70.736  1.00  0.00    -0.484 NA 
HETATM   26  H   UNL     1     -13.024   8.359  70.262  1.00  0.00     0.000 HD 
BRANCH  25  27
HETATM   27  C   UNL     1     -12.278  10.274  70.527  1.00  0.00    -0.301 A  
HETATM   28  C   UNL     1     -12.764  11.187  71.462  1.00  0.00    -0.499 A  
HETATM   29  C   UNL     1     -12.665  12.569  71.287  1.00  0.00    -0.252 A  
HETATM   30  C   UNL     1     -12.029  13.083  70.151  1.00  0.00    -0.303 A  
HETATM   31 CL   UNL     1     -13.422  13.493  72.543  1.00  0.00    -0.671 Cl 
HETATM   32  C   UNL     1     -11.598  12.178  69.169  1.00  0.00    -0.374 A  
HETATM   33  C   UNL     1     -11.725  10.792  69.352  1.00  0.00    -0.378 A  
BRANCH  30  34
HETATM   34  O   UNL     1     -11.764  14.393  69.836  1.00  0.00    -0.271 OA 
BRANCH  34  35
HETATM   35  C   UNL     1     -12.068  14.789  68.502  1.00  0.00    -0.175 C  
BRANCH  35  36
HETATM   36  C   UNL     1     -11.093  15.818  67.993  1.00  0.00    -0.337 A  
HETATM   37  C   UNL     1     -10.759  16.930  68.773  1.00  0.00    -0.333 A  
HETATM   38  C   UNL     1      -9.951  17.925  68.235  1.00  0.00    -0.360 A  
HETATM   39  C   UNL     1      -9.467  17.834  66.934  1.00  0.00    -0.271 A  
HETATM   40  F   UNL     1      -9.650  18.998  68.977  1.00  0.00    -0.382 F  
HETATM   41  C   UNL     1      -9.792  16.730  66.155  1.00  0.00    -0.330 A  
HETATM   42  C   UNL     1     -10.602  15.725  66.678  1.00  0.00    -0.307 A  
ENDBRANCH  35  36
ENDBRANCH  34  35
ENDBRANCH  30  34
ENDBRANCH  25  27
ENDBRANCH  24  25
ENDBRANCH  13  15
ENDBRANCH   9  10
ENDBRANCH   7   9
ENDBRANCH   6   7
ENDBRANCH   5   6
ENDBRANCH   2   5
TORSDOF 11
ENDMDL
MODEL       84
REMARK 921   NORMALIZED FREE ENERGY PREDICTED BY IDOCK:   -5.79 KCAL/MOL
REMARK 922        TOTAL FREE ENERGY PREDICTED BY IDOCK:  -12.26 KCAL/MOL
REMARK 923 INTER-LIGAND FREE ENERGY PREDICTED BY IDOCK:  -10.41 KCAL/MOL
REMARK 924 INTRA-LIGAND FREE ENERGY PREDICTED BY IDOCK:   -1.85 KCAL/MOL
REMARK 927      BINDING AFFINITY PREDICTED BY RF-SCORE:    0.00 PKD
ROOT
HETATM    1  C   UNL     1     -12.291  11.968  63.426  1.00  0.00    -0.523 C  
HETATM    2  S   UNL     1     -11.376  12.181  64.932  1.00  0.00    -0.316 S  
HETATM    3  O   UNL     1     -12.323  12.473  65.989  1.00  0.00    -0.615 OA 
HETATM    4  O   UNL     1     -10.264  13.065  64.650  1.00  0.00    -0.338 OA 
ENDROOT
BRANCH   2   5
HETATM    5  C   UNL     1     -10.728  10.547  65.203  1.00  0.00     0.073 C  
BRANCH   5   6
HETATM    6  C   UNL     1      -9.586  10.237  64.246  1.00  0.00    -0.313 C  
BRANCH   6   7
HETATM    7  N   UNL     1      -8.677   9.198  64.743  1.00  0.00    -0.221 NA 
HETATM    8  H   UNL     1      -8.874   8.301  64.297  1.00  0.00     0.000 HD 
BRANCH   7   9
HETATM    9  C   UNL     1      -7.263   9.546  64.603  1.00  0.00    -0.113 C  
BRANCH   9  10
HETATM   10  C   UNL     1      -6.872  10.548  65.628  1.00  0.00    -0.112 A  
HETATM   11  C   UNL     1      -5.676  10.859  66.239  1.00  0.00    -0.128 A  
HETATM   12  C   UNL     1      -5.952  11.920  67.134  1.00  0.00    -0.152 A  
HETATM   13  C   UNL     1      -7.294  12.214  67.004  1.00  0.00    -0.072 A  
HETATM   14  O   UNL     1      -7.852  11.378  66.077  1.00  0.00    -0.032 OA 
BRANCH  13  15
HETATM   15  C   UNL     1      -8.199  13.178  67.615  1.00  0.00    -0.175 A  
HETATM   16  C   UNL     1      -9.443  12.784  68.127  1.00  0.00    -0.219 A  
HETATM   17  C   UNL     1     -10.331  13.724  68.716  1.00  0.00    -0.198 A  
HETATM   18  C   UNL     1      -9.956  15.074  68.785  1.00  0.00    -0.228 A  
HETATM   19  C   UNL     1      -8.729  15.454  68.278  1.00  0.00    -0.164 A  
HETATM   20  N   UNL     1     -10.726  16.030  69.302  1.00  0.00    -0.252 NA 
HETATM   21  C   UNL     1     -11.919  15.648  69.748  1.00  0.00    -0.354 A  
HETATM   22  C   UNL     1      -7.858  14.529  67.701  1.00  0.00    -0.194 A  
HETATM   23  N   UNL     1     -12.392  14.404  69.728  1.00  0.00    -0.314 NA 
HETATM   24  C   UNL     1     -11.612  13.434  69.229  1.00  0.00    -0.310 A  
BRANCH  24  25
HETATM   25  N   UNL     1     -12.119  12.106  69.134  1.00  0.00    -0.229 NA 
HETATM   26  H   UNL     1     -12.677  11.902  68.305  1.00  0.00     0.000 HD 
BRANCH  25  27
HETATM   27  C   UNL     1     -11.950  11.032  70.040  1.00  0.00    -0.351 A  
HETATM   28  C   UNL     1     -12.994  10.495  70.792  1.00  0.00    -0.413 A  
HETATM   29  C   UNL     1     -12.835   9.373  71.608  1.00  0.00    -0.378 A  
HETATM   30  C   UNL     1     -11.595   8.725  71.666  1.00  0.00    -0.320 A  
HETATM   31 CL   UNL     1     -14.253   8.953  72.509  1.00  0.00    -0.485 Cl 
HETATM   32  C   UNL     1     -10.519   9.294  70.969  1.00  0.00    -0.384 A  
HETATM   33  C   UNL     1     -10.692  10.436  70.170  1.00  0.00    -0.292 A  
BRANCH  30  34
HETATM   34  O   UNL     1     -11.261   7.576  72.339  1.00  0.00    -0.268 OA 
BRANCH  34  35
HETATM   35  C   UNL     1     -11.823   6.369  71.832  1.00  0.00    -0.329 C  
BRANCH  35  36
HETATM   36  C   UNL     1     -10.990   5.793  70.718  1.00  0.00    -0.312 A  
HETATM   37  C   UNL     1     -11.305   6.059  69.382  1.00  0.00    -0.282 A  
HETATM   38  C   UNL     1     -10.595   5.422  68.371  1.00  0.00    -0.078 A  
HETATM   39  C   UNL     1      -9.574   4.524  68.665  1.00  0.00    -0.222 A  
HETATM   40  F   UNL     1     -10.913   5.662  67.093  1.00  0.00    -0.306 F  
HETATM   41  C   UNL     1      -9.252   4.258  69.991  1.00  0.00    -0.207 A  
HETATM   42  C   UNL     1      -9.955   4.887  71.016  1.00  0.00    -0.282 A  
ENDBRANCH  35  36
ENDBRANCH  34  35
ENDBRANCH  30  34
ENDBRANCH  25  27
ENDBRANCH  24  25
ENDBRANCH  13  15
ENDBRANCH   9  10
ENDBRANCH   7   9
ENDBRANCH   6   7
ENDBRANCH   5   6
ENDBRANCH   2   5
TORSDOF 11
ENDMDL
MODEL       85
REMARK 921   NORMALIZED FREE ENERGY PREDICTED BY IDOCK:   -5.79 KCAL/MOL
REMARK 922        TOTAL FREE ENERGY PREDICTED BY IDOCK:  -12.26 KCAL/MOL
REMARK 923 INTER-LIGAND FREE ENERGY PREDICTED BY IDOCK:  -11.37 KCAL/MOL
REMARK 924 INTRA-LIGAND FREE ENERGY PREDICTED BY IDOCK:   -0.88 KCAL/MOL
REMARK 927      BINDING AFFINITY PREDICTED BY RF-SCORE:    0.00 PKD
ROOT
HETATM    1  C   UNL     1      -7.337   8.643  71.283  1.00  0.00    -0.096 C  
HETATM    2  S   UNL     1      -7.899   7.611  72.612  1.00  0.00    -0.109 S  
HETATM    3  O   UNL     1      -8.759   8.410  73.462  1.00  0.00    -0.277 OA 
HETATM    4  O   UNL     1      -6.747   6.915  73.147  1.00  0.00    -0.069 OA 
ENDROOT
BRANCH   2   5
HETATM    5  C   UNL     1      -8.912   6.426  71.756  1.00  0.00    -0.139 C  
BRANCH   5   6
HETATM    6  C   UNL     1     -10.266   6.262  72.430  1.00  0.00    -0.187 C  
BRANCH   6   7
HETATM    7  N   UNL     1     -11.397   6.527  71.535  1.00  0.00    -0.277 NA 
HETATM    8  H   UNL     1     -12.080   5.770  71.581  1.00  0.00     0.000 HD 
BRANCH   7   9
HETATM    9  C   UNL     1     -12.040   7.820  71.776  1.00  0.00    -0.298 C  
BRANCH   9  10
HETATM   10  C   UNL     1     -11.543   8.834  70.811  1.00  0.00    -0.251 A  
HETATM   11  C   UNL     1     -11.582  10.211  70.782  1.00  0.00    -0.445 A  
HETATM   12  C   UNL     1     -10.931  10.602  69.588  1.00  0.00    -0.331 A  
HETATM   13  C   UNL     1     -10.510   9.444  68.965  1.00  0.00    -0.217 A  
HETATM   14  O   UNL     1     -10.879   8.366  69.719  1.00  0.00    -0.238 OA 
BRANCH  13  15
HETATM   15  C   UNL     1      -9.791   9.143  67.735  1.00  0.00    -0.214 A  
HETATM   16  C   UNL     1      -9.753  10.058  66.673  1.00  0.00    -0.246 A  
HETATM   17  C   UNL     1      -9.060   9.763  65.468  1.00  0.00    -0.242 A  
HETATM   18  C   UNL     1      -8.403   8.530  65.337  1.00  0.00    -0.156 A  
HETATM   19  C   UNL     1      -8.446   7.635  66.387  1.00  0.00    -0.137 A  
HETATM   20  N   UNL     1      -7.742   8.156  64.242  1.00  0.00    -0.120 NA 
HETATM   21  C   UNL     1      -7.747   9.018  63.229  1.00  0.00    -0.119 A  
HETATM   22  C   UNL     1      -9.125   7.927  67.571  1.00  0.00    -0.141 A  
HETATM   23  N   UNL     1      -8.342  10.208  63.227  1.00  0.00    -0.160 NA 
HETATM   24  C   UNL     1      -8.989  10.599  64.335  1.00  0.00    -0.195 A  
BRANCH  24  25
HETATM   25  N   UNL     1      -9.690  11.840  64.337  1.00  0.00    -0.410 NA 
HETATM   26  H   UNL     1      -9.759  12.312  63.436  1.00  0.00     0.000 HD 
BRANCH  25  27
HETATM   27  C   UNL     1     -10.304  12.503  65.426  1.00  0.00    -0.282 A  
HETATM   28  C   UNL     1      -9.591  13.230  66.377  1.00  0.00    -0.260 A  
HETATM   29  C   UNL     1     -10.216  13.961  67.391  1.00  0.00    -0.252 A  
HETATM   30  C   UNL     1     -11.614  14.006  67.456  1.00  0.00    -0.367 A  
HETATM   31 CL   UNL     1      -9.115  14.706  68.501  1.00  0.00    -0.185 Cl 
HETATM   32  C   UNL     1     -12.343  13.223  66.547  1.00  0.00    -0.311 A  
HETATM   33  C   UNL     1     -11.697  12.477  65.548  1.00  0.00    -0.457 A  
BRANCH  30  34
HETATM   34  O   UNL     1     -12.408  14.722  68.317  1.00  0.00    -0.109 OA 
BRANCH  34  35
HETATM   35  C   UNL     1     -11.731  15.620  69.191  1.00  0.00    -0.390 C  
BRANCH  35  36
HETATM   36  C   UNL     1     -12.077  15.357  70.633  1.00  0.00    -0.412 A  
HETATM   37  C   UNL     1     -12.872  14.263  70.987  1.00  0.00    -0.427 A  
HETATM   38  C   UNL     1     -13.276  14.109  72.308  1.00  0.00    -0.447 A  
HETATM   39  C   UNL     1     -12.902  15.025  73.286  1.00  0.00    -0.647 A  
HETATM   40  F   UNL     1     -14.054  13.072  72.641  1.00  0.00    -0.617 F  
HETATM   41  C   UNL     1     -12.109  16.114  72.942  1.00  0.00    -0.643 A  
HETATM   42  C   UNL     1     -11.698  16.283  71.622  1.00  0.00    -0.490 A  
ENDBRANCH  35  36
ENDBRANCH  34  35
ENDBRANCH  30  34
ENDBRANCH  25  27
ENDBRANCH  24  25
ENDBRANCH  13  15
ENDBRANCH   9  10
ENDBRANCH   7   9
ENDBRANCH   6   7
ENDBRANCH   5   6
ENDBRANCH   2   5
TORSDOF 11
ENDMDL
MODEL       86
REMARK 921   NORMALIZED FREE ENERGY PREDICTED BY IDOCK:   -5.79 KCAL/MOL
REMARK 922        TOTAL FREE ENERGY PREDICTED BY IDOCK:  -12.25 KCAL/MOL
REMARK 923 INTER-LIGAND FREE ENERGY PREDICTED BY IDOCK:   -9.86 KCAL/MOL
REMARK 924 INTRA-LIGAND FREE ENERGY PREDICTED BY IDOCK:   -2.39 KCAL/MOL
REMARK 927      BINDING AFFINITY PREDICTED BY RF-SCORE:    0.00 PKD
ROOT
HETATM    1  C   UNL     1      -5.205  16.114  68.614  1.00  0.00    -0.101 C  
HETATM    2  S   UNL     1      -6.798  16.690  68.088  1.00  0.00    -0.149 S  
HETATM    3  O   UNL     1      -7.724  16.505  69.188  1.00  0.00    -0.240 OA 
HETATM    4  O   UNL     1      -7.061  16.126  66.779  1.00  0.00    -0.205 OA 
ENDROOT
BRANCH   2   5
HETATM    5  C   UNL     1      -6.513  18.434  67.890  1.00  0.00    -0.200 C  
BRANCH   5   6
HETATM    6  C   UNL     1      -7.680  19.112  67.187  1.00  0.00    -0.245 C  
BRANCH   6   7
HETATM    7  N   UNL     1      -8.903  19.151  67.997  1.00  0.00    -0.303 NA 
HETATM    8  H   UNL     1      -8.953  20.017  68.534  1.00  0.00     0.000 HD 
BRANCH   7   9
HETATM    9  C   UNL     1     -10.125  18.954  67.216  1.00  0.00    -0.357 C  
BRANCH   9  10
HETATM   10  C   UNL     1     -10.412  17.504  67.061  1.00  0.00    -0.293 A  
HETATM   11  C   UNL     1     -10.285  16.622  66.010  1.00  0.00    -0.366 A  
HETATM   12  C   UNL     1     -10.728  15.367  66.490  1.00  0.00    -0.308 A  
HETATM   13  C   UNL     1     -11.079  15.546  67.813  1.00  0.00    -0.315 A  
HETATM   14  O   UNL     1     -10.878  16.852  68.160  1.00  0.00    -0.362 OA 
BRANCH  13  15
HETATM   15  C   UNL     1     -11.593  14.680  68.866  1.00  0.00    -0.340 A  
HETATM   16  C   UNL     1     -11.673  13.292  68.690  1.00  0.00    -0.376 A  
HETATM   17  C   UNL     1     -12.183  12.446  69.711  1.00  0.00    -0.198 A  
HETATM   18  C   UNL     1     -12.617  13.012  70.920  1.00  0.00    -0.280 A  
HETATM   19  C   UNL     1     -12.536  14.380  71.084  1.00  0.00    -0.429 A  
HETATM   20  N   UNL     1     -13.125  12.305  71.928  1.00  0.00    -0.418 NA 
HETATM   21  C   UNL     1     -13.231  10.994  71.732  1.00  0.00    -0.400 A  
HETATM   22  C   UNL     1     -12.033  15.210  70.080  1.00  0.00    -0.374 A  
HETATM   23  N   UNL     1     -12.867  10.343  70.630  1.00  0.00    -0.350 NA 
HETATM   24  C   UNL     1     -12.334  11.047  69.621  1.00  0.00    -0.234 A  
BRANCH  24  25
HETATM   25  N   UNL     1     -11.996  10.385  68.405  1.00  0.00    -0.749 NA 
HETATM   26  H   UNL     1     -12.737  10.335  67.707  1.00  0.00     0.000 HD 
BRANCH  25  27
HETATM   27  C   UNL     1     -10.767   9.787  68.040  1.00  0.00    -0.247 A  
HETATM   28  C   UNL     1      -9.791   9.421  68.966  1.00  0.00    -0.171 A  
HETATM   29  C   UNL     1      -8.625   8.743  68.603  1.00  0.00    -0.134 A  
HETATM   30  C   UNL     1      -8.419   8.379  67.267  1.00  0.00    -0.124 A  
HETATM   31 CL   UNL     1      -7.527   8.479  69.917  1.00  0.00    -0.062 Cl 
HETATM   32  C   UNL     1      -9.359   8.801  66.315  1.00  0.00    -0.283 A  
HETATM   33  C   UNL     1     -10.515   9.501  66.695  1.00  0.00    -0.241 A  
BRANCH  30  34
HETATM   34  O   UNL     1      -7.388   7.650  66.728  1.00  0.00    -0.085 OA 
BRANCH  34  35
HETATM   35  C   UNL     1      -7.353   6.268  67.072  1.00  0.00    -0.083 C  
BRANCH  35  36
HETATM   36  C   UNL     1      -8.020   5.418  66.022  1.00  0.00    -0.105 A  
HETATM   37  C   UNL     1      -7.429   5.242  64.767  1.00  0.00    -0.069 A  
HETATM   38  C   UNL     1      -8.119   4.553  63.776  1.00  0.00    -0.098 A  
HETATM   39  C   UNL     1      -9.387   4.033  64.012  1.00  0.00    -0.155 A  
HETATM   40  F   UNL     1      -7.560   4.404  62.569  1.00  0.00    -0.050 F  
HETATM   41  C   UNL     1      -9.979   4.201  65.258  1.00  0.00    -0.216 A  
HETATM   42  C   UNL     1      -9.302   4.891  66.261  1.00  0.00    -0.149 A  
ENDBRANCH  35  36
ENDBRANCH  34  35
ENDBRANCH  30  34
ENDBRANCH  25  27
ENDBRANCH  24  25
ENDBRANCH  13  15
ENDBRANCH   9  10
ENDBRANCH   7   9
ENDBRANCH   6   7
ENDBRANCH   5   6
ENDBRANCH   2   5
TORSDOF 11
ENDMDL
MODEL       87
REMARK 921   NORMALIZED FREE ENERGY PREDICTED BY IDOCK:   -5.78 KCAL/MOL
REMARK 922        TOTAL FREE ENERGY PREDICTED BY IDOCK:  -12.24 KCAL/MOL
REMARK 923 INTER-LIGAND FREE ENERGY PREDICTED BY IDOCK:  -11.40 KCAL/MOL
REMARK 924 INTRA-LIGAND FREE ENERGY PREDICTED BY IDOCK:   -0.84 KCAL/MOL
REMARK 927      BINDING AFFINITY PREDICTED BY RF-SCORE:    0.00 PKD
ROOT
HETATM    1  C   UNL     1      -5.954  13.772  67.833  1.00  0.00    -0.142 C  
HETATM    2  S   UNL     1      -6.996  14.755  68.879  1.00  0.00    -0.119 S  
HETATM    3  O   UNL     1      -6.219  15.148  70.037  1.00  0.00    -0.140 OA 
HETATM    4  O   UNL     1      -8.260  14.061  69.019  1.00  0.00    -0.033 OA 
ENDROOT
BRANCH   2   5
HETATM    5  C   UNL     1      -7.267  16.199  67.876  1.00  0.00    -0.130 C  
BRANCH   5   6
HETATM    6  C   UNL     1      -7.878  15.834  66.531  1.00  0.00    -0.063 C  
BRANCH   6   7
HETATM    7  N   UNL     1      -9.225  15.263  66.638  1.00  0.00    -0.254 NA 
HETATM    8  H   UNL     1      -9.849  15.901  67.133  1.00  0.00     0.000 HD 
BRANCH   7   9
HETATM    9  C   UNL     1      -9.796  14.872  65.349  1.00  0.00    -0.268 C  
BRANCH   9  10
HETATM   10  C   UNL     1     -10.615  13.641  65.497  1.00  0.00    -0.296 A  
HETATM   11  C   UNL     1     -11.573  13.042  64.708  1.00  0.00    -0.368 A  
HETATM   12  C   UNL     1     -11.987  11.879  65.399  1.00  0.00    -0.054 A  
HETATM   13  C   UNL     1     -11.242  11.819  66.560  1.00  0.00    -0.321 A  
HETATM   14  O   UNL     1     -10.400  12.894  66.613  1.00  0.00    -0.246 OA 
BRANCH  13  15
HETATM   15  C   UNL     1     -11.168  10.898  67.687  1.00  0.00    -0.379 A  
HETATM   16  C   UNL     1     -11.854  11.155  68.882  1.00  0.00    -0.406 A  
HETATM   17  C   UNL     1     -11.777  10.264  69.985  1.00  0.00    -0.330 A  
HETATM   18  C   UNL     1     -10.997   9.102  69.877  1.00  0.00    -0.204 A  
HETATM   19  C   UNL     1     -10.323   8.856  68.697  1.00  0.00    -0.228 A  
HETATM   20  N   UNL     1     -10.849   8.216  70.861  1.00  0.00    -0.226 NA 
HETATM   21  C   UNL     1     -11.474   8.493  72.002  1.00  0.00    -0.361 A  
HETATM   22  C   UNL     1     -10.402   9.733  67.614  1.00  0.00    -0.281 A  
HETATM   23  N   UNL     1     -12.231   9.564  72.230  1.00  0.00    -0.209 NA 
HETATM   24  C   UNL     1     -12.402  10.448  71.236  1.00  0.00    -0.401 A  
BRANCH  24  25
HETATM   25  N   UNL     1     -13.153  11.635  71.474  1.00  0.00    -0.381 NA 
HETATM   26  H   UNL     1     -14.095  11.497  71.839  1.00  0.00     0.000 HD 
BRANCH  25  27
HETATM   27  C   UNL     1     -12.763  12.979  71.271  1.00  0.00    -0.293 A  
HETATM   28  C   UNL     1     -12.629  13.901  72.309  1.00  0.00    -0.223 A  
HETATM   29  C   UNL     1     -12.149  15.197  72.108  1.00  0.00    -0.393 A  
HETATM   30  C   UNL     1     -11.750  15.601  70.829  1.00  0.00    -0.375 A  
HETATM   31 CL   UNL     1     -12.161  16.179  73.536  1.00  0.00    -0.571 Cl 
HETATM   32  C   UNL     1     -11.943  14.708  69.764  1.00  0.00    -0.378 A  
HETATM   33  C   UNL     1     -12.448  13.416  69.981  1.00  0.00    -0.202 A  
BRANCH  30  34
HETATM   34  O   UNL     1     -11.185  16.792  70.445  1.00  0.00    -0.158 OA 
BRANCH  34  35
HETATM   35  C   UNL     1     -10.325  16.738  69.310  1.00  0.00    -0.309 C  
BRANCH  35  36
HETATM   36  C   UNL     1     -10.304  18.048  68.567  1.00  0.00    -0.359 A  
HETATM   37  C   UNL     1     -10.749  18.124  67.244  1.00  0.00    -0.336 A  
HETATM   38  C   UNL     1     -10.610  19.315  66.542  1.00  0.00    -0.446 A  
HETATM   39  C   UNL     1     -10.034  20.435  67.133  1.00  0.00    -0.568 A  
HETATM   40  F   UNL     1     -11.018  19.379  65.269  1.00  0.00    -0.532 F  
HETATM   41  C   UNL     1      -9.592  20.367  68.449  1.00  0.00    -0.069 A  
HETATM   42  C   UNL     1      -9.723  19.181  69.166  1.00  0.00    -0.352 A  
ENDBRANCH  35  36
ENDBRANCH  34  35
ENDBRANCH  30  34
ENDBRANCH  25  27
ENDBRANCH  24  25
ENDBRANCH  13  15
ENDBRANCH   9  10
ENDBRANCH   7   9
ENDBRANCH   6   7
ENDBRANCH   5   6
ENDBRANCH   2   5
TORSDOF 11
ENDMDL
MODEL       88
REMARK 921   NORMALIZED FREE ENERGY PREDICTED BY IDOCK:   -5.76 KCAL/MOL
REMARK 922        TOTAL FREE ENERGY PREDICTED BY IDOCK:  -12.21 KCAL/MOL
REMARK 923 INTER-LIGAND FREE ENERGY PREDICTED BY IDOCK:   -9.77 KCAL/MOL
REMARK 924 INTRA-LIGAND FREE ENERGY PREDICTED BY IDOCK:   -2.44 KCAL/MOL
REMARK 927      BINDING AFFINITY PREDICTED BY RF-SCORE:    0.00 PKD
ROOT
HETATM    1  C   UNL     1      -9.742   3.910  70.529  1.00  0.00    -0.177 C  
HETATM    2  S   UNL     1     -10.155   5.631  70.649  1.00  0.00    -0.225 S  
HETATM    3  O   UNL     1     -11.042   5.952  69.549  1.00  0.00    -0.381 OA 
HETATM    4  O   UNL     1      -8.925   6.365  70.865  1.00  0.00    -0.142 OA 
ENDROOT
BRANCH   2   5
HETATM    5  C   UNL     1     -11.099   5.679  72.156  1.00  0.00    -0.241 C  
BRANCH   5   6
HETATM    6  C   UNL     1     -12.293   6.615  72.034  1.00  0.00    -0.272 C  
BRANCH   6   7
HETATM    7  N   UNL     1     -12.124   7.871  72.773  1.00  0.00    -0.614 NA 
HETATM    8  H   UNL     1     -11.144   8.021  73.013  1.00  0.00     0.000 HD 
BRANCH   7   9
HETATM    9  C   UNL     1     -12.670   9.035  72.073  1.00  0.00    -0.398 C  
BRANCH   9  10
HETATM   10  C   UNL     1     -11.676   9.574  71.109  1.00  0.00    -0.363 A  
HETATM   11  C   UNL     1     -10.327   9.363  70.925  1.00  0.00    -0.380 A  
HETATM   12  C   UNL     1      -9.943  10.175  69.831  1.00  0.00    -0.250 A  
HETATM   13  C   UNL     1     -11.083  10.818  69.393  1.00  0.00    -0.268 A  
HETATM   14  O   UNL     1     -12.142  10.443  70.172  1.00  0.00    -0.275 OA 
BRANCH  13  15
HETATM   15  C   UNL     1     -11.383  11.767  68.329  1.00  0.00    -0.343 A  
HETATM   16  C   UNL     1     -11.262  11.407  66.980  1.00  0.00    -0.350 A  
HETATM   17  C   UNL     1     -11.544  12.333  65.940  1.00  0.00    -0.450 A  
HETATM   18  C   UNL     1     -11.950  13.635  66.270  1.00  0.00    -0.423 A  
HETATM   19  C   UNL     1     -12.066  13.982  67.602  1.00  0.00    -0.344 A  
HETATM   20  N   UNL     1     -12.221  14.578  65.368  1.00  0.00    -0.332 NA 
HETATM   21  C   UNL     1     -12.064  14.233  64.093  1.00  0.00    -0.393 A  
HETATM   22  C   UNL     1     -11.790  13.070  68.622  1.00  0.00    -0.353 A  
HETATM   23  N   UNL     1     -11.675  13.039  63.655  1.00  0.00    -0.486 NA 
HETATM   24  C   UNL     1     -11.423  12.079  64.558  1.00  0.00    -0.319 A  
BRANCH  24  25
HETATM   25  N   UNL     1     -10.941  10.812  64.120  1.00  0.00    -0.227 NA 
HETATM   26  H   UNL     1     -11.572  10.282  63.519  1.00  0.00     0.000 HD 
BRANCH  25  27
HETATM   27  C   UNL     1      -9.702  10.194  64.408  1.00  0.00    -0.277 A  
HETATM   28  C   UNL     1      -8.516  10.518  63.751  1.00  0.00    -0.127 A  
HETATM   29  C   UNL     1      -7.281   9.972  64.112  1.00  0.00    -0.132 A  
HETATM   30  C   UNL     1      -7.202   9.085  65.191  1.00  0.00    -0.088 A  
HETATM   31 CL   UNL     1      -5.971  10.461  63.089  1.00  0.00    -0.148 Cl 
HETATM   32  C   UNL     1      -8.397   8.696  65.817  1.00  0.00    -0.148 A  
HETATM   33  C   UNL     1      -9.631   9.240  65.427  1.00  0.00    -0.237 A  
BRANCH  30  34
HETATM   34  O   UNL     1      -6.086   8.507  65.745  1.00  0.00    -0.047 OA 
BRANCH  34  35
HETATM   35  C   UNL     1      -5.185   9.393  66.404  1.00  0.00    -0.043 C  
BRANCH  35  36
HETATM   36  C   UNL     1      -5.718   9.831  67.743  1.00  0.00    -0.040 A  
HETATM   37  C   UNL     1      -6.084  11.162  67.963  1.00  0.00    -0.049 A  
HETATM   38  C   UNL     1      -6.460  11.566  69.239  1.00  0.00    -0.103 A  
HETATM   39  C   UNL     1      -6.480  10.669  70.301  1.00  0.00    -0.138 A  
HETATM   40  F   UNL     1      -6.789  12.847  69.452  1.00  0.00    -0.107 F  
HETATM   41  C   UNL     1      -6.121   9.343  70.088  1.00  0.00    -0.042 A  
HETATM   42  C   UNL     1      -5.740   8.922  68.816  1.00  0.00    -0.041 A  
ENDBRANCH  35  36
ENDBRANCH  34  35
ENDBRANCH  30  34
ENDBRANCH  25  27
ENDBRANCH  24  25
ENDBRANCH  13  15
ENDBRANCH   9  10
ENDBRANCH   7   9
ENDBRANCH   6   7
ENDBRANCH   5   6
ENDBRANCH   2   5
TORSDOF 11
ENDMDL
MODEL       89
REMARK 921   NORMALIZED FREE ENERGY PREDICTED BY IDOCK:   -5.73 KCAL/MOL
REMARK 922        TOTAL FREE ENERGY PREDICTED BY IDOCK:  -12.17 KCAL/MOL
REMARK 923 INTER-LIGAND FREE ENERGY PREDICTED BY IDOCK:  -10.06 KCAL/MOL
REMARK 924 INTRA-LIGAND FREE ENERGY PREDICTED BY IDOCK:   -2.11 KCAL/MOL
REMARK 927      BINDING AFFINITY PREDICTED BY RF-SCORE:    0.00 PKD
ROOT
HETATM    1  C   UNL     1      -9.011   7.112  66.205  1.00  0.00    -0.155 C  
HETATM    2  S   UNL     1      -8.688   8.834  65.922  1.00  0.00    -0.180 S  
HETATM    3  O   UNL     1      -9.906   9.438  65.423  1.00  0.00    -0.270 OA 
HETATM    4  O   UNL     1      -7.442   8.933  65.191  1.00  0.00    -0.093 OA 
ENDROOT
BRANCH   2   5
HETATM    5  C   UNL     1      -8.408   9.432  67.574  1.00  0.00    -0.122 C  
BRANCH   5   6
HETATM    6  C   UNL     1      -7.598  10.720  67.568  1.00  0.00    -0.094 C  
BRANCH   6   7
HETATM    7  N   UNL     1      -6.158  10.501  67.397  1.00  0.00    -0.053 NA 
HETATM    8  H   UNL     1      -5.982   9.771  66.706  1.00  0.00     0.000 HD 
BRANCH   7   9
HETATM    9  C   UNL     1      -5.419  11.719  67.063  1.00  0.00    -0.127 C  
BRANCH   9  10
HETATM   10  C   UNL     1      -5.573  12.731  68.140  1.00  0.00    -0.080 A  
HETATM   11  C   UNL     1      -5.154  12.788  69.451  1.00  0.00    -0.074 A  
HETATM   12  C   UNL     1      -5.617  14.024  69.963  1.00  0.00    -0.112 A  
HETATM   13  C   UNL     1      -6.272  14.663  68.929  1.00  0.00    -0.087 A  
HETATM   14  O   UNL     1      -6.238  13.873  67.815  1.00  0.00    -0.151 OA 
BRANCH  13  15
HETATM   15  C   UNL     1      -6.960  15.939  68.783  1.00  0.00    -0.132 A  
HETATM   16  C   UNL     1      -8.298  15.999  68.368  1.00  0.00    -0.178 A  
HETATM   17  C   UNL     1      -8.969  17.242  68.215  1.00  0.00    -0.262 A  
HETATM   18  C   UNL     1      -8.279  18.434  68.484  1.00  0.00    -0.318 A  
HETATM   19  C   UNL     1      -6.961  18.366  68.891  1.00  0.00    -0.297 A  
HETATM   20  N   UNL     1      -8.816  19.646  68.354  1.00  0.00    -0.335 NA 
HETATM   21  C   UNL     1     -10.073  19.689  67.922  1.00  0.00    -0.422 A  
HETATM   22  C   UNL     1      -6.304  17.143  69.042  1.00  0.00    -0.204 A  
HETATM   23  N   UNL     1     -10.827  18.633  67.624  1.00  0.00    -0.376 NA 
HETATM   24  C   UNL     1     -10.298  17.409  67.775  1.00  0.00    -0.358 A  
BRANCH  24  25
HETATM   25  N   UNL     1     -11.061  16.265  67.401  1.00  0.00    -0.171 NA 
HETATM   26  H   UNL     1     -11.358  16.230  66.426  1.00  0.00     0.000 HD 
BRANCH  25  27
HETATM   27  C   UNL     1     -11.459  15.171  68.205  1.00  0.00    -0.342 A  
HETATM   28  C   UNL     1     -11.369  13.844  67.787  1.00  0.00    -0.335 A  
HETATM   29  C   UNL     1     -11.672  12.768  68.625  1.00  0.00    -0.324 A  
HETATM   30  C   UNL     1     -12.054  13.005  69.950  1.00  0.00    -0.277 A  
HETATM   31 CL   UNL     1     -11.570  11.223  67.849  1.00  0.00    -0.352 Cl 
HETATM   32  C   UNL     1     -12.216  14.337  70.364  1.00  0.00    -0.411 A  
HETATM   33  C   UNL     1     -11.927  15.406  69.501  1.00  0.00    -0.358 A  
BRANCH  30  34
HETATM   34  O   UNL     1     -12.315  12.092  70.942  1.00  0.00    -0.373 OA 
BRANCH  34  35
HETATM   35  C   UNL     1     -12.628  10.771  70.509  1.00  0.00    -0.336 C  
BRANCH  35  36
HETATM   36  C   UNL     1     -11.746   9.747  71.173  1.00  0.00    -0.465 A  
HETATM   37  C   UNL     1     -10.445   9.520  70.713  1.00  0.00    -0.384 A  
HETATM   38  C   UNL     1      -9.694   8.489  71.264  1.00  0.00    -0.208 A  
HETATM   39  C   UNL     1     -10.213   7.677  72.266  1.00  0.00    -0.268 A  
HETATM   40  F   UNL     1      -8.456   8.261  70.806  1.00  0.00    -0.112 F  
HETATM   41  C   UNL     1     -11.504   7.899  72.732  1.00  0.00    -0.428 A  
HETATM   42  C   UNL     1     -12.270   8.927  72.189  1.00  0.00    -0.437 A  
ENDBRANCH  35  36
ENDBRANCH  34  35
ENDBRANCH  30  34
ENDBRANCH  25  27
ENDBRANCH  24  25
ENDBRANCH  13  15
ENDBRANCH   9  10
ENDBRANCH   7   9
ENDBRANCH   6   7
ENDBRANCH   5   6
ENDBRANCH   2   5
TORSDOF 11
ENDMDL
MODEL       90
REMARK 921   NORMALIZED FREE ENERGY PREDICTED BY IDOCK:   -5.73 KCAL/MOL
REMARK 922        TOTAL FREE ENERGY PREDICTED BY IDOCK:  -12.17 KCAL/MOL
REMARK 923 INTER-LIGAND FREE ENERGY PREDICTED BY IDOCK:  -10.00 KCAL/MOL
REMARK 924 INTRA-LIGAND FREE ENERGY PREDICTED BY IDOCK:   -2.17 KCAL/MOL
REMARK 927      BINDING AFFINITY PREDICTED BY RF-SCORE:    0.00 PKD
ROOT
HETATM    1  C   UNL     1      -7.999   7.133  73.854  1.00  0.00    -0.111 C  
HETATM    2  S   UNL     1      -7.748   7.971  72.311  1.00  0.00    -0.120 S  
HETATM    3  O   UNL     1      -8.709   9.052  72.230  1.00  0.00    -0.367 OA 
HETATM    4  O   UNL     1      -7.655   6.964  71.273  1.00  0.00    -0.085 OA 
ENDROOT
BRANCH   2   5
HETATM    5  C   UNL     1      -6.132   8.681  72.536  1.00  0.00    -0.079 C  
BRANCH   5   6
HETATM    6  C   UNL     1      -5.560   9.188  71.220  1.00  0.00    -0.051 C  
BRANCH   6   7
HETATM    7  N   UNL     1      -6.225  10.397  70.724  1.00  0.00    -0.286 NA 
HETATM    8  H   UNL     1      -6.218  11.131  71.433  1.00  0.00     0.000 HD 
BRANCH   7   9
HETATM    9  C   UNL     1      -5.671  10.890  69.462  1.00  0.00    -0.042 C  
BRANCH   9  10
HETATM   10  C   UNL     1      -5.929  12.346  69.316  1.00  0.00    -0.092 A  
HETATM   11  C   UNL     1      -5.370  13.467  69.889  1.00  0.00    -0.092 A  
HETATM   12  C   UNL     1      -6.052  14.577  69.338  1.00  0.00    -0.106 A  
HETATM   13  C   UNL     1      -6.974  14.075  68.442  1.00  0.00    -0.100 A  
HETATM   14  O   UNL     1      -6.891  12.711  68.426  1.00  0.00    -0.076 OA 
BRANCH  13  15
HETATM   15  C   UNL     1      -7.969  14.661  67.554  1.00  0.00    -0.208 A  
HETATM   16  C   UNL     1      -9.099  13.937  67.150  1.00  0.00    -0.245 A  
HETATM   17  C   UNL     1     -10.066  14.503  66.277  1.00  0.00    -0.308 A  
HETATM   18  C   UNL     1      -9.886  15.813  65.807  1.00  0.00    -0.348 A  
HETATM   19  C   UNL     1      -8.769  16.519  66.210  1.00  0.00    -0.369 A  
HETATM   20  N   UNL     1     -10.727  16.423  64.974  1.00  0.00    -0.681 NA 
HETATM   21  C   UNL     1     -11.774  15.710  64.568  1.00  0.00    -0.220 A  
HETATM   22  C   UNL     1      -7.821  15.962  67.069  1.00  0.00    -0.267 A  
HETATM   23  N   UNL     1     -12.047  14.460  64.932  1.00  0.00    -0.420 NA 
HETATM   24  C   UNL     1     -11.216  13.848  65.789  1.00  0.00    -0.303 A  
BRANCH  24  25
HETATM   25  N   UNL     1     -11.449  12.488  66.143  1.00  0.00    -0.356 NA 
HETATM   26  H   UNL     1     -11.644  11.855  65.367  1.00  0.00     0.000 HD 
BRANCH  25  27
HETATM   27  C   UNL     1     -11.446  11.900  67.429  1.00  0.00    -0.323 A  
HETATM   28  C   UNL     1     -11.952  12.537  68.561  1.00  0.00    -0.266 A  
HETATM   29  C   UNL     1     -12.033  11.908  69.806  1.00  0.00    -0.307 A  
HETATM   30  C   UNL     1     -11.624  10.576  69.942  1.00  0.00    -0.307 A  
HETATM   31 CL   UNL     1     -12.614  12.935  71.075  1.00  0.00    -0.431 Cl 
HETATM   32  C   UNL     1     -11.049   9.946  68.828  1.00  0.00    -0.179 A  
HETATM   33  C   UNL     1     -10.956  10.600  67.589  1.00  0.00    -0.370 A  
BRANCH  30  34
HETATM   34  O   UNL     1     -11.696   9.767  71.048  1.00  0.00    -0.311 OA 
BRANCH  34  35
HETATM   35  C   UNL     1     -12.590   8.662  70.957  1.00  0.00    -0.055 C  
BRANCH  35  36
HETATM   36  C   UNL     1     -11.892   7.358  71.239  1.00  0.00    -0.330 A  
HETATM   37  C   UNL     1     -11.774   6.881  72.548  1.00  0.00    -0.194 A  
HETATM   38  C   UNL     1     -11.024   5.738  72.796  1.00  0.00    -0.272 A  
HETATM   39  C   UNL     1     -10.387   5.058  71.763  1.00  0.00    -0.268 A  
HETATM   40  F   UNL     1     -10.895   5.296  74.053  1.00  0.00    -0.292 F  
HETATM   41  C   UNL     1     -10.503   5.524  70.459  1.00  0.00    -0.347 A  
HETATM   42  C   UNL     1     -11.250   6.669  70.194  1.00  0.00    -0.416 A  
ENDBRANCH  35  36
ENDBRANCH  34  35
ENDBRANCH  30  34
ENDBRANCH  25  27
ENDBRANCH  24  25
ENDBRANCH  13  15
ENDBRANCH   9  10
ENDBRANCH   7   9
ENDBRANCH   6   7
ENDBRANCH   5   6
ENDBRANCH   2   5
TORSDOF 11
ENDMDL
MODEL       91
REMARK 921   NORMALIZED FREE ENERGY PREDICTED BY IDOCK:   -5.73 KCAL/MOL
REMARK 922        TOTAL FREE ENERGY PREDICTED BY IDOCK:  -12.15 KCAL/MOL
REMARK 923 INTER-LIGAND FREE ENERGY PREDICTED BY IDOCK:  -10.25 KCAL/MOL
REMARK 924 INTRA-LIGAND FREE ENERGY PREDICTED BY IDOCK:   -1.91 KCAL/MOL
REMARK 927      BINDING AFFINITY PREDICTED BY RF-SCORE:    0.00 PKD
ROOT
HETATM    1  C   UNL     1     -10.641   8.963  71.951  1.00  0.00    -0.349 C  
HETATM    2  S   UNL     1     -12.371   8.890  71.565  1.00  0.00    -0.338 S  
HETATM    3  O   UNL     1     -12.650   9.916  70.581  1.00  0.00    -0.260 OA 
HETATM    4  O   UNL     1     -13.099   8.826  72.815  1.00  0.00    -0.347 OA 
ENDROOT
BRANCH   2   5
HETATM    5  C   UNL     1     -12.503   7.305  70.767  1.00  0.00    -0.148 C  
BRANCH   5   6
HETATM    6  C   UNL     1     -11.480   6.321  71.315  1.00  0.00    -0.291 C  
BRANCH   6   7
HETATM    7  N   UNL     1     -10.686   5.667  70.270  1.00  0.00    -0.302 NA 
HETATM    8  H   UNL     1     -11.115   5.797  69.353  1.00  0.00     0.000 HD 
BRANCH   7   9
HETATM    9  C   UNL     1      -9.285   6.091  70.252  1.00  0.00    -0.155 C  
BRANCH   9  10
HETATM   10  C   UNL     1      -8.723   5.965  68.882  1.00  0.00    -0.116 A  
HETATM   11  C   UNL     1      -7.990   4.986  68.248  1.00  0.00    -0.086 A  
HETATM   12  C   UNL     1      -7.754   5.454  66.934  1.00  0.00    -0.100 A  
HETATM   13  C   UNL     1      -8.375   6.683  66.831  1.00  0.00    -0.114 A  
HETATM   14  O   UNL     1      -8.972   6.989  68.022  1.00  0.00    -0.127 OA 
BRANCH  13  15
HETATM   15  C   UNL     1      -8.521   7.675  65.774  1.00  0.00    -0.153 A  
HETATM   16  C   UNL     1      -9.203   8.879  65.997  1.00  0.00    -0.287 A  
HETATM   17  C   UNL     1      -9.355   9.845  64.966  1.00  0.00    -0.323 A  
HETATM   18  C   UNL     1      -8.812   9.587  63.698  1.00  0.00    -0.210 A  
HETATM   19  C   UNL     1      -8.142   8.399  63.486  1.00  0.00    -0.143 A  
HETATM   20  N   UNL     1      -8.917  10.422  62.665  1.00  0.00    -0.230 NA 
HETATM   21  C   UNL     1      -9.601  11.542  62.880  1.00  0.00    -0.283 A  
HETATM   22  C   UNL     1      -7.993   7.452  64.502  1.00  0.00    -0.122 A  
HETATM   23  N   UNL     1     -10.170  11.893  64.031  1.00  0.00    -0.331 NA 
HETATM   24  C   UNL     1     -10.049  11.067  65.080  1.00  0.00    -0.289 A  
BRANCH  24  25
HETATM   25  N   UNL     1     -10.705  11.387  66.304  1.00  0.00    -0.268 NA 
HETATM   26  H   UNL     1     -11.463  10.763  66.577  1.00  0.00     0.000 HD 
BRANCH  25  27
HETATM   27  C   UNL     1     -10.441  12.458  67.190  1.00  0.00    -0.219 A  
HETATM   28  C   UNL     1      -9.183  12.703  67.738  1.00  0.00    -0.195 A  
HETATM   29  C   UNL     1      -8.912  13.820  68.533  1.00  0.00    -0.120 A  
HETATM   30  C   UNL     1      -9.919  14.760  68.779  1.00  0.00    -0.234 A  
HETATM   31 CL   UNL     1      -7.300  13.856  69.168  1.00  0.00    -0.056 Cl 
HETATM   32  C   UNL     1     -11.208  14.490  68.292  1.00  0.00    -0.295 A  
HETATM   33  C   UNL     1     -11.467  13.351  67.512  1.00  0.00    -0.357 A  
BRANCH  30  34
HETATM   34  O   UNL     1      -9.834  15.948  69.461  1.00  0.00    -0.260 OA 
BRANCH  34  35
HETATM   35  C   UNL     1     -10.777  16.950  69.092  1.00  0.00    -0.298 C  
BRANCH  35  36
HETATM   36  C   UNL     1     -10.125  18.070  68.326  1.00  0.00    -0.390 A  
HETATM   37  C   UNL     1      -8.927  18.636  68.772  1.00  0.00    -0.291 A  
HETATM   38  C   UNL     1      -8.407  19.746  68.116  1.00  0.00    -0.289 A  
HETATM   39  C   UNL     1      -9.059  20.304  67.021  1.00  0.00    -0.481 A  
HETATM   40  F   UNL     1      -7.271  20.299  68.559  1.00  0.00    -0.331 F  
HETATM   41  C   UNL     1     -10.248  19.744  66.569  1.00  0.00    -0.606 A  
HETATM   42  C   UNL     1     -10.783  18.633  67.217  1.00  0.00    -0.449 A  
ENDBRANCH  35  36
ENDBRANCH  34  35
ENDBRANCH  30  34
ENDBRANCH  25  27
ENDBRANCH  24  25
ENDBRANCH  13  15
ENDBRANCH   9  10
ENDBRANCH   7   9
ENDBRANCH   6   7
ENDBRANCH   5   6
ENDBRANCH   2   5
TORSDOF 11
ENDMDL
MODEL       92
REMARK 921   NORMALIZED FREE ENERGY PREDICTED BY IDOCK:   -5.70 KCAL/MOL
REMARK 922        TOTAL FREE ENERGY PREDICTED BY IDOCK:  -12.11 KCAL/MOL
REMARK 923 INTER-LIGAND FREE ENERGY PREDICTED BY IDOCK:  -10.38 KCAL/MOL
REMARK 924 INTRA-LIGAND FREE ENERGY PREDICTED BY IDOCK:   -1.73 KCAL/MOL
REMARK 927      BINDING AFFINITY PREDICTED BY RF-SCORE:    0.00 PKD
ROOT
HETATM    1  C   UNL     1      -7.528  20.201  67.540  1.00  0.00    -0.297 C  
HETATM    2  S   UNL     1      -8.444  19.179  66.415  1.00  0.00    -0.306 S  
HETATM    3  O   UNL     1      -7.506  18.606  65.471  1.00  0.00    -0.505 OA 
HETATM    4  O   UNL     1      -9.594  19.938  65.969  1.00  0.00    -0.403 OA 
ENDROOT
BRANCH   2   5
HETATM    5  C   UNL     1      -9.020  17.879  67.484  1.00  0.00    -0.248 C  
BRANCH   5   6
HETATM    6  C   UNL     1     -10.169  17.108  66.851  1.00  0.00    -0.315 C  
BRANCH   6   7
HETATM    7  N   UNL     1      -9.760  16.292  65.704  1.00  0.00    -0.500 NA 
HETATM    8  H   UNL     1      -9.342  15.414  66.015  1.00  0.00     0.000 HD 
BRANCH   7   9
HETATM    9  C   UNL     1     -10.842  16.042  64.750  1.00  0.00    -0.294 C  
BRANCH   9  10
HETATM   10  C   UNL     1     -11.398  14.677  64.943  1.00  0.00    -0.403 A  
HETATM   11  C   UNL     1     -12.677  14.191  65.099  1.00  0.00    -0.387 A  
HETATM   12  C   UNL     1     -12.555  12.789  65.239  1.00  0.00    -0.460 A  
HETATM   13  C   UNL     1     -11.210  12.493  65.138  1.00  0.00    -0.304 A  
HETATM   14  O   UNL     1     -10.507  13.650  64.950  1.00  0.00    -0.368 OA 
BRANCH  13  15
HETATM   15  C   UNL     1     -10.421  11.270  65.188  1.00  0.00    -0.351 A  
HETATM   16  C   UNL     1     -10.528  10.380  66.265  1.00  0.00    -0.229 A  
HETATM   17  C   UNL     1      -9.752   9.191  66.321  1.00  0.00    -0.344 A  
HETATM   18  C   UNL     1      -8.860   8.902  65.277  1.00  0.00    -0.184 A  
HETATM   19  C   UNL     1      -8.760   9.784  64.220  1.00  0.00    -0.227 A  
HETATM   20  N   UNL     1      -8.080   7.823  65.248  1.00  0.00    -0.127 NA 
HETATM   21  C   UNL     1      -8.163   7.007  66.296  1.00  0.00    -0.120 A  
HETATM   22  C   UNL     1      -9.524  10.951  64.166  1.00  0.00    -0.295 A  
HETATM   23  N   UNL     1      -8.960   7.178  67.348  1.00  0.00    -0.121 NA 
HETATM   24  C   UNL     1      -9.764   8.251  67.372  1.00  0.00    -0.174 A  
BRANCH  24  25
HETATM   25  N   UNL     1     -10.578   8.492  68.517  1.00  0.00    -0.375 NA 
HETATM   26  H   UNL     1     -11.282   9.222  68.415  1.00  0.00     0.000 HD 
BRANCH  25  27
HETATM   27  C   UNL     1     -10.536   7.850  69.777  1.00  0.00    -0.242 A  
HETATM   28  C   UNL     1      -9.560   8.113  70.736  1.00  0.00    -0.185 A  
HETATM   29  C   UNL     1      -9.586   7.547  72.013  1.00  0.00    -0.154 A  
HETATM   30  C   UNL     1     -10.641   6.703  72.378  1.00  0.00    -0.214 A  
HETATM   31 CL   UNL     1      -8.216   7.956  72.992  1.00  0.00    -0.189 Cl 
HETATM   32  C   UNL     1     -11.593   6.375  71.401  1.00  0.00    -0.368 A  
HETATM   33  C   UNL     1     -11.539   6.937  70.116  1.00  0.00    -0.340 A  
BRANCH  30  34
HETATM   34  O   UNL     1     -10.886   6.116  73.595  1.00  0.00    -0.245 OA 
BRANCH  34  35
HETATM   35  C   UNL     1     -11.269   4.744  73.562  1.00  0.00    -0.311 C  
BRANCH  35  36
HETATM   36  C   UNL     1     -10.087   3.844  73.317  1.00  0.00    -0.204 A  
HETATM   37  C   UNL     1      -9.969   3.133  72.119  1.00  0.00    -0.232 A  
HETATM   38  C   UNL     1      -8.933   2.219  71.964  1.00  0.00    -0.078 A  
HETATM   39  C   UNL     1      -8.009   2.000  72.981  1.00  0.00    -0.049 A  
HETATM   40  F   UNL     1      -8.835   1.524  70.824  1.00  0.00    -0.072 F  
HETATM   41  C   UNL     1      -8.118   2.707  74.173  1.00  0.00    -0.067 A  
HETATM   42  C   UNL     1      -9.151   3.625  74.345  1.00  0.00    -0.098 A  
ENDBRANCH  35  36
ENDBRANCH  34  35
ENDBRANCH  30  34
ENDBRANCH  25  27
ENDBRANCH  24  25
ENDBRANCH  13  15
ENDBRANCH   9  10
ENDBRANCH   7   9
ENDBRANCH   6   7
ENDBRANCH   5   6
ENDBRANCH   2   5
TORSDOF 11
ENDMDL
MODEL       93
REMARK 921   NORMALIZED FREE ENERGY PREDICTED BY IDOCK:   -5.69 KCAL/MOL
REMARK 922        TOTAL FREE ENERGY PREDICTED BY IDOCK:  -12.10 KCAL/MOL
REMARK 923 INTER-LIGAND FREE ENERGY PREDICTED BY IDOCK:  -10.65 KCAL/MOL
REMARK 924 INTRA-LIGAND FREE ENERGY PREDICTED BY IDOCK:   -1.45 KCAL/MOL
REMARK 927      BINDING AFFINITY PREDICTED BY RF-SCORE:    0.00 PKD
ROOT
HETATM    1  C   UNL     1      -7.613  11.485  67.085  1.00  0.00    -0.149 C  
HETATM    2  S   UNL     1      -7.201   9.772  67.294  1.00  0.00    -0.087 S  
HETATM    3  O   UNL     1      -8.181   9.185  68.186  1.00  0.00    -0.114 OA 
HETATM    4  O   UNL     1      -5.782   9.691  67.575  1.00  0.00    -0.040 OA 
ENDROOT
BRANCH   2   5
HETATM    5  C   UNL     1      -7.479   9.124  65.661  1.00  0.00    -0.093 C  
BRANCH   5   6
HETATM    6  C   UNL     1      -7.948  10.211  64.705  1.00  0.00    -0.145 C  
BRANCH   6   7
HETATM    7  N   UNL     1      -9.276   9.954  64.139  1.00  0.00    -0.275 NA 
HETATM    8  H   UNL     1      -9.979   9.902  64.876  1.00  0.00     0.000 HD 
BRANCH   7   9
HETATM    9  C   UNL     1      -9.670  10.922  63.114  1.00  0.00    -0.363 C  
BRANCH   9  10
HETATM   10  C   UNL     1     -10.698  11.853  63.648  1.00  0.00    -0.442 A  
HETATM   11  C   UNL     1     -12.070  11.787  63.753  1.00  0.00    -0.463 A  
HETATM   12  C   UNL     1     -12.481  12.999  64.357  1.00  0.00    -0.406 A  
HETATM   13  C   UNL     1     -11.336  13.727  64.610  1.00  0.00    -0.372 A  
HETATM   14  O   UNL     1     -10.247  13.021  64.181  1.00  0.00    -0.397 OA 
BRANCH  13  15
HETATM   15  C   UNL     1     -11.056  15.026  65.206  1.00  0.00    -0.391 A  
HETATM   16  C   UNL     1     -10.603  15.136  66.528  1.00  0.00    -0.304 A  
HETATM   17  C   UNL     1     -10.337  16.403  67.116  1.00  0.00    -0.290 A  
HETATM   18  C   UNL     1     -10.534  17.567  66.358  1.00  0.00    -0.277 A  
HETATM   19  C   UNL     1     -10.980  17.450  65.056  1.00  0.00     0.327 A  
HETATM   20  N   UNL     1     -10.329  18.798  66.825  1.00  0.00    -0.389 NA 
HETATM   21  C   UNL     1      -9.937  18.888  68.093  1.00  0.00    -0.376 A  
HETATM   22  C   UNL     1     -11.239  16.205  64.481  1.00  0.00    -0.275 A  
HETATM   23  N   UNL     1      -9.728  17.862  68.914  1.00  0.00    -0.297 NA 
HETATM   24  C   UNL     1      -9.911  16.620  68.442  1.00  0.00    -0.255 A  
BRANCH  24  25
HETATM   25  N   UNL     1      -9.759  15.507  69.319  1.00  0.00    -0.254 NA 
HETATM   26  H   UNL     1      -8.928  15.520  69.911  1.00  0.00     0.000 HD 
BRANCH  25  27
HETATM   27  C   UNL     1     -10.608  14.387  69.476  1.00  0.00    -0.060 A  
HETATM   28  C   UNL     1     -10.529  13.250  68.673  1.00  0.00    -0.242 A  
HETATM   29  C   UNL     1     -11.306  12.112  68.900  1.00  0.00    -0.283 A  
HETATM   30  C   UNL     1     -12.184  12.075  69.989  1.00  0.00    -0.206 A  
HETATM   31 CL   UNL     1     -11.092  10.867  67.715  1.00  0.00    -0.343 Cl 
HETATM   32  C   UNL     1     -12.325  13.236  70.765  1.00  0.00    -0.425 A  
HETATM   33  C   UNL     1     -11.551  14.379  70.509  1.00  0.00    -0.270 A  
BRANCH  30  34
HETATM   34  O   UNL     1     -12.967  11.034  70.423  1.00  0.00    -0.201 OA 
BRANCH  34  35
HETATM   35  C   UNL     1     -12.632  10.488  71.696  1.00  0.00    -0.393 C  
BRANCH  35  36
HETATM   36  C   UNL     1     -12.113   9.079  71.576  1.00  0.00    -0.410 A  
HETATM   37  C   UNL     1     -10.788   8.838  71.198  1.00  0.00    -0.335 A  
HETATM   38  C   UNL     1     -10.366   7.532  70.980  1.00  0.00    -0.199 A  
HETATM   39  C   UNL     1     -11.238   6.459  71.130  1.00  0.00    -0.357 A  
HETATM   40  F   UNL     1      -9.103   7.306  70.598  1.00  0.00    -0.152 F  
HETATM   41  C   UNL     1     -12.555   6.691  71.509  1.00  0.00    -0.287 A  
HETATM   42  C   UNL     1     -12.995   7.994  71.731  1.00  0.00    -0.354 A  
ENDBRANCH  35  36
ENDBRANCH  34  35
ENDBRANCH  30  34
ENDBRANCH  25  27
ENDBRANCH  24  25
ENDBRANCH  13  15
ENDBRANCH   9  10
ENDBRANCH   7   9
ENDBRANCH   6   7
ENDBRANCH   5   6
ENDBRANCH   2   5
TORSDOF 11
ENDMDL
MODEL       94
REMARK 921   NORMALIZED FREE ENERGY PREDICTED BY IDOCK:   -5.69 KCAL/MOL
REMARK 922        TOTAL FREE ENERGY PREDICTED BY IDOCK:  -12.10 KCAL/MOL
REMARK 923 INTER-LIGAND FREE ENERGY PREDICTED BY IDOCK:   -9.50 KCAL/MOL
REMARK 924 INTRA-LIGAND FREE ENERGY PREDICTED BY IDOCK:   -2.60 KCAL/MOL
REMARK 927      BINDING AFFINITY PREDICTED BY RF-SCORE:    0.00 PKD
ROOT
HETATM    1  C   UNL     1      -5.425  11.655  67.532  1.00  0.00    -0.069 C  
HETATM    2  S   UNL     1      -6.500  10.282  67.853  1.00  0.00    -0.061 S  
HETATM    3  O   UNL     1      -7.447  10.687  68.872  1.00  0.00    -0.090 OA 
HETATM    4  O   UNL     1      -5.674   9.104  68.018  1.00  0.00    -0.038 OA 
ENDROOT
BRANCH   2   5
HETATM    5  C   UNL     1      -7.375  10.131  66.311  1.00  0.00    -0.112 C  
BRANCH   5   6
HETATM    6  C   UNL     1      -6.928   8.899  65.537  1.00  0.00    -0.080 C  
BRANCH   6   7
HETATM    7  N   UNL     1      -7.941   7.838  65.498  1.00  0.00    -0.114 NA 
HETATM    8  H   UNL     1      -8.315   7.730  64.555  1.00  0.00     0.000 HD 
BRANCH   7   9
HETATM    9  C   UNL     1      -7.461   6.556  66.016  1.00  0.00    -0.081 C  
BRANCH   9  10
HETATM   10  C   UNL     1      -7.638   6.494  67.490  1.00  0.00    -0.105 A  
HETATM   11  C   UNL     1      -6.984   5.811  68.493  1.00  0.00    -0.068 A  
HETATM   12  C   UNL     1      -7.625   6.171  69.702  1.00  0.00    -0.093 A  
HETATM   13  C   UNL     1      -8.619   7.072  69.374  1.00  0.00    -0.134 A  
HETATM   14  O   UNL     1      -8.619   7.271  68.022  1.00  0.00    -0.125 OA 
BRANCH  13  15
HETATM   15  C   UNL     1      -9.620   7.816  70.126  1.00  0.00    -0.168 A  
HETATM   16  C   UNL     1     -10.406   8.800  69.512  1.00  0.00    -0.213 A  
HETATM   17  C   UNL     1     -11.377   9.535  70.246  1.00  0.00    -0.284 A  
HETATM   18  C   UNL     1     -11.550   9.270  71.613  1.00  0.00    -0.393 A  
HETATM   19  C   UNL     1     -10.771   8.300  72.210  1.00  0.00    -0.399 A  
HETATM   20  N   UNL     1     -12.421   9.917  72.387  1.00  0.00    -0.023 NA 
HETATM   21  C   UNL     1     -13.133  10.874  71.800  1.00  0.00    -0.459 A  
HETATM   22  C   UNL     1      -9.819   7.578  71.487  1.00  0.00    -0.185 A  
HETATM   23  N   UNL     1     -13.051  11.225  70.519  1.00  0.00     0.039 NA 
HETATM   24  C   UNL     1     -12.192  10.563  69.729  1.00  0.00    -0.181 A  
BRANCH  24  25
HETATM   25  N   UNL     1     -12.038  10.962  68.370  1.00  0.00    -0.818 NA 
HETATM   26  H   UNL     1     -12.406  10.315  67.674  1.00  0.00     0.000 HD 
BRANCH  25  27
HETATM   27  C   UNL     1     -11.441  12.139  67.861  1.00  0.00    -0.328 A  
HETATM   28  C   UNL     1     -10.306  12.723  68.421  1.00  0.00    -0.248 A  
HETATM   29  C   UNL     1      -9.668  13.828  67.851  1.00  0.00    -0.229 A  
HETATM   30  C   UNL     1     -10.151  14.369  66.654  1.00  0.00    -0.274 A  
HETATM   31 CL   UNL     1      -8.333  14.425  68.781  1.00  0.00    -0.151 Cl 
HETATM   32  C   UNL     1     -11.332  13.835  66.117  1.00  0.00    -0.320 A  
HETATM   33  C   UNL     1     -11.972  12.738  66.715  1.00  0.00    -0.389 A  
BRANCH  30  34
HETATM   34  O   UNL     1      -9.625  15.392  65.904  1.00  0.00    -0.319 OA 
BRANCH  34  35
HETATM   35  C   UNL     1     -10.515  16.461  65.596  1.00  0.00    -0.347 C  
BRANCH  35  36
HETATM   36  C   UNL     1     -10.080  17.749  66.245  1.00  0.00    -0.345 A  
HETATM   37  C   UNL     1      -9.163  17.741  67.300  1.00  0.00    -0.253 A  
HETATM   38  C   UNL     1      -8.868  18.928  67.960  1.00  0.00    -0.306 A  
HETATM   39  C   UNL     1      -9.470  20.125  67.590  1.00  0.00    -0.514 A  
HETATM   40  F   UNL     1      -8.004  18.913  68.983  1.00  0.00    -0.345 F  
HETATM   41  C   UNL     1     -10.381  20.142  66.540  1.00  0.00    -0.508 A  
HETATM   42  C   UNL     1     -10.688  18.961  65.869  1.00  0.00    -0.366 A  
ENDBRANCH  35  36
ENDBRANCH  34  35
ENDBRANCH  30  34
ENDBRANCH  25  27
ENDBRANCH  24  25
ENDBRANCH  13  15
ENDBRANCH   9  10
ENDBRANCH   7   9
ENDBRANCH   6   7
ENDBRANCH   5   6
ENDBRANCH   2   5
TORSDOF 11
ENDMDL
MODEL       95
REMARK 921   NORMALIZED FREE ENERGY PREDICTED BY IDOCK:   -5.65 KCAL/MOL
REMARK 922        TOTAL FREE ENERGY PREDICTED BY IDOCK:  -12.03 KCAL/MOL
REMARK 923 INTER-LIGAND FREE ENERGY PREDICTED BY IDOCK:   -9.93 KCAL/MOL
REMARK 924 INTRA-LIGAND FREE ENERGY PREDICTED BY IDOCK:   -2.10 KCAL/MOL
REMARK 927      BINDING AFFINITY PREDICTED BY RF-SCORE:    0.00 PKD
ROOT
HETATM    1  C   UNL     1      -9.337   4.178  67.658  1.00  0.00    -0.170 C  
HETATM    2  S   UNL     1      -9.800   5.116  66.225  1.00  0.00    -0.205 S  
HETATM    3  O   UNL     1     -10.100   6.467  66.656  1.00  0.00    -0.176 OA 
HETATM    4  O   UNL     1     -10.762   4.333  65.477  1.00  0.00    -0.198 OA 
ENDROOT
BRANCH   2   5
HETATM    5  C   UNL     1      -8.281   5.152  65.301  1.00  0.00    -0.126 C  
BRANCH   5   6
HETATM    6  C   UNL     1      -7.232   6.015  65.990  1.00  0.00    -0.075 C  
BRANCH   6   7
HETATM    7  N   UNL     1      -7.481   7.454  65.852  1.00  0.00    -0.078 NA 
HETATM    8  H   UNL     1      -8.467   7.666  66.002  1.00  0.00     0.000 HD 
BRANCH   7   9
HETATM    9  C   UNL     1      -6.635   8.276  66.718  1.00  0.00    -0.057 C  
BRANCH   9  10
HETATM   10  C   UNL     1      -6.829   7.899  68.142  1.00  0.00    -0.068 A  
HETATM   11  C   UNL     1      -5.996   7.365  69.101  1.00  0.00    -0.030 A  
HETATM   12  C   UNL     1      -6.774   7.235  70.275  1.00  0.00    -0.051 A  
HETATM   13  C   UNL     1      -8.032   7.718  69.976  1.00  0.00    -0.113 A  
HETATM   14  O   UNL     1      -8.060   8.130  68.673  1.00  0.00    -0.120 OA 
BRANCH  13  15
HETATM   15  C   UNL     1      -9.276   7.874  70.719  1.00  0.00    -0.159 A  
HETATM   16  C   UNL     1     -10.295   8.720  70.259  1.00  0.00    -0.227 A  
HETATM   17  C   UNL     1     -11.506   8.881  70.985  1.00  0.00    -0.351 A  
HETATM   18  C   UNL     1     -11.684   8.181  72.188  1.00  0.00    -0.359 A  
HETATM   19  C   UNL     1     -10.675   7.350  72.634  1.00  0.00    -0.334 A  
HETATM   20  N   UNL     1     -12.775   8.279  72.947  1.00  0.00    -0.077 NA 
HETATM   21  C   UNL     1     -13.717   9.114  72.518  1.00  0.00    -0.435 A  
HETATM   22  C   UNL     1      -9.487   7.192  71.918  1.00  0.00    -0.157 A  
HETATM   23  N   UNL     1     -13.660   9.840  71.404  1.00  0.00    -0.306 NA 
HETATM   24  C   UNL     1     -12.574   9.728  70.625  1.00  0.00    -0.112 A  
BRANCH  24  25
HETATM   25  N   UNL     1     -12.459  10.542  69.461  1.00  0.00    -0.655 NA 
HETATM   26  H   UNL     1     -12.934  10.195  68.628  1.00  0.00     0.000 HD 
BRANCH  25  27
HETATM   27  C   UNL     1     -11.772  11.770  69.310  1.00  0.00    -0.335 A  
HETATM   28  C   UNL     1     -10.842  12.005  68.298  1.00  0.00    -0.263 A  
HETATM   29  C   UNL     1     -10.243  13.252  68.101  1.00  0.00    -0.243 A  
HETATM   30  C   UNL     1     -10.598  14.331  68.918  1.00  0.00    -0.245 A  
HETATM   31 CL   UNL     1      -9.057  13.269  66.838  1.00  0.00    -0.237 Cl 
HETATM   32  C   UNL     1     -11.480  14.092  69.983  1.00  0.00    -0.258 A  
HETATM   33  C   UNL     1     -12.055  12.827  70.180  1.00  0.00    -0.370 A  
BRANCH  30  34
HETATM   34  O   UNL     1     -10.186  15.639  68.835  1.00  0.00    -0.198 OA 
BRANCH  34  35
HETATM   35  C   UNL     1     -10.797  16.423  67.814  1.00  0.00    -0.306 C  
BRANCH  35  36
HETATM   36  C   UNL     1     -10.136  17.769  67.678  1.00  0.00    -0.342 A  
HETATM   37  C   UNL     1      -9.062  18.122  68.501  1.00  0.00    -0.318 A  
HETATM   38  C   UNL     1      -8.546  19.411  68.438  1.00  0.00    -0.360 A  
HETATM   39  C   UNL     1      -9.078  20.357  67.569  1.00  0.00    -0.447 A  
HETATM   40  F   UNL     1      -7.531  19.752  69.242  1.00  0.00    -0.384 F  
HETATM   41  C   UNL     1     -10.144  20.012  66.745  1.00  0.00    -0.607 A  
HETATM   42  C   UNL     1     -10.673  18.725  66.798  1.00  0.00    -0.381 A  
ENDBRANCH  35  36
ENDBRANCH  34  35
ENDBRANCH  30  34
ENDBRANCH  25  27
ENDBRANCH  24  25
ENDBRANCH  13  15
ENDBRANCH   9  10
ENDBRANCH   7   9
ENDBRANCH   6   7
ENDBRANCH   5   6
ENDBRANCH   2   5
TORSDOF 11
ENDMDL
MODEL       96
REMARK 921   NORMALIZED FREE ENERGY PREDICTED BY IDOCK:   -5.65 KCAL/MOL
REMARK 922        TOTAL FREE ENERGY PREDICTED BY IDOCK:  -12.02 KCAL/MOL
REMARK 923 INTER-LIGAND FREE ENERGY PREDICTED BY IDOCK:   -9.12 KCAL/MOL
REMARK 924 INTRA-LIGAND FREE ENERGY PREDICTED BY IDOCK:   -2.90 KCAL/MOL
REMARK 927      BINDING AFFINITY PREDICTED BY RF-SCORE:    0.00 PKD
ROOT
HETATM    1  C   UNL     1      -7.550  10.221  69.662  1.00  0.00    -0.164 C  
HETATM    2  S   UNL     1      -7.029   8.539  69.447  1.00  0.00    -0.050 S  
HETATM    3  O   UNL     1      -7.537   7.771  70.566  1.00  0.00    -0.076 OA 
HETATM    4  O   UNL     1      -5.618   8.552  69.120  1.00  0.00    -0.034 OA 
ENDROOT
BRANCH   2   5
HETATM    5  C   UNL     1      -7.929   8.058  67.990  1.00  0.00    -0.128 C  
BRANCH   5   6
HETATM    6  C   UNL     1      -7.640   6.613  67.610  1.00  0.00    -0.106 C  
BRANCH   6   7
HETATM    7  N   UNL     1      -8.294   5.639  68.489  1.00  0.00    -0.106 NA 
HETATM    8  H   UNL     1      -8.028   5.793  69.462  1.00  0.00     0.000 HD 
BRANCH   7   9
HETATM    9  C   UNL     1      -9.751   5.612  68.348  1.00  0.00    -0.128 C  
BRANCH   9  10
HETATM   10  C   UNL     1     -10.403   5.985  69.630  1.00  0.00    -0.232 A  
HETATM   11  C   UNL     1     -10.624   5.308  70.810  1.00  0.00    -0.256 A  
HETATM   12  C   UNL     1     -11.301   6.210  71.664  1.00  0.00    -0.341 A  
HETATM   13  C   UNL     1     -11.436   7.395  70.967  1.00  0.00    -0.282 A  
HETATM   14  O   UNL     1     -10.880   7.255  69.727  1.00  0.00    -0.239 OA 
BRANCH  13  15
HETATM   15  C   UNL     1     -12.018   8.697  71.260  1.00  0.00    -0.339 A  
HETATM   16  C   UNL     1     -11.582   9.853  70.597  1.00  0.00    -0.413 A  
HETATM   17  C   UNL     1     -12.142  11.127  70.886  1.00  0.00    -0.427 A  
HETATM   18  C   UNL     1     -13.151  11.230  71.856  1.00  0.00    -0.405 A  
HETATM   19  C   UNL     1     -13.574  10.087  72.505  1.00  0.00    -0.039 A  
HETATM   20  N   UNL     1     -13.724  12.380  72.208  1.00  0.00    -0.344 NA 
HETATM   21  C   UNL     1     -13.273  13.473  71.599  1.00  0.00    -0.366 A  
HETATM   22  C   UNL     1     -13.024   8.837  72.218  1.00  0.00    -0.462 A  
HETATM   23  N   UNL     1     -12.317  13.506  70.675  1.00  0.00    -0.360 NA 
HETATM   24  C   UNL     1     -11.752  12.348  70.300  1.00  0.00    -0.123 A  
BRANCH  24  25
HETATM   25  N   UNL     1     -10.681  12.362  69.360  1.00  0.00    -0.436 NA 
HETATM   26  H   UNL     1      -9.758  12.568  69.743  1.00  0.00     0.000 HD 
BRANCH  25  27
HETATM   27  C   UNL     1     -10.730  12.129  67.966  1.00  0.00    -0.213 A  
HETATM   28  C   UNL     1     -10.661  13.149  67.018  1.00  0.00    -0.270 A  
HETATM   29  C   UNL     1     -10.612  12.899  65.645  1.00  0.00    -0.277 A  
HETATM   30  C   UNL     1     -10.597  11.579  65.178  1.00  0.00    -0.293 A  
HETATM   31 CL   UNL     1     -10.621  14.330  64.669  1.00  0.00    -0.423 Cl 
HETATM   32  C   UNL     1     -10.735  10.545  66.116  1.00  0.00    -0.115 A  
HETATM   33  C   UNL     1     -10.806  10.816  67.492  1.00  0.00    -0.342 A  
BRANCH  30  34
HETATM   34  O   UNL     1     -10.474  11.129  63.886  1.00  0.00    -0.342 OA 
BRANCH  34  35
HETATM   35  C   UNL     1      -9.194  11.301  63.284  1.00  0.00    -0.225 C  
BRANCH  35  36
HETATM   36  C   UNL     1      -8.351  10.060  63.410  1.00  0.00    -0.170 A  
HETATM   37  C   UNL     1      -8.724   8.877  62.766  1.00  0.00    -0.118 A  
HETATM   38  C   UNL     1      -7.996   7.714  62.992  1.00  0.00    -0.112 A  
HETATM   39  C   UNL     1      -6.900   7.708  63.850  1.00  0.00    -0.058 A  
HETATM   40  F   UNL     1      -8.368   6.578  62.390  1.00  0.00    -0.105 F  
HETATM   41  C   UNL     1      -6.521   8.882  64.491  1.00  0.00    -0.071 A  
HETATM   42  C   UNL     1      -7.242  10.054  64.275  1.00  0.00    -0.133 A  
ENDBRANCH  35  36
ENDBRANCH  34  35
ENDBRANCH  30  34
ENDBRANCH  25  27
ENDBRANCH  24  25
ENDBRANCH  13  15
ENDBRANCH   9  10
ENDBRANCH   7   9
ENDBRANCH   6   7
ENDBRANCH   5   6
ENDBRANCH   2   5
TORSDOF 11
ENDMDL
MODEL       97
REMARK 921   NORMALIZED FREE ENERGY PREDICTED BY IDOCK:   -5.63 KCAL/MOL
REMARK 922        TOTAL FREE ENERGY PREDICTED BY IDOCK:  -11.99 KCAL/MOL
REMARK 923 INTER-LIGAND FREE ENERGY PREDICTED BY IDOCK:  -10.49 KCAL/MOL
REMARK 924 INTRA-LIGAND FREE ENERGY PREDICTED BY IDOCK:   -1.50 KCAL/MOL
REMARK 927      BINDING AFFINITY PREDICTED BY RF-SCORE:    0.00 PKD
ROOT
HETATM    1  C   UNL     1     -13.187   9.046  72.202  1.00  0.00    -0.446 C  
HETATM    2  S   UNL     1     -11.671   8.371  71.573  1.00  0.00    -0.308 S  
HETATM    3  O   UNL     1     -10.804   9.478  71.222  1.00  0.00    -0.332 OA 
HETATM    4  O   UNL     1     -12.012   7.345  70.609  1.00  0.00    -0.266 OA 
ENDROOT
BRANCH   2   5
HETATM    5  C   UNL     1     -10.998   7.574  73.014  1.00  0.00    -0.390 C  
BRANCH   5   6
HETATM    6  C   UNL     1      -9.547   7.972  73.242  1.00  0.00    -0.252 C  
BRANCH   6   7
HETATM    7  N   UNL     1      -8.626   7.410  72.249  1.00  0.00    -0.115 NA 
HETATM    8  H   UNL     1      -7.672   7.732  72.416  1.00  0.00     0.000 HD 
BRANCH   7   9
HETATM    9  C   UNL     1      -8.673   5.949  72.172  1.00  0.00    -0.136 C  
BRANCH   9  10
HETATM   10  C   UNL     1      -9.126   5.515  70.824  1.00  0.00    -0.146 A  
HETATM   11  C   UNL     1      -9.860   4.439  70.375  1.00  0.00    -0.286 A  
HETATM   12  C   UNL     1      -9.959   4.585  68.971  1.00  0.00    -0.151 A  
HETATM   13  C   UNL     1      -9.301   5.753  68.643  1.00  0.00    -0.122 A  
HETATM   14  O   UNL     1      -8.799   6.323  69.780  1.00  0.00    -0.138 OA 
BRANCH  13  15
HETATM   15  C   UNL     1      -9.039   6.472  67.404  1.00  0.00    -0.112 A  
HETATM   16  C   UNL     1      -9.584   7.742  67.172  1.00  0.00    -0.220 A  
HETATM   17  C   UNL     1      -9.339   8.442  65.960  1.00  0.00    -0.244 A  
HETATM   18  C   UNL     1      -8.535   7.849  64.974  1.00  0.00    -0.055 A  
HETATM   19  C   UNL     1      -8.003   6.597  65.210  1.00  0.00    -0.123 A  
HETATM   20  N   UNL     1      -8.262   8.418  63.801  1.00  0.00    -0.140 NA 
HETATM   21  C   UNL     1      -8.818   9.606  63.580  1.00  0.00    -0.234 A  
HETATM   22  C   UNL     1      -8.244   5.912  66.402  1.00  0.00    -0.112 A  
HETATM   23  N   UNL     1      -9.604  10.263  64.428  1.00  0.00    -0.298 NA 
HETATM   24  C   UNL     1      -9.864   9.705  65.620  1.00  0.00    -0.299 A  
BRANCH  24  25
HETATM   25  N   UNL     1     -10.756  10.358  66.520  1.00  0.00    -0.144 NA 
HETATM   26  H   UNL     1     -11.342   9.744  67.086  1.00  0.00     0.000 HD 
BRANCH  25  27
HETATM   27  C   UNL     1     -10.935  11.745  66.731  1.00  0.00    -0.288 A  
HETATM   28  C   UNL     1     -11.490  12.275  67.894  1.00  0.00    -0.390 A  
HETATM   29  C   UNL     1     -11.572  13.649  68.132  1.00  0.00    -0.332 A  
HETATM   30  C   UNL     1     -11.054  14.549  67.195  1.00  0.00    -0.321 A  
HETATM   31 CL   UNL     1     -12.383  14.060  69.607  1.00  0.00    -0.362 Cl 
HETATM   32  C   UNL     1     -10.554  14.033  65.989  1.00  0.00    -0.297 A  
HETATM   33  C   UNL     1     -10.500  12.649  65.757  1.00  0.00    -0.299 A  
BRANCH  30  34
HETATM   34  O   UNL     1     -10.967  15.917  67.278  1.00  0.00    -0.310 OA 
BRANCH  34  35
HETATM   35  C   UNL     1     -10.237  16.561  66.238  1.00  0.00    -0.332 C  
BRANCH  35  36
HETATM   36  C   UNL     1      -9.790  17.941  66.646  1.00  0.00    -0.342 A  
HETATM   37  C   UNL     1      -8.474  18.358  66.426  1.00  0.00    -0.264 A  
HETATM   38  C   UNL     1      -8.055  19.588  66.918  1.00  0.00    -0.282 A  
HETATM   39  C   UNL     1      -8.923  20.414  67.624  1.00  0.00    -0.364 A  
HETATM   40  F   UNL     1      -6.788  19.976  66.724  1.00  0.00    -0.206 F  
HETATM   41  C   UNL     1     -10.234  20.008  67.843  1.00  0.00    -0.545 A  
HETATM   42  C   UNL     1     -10.669  18.777  67.359  1.00  0.00    -0.487 A  
ENDBRANCH  35  36
ENDBRANCH  34  35
ENDBRANCH  30  34
ENDBRANCH  25  27
ENDBRANCH  24  25
ENDBRANCH  13  15
ENDBRANCH   9  10
ENDBRANCH   7   9
ENDBRANCH   6   7
ENDBRANCH   5   6
ENDBRANCH   2   5
TORSDOF 11
ENDMDL
MODEL       98
REMARK 921   NORMALIZED FREE ENERGY PREDICTED BY IDOCK:   -5.63 KCAL/MOL
REMARK 922        TOTAL FREE ENERGY PREDICTED BY IDOCK:  -11.99 KCAL/MOL
REMARK 923 INTER-LIGAND FREE ENERGY PREDICTED BY IDOCK:  -10.44 KCAL/MOL
REMARK 924 INTRA-LIGAND FREE ENERGY PREDICTED BY IDOCK:   -1.55 KCAL/MOL
REMARK 927      BINDING AFFINITY PREDICTED BY RF-SCORE:    0.00 PKD
ROOT
HETATM    1  C   UNL     1      -8.235   5.549  65.769  1.00  0.00    -0.124 C  
HETATM    2  S   UNL     1      -9.594   4.488  66.186  1.00  0.00    -0.210 S  
HETATM    3  O   UNL     1      -9.069   3.371  66.946  1.00  0.00    -0.145 OA 
HETATM    4  O   UNL     1     -10.376   4.281  64.984  1.00  0.00    -0.232 OA 
ENDROOT
BRANCH   2   5
HETATM    5  C   UNL     1     -10.538   5.515  67.289  1.00  0.00    -0.219 C  
BRANCH   5   6
HETATM    6  C   UNL     1     -10.371   6.990  66.954  1.00  0.00    -0.268 C  
BRANCH   6   7
HETATM    7  N   UNL     1      -9.780   7.772  68.046  1.00  0.00    -0.150 NA 
HETATM    8  H   UNL     1     -10.200   8.701  68.094  1.00  0.00     0.000 HD 
BRANCH   7   9
HETATM    9  C   UNL     1      -9.852   7.103  69.345  1.00  0.00    -0.161 C  
BRANCH   9  10
HETATM   10  C   UNL     1     -10.950   7.677  70.165  1.00  0.00    -0.246 A  
HETATM   11  C   UNL     1     -11.901   7.123  70.993  1.00  0.00    -0.373 A  
HETATM   12  C   UNL     1     -12.670   8.200  71.492  1.00  0.00    -0.327 A  
HETATM   13  C   UNL     1     -12.133   9.355  70.959  1.00  0.00    -0.298 A  
HETATM   14  O   UNL     1     -11.077   9.032  70.154  1.00  0.00    -0.239 OA 
BRANCH  13  15
HETATM   15  C   UNL     1     -12.438  10.775  71.067  1.00  0.00    -0.522 A  
HETATM   16  C   UNL     1     -11.868  11.709  70.191  1.00  0.00    -0.428 A  
HETATM   17  C   UNL     1     -12.156  13.096  70.299  1.00  0.00    -0.399 A  
HETATM   18  C   UNL     1     -13.028  13.541  71.305  1.00  0.00    -0.304 A  
HETATM   19  C   UNL     1     -13.585  12.614  72.164  1.00  0.00    -0.510 A  
HETATM   20  N   UNL     1     -13.346  14.820  71.497  1.00  0.00    -0.350 NA 
HETATM   21  C   UNL     1     -12.768  15.698  70.683  1.00  0.00    -0.394 A  
HETATM   22  C   UNL     1     -13.301  11.252  72.055  1.00  0.00    -0.386 A  
HETATM   23  N   UNL     1     -11.918  15.403  69.702  1.00  0.00    -0.337 NA 
HETATM   24  C   UNL     1     -11.612  14.115  69.490  1.00  0.00    -0.295 A  
BRANCH  24  25
HETATM   25  N   UNL     1     -10.655  13.777  68.490  1.00  0.00    -0.249 NA 
HETATM   26  H   UNL     1     -10.846  12.925  67.963  1.00  0.00     0.000 HD 
BRANCH  25  27
HETATM   27  C   UNL     1      -9.474  14.468  68.133  1.00  0.00    -0.208 A  
HETATM   28  C   UNL     1      -8.277  14.353  68.839  1.00  0.00    -0.082 A  
HETATM   29  C   UNL     1      -7.093  14.963  68.420  1.00  0.00    -0.113 A  
HETATM   30  C   UNL     1      -7.073  15.700  67.230  1.00  0.00    -0.207 A  
HETATM   31 CL   UNL     1      -5.766  14.747  69.513  1.00  0.00    -0.096 Cl 
HETATM   32  C   UNL     1      -8.284  15.881  66.545  1.00  0.00    -0.307 A  
HETATM   33  C   UNL     1      -9.470  15.278  66.993  1.00  0.00    -0.235 A  
BRANCH  30  34
HETATM   34  O   UNL     1      -6.004  16.303  66.614  1.00  0.00    -0.286 OA 
BRANCH  34  35
HETATM   35  C   UNL     1      -5.347  17.324  67.361  1.00  0.00    -0.133 C  
BRANCH  35  36
HETATM   36  C   UNL     1      -5.801  18.697  66.941  1.00  0.00    -0.165 A  
HETATM   37  C   UNL     1      -6.248  18.932  65.637  1.00  0.00    -0.279 A  
HETATM   38  C   UNL     1      -6.548  20.230  65.240  1.00  0.00    -0.286 A  
HETATM   39  C   UNL     1      -6.411  21.300  66.117  1.00  0.00    -0.197 A  
HETATM   40  F   UNL     1      -6.956  20.454  63.984  1.00  0.00    -0.101 F  
HETATM   41  C   UNL     1      -5.970  21.073  67.416  1.00  0.00    -0.365 A  
HETATM   42  C   UNL     1      -5.664  19.779  67.829  1.00  0.00    -0.211 A  
ENDBRANCH  35  36
ENDBRANCH  34  35
ENDBRANCH  30  34
ENDBRANCH  25  27
ENDBRANCH  24  25
ENDBRANCH  13  15
ENDBRANCH   9  10
ENDBRANCH   7   9
ENDBRANCH   6   7
ENDBRANCH   5   6
ENDBRANCH   2   5
TORSDOF 11
ENDMDL
MODEL       99
REMARK 921   NORMALIZED FREE ENERGY PREDICTED BY IDOCK:   -5.62 KCAL/MOL
REMARK 922        TOTAL FREE ENERGY PREDICTED BY IDOCK:  -11.98 KCAL/MOL
REMARK 923 INTER-LIGAND FREE ENERGY PREDICTED BY IDOCK:   -9.89 KCAL/MOL
REMARK 924 INTRA-LIGAND FREE ENERGY PREDICTED BY IDOCK:   -2.09 KCAL/MOL
REMARK 927      BINDING AFFINITY PREDICTED BY RF-SCORE:    0.00 PKD
ROOT
HETATM    1  C   UNL     1     -11.899  14.761  68.223  1.00  0.00    -0.284 C  
HETATM    2  S   UNL     1     -11.600  13.449  67.068  1.00  0.00    -0.378 S  
HETATM    3  O   UNL     1     -12.144  12.229  67.630  1.00  0.00    -0.502 OA 
HETATM    4  O   UNL     1     -10.215  13.535  66.651  1.00  0.00    -0.265 OA 
ENDROOT
BRANCH   2   5
HETATM    5  C   UNL     1     -12.621  13.930  65.692  1.00  0.00    -0.517 C  
BRANCH   5   6
HETATM    6  C   UNL     1     -11.780  14.301  64.479  1.00  0.00    -0.418 C  
BRANCH   6   7
HETATM    7  N   UNL     1     -12.235  13.664  63.239  1.00  0.00    -1.063 NA 
HETATM    8  H   UNL     1     -11.602  13.880  62.468  1.00  0.00     0.000 HD 
BRANCH   7   9
HETATM    9  C   UNL     1     -12.428  12.219  63.363  1.00  0.00    -0.481 C  
BRANCH   9  10
HETATM   10  C   UNL     1     -11.146  11.553  63.714  1.00  0.00    -0.390 A  
HETATM   11  C   UNL     1      -9.922  11.469  63.087  1.00  0.00    -0.404 A  
HETATM   12  C   UNL     1      -9.097  10.688  63.929  1.00  0.00    -0.244 A  
HETATM   13  C   UNL     1      -9.855  10.357  65.035  1.00  0.00    -0.319 A  
HETATM   14  O   UNL     1     -11.104  10.893  64.903  1.00  0.00    -0.076 OA 
BRANCH  13  15
HETATM   15  C   UNL     1      -9.616   9.593  66.252  1.00  0.00    -0.281 A  
HETATM   16  C   UNL     1      -8.459   9.790  67.018  1.00  0.00    -0.117 A  
HETATM   17  C   UNL     1      -8.219   9.040  68.201  1.00  0.00    -0.113 A  
HETATM   18  C   UNL     1      -9.160   8.082  68.610  1.00  0.00    -0.140 A  
HETATM   19  C   UNL     1     -10.297   7.894  67.850  1.00  0.00    -0.281 A  
HETATM   20  N   UNL     1      -9.017   7.320  69.693  1.00  0.00    -0.141 NA 
HETATM   21  C   UNL     1      -7.896   7.490  70.389  1.00  0.00    -0.097 A  
HETATM   22  C   UNL     1     -10.531   8.633  66.689  1.00  0.00    -0.239 A  
HETATM   23  N   UNL     1      -6.927   8.355  70.097  1.00  0.00    -0.042 NA 
HETATM   24  C   UNL     1      -7.076   9.141  69.020  1.00  0.00    -0.067 A  
BRANCH  24  25
HETATM   25  N   UNL     1      -6.025  10.028  68.648  1.00  0.00    -0.041 NA 
HETATM   26  H   UNL     1      -5.185   9.588  68.274  1.00  0.00     0.000 HD 
BRANCH  25  27
HETATM   27  C   UNL     1      -5.995  11.440  68.730  1.00  0.00    -0.043 A  
HETATM   28  C   UNL     1      -5.934  12.134  69.938  1.00  0.00    -0.149 A  
HETATM   29  C   UNL     1      -5.805  13.523  70.002  1.00  0.00    -0.135 A  
HETATM   30  C   UNL     1      -5.699  14.268  68.822  1.00  0.00    -0.085 A  
HETATM   31 CL   UNL     1      -5.843  14.158  71.614  1.00  0.00    -0.207 Cl 
HETATM   32  C   UNL     1      -5.828  13.590  67.600  1.00  0.00    -0.075 A  
HETATM   33  C   UNL     1      -5.979  12.195  67.554  1.00  0.00    -0.124 A  
BRANCH  30  34
HETATM   34  O   UNL     1      -5.491  15.617  68.677  1.00  0.00    -0.092 OA 
BRANCH  34  35
HETATM   35  C   UNL     1      -6.073  16.219  67.524  1.00  0.00    -0.161 C  
BRANCH  35  36
HETATM   36  C   UNL     1      -6.231  17.707  67.695  1.00  0.00    -0.172 A  
HETATM   37  C   UNL     1      -6.421  18.262  68.963  1.00  0.00    -0.251 A  
HETATM   38  C   UNL     1      -6.683  19.622  69.083  1.00  0.00    -0.348 A  
HETATM   39  C   UNL     1      -6.759  20.441  67.962  1.00  0.00    -0.336 A  
HETATM   40  F   UNL     1      -6.886  20.147  70.298  1.00  0.00    -0.380 F  
HETATM   41  C   UNL     1      -6.567  19.897  66.697  1.00  0.00    -0.214 A  
HETATM   42  C   UNL     1      -6.305  18.536  66.560  1.00  0.00    -0.213 A  
ENDBRANCH  35  36
ENDBRANCH  34  35
ENDBRANCH  30  34
ENDBRANCH  25  27
ENDBRANCH  24  25
ENDBRANCH  13  15
ENDBRANCH   9  10
ENDBRANCH   7   9
ENDBRANCH   6   7
ENDBRANCH   5   6
ENDBRANCH   2   5
TORSDOF 11
ENDMDL
MODEL      100
REMARK 921   NORMALIZED FREE ENERGY PREDICTED BY IDOCK:   -5.61 KCAL/MOL
REMARK 922        TOTAL FREE ENERGY PREDICTED BY IDOCK:  -11.96 KCAL/MOL
REMARK 923 INTER-LIGAND FREE ENERGY PREDICTED BY IDOCK:   -9.92 KCAL/MOL
REMARK 924 INTRA-LIGAND FREE ENERGY PREDICTED BY IDOCK:   -2.05 KCAL/MOL
REMARK 927      BINDING AFFINITY PREDICTED BY RF-SCORE:    0.00 PKD
ROOT
HETATM    1  C   UNL     1     -13.023  14.238  73.059  1.00  0.00    -0.410 C  
HETATM    2  S   UNL     1     -12.632  15.563  71.946  1.00  0.00    -0.443 S  
HETATM    3  O   UNL     1     -12.100  16.659  72.731  1.00  0.00    -0.450 OA 
HETATM    4  O   UNL     1     -13.767  15.748  71.065  1.00  0.00    -0.539 OA 
ENDROOT
BRANCH   2   5
HETATM    5  C   UNL     1     -11.302  14.864  70.994  1.00  0.00    -0.215 C  
BRANCH   5   6
HETATM    6  C   UNL     1     -11.690  14.703  69.532  1.00  0.00    -0.324 C  
BRANCH   6   7
HETATM    7  N   UNL     1     -12.433  13.468  69.260  1.00  0.00    -0.156 NA 
HETATM    8  H   UNL     1     -12.927  13.532  68.369  1.00  0.00     0.000 HD 
BRANCH   7   9
HETATM    9  C   UNL     1     -11.600  12.266  69.305  1.00  0.00    -0.324 C  
BRANCH   9  10
HETATM   10  C   UNL     1     -12.106  11.322  70.336  1.00  0.00    -0.384 A  
HETATM   11  C   UNL     1     -13.159  11.368  71.223  1.00  0.00    -0.297 A  
HETATM   12  C   UNL     1     -13.121  10.153  71.948  1.00  0.00    -0.571 A  
HETATM   13  C   UNL     1     -12.061   9.424  71.448  1.00  0.00    -0.363 A  
HETATM   14  O   UNL     1     -11.447  10.139  70.458  1.00  0.00    -0.287 OA 
BRANCH  13  15
HETATM   15  C   UNL     1     -11.485   8.118  71.738  1.00  0.00    -0.337 A  
HETATM   16  C   UNL     1     -11.150   7.226  70.709  1.00  0.00    -0.290 A  
HETATM   17  C   UNL     1     -10.597   5.948  70.990  1.00  0.00    -0.312 A  
HETATM   18  C   UNL     1     -10.383   5.569  72.324  1.00  0.00    -0.210 A  
HETATM   19  C   UNL     1     -10.716   6.453  73.331  1.00  0.00    -0.286 A  
HETATM   20  N   UNL     1      -9.886   4.388  72.687  1.00  0.00    -0.148 NA 
HETATM   21  C   UNL     1      -9.609   3.538  71.702  1.00  0.00    -0.158 A  
HETATM   22  C   UNL     1     -11.258   7.709  73.053  1.00  0.00    -0.388 A  
HETATM   23  N   UNL     1      -9.778   3.775  70.404  1.00  0.00    -0.189 NA 
HETATM   24  C   UNL     1     -10.257   4.971  70.031  1.00  0.00    -0.269 A  
BRANCH  24  25
HETATM   25  N   UNL     1     -10.510   5.227  68.652  1.00  0.00    -0.126 NA 
HETATM   26  H   UNL     1     -11.270   4.692  68.234  1.00  0.00     0.000 HD 
BRANCH  25  27
HETATM   27  C   UNL     1      -9.843   6.127  67.787  1.00  0.00    -0.123 A  
HETATM   28  C   UNL     1      -8.506   5.984  67.421  1.00  0.00    -0.104 A  
HETATM   29  C   UNL     1      -7.887   6.822  66.489  1.00  0.00    -0.104 A  
HETATM   30  C   UNL     1      -8.626   7.832  65.863  1.00  0.00    -0.153 A  
HETATM   31 CL   UNL     1      -6.199   6.501  66.269  1.00  0.00    -0.036 Cl 
HETATM   32  C   UNL     1      -9.953   8.030  66.272  1.00  0.00    -0.116 A  
HETATM   33  C   UNL     1     -10.553   7.192  67.226  1.00  0.00    -0.398 A  
BRANCH  30  34
HETATM   34  O   UNL     1      -8.226   8.698  64.875  1.00  0.00    -0.141 OA 
BRANCH  34  35
HETATM   35  C   UNL     1      -9.022   9.868  64.711  1.00  0.00    -0.217 C  
BRANCH  35  36
HETATM   36  C   UNL     1      -8.571  10.978  65.623  1.00  0.00    -0.131 A  
HETATM   37  C   UNL     1      -7.293  10.960  66.191  1.00  0.00    -0.103 A  
HETATM   38  C   UNL     1      -6.943  11.931  67.121  1.00  0.00    -0.142 A  
HETATM   39  C   UNL     1      -7.842  12.923  67.499  1.00  0.00    -0.177 A  
HETATM   40  F   UNL     1      -5.726  11.898  67.679  1.00  0.00    -0.046 F  
HETATM   41  C   UNL     1      -9.113  12.950  66.936  1.00  0.00    -0.224 A  
HETATM   42  C   UNL     1      -9.480  11.983  66.003  1.00  0.00    -0.229 A  
ENDBRANCH  35  36
ENDBRANCH  34  35
ENDBRANCH  30  34
ENDBRANCH  25  27
ENDBRANCH  24  25
ENDBRANCH  13  15
ENDBRANCH   9  10
ENDBRANCH   7   9
ENDBRANCH   6   7
ENDBRANCH   5   6
ENDBRANCH   2   5
TORSDOF 11
ENDMDL
MODEL      101
REMARK 921   NORMALIZED FREE ENERGY PREDICTED BY IDOCK:   -5.61 KCAL/MOL
REMARK 922        TOTAL FREE ENERGY PREDICTED BY IDOCK:  -11.96 KCAL/MOL
REMARK 923 INTER-LIGAND FREE ENERGY PREDICTED BY IDOCK:  -10.43 KCAL/MOL
REMARK 924 INTRA-LIGAND FREE ENERGY PREDICTED BY IDOCK:   -1.54 KCAL/MOL
REMARK 927      BINDING AFFINITY PREDICTED BY RF-SCORE:    0.00 PKD
ROOT
HETATM    1  C   UNL     1      -9.813  18.530  68.330  1.00  0.00    -0.372 C  
HETATM    2  S   UNL     1      -9.141  19.694  67.173  1.00  0.00    -0.331 S  
HETATM    3  O   UNL     1     -10.033  20.834  67.120  1.00  0.00    -0.422 OA 
HETATM    4  O   UNL     1      -8.777  18.965  65.975  1.00  0.00    -0.466 OA 
ENDROOT
BRANCH   2   5
HETATM    5  C   UNL     1      -7.642  20.199  67.988  1.00  0.00    -0.243 C  
BRANCH   5   6
HETATM    6  C   UNL     1      -6.414  19.624  67.298  1.00  0.00    -0.194 C  
BRANCH   6   7
HETATM    7  N   UNL     1      -5.606  18.765  68.170  1.00  0.00    -0.184 NA 
HETATM    8  H   UNL     1      -6.034  18.681  69.093  1.00  0.00     0.000 HD 
BRANCH   7   9
HETATM    9  C   UNL     1      -5.338  17.443  67.601  1.00  0.00    -0.119 C  
BRANCH   9  10
HETATM   10  C   UNL     1      -6.476  16.525  67.865  1.00  0.00    -0.135 A  
HETATM   11  C   UNL     1      -6.873  15.806  68.972  1.00  0.00    -0.148 A  
HETATM   12  C   UNL     1      -8.048  15.114  68.595  1.00  0.00    -0.154 A  
HETATM   13  C   UNL     1      -8.317  15.465  67.287  1.00  0.00    -0.199 A  
HETATM   14  O   UNL     1      -7.357  16.333  66.847  1.00  0.00    -0.203 OA 
BRANCH  13  15
HETATM   15  C   UNL     1      -9.354  15.123  66.324  1.00  0.00    -0.348 A  
HETATM   16  C   UNL     1      -9.606  13.790  65.971  1.00  0.00    -0.197 A  
HETATM   17  C   UNL     1     -10.612  13.454  65.025  1.00  0.00    -0.370 A  
HETATM   18  C   UNL     1     -11.367  14.477  64.431  1.00  0.00    -0.236 A  
HETATM   19  C   UNL     1     -11.111  15.787  64.783  1.00  0.00    -0.413 A  
HETATM   20  N   UNL     1     -12.317  14.263  63.522  1.00  0.00    -0.672 NA 
HETATM   21  C   UNL     1     -12.519  12.997  63.169  1.00  0.00    -0.039 A  
HETATM   22  C   UNL     1     -10.124  16.115  65.714  1.00  0.00    -0.390 A  
HETATM   23  N   UNL     1     -11.863  11.944  63.650  1.00  0.00    -0.481 NA 
HETATM   24  C   UNL     1     -10.920  12.151  64.581  1.00  0.00    -0.312 A  
BRANCH  24  25
HETATM   25  N   UNL     1     -10.157  11.049  65.065  1.00  0.00    -0.275 NA 
HETATM   26  H   UNL     1      -9.593  10.562  64.370  1.00  0.00     0.000 HD 
BRANCH  25  27
HETATM   27  C   UNL     1     -10.081  10.542  66.384  1.00  0.00    -0.228 A  
HETATM   28  C   UNL     1     -11.015  10.845  67.373  1.00  0.00    -0.353 A  
HETATM   29  C   UNL     1     -10.984  10.261  68.642  1.00  0.00    -0.244 A  
HETATM   30  C   UNL     1     -10.005   9.309  68.946  1.00  0.00    -0.181 A  
HETATM   31 CL   UNL     1     -12.196  10.865  69.723  1.00  0.00    -0.398 Cl 
HETATM   32  C   UNL     1      -9.017   9.046  67.984  1.00  0.00    -0.133 A  
HETATM   33  C   UNL     1      -9.052   9.658  66.721  1.00  0.00    -0.171 A  
BRANCH  30  34
HETATM   34  O   UNL     1      -9.854   8.572  70.095  1.00  0.00    -0.175 OA 
BRANCH  34  35
HETATM   35  C   UNL     1     -10.656   7.399  70.195  1.00  0.00    -0.230 C  
BRANCH  35  36
HETATM   36  C   UNL     1     -10.156   6.306  69.288  1.00  0.00    -0.213 A  
HETATM   37  C   UNL     1     -10.807   6.027  68.083  1.00  0.00    -0.365 A  
HETATM   38  C   UNL     1     -10.400   4.938  67.321  1.00  0.00    -0.094 A  
HETATM   39  C   UNL     1      -9.355   4.120  67.736  1.00  0.00    -0.211 A  
HETATM   40  F   UNL     1     -11.040   4.660  66.178  1.00  0.00    -0.258 F  
HETATM   41  C   UNL     1      -8.700   4.394  68.931  1.00  0.00    -0.114 A  
HETATM   42  C   UNL     1      -9.097   5.481  69.707  1.00  0.00    -0.157 A  
ENDBRANCH  35  36
ENDBRANCH  34  35
ENDBRANCH  30  34
ENDBRANCH  25  27
ENDBRANCH  24  25
ENDBRANCH  13  15
ENDBRANCH   9  10
ENDBRANCH   7   9
ENDBRANCH   6   7
ENDBRANCH   5   6
ENDBRANCH   2   5
TORSDOF 11
ENDMDL
MODEL      102
REMARK 921   NORMALIZED FREE ENERGY PREDICTED BY IDOCK:   -5.57 KCAL/MOL
REMARK 922        TOTAL FREE ENERGY PREDICTED BY IDOCK:  -11.90 KCAL/MOL
REMARK 923 INTER-LIGAND FREE ENERGY PREDICTED BY IDOCK:   -9.64 KCAL/MOL
REMARK 924 INTRA-LIGAND FREE ENERGY PREDICTED BY IDOCK:   -2.26 KCAL/MOL
REMARK 927      BINDING AFFINITY PREDICTED BY RF-SCORE:    0.00 PKD
ROOT
HETATM    1  C   UNL     1     -12.273  12.980  63.502  1.00  0.00    -0.501 C  
HETATM    2  S   UNL     1     -11.248  12.440  64.845  1.00  0.00    -0.322 S  
HETATM    3  O   UNL     1     -12.087  12.306  66.019  1.00  0.00    -0.623 OA 
HETATM    4  O   UNL     1     -10.062  13.273  64.857  1.00  0.00    -0.294 OA 
ENDROOT
BRANCH   2   5
HETATM    5  C   UNL     1     -10.772  10.811  64.313  1.00  0.00    -0.025 C  
BRANCH   5   6
HETATM    6  C   UNL     1      -9.265  10.702  64.137  1.00  0.00    -0.236 C  
BRANCH   6   7
HETATM    7  N   UNL     1      -8.639   9.743  65.053  1.00  0.00    -0.151 NA 
HETATM    8  H   UNL     1      -8.914   8.788  64.821  1.00  0.00     0.000 HD 
BRANCH   7   9
HETATM    9  C   UNL     1      -7.182   9.862  65.116  1.00  0.00    -0.133 C  
BRANCH   9  10
HETATM   10  C   UNL     1      -6.789  10.927  66.076  1.00  0.00    -0.072 A  
HETATM   11  C   UNL     1      -5.577  11.348  66.576  1.00  0.00    -0.142 A  
HETATM   12  C   UNL     1      -5.861  12.415  67.461  1.00  0.00    -0.142 A  
HETATM   13  C   UNL     1      -7.229  12.601  67.435  1.00  0.00    -0.138 A  
HETATM   14  O   UNL     1      -7.792  11.694  66.582  1.00  0.00    -0.149 OA 
BRANCH  13  15
HETATM   15  C   UNL     1      -8.154  13.514  68.092  1.00  0.00    -0.154 A  
HETATM   16  C   UNL     1      -9.452  13.111  68.435  1.00  0.00    -0.166 A  
HETATM   17  C   UNL     1     -10.360  14.002  69.068  1.00  0.00    -0.136 A  
HETATM   18  C   UNL     1      -9.950  15.313  69.355  1.00  0.00    -0.255 A  
HETATM   19  C   UNL     1      -8.670  15.702  69.014  1.00  0.00    -0.240 A  
HETATM   20  N   UNL     1     -10.732  16.224  69.930  1.00  0.00    -0.332 NA 
HETATM   21  C   UNL     1     -11.973  15.839  70.214  1.00  0.00    -0.361 A  
HETATM   22  C   UNL     1      -7.779  14.825  68.393  1.00  0.00    -0.122 A  
HETATM   23  N   UNL     1     -12.482  14.632  69.982  1.00  0.00    -0.313 NA 
HETATM   24  C   UNL     1     -11.692  13.703  69.423  1.00  0.00    -0.324 A  
BRANCH  24  25
HETATM   25  N   UNL     1     -12.231  12.424  69.103  1.00  0.00    -0.116 NA 
HETATM   26  H   UNL     1     -12.747  12.367  68.226  1.00  0.00     0.000 HD 
BRANCH  25  27
HETATM   27  C   UNL     1     -12.144  11.221  69.844  1.00  0.00    -0.341 A  
HETATM   28  C   UNL     1     -11.306  10.165  69.489  1.00  0.00    -0.260 A  
HETATM   29  C   UNL     1     -11.155   9.024  70.281  1.00  0.00    -0.235 A  
HETATM   30  C   UNL     1     -11.838   8.928  71.499  1.00  0.00    -0.332 A  
HETATM   31 CL   UNL     1     -10.129   7.815  69.583  1.00  0.00    -0.191 Cl 
HETATM   32  C   UNL     1     -12.737   9.952  71.835  1.00  0.00    -0.501 A  
HETATM   33  C   UNL     1     -12.892  11.081  71.016  1.00  0.00    -0.442 A  
BRANCH  30  34
HETATM   34  O   UNL     1     -11.764   7.936  72.446  1.00  0.00    -0.333 OA 
BRANCH  34  35
HETATM   35  C   UNL     1     -10.492   7.753  73.061  1.00  0.00    -0.369 C  
BRANCH  35  36
HETATM   36  C   UNL     1     -10.111   6.298  73.125  1.00  0.00    -0.203 A  
HETATM   37  C   UNL     1      -9.093   5.792  72.311  1.00  0.00    -0.145 A  
HETATM   38  C   UNL     1      -8.840   4.425  72.301  1.00  0.00    -0.113 A  
HETATM   39  C   UNL     1      -9.582   3.551  73.088  1.00  0.00    -0.149 A  
HETATM   40  F   UNL     1      -7.878   3.941  71.505  1.00  0.00    -0.056 F  
HETATM   41  C   UNL     1     -10.593   4.047  73.902  1.00  0.00    -0.293 A  
HETATM   42  C   UNL     1     -10.860   5.414  73.922  1.00  0.00    -0.228 A  
ENDBRANCH  35  36
ENDBRANCH  34  35
ENDBRANCH  30  34
ENDBRANCH  25  27
ENDBRANCH  24  25
ENDBRANCH  13  15
ENDBRANCH   9  10
ENDBRANCH   7   9
ENDBRANCH   6   7
ENDBRANCH   5   6
ENDBRANCH   2   5
TORSDOF 11
ENDMDL
MODEL      103
REMARK 921   NORMALIZED FREE ENERGY PREDICTED BY IDOCK:   -5.56 KCAL/MOL
REMARK 922        TOTAL FREE ENERGY PREDICTED BY IDOCK:  -11.88 KCAL/MOL
REMARK 923 INTER-LIGAND FREE ENERGY PREDICTED BY IDOCK:   -9.68 KCAL/MOL
REMARK 924 INTRA-LIGAND FREE ENERGY PREDICTED BY IDOCK:   -2.20 KCAL/MOL
REMARK 927      BINDING AFFINITY PREDICTED BY RF-SCORE:    0.00 PKD
ROOT
HETATM    1  C   UNL     1      -6.175  14.502  69.036  1.00  0.00    -0.092 C  
HETATM    2  S   UNL     1      -7.272  15.699  68.321  1.00  0.00    -0.121 S  
HETATM    3  O   UNL     1      -6.952  15.809  66.912  1.00  0.00    -0.225 OA 
HETATM    4  O   UNL     1      -7.279  16.862  69.185  1.00  0.00    -0.232 OA 
ENDROOT
BRANCH   2   5
HETATM    5  C   UNL     1      -8.849  14.890  68.472  1.00  0.00    -0.174 C  
BRANCH   5   6
HETATM    6  C   UNL     1      -9.895  15.541  67.579  1.00  0.00    -0.220 C  
BRANCH   6   7
HETATM    7  N   UNL     1      -9.798  15.132  66.174  1.00  0.00    -0.280 NA 
HETATM    8  H   UNL     1      -9.364  14.212  66.095  1.00  0.00     0.000 HD 
BRANCH   7   9
HETATM    9  C   UNL     1     -11.080  15.164  65.469  1.00  0.00    -0.345 C  
BRANCH   9  10
HETATM   10  C   UNL     1     -11.234  13.955  64.618  1.00  0.00    -0.378 A  
HETATM   11  C   UNL     1     -12.267  13.466  63.848  1.00  0.00    -0.478 A  
HETATM   12  C   UNL     1     -11.798  12.261  63.274  1.00  0.00    -0.476 A  
HETATM   13  C   UNL     1     -10.497  12.093  63.706  1.00  0.00    -0.437 A  
HETATM   14  O   UNL     1     -10.154  13.133  64.522  1.00  0.00    -0.321 OA 
BRANCH  13  15
HETATM   15  C   UNL     1      -9.465  11.089  63.488  1.00  0.00    -0.315 A  
HETATM   16  C   UNL     1      -9.453   9.890  64.213  1.00  0.00    -0.280 A  
HETATM   17  C   UNL     1      -8.441   8.912  64.009  1.00  0.00    -0.146 A  
HETATM   18  C   UNL     1      -7.433   9.154  63.063  1.00  0.00    -0.103 A  
HETATM   19  C   UNL     1      -7.452  10.338  62.353  1.00  0.00    -0.154 A  
HETATM   20  N   UNL     1      -6.435   8.307  62.813  1.00  0.00    -0.086 NA 
HETATM   21  C   UNL     1      -6.414   7.192  63.537  1.00  0.00    -0.044 A  
HETATM   22  C   UNL     1      -8.447  11.296  62.554  1.00  0.00    -0.161 A  
HETATM   23  N   UNL     1      -7.304   6.856  64.468  1.00  0.00    -0.084 NA 
HETATM   24  C   UNL     1      -8.324   7.693  64.708  1.00  0.00    -0.027 A  
BRANCH  24  25
HETATM   25  N   UNL     1      -9.252   7.389  65.745  1.00  0.00    -0.390 NA 
HETATM   26  H   UNL     1     -10.198   7.161  65.440  1.00  0.00     0.000 HD 
BRANCH  25  27
HETATM   27  C   UNL     1      -9.034   7.362  67.142  1.00  0.00    -0.126 A  
HETATM   28  C   UNL     1      -8.296   8.333  67.818  1.00  0.00    -0.128 A  
HETATM   29  C   UNL     1      -8.170   8.349  69.210  1.00  0.00    -0.116 A  
HETATM   30  C   UNL     1      -8.826   7.382  69.979  1.00  0.00    -0.141 A  
HETATM   31 CL   UNL     1      -7.131   9.601  69.806  1.00  0.00    -0.072 Cl 
HETATM   32  C   UNL     1      -9.514   6.359  69.309  1.00  0.00    -0.140 A  
HETATM   33  C   UNL     1      -9.613   6.346  67.908  1.00  0.00    -0.121 A  
BRANCH  30  34
HETATM   34  O   UNL     1      -8.889   7.274  71.347  1.00  0.00    -0.130 OA 
BRANCH  34  35
HETATM   35  C   UNL     1      -9.211   8.469  72.053  1.00  0.00    -0.256 C  
BRANCH  35  36
HETATM   36  C   UNL     1     -10.640   8.883  71.822  1.00  0.00    -0.432 A  
HETATM   37  C   UNL     1     -10.946   9.940  70.960  1.00  0.00    -0.360 A  
HETATM   38  C   UNL     1     -12.260  10.380  70.855  1.00  0.00    -0.383 A  
HETATM   39  C   UNL     1     -13.278   9.786  71.593  1.00  0.00    -0.514 A  
HETATM   40  F   UNL     1     -12.546  11.406  70.044  1.00  0.00    -0.299 F  
HETATM   41  C   UNL     1     -12.983   8.732  72.450  1.00  0.00    -0.442 A  
HETATM   42  C   UNL     1     -11.671   8.281  72.568  1.00  0.00    -0.451 A  
ENDBRANCH  35  36
ENDBRANCH  34  35
ENDBRANCH  30  34
ENDBRANCH  25  27
ENDBRANCH  24  25
ENDBRANCH  13  15
ENDBRANCH   9  10
ENDBRANCH   7   9
ENDBRANCH   6   7
ENDBRANCH   5   6
ENDBRANCH   2   5
TORSDOF 11
ENDMDL
MODEL      104
REMARK 921   NORMALIZED FREE ENERGY PREDICTED BY IDOCK:   -5.56 KCAL/MOL
REMARK 922        TOTAL FREE ENERGY PREDICTED BY IDOCK:  -11.88 KCAL/MOL
REMARK 923 INTER-LIGAND FREE ENERGY PREDICTED BY IDOCK:   -9.61 KCAL/MOL
REMARK 924 INTRA-LIGAND FREE ENERGY PREDICTED BY IDOCK:   -2.26 KCAL/MOL
REMARK 927      BINDING AFFINITY PREDICTED BY RF-SCORE:    0.00 PKD
ROOT
HETATM    1  C   UNL     1      -8.514  18.727  66.718  1.00  0.00    -0.287 C  
HETATM    2  S   UNL     1     -10.257  18.443  66.557  1.00  0.00    -0.414 S  
HETATM    3  O   UNL     1     -10.443  17.314  65.668  1.00  0.00    -0.561 OA 
HETATM    4  O   UNL     1     -10.890  19.720  66.296  1.00  0.00    -0.429 OA 
ENDROOT
BRANCH   2   5
HETATM    5  C   UNL     1     -10.701  17.934  68.202  1.00  0.00    -0.274 C  
BRANCH   5   6
HETATM    6  C   UNL     1     -10.557  16.429  68.376  1.00  0.00    -0.311 C  
BRANCH   6   7
HETATM    7  N   UNL     1     -11.785  15.776  68.840  1.00  0.00    -0.404 NA 
HETATM    8  H   UNL     1     -12.605  16.189  68.395  1.00  0.00     0.000 HD 
BRANCH   7   9
HETATM    9  C   UNL     1     -11.776  14.323  68.662  1.00  0.00    -0.345 C  
BRANCH   9  10
HETATM   10  C   UNL     1     -12.295  13.648  69.879  1.00  0.00    -0.249 A  
HETATM   11  C   UNL     1     -12.970  14.096  70.994  1.00  0.00    -0.399 A  
HETATM   12  C   UNL     1     -13.191  12.960  71.808  1.00  0.00    -0.479 A  
HETATM   13  C   UNL     1     -12.660  11.878  71.135  1.00  0.00    -0.288 A  
HETATM   14  O   UNL     1     -12.120  12.301  69.954  1.00  0.00    -0.299 OA 
BRANCH  13  15
HETATM   15  C   UNL     1     -12.558  10.450  71.405  1.00  0.00    -0.539 A  
HETATM   16  C   UNL     1     -11.316   9.841  71.633  1.00  0.00    -0.230 A  
HETATM   17  C   UNL     1     -11.213   8.447  71.887  1.00  0.00    -0.379 A  
HETATM   18  C   UNL     1     -12.377   7.663  71.910  1.00  0.00    -0.306 A  
HETATM   19  C   UNL     1     -13.596   8.271  71.685  1.00  0.00    -0.381 A  
HETATM   20  N   UNL     1     -12.380   6.348  72.123  1.00  0.00    -0.265 NA 
HETATM   21  C   UNL     1     -11.192   5.778  72.298  1.00  0.00    -0.278 A  
HETATM   22  C   UNL     1     -13.695   9.641  71.436  1.00  0.00    -0.273 A  
HETATM   23  N   UNL     1     -10.020   6.409  72.287  1.00  0.00    -0.165 NA 
HETATM   24  C   UNL     1     -10.013   7.736  72.096  1.00  0.00    -0.193 A  
BRANCH  24  25
HETATM   25  N   UNL     1      -8.768   8.426  72.014  1.00  0.00    -0.185 NA 
HETATM   26  H   UNL     1      -8.433   8.840  72.883  1.00  0.00     0.000 HD 
BRANCH  25  27
HETATM   27  C   UNL     1      -7.938   8.612  70.884  1.00  0.00    -0.122 A  
HETATM   28  C   UNL     1      -8.285   8.186  69.603  1.00  0.00    -0.120 A  
HETATM   29  C   UNL     1      -7.502   8.462  68.479  1.00  0.00    -0.094 A  
HETATM   30  C   UNL     1      -6.334   9.222  68.615  1.00  0.00    -0.049 A  
HETATM   31 CL   UNL     1      -8.097   7.751  67.016  1.00  0.00    -0.115 Cl 
HETATM   32  C   UNL     1      -5.936   9.598  69.907  1.00  0.00    -0.041 A  
HETATM   33  C   UNL     1      -6.725   9.293  71.028  1.00  0.00    -0.093 A  
BRANCH  30  34
HETATM   34  O   UNL     1      -5.480   9.661  67.634  1.00  0.00    -0.037 OA 
BRANCH  34  35
HETATM   35  C   UNL     1      -6.072  10.423  66.585  1.00  0.00    -0.068 C  
BRANCH  35  36
HETATM   36  C   UNL     1      -6.635  11.724  67.094  1.00  0.00    -0.143 A  
HETATM   37  C   UNL     1      -5.829  12.620  67.803  1.00  0.00    -0.125 A  
HETATM   38  C   UNL     1      -6.399  13.757  68.364  1.00  0.00    -0.099 A  
HETATM   39  C   UNL     1      -7.758  14.019  68.232  1.00  0.00    -0.141 A  
HETATM   40  F   UNL     1      -5.629  14.602  69.060  1.00  0.00    -0.087 F  
HETATM   41  C   UNL     1      -8.565  13.135  67.525  1.00  0.00    -0.196 A  
HETATM   42  C   UNL     1      -8.009  11.991  66.959  1.00  0.00    -0.150 A  
ENDBRANCH  35  36
ENDBRANCH  34  35
ENDBRANCH  30  34
ENDBRANCH  25  27
ENDBRANCH  24  25
ENDBRANCH  13  15
ENDBRANCH   9  10
ENDBRANCH   7   9
ENDBRANCH   6   7
ENDBRANCH   5   6
ENDBRANCH   2   5
TORSDOF 11
ENDMDL
MODEL      105
REMARK 921   NORMALIZED FREE ENERGY PREDICTED BY IDOCK:   -5.56 KCAL/MOL
REMARK 922        TOTAL FREE ENERGY PREDICTED BY IDOCK:  -11.87 KCAL/MOL
REMARK 923 INTER-LIGAND FREE ENERGY PREDICTED BY IDOCK:  -10.06 KCAL/MOL
REMARK 924 INTRA-LIGAND FREE ENERGY PREDICTED BY IDOCK:   -1.81 KCAL/MOL
REMARK 927      BINDING AFFINITY PREDICTED BY RF-SCORE:    0.00 PKD
ROOT
HETATM    1  C   UNL     1     -11.219   4.519  73.346  1.00  0.00    -0.315 C  
HETATM    2  S   UNL     1     -10.409   5.783  72.401  1.00  0.00    -0.207 S  
HETATM    3  O   UNL     1      -9.434   5.140  71.543  1.00  0.00    -0.144 OA 
HETATM    4  O   UNL     1     -10.027   6.840  73.314  1.00  0.00    -0.172 OA 
ENDROOT
BRANCH   2   5
HETATM    5  C   UNL     1     -11.734   6.387  71.380  1.00  0.00    -0.306 C  
BRANCH   5   6
HETATM    6  C   UNL     1     -12.879   6.932  72.221  1.00  0.00     0.074 C  
BRANCH   6   7
HETATM    7  N   UNL     1     -12.579   8.226  72.843  1.00  0.00    -0.659 NA 
HETATM    8  H   UNL     1     -11.627   8.520  72.625  1.00  0.00     0.000 HD 
BRANCH   7   9
HETATM    9  C   UNL     1     -13.538   9.275  72.495  1.00  0.00    -0.413 C  
BRANCH   9  10
HETATM   10  C   UNL     1     -12.939  10.221  71.517  1.00  0.00    -0.453 A  
HETATM   11  C   UNL     1     -12.792  11.590  71.495  1.00  0.00    -0.485 A  
HETATM   12  C   UNL     1     -12.134  11.899  70.281  1.00  0.00    -0.409 A  
HETATM   13  C   UNL     1     -11.896  10.700  69.639  1.00  0.00    -0.286 A  
HETATM   14  O   UNL     1     -12.383   9.676  70.402  1.00  0.00    -0.113 OA 
BRANCH  13  15
HETATM   15  C   UNL     1     -11.267  10.314  68.384  1.00  0.00    -0.284 A  
HETATM   16  C   UNL     1     -10.935  11.270  67.414  1.00  0.00    -0.337 A  
HETATM   17  C   UNL     1     -10.329  10.896  66.184  1.00  0.00    -0.305 A  
HETATM   18  C   UNL     1     -10.059   9.541  65.935  1.00  0.00    -0.214 A  
HETATM   19  C   UNL     1     -10.390   8.606  66.895  1.00  0.00    -0.355 A  
HETATM   20  N   UNL     1      -9.511   9.091  64.807  1.00  0.00     0.179 NA 
HETATM   21  C   UNL     1      -9.237  10.005  63.880  1.00  0.00    -0.272 A  
HETATM   22  C   UNL     1     -10.983   8.976  68.103  1.00  0.00     0.015 A  
HETATM   23  N   UNL     1      -9.456  11.313  63.993  1.00  0.00    -0.207 NA 
HETATM   24  C   UNL     1      -9.988  11.774  65.135  1.00  0.00    -0.253 A  
BRANCH  24  25
HETATM   25  N   UNL     1     -10.293  13.160  65.257  1.00  0.00    -0.301 NA 
HETATM   26  H   UNL     1     -10.891  13.548  64.527  1.00  0.00     0.000 HD 
BRANCH  25  27
HETATM   27  C   UNL     1      -9.875  14.070  66.257  1.00  0.00    -0.305 A  
HETATM   28  C   UNL     1     -10.764  14.775  67.067  1.00  0.00    -0.300 A  
HETATM   29  C   UNL     1     -10.339  15.595  68.115  1.00  0.00    -0.246 A  
HETATM   30  C   UNL     1      -8.974  15.704  68.404  1.00  0.00    -0.185 A  
HETATM   31 CL   UNL     1     -11.626  16.433  68.917  1.00  0.00    -0.237 Cl 
HETATM   32  C   UNL     1      -8.065  15.055  67.554  1.00  0.00    -0.200 A  
HETATM   33  C   UNL     1      -8.509  14.253  66.491  1.00  0.00     0.221 A  
BRANCH  30  34
HETATM   34  O   UNL     1      -8.367  16.388  69.428  1.00  0.00    -0.174 OA 
BRANCH  34  35
HETATM   35  C   UNL     1      -7.497  17.448  69.043  1.00  0.00    -0.185 C  
BRANCH  35  36
HETATM   36  C   UNL     1      -8.206  18.465  68.188  1.00  0.00    -0.303 A  
HETATM   37  C   UNL     1      -9.416  19.027  68.606  1.00  0.00    -0.457 A  
HETATM   38  C   UNL     1     -10.110  19.873  67.748  1.00  0.00    -0.429 A  
HETATM   39  C   UNL     1      -9.621  20.171  66.481  1.00  0.00    -0.529 A  
HETATM   40  F   UNL     1     -11.279  20.392  68.142  1.00  0.00     0.020 F  
HETATM   41  C   UNL     1      -8.416  19.619  66.061  1.00  0.00    -0.283 A  
HETATM   42  C   UNL     1      -7.710  18.769  66.907  1.00  0.00    -0.246 A  
ENDBRANCH  35  36
ENDBRANCH  34  35
ENDBRANCH  30  34
ENDBRANCH  25  27
ENDBRANCH  24  25
ENDBRANCH  13  15
ENDBRANCH   9  10
ENDBRANCH   7   9
ENDBRANCH   6   7
ENDBRANCH   5   6
ENDBRANCH   2   5
TORSDOF 11
ENDMDL
MODEL      106
REMARK 921   NORMALIZED FREE ENERGY PREDICTED BY IDOCK:   -5.53 KCAL/MOL
REMARK 922        TOTAL FREE ENERGY PREDICTED BY IDOCK:  -11.84 KCAL/MOL
REMARK 923 INTER-LIGAND FREE ENERGY PREDICTED BY IDOCK:   -9.26 KCAL/MOL
REMARK 924 INTRA-LIGAND FREE ENERGY PREDICTED BY IDOCK:   -2.58 KCAL/MOL
REMARK 927      BINDING AFFINITY PREDICTED BY RF-SCORE:    0.00 PKD
ROOT
HETATM    1  C   UNL     1     -11.686  11.077  70.948  1.00  0.00    -0.082 C  
HETATM    2  S   UNL     1     -11.773  12.071  69.482  1.00  0.00    -0.335 S  
HETATM    3  O   UNL     1     -12.517  11.329  68.485  1.00  0.00    -0.434 OA 
HETATM    4  O   UNL     1     -10.441  12.573  69.210  1.00  0.00     0.022 OA 
ENDROOT
BRANCH   2   5
HETATM    5  C   UNL     1     -12.777  13.437  70.022  1.00  0.00     0.106 C  
BRANCH   5   6
HETATM    6  C   UNL     1     -12.168  14.130  71.232  1.00  0.00    -0.339 C  
BRANCH   6   7
HETATM    7  N   UNL     1     -10.977  14.924  70.910  1.00  0.00    -0.545 NA 
HETATM    8  H   UNL     1     -10.401  14.447  70.216  1.00  0.00     0.000 HD 
BRANCH   7   9
HETATM    9  C   UNL     1     -11.286  16.288  70.479  1.00  0.00    -0.309 C  
BRANCH   9  10
HETATM   10  C   UNL     1     -10.936  16.471  69.047  1.00  0.00    -0.306 A  
HETATM   11  C   UNL     1     -10.478  17.544  68.315  1.00  0.00    -0.383 A  
HETATM   12  C   UNL     1     -10.332  17.085  66.985  1.00  0.00    -0.304 A  
HETATM   13  C   UNL     1     -10.687  15.751  66.982  1.00  0.00    -0.306 A  
HETATM   14  O   UNL     1     -11.049  15.377  68.245  1.00  0.00    -0.281 OA 
BRANCH  13  15
HETATM   15  C   UNL     1     -10.755  14.709  65.967  1.00  0.00    -0.313 A  
HETATM   16  C   UNL     1      -9.996  13.535  66.079  1.00  0.00    -0.308 A  
HETATM   17  C   UNL     1     -10.053  12.521  65.086  1.00  0.00    -0.266 A  
HETATM   18  C   UNL     1     -10.885  12.697  63.969  1.00  0.00    -0.415 A  
HETATM   19  C   UNL     1     -11.629  13.856  63.867  1.00  0.00    -0.158 A  
HETATM   20  N   UNL     1     -10.994  11.812  62.980  1.00  0.00    -0.147 NA 
HETATM   21  C   UNL     1     -10.238  10.722  63.080  1.00  0.00    -0.043 A  
HETATM   22  C   UNL     1     -11.572  14.851  64.844  1.00  0.00    -0.395 A  
HETATM   23  N   UNL     1      -9.404  10.446  64.080  1.00  0.00    -0.253 NA 
HETATM   24  C   UNL     1      -9.308  11.323  65.090  1.00  0.00    -0.189 A  
BRANCH  24  25
HETATM   25  N   UNL     1      -8.375  11.084  66.140  1.00  0.00    -0.169 NA 
HETATM   26  H   UNL     1      -7.458  11.516  66.024  1.00  0.00     0.000 HD 
BRANCH  25  27
HETATM   27  C   UNL     1      -8.553  10.327  67.321  1.00  0.00    -0.125 A  
HETATM   28  C   UNL     1      -7.665  10.367  68.395  1.00  0.00    -0.098 A  
HETATM   29  C   UNL     1      -7.903   9.691  69.594  1.00  0.00    -0.129 A  
HETATM   30  C   UNL     1      -9.087   8.963  69.760  1.00  0.00    -0.150 A  
HETATM   31 CL   UNL     1      -6.611   9.821  70.742  1.00  0.00    -0.107 Cl 
HETATM   32  C   UNL     1      -9.957   8.858  68.664  1.00  0.00    -0.192 A  
HETATM   33  C   UNL     1      -9.691   9.527  67.459  1.00  0.00    -0.194 A  
BRANCH  30  34
HETATM   34  O   UNL     1      -9.536   8.303  70.877  1.00  0.00    -0.159 OA 
BRANCH  34  35
HETATM   35  C   UNL     1     -10.697   7.496  70.700  1.00  0.00    -0.230 C  
BRANCH  35  36
HETATM   36  C   UNL     1     -10.476   6.089  71.191  1.00  0.00    -0.284 A  
HETATM   37  C   UNL     1     -11.085   5.641  72.367  1.00  0.00    -0.324 A  
HETATM   38  C   UNL     1     -10.772   4.380  72.862  1.00  0.00    -0.186 A  
HETATM   39  C   UNL     1      -9.862   3.556  72.209  1.00  0.00    -0.233 A  
HETATM   40  F   UNL     1     -11.341   3.962  74.000  1.00  0.00    -0.252 F  
HETATM   41  C   UNL     1      -9.255   3.995  71.037  1.00  0.00    -0.203 A  
HETATM   42  C   UNL     1      -9.557   5.255  70.529  1.00  0.00    -0.236 A  
ENDBRANCH  35  36
ENDBRANCH  34  35
ENDBRANCH  30  34
ENDBRANCH  25  27
ENDBRANCH  24  25
ENDBRANCH  13  15
ENDBRANCH   9  10
ENDBRANCH   7   9
ENDBRANCH   6   7
ENDBRANCH   5   6
ENDBRANCH   2   5
TORSDOF 11
ENDMDL
MODEL      107
REMARK 921   NORMALIZED FREE ENERGY PREDICTED BY IDOCK:   -5.50 KCAL/MOL
REMARK 922        TOTAL FREE ENERGY PREDICTED BY IDOCK:  -11.79 KCAL/MOL
REMARK 923 INTER-LIGAND FREE ENERGY PREDICTED BY IDOCK:   -9.63 KCAL/MOL
REMARK 924 INTRA-LIGAND FREE ENERGY PREDICTED BY IDOCK:   -2.16 KCAL/MOL
REMARK 927      BINDING AFFINITY PREDICTED BY RF-SCORE:    0.00 PKD
ROOT
HETATM    1  C   UNL     1      -5.258  14.997  70.125  1.00  0.00    -0.107 C  
HETATM    2  S   UNL     1      -6.546  14.546  68.991  1.00  0.00    -0.108 S  
HETATM    3  O   UNL     1      -7.114  13.291  69.439  1.00  0.00     0.002 OA 
HETATM    4  O   UNL     1      -6.025  14.701  67.648  1.00  0.00    -0.280 OA 
ENDROOT
BRANCH   2   5
HETATM    5  C   UNL     1      -7.746  15.830  69.268  1.00  0.00    -0.224 C  
BRANCH   5   6
HETATM    6  C   UNL     1      -9.126  15.250  69.542  1.00  0.00    -0.187 C  
BRANCH   6   7
HETATM    7  N   UNL     1      -9.693  14.531  68.396  1.00  0.00    -0.218 NA 
HETATM    8  H   UNL     1     -10.240  13.728  68.708  1.00  0.00     0.000 HD 
BRANCH   7   9
HETATM    9  C   UNL     1     -10.483  15.383  67.507  1.00  0.00    -0.275 C  
BRANCH   9  10
HETATM   10  C   UNL     1     -10.853  14.643  66.273  1.00  0.00    -0.321 A  
HETATM   11  C   UNL     1     -11.783  14.865  65.280  1.00  0.00    -0.263 A  
HETATM   12  C   UNL     1     -11.650  13.793  64.366  1.00  0.00    -0.418 A  
HETATM   13  C   UNL     1     -10.632  12.989  64.837  1.00  0.00    -0.337 A  
HETATM   14  O   UNL     1     -10.142  13.516  65.999  1.00  0.00    -0.297 OA 
BRANCH  13  15
HETATM   15  C   UNL     1     -10.000  11.759  64.381  1.00  0.00    -0.281 A  
HETATM   16  C   UNL     1      -9.567  10.785  65.292  1.00  0.00    -0.278 A  
HETATM   17  C   UNL     1      -8.942   9.587  64.851  1.00  0.00    -0.264 A  
HETATM   18  C   UNL     1      -8.753   9.376  63.476  1.00  0.00    -0.204 A  
HETATM   19  C   UNL     1      -9.182  10.340  62.587  1.00  0.00    -0.318 A  
HETATM   20  N   UNL     1      -8.163   8.295  62.968  1.00  0.00    -0.151 NA 
HETATM   21  C   UNL     1      -7.722   7.398  63.845  1.00  0.00    -0.124 A  
HETATM   22  C   UNL     1      -9.797  11.516  63.022  1.00  0.00    -0.367 A  
HETATM   23  N   UNL     1      -7.831   7.489  65.168  1.00  0.00    -0.115 NA 
HETATM   24  C   UNL     1      -8.444   8.565  65.684  1.00  0.00    -0.155 A  
BRANCH  24  25
HETATM   25  N   UNL     1      -8.515   8.719  67.099  1.00  0.00    -0.110 NA 
HETATM   26  H   UNL     1      -8.206   9.620  67.463  1.00  0.00     0.000 HD 
BRANCH  25  27
HETATM   27  C   UNL     1      -8.959   7.786  68.066  1.00  0.00    -0.126 A  
HETATM   28  C   UNL     1      -8.241   7.484  69.222  1.00  0.00    -0.130 A  
HETATM   29  C   UNL     1      -8.735   6.636  70.215  1.00  0.00    -0.147 A  
HETATM   30  C   UNL     1     -10.013   6.079  70.083  1.00  0.00    -0.178 A  
HETATM   31 CL   UNL     1      -7.621   6.346  71.510  1.00  0.00    -0.097 Cl 
HETATM   32  C   UNL     1     -10.718   6.318  68.893  1.00  0.00    -0.357 A  
HETATM   33  C   UNL     1     -10.196   7.157  67.895  1.00  0.00    -0.231 A  
BRANCH  30  34
HETATM   34  O   UNL     1     -10.701   5.293  70.974  1.00  0.00    -0.213 OA 
BRANCH  34  35
HETATM   35  C   UNL     1     -11.118   5.932  72.177  1.00  0.00    -0.281 C  
BRANCH  35  36
HETATM   36  C   UNL     1     -12.078   7.059  71.903  1.00  0.00    -0.358 A  
HETATM   37  C   UNL     1     -11.699   8.387  72.120  1.00  0.00    -0.442 A  
HETATM   38  C   UNL     1     -12.639   9.400  71.974  1.00  0.00    -0.384 A  
HETATM   39  C   UNL     1     -13.952   9.117  71.613  1.00  0.00    -0.345 A  
HETATM   40  F   UNL     1     -12.278  10.669  72.204  1.00  0.00    -0.229 F  
HETATM   41  C   UNL     1     -14.335   7.799  71.391  1.00  0.00    -0.513 A  
HETATM   42  C   UNL     1     -13.406   6.772  71.536  1.00  0.00    -0.195 A  
ENDBRANCH  35  36
ENDBRANCH  34  35
ENDBRANCH  30  34
ENDBRANCH  25  27
ENDBRANCH  24  25
ENDBRANCH  13  15
ENDBRANCH   9  10
ENDBRANCH   7   9
ENDBRANCH   6   7
ENDBRANCH   5   6
ENDBRANCH   2   5
TORSDOF 11
ENDMDL
MODEL      108
REMARK 921   NORMALIZED FREE ENERGY PREDICTED BY IDOCK:   -5.50 KCAL/MOL
REMARK 922        TOTAL FREE ENERGY PREDICTED BY IDOCK:  -11.78 KCAL/MOL
REMARK 923 INTER-LIGAND FREE ENERGY PREDICTED BY IDOCK:  -10.01 KCAL/MOL
REMARK 924 INTRA-LIGAND FREE ENERGY PREDICTED BY IDOCK:   -1.78 KCAL/MOL
REMARK 927      BINDING AFFINITY PREDICTED BY RF-SCORE:    0.00 PKD
ROOT
HETATM    1  C   UNL     1      -8.509  19.495  66.812  1.00  0.00    -0.309 C  
HETATM    2  S   UNL     1     -10.067  18.735  66.437  1.00  0.00    -0.420 S  
HETATM    3  O   UNL     1     -10.660  19.459  65.330  1.00  0.00    -0.475 OA 
HETATM    4  O   UNL     1     -10.779  18.550  67.685  1.00  0.00    -0.423 OA 
ENDROOT
BRANCH   2   5
HETATM    5  C   UNL     1      -9.563  17.134  65.847  1.00  0.00    -0.080 C  
BRANCH   5   6
HETATM    6  C   UNL     1     -10.758  16.212  65.653  1.00  0.00    -0.310 C  
BRANCH   6   7
HETATM    7  N   UNL     1     -11.324  16.269  64.301  1.00  0.00    -1.209 NA 
HETATM    8  H   UNL     1     -10.585  16.244  63.598  1.00  0.00     0.000 HD 
BRANCH   7   9
HETATM    9  C   UNL     1     -12.321  15.230  64.043  1.00  0.00     0.071 C  
BRANCH   9  10
HETATM   10  C   UNL     1     -11.791  13.896  64.429  1.00  0.00    -0.429 A  
HETATM   11  C   UNL     1     -11.171  12.885  63.727  1.00  0.00    -0.452 A  
HETATM   12  C   UNL     1     -10.903  11.858  64.662  1.00  0.00    -0.363 A  
HETATM   13  C   UNL     1     -11.352  12.308  65.888  1.00  0.00    -0.360 A  
HETATM   14  O   UNL     1     -11.888  13.556  65.742  1.00  0.00    -0.340 OA 
BRANCH  13  15
HETATM   15  C   UNL     1     -11.375  11.760  67.237  1.00  0.00    -0.379 A  
HETATM   16  C   UNL     1     -11.149  10.396  67.471  1.00  0.00    -0.336 A  
HETATM   17  C   UNL     1     -11.180   9.856  68.785  1.00  0.00    -0.122 A  
HETATM   18  C   UNL     1     -11.444  10.705  69.871  1.00  0.00    -0.317 A  
HETATM   19  C   UNL     1     -11.667  12.047  69.632  1.00  0.00    -0.405 A  
HETATM   20  N   UNL     1     -11.511  10.291  71.135  1.00  0.00    -0.309 NA 
HETATM   21  C   UNL     1     -11.333   8.989  71.338  1.00  0.00    -0.323 A  
HETATM   22  C   UNL     1     -11.634  12.575  68.340  1.00  0.00    -0.368 A  
HETATM   23  N   UNL     1     -11.087   8.084  70.393  1.00  0.00    -0.250 NA 
HETATM   24  C   UNL     1     -10.997   8.500  69.121  1.00  0.00     0.076 A  
BRANCH  24  25
HETATM   25  N   UNL     1     -10.801   7.543  68.083  1.00  0.00    -0.439 NA 
HETATM   26  H   UNL     1     -11.643   7.083  67.739  1.00  0.00     0.000 HD 
BRANCH  25  27
HETATM   27  C   UNL     1      -9.590   7.146  67.469  1.00  0.00    -0.132 A  
HETATM   28  C   UNL     1      -9.415   5.906  66.856  1.00  0.00    -0.145 A  
HETATM   29  C   UNL     1      -8.248   5.564  66.167  1.00  0.00    -0.112 A  
HETATM   30  C   UNL     1      -7.213   6.498  66.046  1.00  0.00    -0.071 A  
HETATM   31 CL   UNL     1      -8.235   3.937  65.572  1.00  0.00    -0.104 Cl 
HETATM   32  C   UNL     1      -7.347   7.724  66.716  1.00  0.00    -0.089 A  
HETATM   33  C   UNL     1      -8.518   8.042  67.422  1.00  0.00    -0.126 A  
BRANCH  30  34
HETATM   34  O   UNL     1      -6.034   6.384  65.352  1.00  0.00    -0.028 OA 
BRANCH  34  35
HETATM   35  C   UNL     1      -6.146   6.356  63.932  1.00  0.00    -0.026 C  
BRANCH  35  36
HETATM   36  C   UNL     1      -6.659   7.665  63.390  1.00  0.00    -0.058 A  
HETATM   37  C   UNL     1      -5.853   8.807  63.406  1.00  0.00    -0.077 A  
HETATM   38  C   UNL     1      -6.388  10.028  63.012  1.00  0.00    -0.130 A  
HETATM   39  C   UNL     1      -7.713  10.133  62.600  1.00  0.00    -0.149 A  
HETATM   40  F   UNL     1      -5.621  11.124  63.048  1.00  0.00    -0.153 F  
HETATM   41  C   UNL     1      -8.518   9.000  62.578  1.00  0.00    -0.212 A  
HETATM   42  C   UNL     1      -7.998   7.770  62.972  1.00  0.00    -0.123 A  
ENDBRANCH  35  36
ENDBRANCH  34  35
ENDBRANCH  30  34
ENDBRANCH  25  27
ENDBRANCH  24  25
ENDBRANCH  13  15
ENDBRANCH   9  10
ENDBRANCH   7   9
ENDBRANCH   6   7
ENDBRANCH   5   6
ENDBRANCH   2   5
TORSDOF 11
ENDMDL
MODEL      109
REMARK 921   NORMALIZED FREE ENERGY PREDICTED BY IDOCK:   -5.50 KCAL/MOL
REMARK 922        TOTAL FREE ENERGY PREDICTED BY IDOCK:  -11.78 KCAL/MOL
REMARK 923 INTER-LIGAND FREE ENERGY PREDICTED BY IDOCK:   -9.52 KCAL/MOL
REMARK 924 INTRA-LIGAND FREE ENERGY PREDICTED BY IDOCK:   -2.25 KCAL/MOL
REMARK 927      BINDING AFFINITY PREDICTED BY RF-SCORE:    0.00 PKD
ROOT
HETATM    1  C   UNL     1     -11.030   6.638  67.055  1.00  0.00    -0.393 C  
HETATM    2  S   UNL     1     -10.137   5.153  66.675  1.00  0.00    -0.263 S  
HETATM    3  O   UNL     1     -10.788   4.520  65.545  1.00  0.00    -0.280 OA 
HETATM    4  O   UNL     1      -9.920   4.439  67.916  1.00  0.00    -0.120 OA 
ENDROOT
BRANCH   2   5
HETATM    5  C   UNL     1      -8.572   5.795  66.125  1.00  0.00    -0.135 C  
BRANCH   5   6
HETATM    6  C   UNL     1      -8.146   5.167  64.806  1.00  0.00    -0.117 C  
BRANCH   6   7
HETATM    7  N   UNL     1      -8.685   5.860  63.631  1.00  0.00    -0.323 NA 
HETATM    8  H   UNL     1      -9.448   6.482  63.897  1.00  0.00     0.000 HD 
BRANCH   7   9
HETATM    9  C   UNL     1      -7.669   6.584  62.865  1.00  0.00    -0.097 C  
BRANCH   9  10
HETATM   10  C   UNL     1      -7.522   7.970  63.379  1.00  0.00    -0.122 A  
HETATM   11  C   UNL     1      -6.437   8.723  63.771  1.00  0.00    -0.087 A  
HETATM   12  C   UNL     1      -6.949   9.983  64.164  1.00  0.00    -0.124 A  
HETATM   13  C   UNL     1      -8.315   9.937  63.969  1.00  0.00    -0.168 A  
HETATM   14  O   UNL     1      -8.661   8.708  63.482  1.00  0.00    -0.126 OA 
BRANCH  13  15
HETATM   15  C   UNL     1      -9.412  10.875  64.163  1.00  0.00    -0.295 A  
HETATM   16  C   UNL     1      -9.647  11.469  65.411  1.00  0.00    -0.249 A  
HETATM   17  C   UNL     1     -10.722  12.378  65.606  1.00  0.00    -0.299 A  
HETATM   18  C   UNL     1     -11.566  12.686  64.528  1.00  0.00    -0.345 A  
HETATM   19  C   UNL     1     -11.328  12.096  63.302  1.00  0.00    -0.410 A  
HETATM   20  N   UNL     1     -12.608  13.511  64.616  1.00  0.00    -0.639 NA 
HETATM   21  C   UNL     1     -12.843  14.037  65.815  1.00  0.00    -0.377 A  
HETATM   22  C   UNL     1     -10.270  11.205  63.113  1.00  0.00    -0.347 A  
HETATM   23  N   UNL     1     -12.124  13.814  66.913  1.00  0.00    -0.421 NA 
HETATM   24  C   UNL     1     -11.061  13.001  66.824  1.00  0.00    -0.286 A  
BRANCH  24  25
HETATM   25  N   UNL     1     -10.314  12.694  67.998  1.00  0.00    -0.221 NA 
HETATM   26  H   UNL     1      -9.801  13.472  68.413  1.00  0.00     0.000 HD 
BRANCH  25  27
HETATM   27  C   UNL     1     -10.191  11.452  68.664  1.00  0.00    -0.208 A  
HETATM   28  C   UNL     1     -11.216  10.886  69.420  1.00  0.00    -0.335 A  
HETATM   29  C   UNL     1     -11.118   9.615  69.991  1.00  0.00    -0.255 A  
HETATM   30  C   UNL     1      -9.967   8.846  69.783  1.00  0.00    -0.191 A  
HETATM   31 CL   UNL     1     -12.485   9.171  70.958  1.00  0.00    -0.282 Cl 
HETATM   32  C   UNL     1      -8.900   9.429  69.082  1.00  0.00    -0.143 A  
HETATM   33  C   UNL     1      -9.008  10.717  68.534  1.00  0.00    -0.160 A  
BRANCH  30  34
HETATM   34  O   UNL     1      -9.713   7.559  70.188  1.00  0.00    -0.172 OA 
BRANCH  34  35
HETATM   35  C   UNL     1      -8.958   7.419  71.388  1.00  0.00    -0.137 C  
BRANCH  35  36
HETATM   36  C   UNL     1      -9.492   6.307  72.253  1.00  0.00    -0.152 A  
HETATM   37  C   UNL     1      -8.642   5.304  72.727  1.00  0.00    -0.120 A  
HETATM   38  C   UNL     1      -9.177   4.225  73.423  1.00  0.00    -0.101 A  
HETATM   39  C   UNL     1     -10.544   4.127  73.655  1.00  0.00    -0.293 A  
HETATM   40  F   UNL     1      -8.363   3.255  73.858  1.00  0.00    -0.071 F  
HETATM   41  C   UNL     1     -11.395   5.123  73.189  1.00  0.00    -0.385 A  
HETATM   42  C   UNL     1     -10.875   6.209  72.490  1.00  0.00    -0.275 A  
ENDBRANCH  35  36
ENDBRANCH  34  35
ENDBRANCH  30  34
ENDBRANCH  25  27
ENDBRANCH  24  25
ENDBRANCH  13  15
ENDBRANCH   9  10
ENDBRANCH   7   9
ENDBRANCH   6   7
ENDBRANCH   5   6
ENDBRANCH   2   5
TORSDOF 11
ENDMDL
MODEL      110
REMARK 921   NORMALIZED FREE ENERGY PREDICTED BY IDOCK:   -5.48 KCAL/MOL
REMARK 922        TOTAL FREE ENERGY PREDICTED BY IDOCK:  -11.75 KCAL/MOL
REMARK 923 INTER-LIGAND FREE ENERGY PREDICTED BY IDOCK:   -9.25 KCAL/MOL
REMARK 924 INTRA-LIGAND FREE ENERGY PREDICTED BY IDOCK:   -2.50 KCAL/MOL
REMARK 927      BINDING AFFINITY PREDICTED BY RF-SCORE:    0.00 PKD
ROOT
HETATM    1  C   UNL     1      -7.952   5.868  71.757  1.00  0.00    -0.111 C  
HETATM    2  S   UNL     1      -8.855   5.328  73.185  1.00  0.00    -0.118 S  
HETATM    3  O   UNL     1      -9.173   6.498  73.979  1.00  0.00    -0.145 OA 
HETATM    4  O   UNL     1      -8.145   4.201  73.755  1.00  0.00    -0.087 OA 
ENDROOT
BRANCH   2   5
HETATM    5  C   UNL     1     -10.362   4.722  72.461  1.00  0.00    -0.201 C  
BRANCH   5   6
HETATM    6  C   UNL     1     -11.585   5.300  73.157  1.00  0.00    -0.178 C  
BRANCH   6   7
HETATM    7  N   UNL     1     -12.375   6.192  72.301  1.00  0.00    -0.496 NA 
HETATM    8  H   UNL     1     -13.373   6.011  72.413  1.00  0.00     0.000 HD 
BRANCH   7   9
HETATM    9  C   UNL     1     -12.079   7.610  72.509  1.00  0.00    -0.159 C  
BRANCH   9  10
HETATM   10  C   UNL     1     -11.277   8.144  71.378  1.00  0.00    -0.254 A  
HETATM   11  C   UNL     1     -10.688   9.365  71.130  1.00  0.00    -0.417 A  
HETATM   12  C   UNL     1     -10.058   9.252  69.868  1.00  0.00    -0.230 A  
HETATM   13  C   UNL     1     -10.278   7.963  69.425  1.00  0.00    -0.206 A  
HETATM   14  O   UNL     1     -11.018   7.287  70.354  1.00  0.00    -0.241 OA 
BRANCH  13  15
HETATM   15  C   UNL     1      -9.908   7.208  68.236  1.00  0.00    -0.159 A  
HETATM   16  C   UNL     1      -9.172   7.800  67.200  1.00  0.00    -0.174 A  
HETATM   17  C   UNL     1      -8.817   7.069  66.034  1.00  0.00    -0.155 A  
HETATM   18  C   UNL     1      -9.212   5.728  65.917  1.00  0.00    -0.113 A  
HETATM   19  C   UNL     1      -9.937   5.152  66.942  1.00  0.00    -0.227 A  
HETATM   20  N   UNL     1      -8.942   4.966  64.858  1.00  0.00    -0.153 NA 
HETATM   21  C   UNL     1      -8.278   5.552  63.866  1.00  0.00    -0.110 A  
HETATM   22  C   UNL     1     -10.283   5.872  68.087  1.00  0.00    -0.225 A  
HETATM   23  N   UNL     1      -7.859   6.816  63.854  1.00  0.00    -0.117 NA 
HETATM   24  C   UNL     1      -8.109   7.580  64.927  1.00  0.00    -0.121 A  
BRANCH  24  25
HETATM   25  N   UNL     1      -7.730   8.954  64.913  1.00  0.00    -0.107 NA 
HETATM   26  H   UNL     1      -6.756   9.143  64.681  1.00  0.00     0.000 HD 
BRANCH  25  27
HETATM   27  C   UNL     1      -8.530  10.090  65.179  1.00  0.00    -0.153 A  
HETATM   28  C   UNL     1      -8.249  11.001  66.196  1.00  0.00    -0.155 A  
HETATM   29  C   UNL     1      -8.989  12.170  66.386  1.00  0.00    -0.138 A  
HETATM   30  C   UNL     1     -10.040  12.478  65.514  1.00  0.00    -0.265 A  
HETATM   31 CL   UNL     1      -8.503  13.093  67.770  1.00  0.00    -0.171 Cl 
HETATM   32  C   UNL     1     -10.377  11.538  64.528  1.00  0.00    -0.354 A  
HETATM   33  C   UNL     1      -9.636  10.357  64.365  1.00  0.00    -0.375 A  
BRANCH  30  34
HETATM   34  O   UNL     1     -10.827  13.603  65.485  1.00  0.00    -0.284 OA 
BRANCH  34  35
HETATM   35  C   UNL     1     -12.063  13.519  66.189  1.00  0.00    -0.436 C  
BRANCH  35  36
HETATM   36  C   UNL     1     -11.896  13.862  67.645  1.00  0.00    -0.422 A  
HETATM   37  C   UNL     1     -12.071  12.886  68.631  1.00  0.00    -0.171 A  
HETATM   38  C   UNL     1     -12.029  13.252  69.972  1.00  0.00    -0.329 A  
HETATM   39  C   UNL     1     -11.815  14.573  70.350  1.00  0.00    -0.378 A  
HETATM   40  F   UNL     1     -12.219  12.320  70.914  1.00  0.00    -0.444 F  
HETATM   41  C   UNL     1     -11.636  15.548  69.375  1.00  0.00    -0.366 A  
HETATM   42  C   UNL     1     -11.677  15.198  68.028  1.00  0.00    -0.304 A  
ENDBRANCH  35  36
ENDBRANCH  34  35
ENDBRANCH  30  34
ENDBRANCH  25  27
ENDBRANCH  24  25
ENDBRANCH  13  15
ENDBRANCH   9  10
ENDBRANCH   7   9
ENDBRANCH   6   7
ENDBRANCH   5   6
ENDBRANCH   2   5
TORSDOF 11
ENDMDL
MODEL      111
REMARK 921   NORMALIZED FREE ENERGY PREDICTED BY IDOCK:   -5.45 KCAL/MOL
REMARK 922        TOTAL FREE ENERGY PREDICTED BY IDOCK:  -11.71 KCAL/MOL
REMARK 923 INTER-LIGAND FREE ENERGY PREDICTED BY IDOCK:   -9.07 KCAL/MOL
REMARK 924 INTRA-LIGAND FREE ENERGY PREDICTED BY IDOCK:   -2.64 KCAL/MOL
REMARK 927      BINDING AFFINITY PREDICTED BY RF-SCORE:    0.00 PKD
ROOT
HETATM    1  C   UNL     1      -8.628  17.235  68.673  1.00  0.00    -0.265 C  
HETATM    2  S   UNL     1     -10.127  16.863  67.800  1.00  0.00    -0.303 S  
HETATM    3  O   UNL     1     -10.780  18.118  67.483  1.00  0.00    -0.412 OA 
HETATM    4  O   UNL     1     -10.816  15.819  68.531  1.00  0.00    -0.262 OA 
ENDROOT
BRANCH   2   5
HETATM    5  C   UNL     1      -9.508  16.162  66.287  1.00  0.00    -0.316 C  
BRANCH   5   6
HETATM    6  C   UNL     1     -10.599  15.415  65.534  1.00  0.00    -0.383 C  
BRANCH   6   7
HETATM    7  N   UNL     1     -10.080  14.513  64.501  1.00  0.00    -0.586 NA 
HETATM    8  H   UNL     1      -9.148  14.178  64.748  1.00  0.00     0.000 HD 
BRANCH   7   9
HETATM    9  C   UNL     1     -10.972  13.391  64.205  1.00  0.00    -0.369 C  
BRANCH   9  10
HETATM   10  C   UNL     1     -10.669  12.239  65.095  1.00  0.00    -0.293 A  
HETATM   11  C   UNL     1      -9.887  11.113  64.951  1.00  0.00    -0.316 A  
HETATM   12  C   UNL     1     -10.007  10.389  66.160  1.00  0.00    -0.290 A  
HETATM   13  C   UNL     1     -10.836  11.124  66.984  1.00  0.00    -0.284 A  
HETATM   14  O   UNL     1     -11.233  12.257  66.332  1.00  0.00    -0.290 OA 
BRANCH  13  15
HETATM   15  C   UNL     1     -11.354  10.954  68.336  1.00  0.00    -0.370 A  
HETATM   16  C   UNL     1     -11.516   9.680  68.897  1.00  0.00     0.184 A  
HETATM   17  C   UNL     1     -12.029   9.511  70.211  1.00  0.00    -0.040 A  
HETATM   18  C   UNL     1     -12.381  10.643  70.962  1.00  0.00    -0.403 A  
HETATM   19  C   UNL     1     -12.218  11.895  70.402  1.00  0.00    -0.399 A  
HETATM   20  N   UNL     1     -12.885  10.586  72.194  1.00  0.00    -0.313 NA 
HETATM   21  C   UNL     1     -13.070   9.370  72.699  1.00  0.00    -0.176 A  
HETATM   22  C   UNL     1     -11.713  12.058  69.111  1.00  0.00    -0.389 A  
HETATM   23  N   UNL     1     -12.787   8.224  72.083  1.00  0.00    -0.330 NA 
HETATM   24  C   UNL     1     -12.259   8.276  70.851  1.00  0.00    -0.091 A  
BRANCH  24  25
HETATM   25  N   UNL     1     -12.008   7.065  70.144  1.00  0.00    -0.614 NA 
HETATM   26  H   UNL     1     -12.828   6.495  69.935  1.00  0.00     0.000 HD 
BRANCH  25  27
HETATM   27  C   UNL     1     -10.770   6.548  69.693  1.00  0.00    -0.269 A  
HETATM   28  C   UNL     1     -10.600   5.956  68.443  1.00  0.00    -0.314 A  
HETATM   29  C   UNL     1      -9.354   5.538  67.971  1.00  0.00    -0.110 A  
HETATM   30  C   UNL     1      -8.210   5.741  68.752  1.00  0.00    -0.101 A  
HETATM   31 CL   UNL     1      -9.414   4.751  66.429  1.00  0.00    -0.144 Cl 
HETATM   32  C   UNL     1      -8.376   6.273  70.040  1.00  0.00    -0.129 A  
HETATM   33  C   UNL     1      -9.640   6.667  70.507  1.00  0.00    -0.177 A  
BRANCH  30  34
HETATM   34  O   UNL     1      -6.900   5.477  68.437  1.00  0.00    -0.056 OA 
BRANCH  34  35
HETATM   35  C   UNL     1      -6.014   6.592  68.460  1.00  0.00    -0.022 C  
BRANCH  35  36
HETATM   36  C   UNL     1      -6.177   7.457  67.238  1.00  0.00    -0.051 A  
HETATM   37  C   UNL     1      -6.136   8.850  67.341  1.00  0.00    -0.051 A  
HETATM   38  C   UNL     1      -6.407   9.628  66.220  1.00  0.00    -0.069 A  
HETATM   39  C   UNL     1      -6.719   9.043  64.998  1.00  0.00    -0.069 A  
HETATM   40  F   UNL     1      -6.387  10.962  66.327  1.00  0.00    -0.095 F  
HETATM   41  C   UNL     1      -6.759   7.657  64.888  1.00  0.00    -0.050 A  
HETATM   42  C   UNL     1      -6.491   6.865  66.001  1.00  0.00    -0.051 A  
ENDBRANCH  35  36
ENDBRANCH  34  35
ENDBRANCH  30  34
ENDBRANCH  25  27
ENDBRANCH  24  25
ENDBRANCH  13  15
ENDBRANCH   9  10
ENDBRANCH   7   9
ENDBRANCH   6   7
ENDBRANCH   5   6
ENDBRANCH   2   5
TORSDOF 11
ENDMDL
MODEL      112
REMARK 921   NORMALIZED FREE ENERGY PREDICTED BY IDOCK:   -5.45 KCAL/MOL
REMARK 922        TOTAL FREE ENERGY PREDICTED BY IDOCK:  -11.70 KCAL/MOL
REMARK 923 INTER-LIGAND FREE ENERGY PREDICTED BY IDOCK:  -10.42 KCAL/MOL
REMARK 924 INTRA-LIGAND FREE ENERGY PREDICTED BY IDOCK:   -1.29 KCAL/MOL
REMARK 927      BINDING AFFINITY PREDICTED BY RF-SCORE:    0.00 PKD
ROOT
HETATM    1  C   UNL     1      -8.772   9.093  64.730  1.00  0.00    -0.176 C  
HETATM    2  S   UNL     1      -7.432   8.198  63.989  1.00  0.00    -0.122 S  
HETATM    3  O   UNL     1      -6.246   9.027  64.069  1.00  0.00    -0.075 OA 
HETATM    4  O   UNL     1      -7.900   7.671  62.723  1.00  0.00    -0.120 OA 
ENDROOT
BRANCH   2   5
HETATM    5  C   UNL     1      -7.233   6.835  65.115  1.00  0.00    -0.074 C  
BRANCH   5   6
HETATM    6  C   UNL     1      -7.708   5.529  64.495  1.00  0.00    -0.090 C  
BRANCH   6   7
HETATM    7  N   UNL     1      -9.148   5.299  64.658  1.00  0.00    -0.358 NA 
HETATM    8  H   UNL     1      -9.669   5.705  63.880  1.00  0.00     0.000 HD 
BRANCH   7   9
HETATM    9  C   UNL     1      -9.495   3.888  64.834  1.00  0.00    -0.170 C  
BRANCH   9  10
HETATM   10  C   UNL     1      -9.335   3.488  66.256  1.00  0.00    -0.166 A  
HETATM   11  C   UNL     1      -8.805   2.375  66.871  1.00  0.00    -0.147 A  
HETATM   12  C   UNL     1      -8.943   2.587  68.264  1.00  0.00    -0.188 A  
HETATM   13  C   UNL     1      -9.528   3.828  68.422  1.00  0.00    -0.148 A  
HETATM   14  O   UNL     1      -9.760   4.378  67.193  1.00  0.00    -0.185 OA 
BRANCH  13  15
HETATM   15  C   UNL     1      -9.932   4.634  69.566  1.00  0.00    -0.266 A  
HETATM   16  C   UNL     1     -10.387   5.950  69.403  1.00  0.00    -0.313 A  
HETATM   17  C   UNL     1     -10.774   6.742  70.517  1.00  0.00    -0.277 A  
HETATM   18  C   UNL     1     -10.696   6.197  71.808  1.00  0.00    -0.242 A  
HETATM   19  C   UNL     1     -10.246   4.900  71.960  1.00  0.00    -0.263 A  
HETATM   20  N   UNL     1     -11.019   6.865  72.914  1.00  0.00    -0.277 NA 
HETATM   21  C   UNL     1     -11.412   8.125  72.747  1.00  0.00    -0.329 A  
HETATM   22  C   UNL     1      -9.868   4.123  70.864  1.00  0.00    -0.247 A  
HETATM   23  N   UNL     1     -11.516   8.756  71.580  1.00  0.00    -0.282 NA 
HETATM   24  C   UNL     1     -11.213   8.080  70.461  1.00  0.00    -0.250 A  
BRANCH  24  25
HETATM   25  N   UNL     1     -11.252   8.752  69.205  1.00  0.00    -0.413 NA 
HETATM   26  H   UNL     1     -11.252   8.151  68.381  1.00  0.00     0.000 HD 
BRANCH  25  27
HETATM   27  C   UNL     1     -11.292  10.143  68.951  1.00  0.00    -0.120 A  
HETATM   28  C   UNL     1     -11.008  10.700  67.705  1.00  0.00    -0.370 A  
HETATM   29  C   UNL     1     -11.146  12.065  67.441  1.00  0.00    -0.281 A  
HETATM   30  C   UNL     1     -11.617  12.923  68.441  1.00  0.00    -0.333 A  
HETATM   31 CL   UNL     1     -10.646  12.526  65.847  1.00  0.00    -0.283 Cl 
HETATM   32  C   UNL     1     -11.841  12.388  69.719  1.00  0.00    -0.387 A  
HETATM   33  C   UNL     1     -11.676  11.017  69.972  1.00  0.00    -0.437 A  
BRANCH  30  34
HETATM   34  O   UNL     1     -11.892  14.265  68.358  1.00  0.00    -0.324 OA 
BRANCH  34  35
HETATM   35  C   UNL     1     -10.982  15.133  69.028  1.00  0.00    -0.244 C  
BRANCH  35  36
HETATM   36  C   UNL     1     -10.640  16.335  68.188  1.00  0.00    -0.307 A  
HETATM   37  C   UNL     1     -10.437  17.584  68.781  1.00  0.00    -0.318 A  
HETATM   38  C   UNL     1     -10.241  18.701  67.976  1.00  0.00    -0.385 A  
HETATM   39  C   UNL     1     -10.242  18.596  66.589  1.00  0.00    -0.441 A  
HETATM   40  F   UNL     1     -10.067  19.900  68.547  1.00  0.00    -0.474 F  
HETATM   41  C   UNL     1     -10.439  17.356  65.993  1.00  0.00    -0.278 A  
HETATM   42  C   UNL     1     -10.639  16.229  66.785  1.00  0.00    -0.257 A  
ENDBRANCH  35  36
ENDBRANCH  34  35
ENDBRANCH  30  34
ENDBRANCH  25  27
ENDBRANCH  24  25
ENDBRANCH  13  15
ENDBRANCH   9  10
ENDBRANCH   7   9
ENDBRANCH   6   7
ENDBRANCH   5   6
ENDBRANCH   2   5
TORSDOF 11
ENDMDL
MODEL      113
REMARK 921   NORMALIZED FREE ENERGY PREDICTED BY IDOCK:   -5.43 KCAL/MOL
REMARK 922        TOTAL FREE ENERGY PREDICTED BY IDOCK:  -11.67 KCAL/MOL
REMARK 923 INTER-LIGAND FREE ENERGY PREDICTED BY IDOCK:   -9.42 KCAL/MOL
REMARK 924 INTRA-LIGAND FREE ENERGY PREDICTED BY IDOCK:   -2.26 KCAL/MOL
REMARK 927      BINDING AFFINITY PREDICTED BY RF-SCORE:    0.00 PKD
ROOT
HETATM    1  C   UNL     1      -9.473  20.387  67.207  1.00  0.00    -0.431 C  
HETATM    2  S   UNL     1     -10.336  18.930  66.678  1.00  0.00    -0.442 S  
HETATM    3  O   UNL     1     -10.939  19.214  65.391  1.00  0.00    -0.477 OA 
HETATM    4  O   UNL     1     -11.129  18.459  67.794  1.00  0.00    -0.218 OA 
ENDROOT
BRANCH   2   5
HETATM    5  C   UNL     1      -9.001  17.782  66.425  1.00  0.00    -0.229 C  
BRANCH   5   6
HETATM    6  C   UNL     1      -9.519  16.407  66.028  1.00  0.00    -0.310 C  
BRANCH   6   7
HETATM    7  N   UNL     1     -10.415  16.435  64.868  1.00  0.00    -0.618 NA 
HETATM    8  H   UNL     1      -9.886  16.354  64.000  1.00  0.00     0.000 HD 
BRANCH   7   9
HETATM    9  C   UNL     1     -11.475  15.428  64.926  1.00  0.00    -0.311 C  
BRANCH   9  10
HETATM   10  C   UNL     1     -10.998  14.214  65.640  1.00  0.00    -0.308 A  
HETATM   11  C   UNL     1     -10.010  13.290  65.377  1.00  0.00    -0.205 A  
HETATM   12  C   UNL     1     -10.043  12.359  66.442  1.00  0.00    -0.252 A  
HETATM   13  C   UNL     1     -11.034  12.778  67.307  1.00  0.00    -0.262 A  
HETATM   14  O   UNL     1     -11.610  13.917  66.817  1.00  0.00    -0.341 OA 
BRANCH  13  15
HETATM   15  C   UNL     1     -11.569  12.288  68.570  1.00  0.00    -0.359 A  
HETATM   16  C   UNL     1     -11.463  10.937  68.929  1.00  0.00    -0.369 A  
HETATM   17  C   UNL     1     -11.992  10.454  70.156  1.00  0.00    -0.357 A  
HETATM   18  C   UNL     1     -12.636  11.348  71.026  1.00  0.00    -0.386 A  
HETATM   19  C   UNL     1     -12.737  12.676  70.665  1.00  0.00    -0.141 A  
HETATM   20  N   UNL     1     -13.178  10.987  72.188  1.00  0.00    -0.390 NA 
HETATM   21  C   UNL     1     -13.104   9.696  72.497  1.00  0.00    -0.191 A  
HETATM   22  C   UNL     1     -12.215  13.149  69.459  1.00  0.00    -0.214 A  
HETATM   23  N   UNL     1     -12.531   8.753  71.753  1.00  0.00    -0.328 NA 
HETATM   24  C   UNL     1     -11.964   9.114  70.592  1.00  0.00    -0.124 A  
BRANCH  24  25
HETATM   25  N   UNL     1     -11.403   8.115  69.745  1.00  0.00    -0.453 NA 
HETATM   26  H   UNL     1     -12.051   7.402  69.410  1.00  0.00     0.000 HD 
BRANCH  25  27
HETATM   27  C   UNL     1     -10.064   7.982  69.308  1.00  0.00    -0.198 A  
HETATM   28  C   UNL     1      -9.687   8.060  67.968  1.00  0.00    -0.184 A  
HETATM   29  C   UNL     1      -8.352   8.025  67.558  1.00  0.00    -0.123 A  
HETATM   30  C   UNL     1      -7.332   7.941  68.513  1.00  0.00    -0.097 A  
HETATM   31 CL   UNL     1      -8.145   8.048  65.838  1.00  0.00    -0.110 Cl 
HETATM   32  C   UNL     1      -7.699   7.792  69.860  1.00  0.00    -0.095 A  
HETATM   33  C   UNL     1      -9.047   7.807  70.252  1.00  0.00    -0.152 A  
BRANCH  30  34
HETATM   34  O   UNL     1      -5.973   7.972  68.320  1.00  0.00    -0.039 OA 
BRANCH  34  35
HETATM   35  C   UNL     1      -5.237   8.820  69.197  1.00  0.00    -0.036 C  
BRANCH  35  36
HETATM   36  C   UNL     1      -5.443  10.274  68.866  1.00  0.00    -0.038 A  
HETATM   37  C   UNL     1      -5.663  11.212  69.879  1.00  0.00    -0.083 A  
HETATM   38  C   UNL     1      -5.968  12.526  69.542  1.00  0.00    -0.113 A  
HETATM   39  C   UNL     1      -6.058  12.925  68.213  1.00  0.00    -0.082 A  
HETATM   40  F   UNL     1      -6.199  13.416  70.514  1.00  0.00    -0.157 F  
HETATM   41  C   UNL     1      -5.836  11.999  67.200  1.00  0.00    -0.150 A  
HETATM   42  C   UNL     1      -5.531  10.678  67.521  1.00  0.00    -0.043 A  
ENDBRANCH  35  36
ENDBRANCH  34  35
ENDBRANCH  30  34
ENDBRANCH  25  27
ENDBRANCH  24  25
ENDBRANCH  13  15
ENDBRANCH   9  10
ENDBRANCH   7   9
ENDBRANCH   6   7
ENDBRANCH   5   6
ENDBRANCH   2   5
TORSDOF 11
ENDMDL
MODEL      114
REMARK 921   NORMALIZED FREE ENERGY PREDICTED BY IDOCK:   -5.43 KCAL/MOL
REMARK 922        TOTAL FREE ENERGY PREDICTED BY IDOCK:  -11.67 KCAL/MOL
REMARK 923 INTER-LIGAND FREE ENERGY PREDICTED BY IDOCK:   -9.31 KCAL/MOL
REMARK 924 INTRA-LIGAND FREE ENERGY PREDICTED BY IDOCK:   -2.36 KCAL/MOL
REMARK 927      BINDING AFFINITY PREDICTED BY RF-SCORE:    0.00 PKD
ROOT
HETATM    1  C   UNL     1     -12.019  13.025  63.556  1.00  0.00    -0.545 C  
HETATM    2  S   UNL     1     -12.302  14.301  64.755  1.00  0.00    -0.382 S  
HETATM    3  O   UNL     1     -13.494  13.953  65.502  1.00  0.00    -0.657 OA 
HETATM    4  O   UNL     1     -12.182  15.576  64.078  1.00  0.00    -0.622 OA 
ENDROOT
BRANCH   2   5
HETATM    5  C   UNL     1     -10.898  14.114  65.831  1.00  0.00    -0.294 C  
BRANCH   5   6
HETATM    6  C   UNL     1     -10.675  12.655  66.205  1.00  0.00    -0.267 C  
BRANCH   6   7
HETATM    7  N   UNL     1     -11.833  12.040  66.864  1.00  0.00    -0.616 NA 
HETATM    8  H   UNL     1     -12.156  11.226  66.340  1.00  0.00     0.000 HD 
BRANCH   7   9
HETATM    9  C   UNL     1     -11.589  11.693  68.264  1.00  0.00    -0.310 C  
BRANCH   9  10
HETATM   10  C   UNL     1     -11.112  10.290  68.375  1.00  0.00    -0.247 A  
HETATM   11  C   UNL     1     -10.619   9.384  67.461  1.00  0.00    -0.333 A  
HETATM   12  C   UNL     1     -10.335   8.203  68.186  1.00  0.00    -0.251 A  
HETATM   13  C   UNL     1     -10.648   8.460  69.506  1.00  0.00    -0.213 A  
HETATM   14  O   UNL     1     -11.116   9.739  69.619  1.00  0.00    -0.237 OA 
BRANCH  13  15
HETATM   15  C   UNL     1     -10.589   7.694  70.744  1.00  0.00    -0.224 A  
HETATM   16  C   UNL     1     -10.288   6.325  70.737  1.00  0.00    -0.256 A  
HETATM   17  C   UNL     1     -10.238   5.573  71.942  1.00  0.00    -0.251 A  
HETATM   18  C   UNL     1     -10.497   6.214  73.163  1.00  0.00    -0.236 A  
HETATM   19  C   UNL     1     -10.793   7.563  73.161  1.00  0.00    -0.448 A  
HETATM   20  N   UNL     1     -10.491   5.592  74.341  1.00  0.00    -0.248 NA 
HETATM   21  C   UNL     1     -10.243   4.286  74.316  1.00  0.00    -0.214 A  
HETATM   22  C   UNL     1     -10.840   8.300  71.976  1.00  0.00    -0.370 A  
HETATM   23  N   UNL     1      -9.995   3.566  73.224  1.00  0.00    -0.120 NA 
HETATM   24  C   UNL     1      -9.977   4.191  72.038  1.00  0.00    -0.180 A  
BRANCH  24  25
HETATM   25  N   UNL     1      -9.779   3.432  70.848  1.00  0.00    -0.168 NA 
HETATM   26  H   UNL     1     -10.237   2.522  70.822  1.00  0.00     0.000 HD 
BRANCH  25  27
HETATM   27  C   UNL     1      -9.031   3.777  69.698  1.00  0.00    -0.108 A  
HETATM   28  C   UNL     1      -9.583   3.847  68.420  1.00  0.00    -0.179 A  
HETATM   29  C   UNL     1      -8.858   4.283  67.309  1.00  0.00    -0.113 A  
HETATM   30  C   UNL     1      -7.532   4.703  67.464  1.00  0.00    -0.078 A  
HETATM   31 CL   UNL     1      -9.736   4.195  65.818  1.00  0.00    -0.191 Cl 
HETATM   32  C   UNL     1      -6.942   4.573  68.731  1.00  0.00    -0.052 A  
HETATM   33  C   UNL     1      -7.680   4.112  69.833  1.00  0.00    -0.052 A  
BRANCH  30  34
HETATM   34  O   UNL     1      -6.686   5.233  66.522  1.00  0.00    -0.054 OA 
BRANCH  34  35
HETATM   35  C   UNL     1      -6.140   6.514  66.823  1.00  0.00    -0.032 C  
BRANCH  35  36
HETATM   36  C   UNL     1      -6.782   7.598  65.996  1.00  0.00    -0.046 A  
HETATM   37  C   UNL     1      -6.938   8.888  66.511  1.00  0.00    -0.080 A  
HETATM   38  C   UNL     1      -7.639   9.838  65.776  1.00  0.00    -0.108 A  
HETATM   39  C   UNL     1      -8.187   9.527  64.536  1.00  0.00    -0.152 A  
HETATM   40  F   UNL     1      -7.805  11.067  66.281  1.00  0.00    -0.147 F  
HETATM   41  C   UNL     1      -8.031   8.247  64.016  1.00  0.00    -0.147 A  
HETATM   42  C   UNL     1      -7.334   7.284  64.741  1.00  0.00    -0.081 A  
ENDBRANCH  35  36
ENDBRANCH  34  35
ENDBRANCH  30  34
ENDBRANCH  25  27
ENDBRANCH  24  25
ENDBRANCH  13  15
ENDBRANCH   9  10
ENDBRANCH   7   9
ENDBRANCH   6   7
ENDBRANCH   5   6
ENDBRANCH   2   5
TORSDOF 11
ENDMDL
MODEL      115
REMARK 921   NORMALIZED FREE ENERGY PREDICTED BY IDOCK:   -5.43 KCAL/MOL
REMARK 922        TOTAL FREE ENERGY PREDICTED BY IDOCK:  -11.67 KCAL/MOL
REMARK 923 INTER-LIGAND FREE ENERGY PREDICTED BY IDOCK:   -9.23 KCAL/MOL
REMARK 924 INTRA-LIGAND FREE ENERGY PREDICTED BY IDOCK:   -2.44 KCAL/MOL
REMARK 927      BINDING AFFINITY PREDICTED BY RF-SCORE:    0.00 PKD
ROOT
HETATM    1  C   UNL     1      -7.481   9.853  63.105  1.00  0.00    -0.132 C  
HETATM    2  S   UNL     1      -7.465   8.317  63.992  1.00  0.00    -0.117 S  
HETATM    3  O   UNL     1      -8.077   7.310  63.150  1.00  0.00    -0.108 OA 
HETATM    4  O   UNL     1      -7.952   8.577  65.332  1.00  0.00    -0.100 OA 
ENDROOT
BRANCH   2   5
HETATM    5  C   UNL     1      -5.723   7.971  64.096  1.00  0.00    -0.052 C  
BRANCH   5   6
HETATM    6  C   UNL     1      -5.466   6.506  64.422  1.00  0.00    -0.026 C  
BRANCH   6   7
HETATM    7  N   UNL     1      -6.444   5.938  65.355  1.00  0.00    -0.041 NA 
HETATM    8  H   UNL     1      -7.272   6.531  65.418  1.00  0.00     0.000 HD 
BRANCH   7   9
HETATM    9  C   UNL     1      -6.817   4.558  65.040  1.00  0.00    -0.049 C  
BRANCH   9  10
HETATM   10  C   UNL     1      -7.885   4.086  65.959  1.00  0.00    -0.090 A  
HETATM   11  C   UNL     1      -8.746   3.011  65.934  1.00  0.00    -0.131 A  
HETATM   12  C   UNL     1      -9.535   3.107  67.105  1.00  0.00    -0.147 A  
HETATM   13  C   UNL     1      -9.098   4.223  67.790  1.00  0.00    -0.131 A  
HETATM   14  O   UNL     1      -8.084   4.815  67.090  1.00  0.00    -0.102 OA 
BRANCH  13  15
HETATM   15  C   UNL     1      -9.470   4.872  69.040  1.00  0.00    -0.205 A  
HETATM   16  C   UNL     1     -10.073   6.138  69.049  1.00  0.00    -0.213 A  
HETATM   17  C   UNL     1     -10.429   6.778  70.267  1.00  0.00    -0.238 A  
HETATM   18  C   UNL     1     -10.170   6.130  71.485  1.00  0.00    -0.203 A  
HETATM   19  C   UNL     1      -9.576   4.884  71.467  1.00  0.00    -0.218 A  
HETATM   20  N   UNL     1     -10.452   6.655  72.677  1.00  0.00    -0.204 NA 
HETATM   21  C   UNL     1     -10.987   7.873  72.671  1.00  0.00    -0.378 A  
HETATM   22  C   UNL     1      -9.229   4.257  70.269  1.00  0.00    -0.203 A  
HETATM   23  N   UNL     1     -11.268   8.591  71.587  1.00  0.00    -0.271 NA 
HETATM   24  C   UNL     1     -11.008   8.058  70.384  1.00  0.00    -0.248 A  
BRANCH  24  25
HETATM   25  N   UNL     1     -11.237   8.832  69.210  1.00  0.00    -0.419 NA 
HETATM   26  H   UNL     1     -11.709   8.349  68.446  1.00  0.00     0.000 HD 
BRANCH  25  27
HETATM   27  C   UNL     1     -10.897  10.183  68.965  1.00  0.00    -0.224 A  
HETATM   28  C   UNL     1      -9.688  10.574  68.391  1.00  0.00    -0.166 A  
HETATM   29  C   UNL     1      -9.404  11.902  68.064  1.00  0.00    -0.193 A  
HETATM   30  C   UNL     1     -10.366  12.894  68.283  1.00  0.00    -0.244 A  
HETATM   31 CL   UNL     1      -7.804  12.146  67.446  1.00  0.00    -0.159 Cl 
HETATM   32  C   UNL     1     -11.560  12.526  68.924  1.00  0.00    -0.364 A  
HETATM   33  C   UNL     1     -11.820  11.189  69.265  1.00  0.00    -0.422 A  
BRANCH  30  34
HETATM   34  O   UNL     1     -10.310  14.227  67.962  1.00  0.00    -0.223 OA 
BRANCH  34  35
HETATM   35  C   UNL     1     -11.315  14.697  67.068  1.00  0.00    -0.355 C  
BRANCH  35  36
HETATM   36  C   UNL     1     -11.353  13.886  65.800  1.00  0.00    -0.308 A  
HETATM   37  C   UNL     1     -12.527  13.240  65.403  1.00  0.00    -0.543 A  
HETATM   38  C   UNL     1     -12.506  12.401  64.294  1.00  0.00    -0.437 A  
HETATM   39  C   UNL     1     -11.335  12.192  63.573  1.00  0.00    -0.535 A  
HETATM   40  F   UNL     1     -13.627  11.767  63.929  1.00  0.00    -0.351 F  
HETATM   41  C   UNL     1     -10.165  12.834  63.960  1.00  0.00    -0.323 A  
HETATM   42  C   UNL     1     -10.169  13.677  65.069  1.00  0.00    -0.356 A  
ENDBRANCH  35  36
ENDBRANCH  34  35
ENDBRANCH  30  34
ENDBRANCH  25  27
ENDBRANCH  24  25
ENDBRANCH  13  15
ENDBRANCH   9  10
ENDBRANCH   7   9
ENDBRANCH   6   7
ENDBRANCH   5   6
ENDBRANCH   2   5
TORSDOF 11
ENDMDL
MODEL      116
REMARK 921   NORMALIZED FREE ENERGY PREDICTED BY IDOCK:   -5.42 KCAL/MOL
REMARK 922        TOTAL FREE ENERGY PREDICTED BY IDOCK:  -11.65 KCAL/MOL
REMARK 923 INTER-LIGAND FREE ENERGY PREDICTED BY IDOCK:   -9.59 KCAL/MOL
REMARK 924 INTRA-LIGAND FREE ENERGY PREDICTED BY IDOCK:   -2.06 KCAL/MOL
REMARK 927      BINDING AFFINITY PREDICTED BY RF-SCORE:    0.00 PKD
ROOT
HETATM    1  C   UNL     1     -12.226  14.412  73.039  1.00  0.00     0.006 C  
HETATM    2  S   UNL     1     -12.798  15.424  71.698  1.00  0.00    -0.454 S  
HETATM    3  O   UNL     1     -11.844  16.499  71.515  1.00  0.00    -0.350 OA 
HETATM    4  O   UNL     1     -14.204  15.693  71.918  1.00  0.00    -0.471 OA 
ENDROOT
BRANCH   2   5
HETATM    5  C   UNL     1     -12.657  14.315  70.314  1.00  0.00    -0.319 C  
BRANCH   5   6
HETATM    6  C   UNL     1     -12.001  14.995  69.122  1.00  0.00    -0.275 C  
BRANCH   6   7
HETATM    7  N   UNL     1     -12.136  14.238  67.873  1.00  0.00    -0.567 NA 
HETATM    8  H   UNL     1     -13.081  14.323  67.499  1.00  0.00     0.000 HD 
BRANCH   7   9
HETATM    9  C   UNL     1     -11.143  14.602  66.861  1.00  0.00    -0.333 C  
BRANCH   9  10
HETATM   10  C   UNL     1     -10.020  13.628  66.863  1.00  0.00    -0.260 A  
HETATM   11  C   UNL     1      -8.901  13.478  67.652  1.00  0.00    -0.202 A  
HETATM   12  C   UNL     1      -8.208  12.351  67.148  1.00  0.00    -0.176 A  
HETATM   13  C   UNL     1      -8.955  11.862  66.095  1.00  0.00    -0.116 A  
HETATM   14  O   UNL     1     -10.065  12.641  65.928  1.00  0.00    -0.257 OA 
BRANCH  13  15
HETATM   15  C   UNL     1      -8.816  10.747  65.168  1.00  0.00    -0.199 A  
HETATM   16  C   UNL     1      -8.491   9.461  65.623  1.00  0.00    -0.145 A  
HETATM   17  C   UNL     1      -8.346   8.373  64.721  1.00  0.00    -0.151 A  
HETATM   18  C   UNL     1      -8.531   8.590  63.347  1.00  0.00    -0.035 A  
HETATM   19  C   UNL     1      -8.850   9.859  62.907  1.00  0.00    -0.248 A  
HETATM   20  N   UNL     1      -8.400   7.639  62.423  1.00  0.00    -0.103 NA 
HETATM   21  C   UNL     1      -8.053   6.433  62.865  1.00  0.00    -0.059 A  
HETATM   22  C   UNL     1      -8.994  10.927  63.796  1.00  0.00    -0.121 A  
HETATM   23  N   UNL     1      -7.839   6.107  64.137  1.00  0.00    -0.113 NA 
HETATM   24  C   UNL     1      -7.991   7.055  65.073  1.00  0.00    -0.129 A  
BRANCH  24  25
HETATM   25  N   UNL     1      -7.704   6.748  66.435  1.00  0.00    -0.096 NA 
HETATM   26  H   UNL     1      -6.720   6.780  66.699  1.00  0.00     0.000 HD 
BRANCH  25  27
HETATM   27  C   UNL     1      -8.607   6.406  67.469  1.00  0.00    -0.115 A  
HETATM   28  C   UNL     1      -8.197   5.921  68.710  1.00  0.00    -0.103 A  
HETATM   29  C   UNL     1      -9.091   5.680  69.757  1.00  0.00    -0.138 A  
HETATM   30  C   UNL     1     -10.452   5.958  69.588  1.00  0.00    -0.277 A  
HETATM   31 CL   UNL     1      -8.352   4.995  71.167  1.00  0.00    -0.113 Cl 
HETATM   32  C   UNL     1     -10.887   6.382  68.323  1.00  0.00    -0.384 A  
HETATM   33  C   UNL     1      -9.978   6.598  67.276  1.00  0.00    -0.199 A  
BRANCH  30  34
HETATM   34  O   UNL     1     -11.465   5.865  70.510  1.00  0.00    -0.246 OA 
BRANCH  34  35
HETATM   35  C   UNL     1     -11.321   6.664  71.681  1.00  0.00    -0.276 C  
BRANCH  35  36
HETATM   36  C   UNL     1     -11.917   8.034  71.494  1.00  0.00    -0.331 A  
HETATM   37  C   UNL     1     -11.185   9.052  70.875  1.00  0.00    -0.348 A  
HETATM   38  C   UNL     1     -11.710  10.338  70.821  1.00  0.00    -0.360 A  
HETATM   39  C   UNL     1     -12.952  10.631  71.373  1.00  0.00    -0.545 A  
HETATM   40  F   UNL     1     -10.997  11.315  70.246  1.00  0.00    -0.244 F  
HETATM   41  C   UNL     1     -13.688   9.624  71.987  1.00  0.00    -0.396 A  
HETATM   42  C   UNL     1     -13.175   8.330  72.051  1.00  0.00    -0.342 A  
ENDBRANCH  35  36
ENDBRANCH  34  35
ENDBRANCH  30  34
ENDBRANCH  25  27
ENDBRANCH  24  25
ENDBRANCH  13  15
ENDBRANCH   9  10
ENDBRANCH   7   9
ENDBRANCH   6   7
ENDBRANCH   5   6
ENDBRANCH   2   5
TORSDOF 11
ENDMDL
MODEL      117
REMARK 921   NORMALIZED FREE ENERGY PREDICTED BY IDOCK:   -5.39 KCAL/MOL
REMARK 922        TOTAL FREE ENERGY PREDICTED BY IDOCK:  -11.60 KCAL/MOL
REMARK 923 INTER-LIGAND FREE ENERGY PREDICTED BY IDOCK:  -10.22 KCAL/MOL
REMARK 924 INTRA-LIGAND FREE ENERGY PREDICTED BY IDOCK:   -1.38 KCAL/MOL
REMARK 927      BINDING AFFINITY PREDICTED BY RF-SCORE:    0.00 PKD
ROOT
HETATM    1  C   UNL     1      -8.463  20.360  67.172  1.00  0.00    -0.318 C  
HETATM    2  S   UNL     1      -9.930  19.513  66.644  1.00  0.00    -0.448 S  
HETATM    3  O   UNL     1     -10.360  20.106  65.393  1.00  0.00    -0.314 OA 
HETATM    4  O   UNL     1     -10.822  19.426  67.782  1.00  0.00    -0.418 OA 
ENDROOT
BRANCH   2   5
HETATM    5  C   UNL     1      -9.311  17.881  66.301  1.00  0.00    -0.197 C  
BRANCH   5   6
HETATM    6  C   UNL     1     -10.445  16.896  66.059  1.00  0.00    -0.290 C  
BRANCH   6   7
HETATM    7  N   UNL     1     -10.853  16.812  64.653  1.00  0.00    -0.867 NA 
HETATM    8  H   UNL     1     -10.040  16.853  64.038  1.00  0.00     0.000 HD 
BRANCH   7   9
HETATM    9  C   UNL     1     -11.672  15.637  64.353  1.00  0.00    -0.218 C  
BRANCH   9  10
HETATM   10  C   UNL     1     -11.151  14.445  65.072  1.00  0.00    -0.380 A  
HETATM   11  C   UNL     1     -10.199  13.498  64.766  1.00  0.00    -0.355 A  
HETATM   12  C   UNL     1     -10.155  12.609  65.866  1.00  0.00    -0.276 A  
HETATM   13  C   UNL     1     -11.067  13.074  66.792  1.00  0.00    -0.286 A  
HETATM   14  O   UNL     1     -11.669  14.201  66.306  1.00  0.00    -0.359 OA 
BRANCH  13  15
HETATM   15  C   UNL     1     -11.503  12.640  68.112  1.00  0.00    -0.359 A  
HETATM   16  C   UNL     1     -11.358  11.308  68.523  1.00  0.00    -0.341 A  
HETATM   17  C   UNL     1     -11.791  10.879  69.806  1.00  0.00    -0.419 A  
HETATM   18  C   UNL     1     -12.376  11.808  70.681  1.00  0.00    -0.328 A  
HETATM   19  C   UNL     1     -12.515  13.118  70.268  1.00  0.00    -0.233 A  
HETATM   20  N   UNL     1     -12.827  11.499  71.895  1.00  0.00    -0.347 NA 
HETATM   21  C   UNL     1     -12.719  10.223  72.256  1.00  0.00    -0.012 A  
HETATM   22  C   UNL     1     -12.088  13.537  69.007  1.00  0.00    -0.330 A  
HETATM   23  N   UNL     1     -12.196   9.250  71.515  1.00  0.00    -0.339 NA 
HETATM   24  C   UNL     1     -11.719   9.560  70.300  1.00  0.00    -0.117 A  
BRANCH  24  25
HETATM   25  N   UNL     1     -11.214   8.526  69.460  1.00  0.00    -0.440 NA 
HETATM   26  H   UNL     1     -11.299   8.688  68.457  1.00  0.00     0.000 HD 
BRANCH  25  27
HETATM   27  C   UNL     1     -10.609   7.303  69.835  1.00  0.00    -0.231 A  
HETATM   28  C   UNL     1      -9.237   7.073  69.752  1.00  0.00    -0.147 A  
HETATM   29  C   UNL     1      -8.640   5.899  70.218  1.00  0.00    -0.134 A  
HETATM   30  C   UNL     1      -9.426   4.912  70.824  1.00  0.00    -0.169 A  
HETATM   31 CL   UNL     1      -6.935   5.811  69.921  1.00  0.00    -0.063 Cl 
HETATM   32  C   UNL     1     -10.817   5.100  70.852  1.00  0.00    -0.037 A  
HETATM   33  C   UNL     1     -11.402   6.277  70.360  1.00  0.00    -0.440 A  
BRANCH  30  34
HETATM   34  O   UNL     1      -9.025   3.736  71.409  1.00  0.00    -0.098 OA 
BRANCH  34  35
HETATM   35  C   UNL     1      -9.401   2.541  70.731  1.00  0.00    -0.143 C  
BRANCH  35  36
HETATM   36  C   UNL     1      -8.675   2.395  69.419  1.00  0.00    -0.132 A  
HETATM   37  C   UNL     1      -9.379   2.395  68.211  1.00  0.00    -0.265 A  
HETATM   38  C   UNL     1      -8.702   2.140  67.024  1.00  0.00    -0.120 A  
HETATM   39  C   UNL     1      -7.334   1.886  67.016  1.00  0.00    -0.059 A  
HETATM   40  F   UNL     1      -9.383   2.119  65.871  1.00  0.00    -0.121 F  
HETATM   41  C   UNL     1      -6.627   1.889  68.213  1.00  0.00    -0.029 A  
HETATM   42  C   UNL     1      -7.291   2.140  69.411  1.00  0.00    -0.043 A  
ENDBRANCH  35  36
ENDBRANCH  34  35
ENDBRANCH  30  34
ENDBRANCH  25  27
ENDBRANCH  24  25
ENDBRANCH  13  15
ENDBRANCH   9  10
ENDBRANCH   7   9
ENDBRANCH   6   7
ENDBRANCH   5   6
ENDBRANCH   2   5
TORSDOF 11
ENDMDL
MODEL      118
REMARK 921   NORMALIZED FREE ENERGY PREDICTED BY IDOCK:   -5.39 KCAL/MOL
REMARK 922        TOTAL FREE ENERGY PREDICTED BY IDOCK:  -11.60 KCAL/MOL
REMARK 923 INTER-LIGAND FREE ENERGY PREDICTED BY IDOCK:   -9.51 KCAL/MOL
REMARK 924 INTRA-LIGAND FREE ENERGY PREDICTED BY IDOCK:   -2.09 KCAL/MOL
REMARK 927      BINDING AFFINITY PREDICTED BY RF-SCORE:    0.00 PKD
ROOT
HETATM    1  C   UNL     1      -9.119  19.994  65.965  1.00  0.00    -0.222 C  
HETATM    2  S   UNL     1     -10.256  18.646  66.156  1.00  0.00    -0.377 S  
HETATM    3  O   UNL     1     -11.048  18.557  64.945  1.00  0.00    -0.503 OA 
HETATM    4  O   UNL     1     -10.880  18.776  67.457  1.00  0.00    -0.435 OA 
ENDROOT
BRANCH   2   5
HETATM    5  C   UNL     1      -9.161  17.245  66.206  1.00  0.00    -0.215 C  
BRANCH   5   6
HETATM    6  C   UNL     1      -9.926  15.937  66.063  1.00  0.00    -0.334 C  
BRANCH   6   7
HETATM    7  N   UNL     1     -10.340  15.652  64.685  1.00  0.00    -0.561 NA 
HETATM    8  H   UNL     1      -9.532  15.429  64.103  1.00  0.00     0.000 HD 
BRANCH   7   9
HETATM    9  C   UNL     1     -11.356  14.603  64.587  1.00  0.00    -0.369 C  
BRANCH   9  10
HETATM   10  C   UNL     1     -10.927  13.395  65.339  1.00  0.00    -0.286 A  
HETATM   11  C   UNL     1     -10.036  12.380  65.069  1.00  0.00    -0.269 A  
HETATM   12  C   UNL     1     -10.069  11.514  66.187  1.00  0.00    -0.266 A  
HETATM   13  C   UNL     1     -10.961  12.060  67.089  1.00  0.00    -0.270 A  
HETATM   14  O   UNL     1     -11.478  13.214  66.570  1.00  0.00    -0.310 OA 
BRANCH  13  15
HETATM   15  C   UNL     1     -11.444  11.686  68.411  1.00  0.00    -0.360 A  
HETATM   16  C   UNL     1     -11.453  10.347  68.829  1.00  0.00    -0.240 A  
HETATM   17  C   UNL     1     -11.932   9.978  70.114  1.00  0.00    -0.204 A  
HETATM   18  C   UNL     1     -12.408  10.972  70.983  1.00  0.00    -0.385 A  
HETATM   19  C   UNL     1     -12.396  12.288  70.564  1.00  0.00    -0.349 A  
HETATM   20  N   UNL     1     -12.892  10.723  72.199  1.00  0.00    -0.256 NA 
HETATM   21  C   UNL     1     -12.931   9.445  72.566  1.00  0.00    -0.271 A  
HETATM   22  C   UNL     1     -11.923  12.649  69.301  1.00  0.00    -0.301 A  
HETATM   23  N   UNL     1     -12.521   8.415  71.831  1.00  0.00    -0.327 NA 
HETATM   24  C   UNL     1     -12.012   8.662  70.614  1.00  0.00    -0.039 A  
BRANCH  24  25
HETATM   25  N   UNL     1     -11.628   7.572  69.780  1.00  0.00    -0.466 NA 
HETATM   26  H   UNL     1     -12.302   7.304  69.064  1.00  0.00     0.000 HD 
BRANCH  25  27
HETATM   27  C   UNL     1     -10.434   6.814  69.816  1.00  0.00    -0.210 A  
HETATM   28  C   UNL     1     -10.411   5.422  69.736  1.00  0.00    -0.378 A  
HETATM   29  C   UNL     1      -9.222   4.692  69.674  1.00  0.00    -0.124 A  
HETATM   30  C   UNL     1      -7.993   5.361  69.659  1.00  0.00    -0.095 A  
HETATM   31 CL   UNL     1      -9.453   2.974  69.670  1.00  0.00    -0.211 Cl 
HETATM   32  C   UNL     1      -8.000   6.757  69.809  1.00  0.00    -0.124 A  
HETATM   33  C   UNL     1      -9.204   7.474  69.891  1.00  0.00    -0.147 A  
BRANCH  30  34
HETATM   34  O   UNL     1      -6.733   4.835  69.524  1.00  0.00    -0.042 OA 
BRANCH  34  35
HETATM   35  C   UNL     1      -6.054   5.140  68.309  1.00  0.00    -0.027 C  
BRANCH  35  36
HETATM   36  C   UNL     1      -6.667   4.421  67.136  1.00  0.00    -0.051 A  
HETATM   37  C   UNL     1      -7.249   5.138  66.087  1.00  0.00    -0.073 A  
HETATM   38  C   UNL     1      -7.912   4.453  65.075  1.00  0.00    -0.097 A  
HETATM   39  C   UNL     1      -8.006   3.065  65.088  1.00  0.00    -0.082 A  
HETATM   40  F   UNL     1      -8.488   5.143  64.082  1.00  0.00    -0.122 F  
HETATM   41  C   UNL     1      -7.426   2.346  66.126  1.00  0.00    -0.067 A  
HETATM   42  C   UNL     1      -6.760   3.017  67.148  1.00  0.00    -0.045 A  
ENDBRANCH  35  36
ENDBRANCH  34  35
ENDBRANCH  30  34
ENDBRANCH  25  27
ENDBRANCH  24  25
ENDBRANCH  13  15
ENDBRANCH   9  10
ENDBRANCH   7   9
ENDBRANCH   6   7
ENDBRANCH   5   6
ENDBRANCH   2   5
TORSDOF 11
ENDMDL
MODEL      119
REMARK 921   NORMALIZED FREE ENERGY PREDICTED BY IDOCK:   -5.38 KCAL/MOL
REMARK 922        TOTAL FREE ENERGY PREDICTED BY IDOCK:  -11.59 KCAL/MOL
REMARK 923 INTER-LIGAND FREE ENERGY PREDICTED BY IDOCK:   -9.61 KCAL/MOL
REMARK 924 INTRA-LIGAND FREE ENERGY PREDICTED BY IDOCK:   -1.98 KCAL/MOL
REMARK 927      BINDING AFFINITY PREDICTED BY RF-SCORE:    0.00 PKD
ROOT
HETATM    1  C   UNL     1      -8.264  17.307  68.449  1.00  0.00    -0.260 C  
HETATM    2  S   UNL     1      -7.762  16.850  66.810  1.00  0.00    -0.279 S  
HETATM    3  O   UNL     1      -6.892  15.697  66.918  1.00  0.00    -0.245 OA 
HETATM    4  O   UNL     1      -7.337  18.055  66.128  1.00  0.00    -0.259 OA 
ENDROOT
BRANCH   2   5
HETATM    5  C   UNL     1      -9.299  16.320  66.089  1.00  0.00    -0.339 C  
BRANCH   5   6
HETATM    6  C   UNL     1     -10.441  16.404  67.091  1.00  0.00    -0.297 C  
BRANCH   6   7
HETATM    7  N   UNL     1     -10.968  15.093  67.485  1.00  0.00    -0.302 NA 
HETATM    8  H   UNL     1     -11.147  15.061  68.489  1.00  0.00     0.000 HD 
BRANCH   7   9
HETATM    9  C   UNL     1     -12.158  14.694  66.733  1.00  0.00    -0.200 C  
BRANCH   9  10
HETATM   10  C   UNL     1     -11.786  13.786  65.616  1.00  0.00    -0.365 A  
HETATM   11  C   UNL     1     -12.056  13.791  64.265  1.00  0.00    -0.481 A  
HETATM   12  C   UNL     1     -11.416  12.649  63.728  1.00  0.00    -0.539 A  
HETATM   13  C   UNL     1     -10.771  12.023  64.777  1.00  0.00    -0.306 A  
HETATM   14  O   UNL     1     -10.994  12.725  65.928  1.00  0.00    -0.268 OA 
BRANCH  13  15
HETATM   15  C   UNL     1      -9.944  10.831  64.910  1.00  0.00    -0.374 A  
HETATM   16  C   UNL     1      -9.527  10.374  66.168  1.00  0.00    -0.227 A  
HETATM   17  C   UNL     1      -8.713   9.217  66.300  1.00  0.00    -0.159 A  
HETATM   18  C   UNL     1      -8.318   8.518  65.149  1.00  0.00    -0.169 A  
HETATM   19  C   UNL     1      -8.733   8.976  63.914  1.00  0.00    -0.110 A  
HETATM   20  N   UNL     1      -7.544   7.435  65.170  1.00  0.00    -0.096 NA 
HETATM   21  C   UNL     1      -7.123   7.035  66.367  1.00  0.00    -0.074 A  
HETATM   22  C   UNL     1      -9.534  10.112  63.786  1.00  0.00    -0.330 A  
HETATM   23  N   UNL     1      -7.419   7.618  67.526  1.00  0.00    -0.102 NA 
HETATM   24  C   UNL     1      -8.217   8.696  67.513  1.00  0.00    -0.110 A  
BRANCH  24  25
HETATM   25  N   UNL     1      -8.495   9.377  68.733  1.00  0.00    -0.120 NA 
HETATM   26  H   UNL     1      -8.106  10.316  68.815  1.00  0.00     0.000 HD 
BRANCH  25  27
HETATM   27  C   UNL     1      -9.241   8.922  69.845  1.00  0.00    -0.166 A  
HETATM   28  C   UNL     1     -10.398   8.153  69.726  1.00  0.00    -0.216 A  
HETATM   29  C   UNL     1     -11.070   7.627  70.832  1.00  0.00    -0.263 A  
HETATM   30  C   UNL     1     -10.565   7.840  72.119  1.00  0.00    -0.240 A  
HETATM   31 CL   UNL     1     -12.530   6.784  70.431  1.00  0.00    -0.140 Cl 
HETATM   32  C   UNL     1      -9.441   8.669  72.259  1.00  0.00    -0.336 A  
HETATM   33  C   UNL     1      -8.790   9.207  71.138  1.00  0.00    -0.233 A  
BRANCH  30  34
HETATM   34  O   UNL     1     -11.030   7.348  73.314  1.00  0.00    -0.376 OA 
BRANCH  34  35
HETATM   35  C   UNL     1     -10.105   6.573  74.073  1.00  0.00    -0.326 C  
BRANCH  35  36
HETATM   36  C   UNL     1     -10.016   5.159  73.562  1.00  0.00    -0.186 A  
HETATM   37  C   UNL     1     -11.129   4.315  73.605  1.00  0.00    -0.351 A  
HETATM   38  C   UNL     1     -10.991   2.981  73.239  1.00  0.00    -0.159 A  
HETATM   39  C   UNL     1      -9.763   2.471  72.830  1.00  0.00    -0.168 A  
HETATM   40  F   UNL     1     -12.054   2.169  73.301  1.00  0.00    -0.241 F  
HETATM   41  C   UNL     1      -8.653   3.306  72.782  1.00  0.00    -0.088 A  
HETATM   42  C   UNL     1      -8.774   4.644  73.147  1.00  0.00    -0.112 A  
ENDBRANCH  35  36
ENDBRANCH  34  35
ENDBRANCH  30  34
ENDBRANCH  25  27
ENDBRANCH  24  25
ENDBRANCH  13  15
ENDBRANCH   9  10
ENDBRANCH   7   9
ENDBRANCH   6   7
ENDBRANCH   5   6
ENDBRANCH   2   5
TORSDOF 11
ENDMDL
MODEL      120
REMARK 921   NORMALIZED FREE ENERGY PREDICTED BY IDOCK:   -5.38 KCAL/MOL
REMARK 922        TOTAL FREE ENERGY PREDICTED BY IDOCK:  -11.58 KCAL/MOL
REMARK 923 INTER-LIGAND FREE ENERGY PREDICTED BY IDOCK:  -10.34 KCAL/MOL
REMARK 924 INTRA-LIGAND FREE ENERGY PREDICTED BY IDOCK:   -1.24 KCAL/MOL
REMARK 927      BINDING AFFINITY PREDICTED BY RF-SCORE:    0.00 PKD
ROOT
HETATM    1  C   UNL     1     -13.023  14.231  72.952  1.00  0.00    -0.452 C  
HETATM    2  S   UNL     1     -12.697  15.451  71.707  1.00  0.00    -0.434 S  
HETATM    3  O   UNL     1     -11.796  16.434  72.273  1.00  0.00    -0.534 OA 
HETATM    4  O   UNL     1     -13.967  15.837  71.126  1.00  0.00    -0.508 OA 
ENDROOT
BRANCH   2   5
HETATM    5  C   UNL     1     -11.800  14.508  70.494  1.00  0.00    -0.306 C  
BRANCH   5   6
HETATM    6  C   UNL     1     -10.466  15.161  70.159  1.00  0.00    -0.167 C  
BRANCH   6   7
HETATM    7  N   UNL     1      -9.718  14.452  69.116  1.00  0.00    -0.407 NA 
HETATM    8  H   UNL     1     -10.213  14.491  68.225  1.00  0.00     0.000 HD 
BRANCH   7   9
HETATM    9  C   UNL     1      -8.341  14.924  68.965  1.00  0.00    -0.175 C  
BRANCH   9  10
HETATM   10  C   UNL     1      -7.413  13.774  68.800  1.00  0.00    -0.098 A  
HETATM   11  C   UNL     1      -6.470  13.196  69.620  1.00  0.00    -0.047 A  
HETATM   12  C   UNL     1      -5.911  12.122  68.887  1.00  0.00    -0.061 A  
HETATM   13  C   UNL     1      -6.560  12.091  67.668  1.00  0.00    -0.107 A  
HETATM   14  O   UNL     1      -7.482  13.098  67.622  1.00  0.00    -0.135 OA 
BRANCH  13  15
HETATM   15  C   UNL     1      -6.473  11.253  66.480  1.00  0.00    -0.111 A  
HETATM   16  C   UNL     1      -7.623  10.871  65.775  1.00  0.00    -0.018 A  
HETATM   17  C   UNL     1      -7.542  10.047  64.620  1.00  0.00    -0.143 A  
HETATM   18  C   UNL     1      -6.286   9.604  64.178  1.00  0.00    -0.109 A  
HETATM   19  C   UNL     1      -5.159   9.984  64.879  1.00  0.00    -0.065 A  
HETATM   20  N   UNL     1      -6.110   8.816  63.119  1.00  0.00    -0.086 NA 
HETATM   21  C   UNL     1      -7.213   8.430  62.483  1.00  0.00    -0.095 A  
HETATM   22  C   UNL     1      -5.240  10.795  66.012  1.00  0.00    -0.107 A  
HETATM   23  N   UNL     1      -8.456   8.772  62.811  1.00  0.00    -0.194 NA 
HETATM   24  C   UNL     1      -8.638   9.584  63.863  1.00  0.00    -0.212 A  
BRANCH  24  25
HETATM   25  N   UNL     1      -9.962   9.912  64.276  1.00  0.00    -0.444 NA 
HETATM   26  H   UNL     1     -10.632   9.143  64.268  1.00  0.00     0.000 HD 
BRANCH  25  27
HETATM   27  C   UNL     1     -10.468  11.164  64.695  1.00  0.00    -0.335 A  
HETATM   28  C   UNL     1     -10.977  11.393  65.973  1.00  0.00    -0.286 A  
HETATM   29  C   UNL     1     -11.384  12.657  66.406  1.00  0.00    -0.331 A  
HETATM   30  C   UNL     1     -11.255  13.760  65.554  1.00  0.00    -0.299 A  
HETATM   31 CL   UNL     1     -12.063  12.668  68.000  1.00  0.00    -0.280 Cl 
HETATM   32  C   UNL     1     -10.809  13.533  64.243  1.00  0.00    -0.340 A  
HETATM   33  C   UNL     1     -10.425  12.251  63.817  1.00  0.00    -0.476 A  
BRANCH  30  34
HETATM   34  O   UNL     1     -11.521  15.081  65.817  1.00  0.00    -0.327 OA 
BRANCH  34  35
HETATM   35  C   UNL     1     -10.666  16.029  65.183  1.00  0.00    -0.409 C  
BRANCH  35  36
HETATM   36  C   UNL     1     -10.515  17.279  66.008  1.00  0.00    -0.285 A  
HETATM   37  C   UNL     1     -10.460  17.210  67.404  1.00  0.00    -0.334 A  
HETATM   38  C   UNL     1     -10.441  18.384  68.148  1.00  0.00    -0.327 A  
HETATM   39  C   UNL     1     -10.475  19.628  67.528  1.00  0.00    -0.589 A  
HETATM   40  F   UNL     1     -10.410  18.314  69.484  1.00  0.00    -0.303 F  
HETATM   41  C   UNL     1     -10.525  19.705  66.141  1.00  0.00    -0.624 A  
HETATM   42  C   UNL     1     -10.547  18.538  65.381  1.00  0.00     0.216 A  
ENDBRANCH  35  36
ENDBRANCH  34  35
ENDBRANCH  30  34
ENDBRANCH  25  27
ENDBRANCH  24  25
ENDBRANCH  13  15
ENDBRANCH   9  10
ENDBRANCH   7   9
ENDBRANCH   6   7
ENDBRANCH   5   6
ENDBRANCH   2   5
TORSDOF 11
ENDMDL
MODEL      121
REMARK 921   NORMALIZED FREE ENERGY PREDICTED BY IDOCK:   -5.36 KCAL/MOL
REMARK 922        TOTAL FREE ENERGY PREDICTED BY IDOCK:  -11.56 KCAL/MOL
REMARK 923 INTER-LIGAND FREE ENERGY PREDICTED BY IDOCK:   -9.58 KCAL/MOL
REMARK 924 INTRA-LIGAND FREE ENERGY PREDICTED BY IDOCK:   -1.98 KCAL/MOL
REMARK 927      BINDING AFFINITY PREDICTED BY RF-SCORE:    0.00 PKD
ROOT
HETATM    1  C   UNL     1     -11.478   4.890  72.542  1.00  0.00     0.067 C  
HETATM    2  S   UNL     1     -11.488   6.551  71.919  1.00  0.00    -0.315 S  
HETATM    3  O   UNL     1     -12.867   6.927  71.681  1.00  0.00    -0.373 OA 
HETATM    4  O   UNL     1     -10.493   6.634  70.869  1.00  0.00    -0.210 OA 
ENDROOT
BRANCH   2   5
HETATM    5  C   UNL     1     -10.894   7.474  73.318  1.00  0.00    -0.355 C  
BRANCH   5   6
HETATM    6  C   UNL     1      -9.387   7.677  73.250  1.00  0.00    -0.243 C  
BRANCH   6   7
HETATM    7  N   UNL     1      -8.639   6.426  73.082  1.00  0.00    -0.119 NA 
HETATM    8  H   UNL     1      -8.964   5.918  72.260  1.00  0.00     0.000 HD 
BRANCH   7   9
HETATM    9  C   UNL     1      -7.189   6.618  73.034  1.00  0.00    -0.080 C  
BRANCH   9  10
HETATM   10  C   UNL     1      -6.828   7.578  71.958  1.00  0.00    -0.062 A  
HETATM   11  C   UNL     1      -6.154   8.779  71.951  1.00  0.00    -0.072 A  
HETATM   12  C   UNL     1      -6.132   9.214  70.605  1.00  0.00    -0.047 A  
HETATM   13  C   UNL     1      -6.773   8.243  69.861  1.00  0.00    -0.043 A  
HETATM   14  O   UNL     1      -7.191   7.241  70.691  1.00  0.00    -0.064 OA 
BRANCH  13  15
HETATM   15  C   UNL     1      -7.085   8.070  68.449  1.00  0.00    -0.084 A  
HETATM   16  C   UNL     1      -7.312   9.173  67.614  1.00  0.00    -0.087 A  
HETATM   17  C   UNL     1      -7.625   9.006  66.238  1.00  0.00    -0.092 A  
HETATM   18  C   UNL     1      -7.709   7.711  65.704  1.00  0.00    -0.099 A  
HETATM   19  C   UNL     1      -7.484   6.630  66.533  1.00  0.00    -0.078 A  
HETATM   20  N   UNL     1      -8.013   7.454  64.433  1.00  0.00    -0.130 NA 
HETATM   21  C   UNL     1      -8.264   8.508  63.662  1.00  0.00    -0.128 A  
HETATM   22  C   UNL     1      -7.175   6.796  67.884  1.00  0.00    -0.091 A  
HETATM   23  N   UNL     1      -8.228   9.780  64.053  1.00  0.00    -0.146 NA 
HETATM   24  C   UNL     1      -7.901  10.046  65.327  1.00  0.00    -0.138 A  
BRANCH  24  25
HETATM   25  N   UNL     1      -7.919  11.394  65.788  1.00  0.00    -0.365 NA 
HETATM   26  H   UNL     1      -7.048  11.913  65.676  1.00  0.00     0.000 HD 
BRANCH  25  27
HETATM   27  C   UNL     1      -8.988  12.108  66.380  1.00  0.00    -0.138 A  
HETATM   28  C   UNL     1     -10.175  12.399  65.711  1.00  0.00    -0.283 A  
HETATM   29  C   UNL     1     -11.260  13.017  66.337  1.00  0.00    -0.300 A  
HETATM   30  C   UNL     1     -11.189  13.339  67.697  1.00  0.00    -0.280 A  
HETATM   31 CL   UNL     1     -12.586  13.354  65.274  1.00  0.00    -0.521 Cl 
HETATM   32  C   UNL     1      -9.975  13.115  68.366  1.00  0.00    -0.223 A  
HETATM   33  C   UNL     1      -8.887  12.512  67.715  1.00  0.00    -0.178 A  
BRANCH  30  34
HETATM   34  O   UNL     1     -12.163  13.872  68.504  1.00  0.00    -0.342 OA 
BRANCH  34  35
HETATM   35  C   UNL     1     -11.827  15.085  69.172  1.00  0.00    -0.308 C  
BRANCH  35  36
HETATM   36  C   UNL     1     -12.271  15.066  70.611  1.00  0.00    -0.381 A  
HETATM   37  C   UNL     1     -11.872  16.075  71.493  1.00  0.00    -0.554 A  
HETATM   38  C   UNL     1     -12.195  15.974  72.841  1.00  0.00    -0.517 A  
HETATM   39  C   UNL     1     -12.908  14.885  73.330  1.00  0.00    -0.646 A  
HETATM   40  F   UNL     1     -11.793  16.932  73.686  1.00  0.00    -0.510 F  
HETATM   41  C   UNL     1     -13.311  13.879  72.458  1.00  0.00    -0.656 A  
HETATM   42  C   UNL     1     -12.995  13.965  71.105  1.00  0.00    -0.388 A  
ENDBRANCH  35  36
ENDBRANCH  34  35
ENDBRANCH  30  34
ENDBRANCH  25  27
ENDBRANCH  24  25
ENDBRANCH  13  15
ENDBRANCH   9  10
ENDBRANCH   7   9
ENDBRANCH   6   7
ENDBRANCH   5   6
ENDBRANCH   2   5
TORSDOF 11
ENDMDL
MODEL      122
REMARK 921   NORMALIZED FREE ENERGY PREDICTED BY IDOCK:   -5.36 KCAL/MOL
REMARK 922        TOTAL FREE ENERGY PREDICTED BY IDOCK:  -11.55 KCAL/MOL
REMARK 923 INTER-LIGAND FREE ENERGY PREDICTED BY IDOCK:   -8.58 KCAL/MOL
REMARK 924 INTRA-LIGAND FREE ENERGY PREDICTED BY IDOCK:   -2.96 KCAL/MOL
REMARK 927      BINDING AFFINITY PREDICTED BY RF-SCORE:    0.00 PKD
ROOT
HETATM    1  C   UNL     1     -12.468  12.143  63.375  1.00  0.00    -0.512 C  
HETATM    2  S   UNL     1     -11.374  12.442  64.738  1.00  0.00    -0.327 S  
HETATM    3  O   UNL     1     -12.158  12.992  65.825  1.00  0.00    -0.411 OA 
HETATM    4  O   UNL     1     -10.209  13.133  64.225  1.00  0.00    -0.400 OA 
ENDROOT
BRANCH   2   5
HETATM    5  C   UNL     1     -10.884  10.792  65.186  1.00  0.00     0.013 C  
BRANCH   5   6
HETATM    6  C   UNL     1      -9.836  10.244  64.228  1.00  0.00    -0.288 C  
BRANCH   6   7
HETATM    7  N   UNL     1      -8.940   9.261  64.846  1.00  0.00    -0.284 NA 
HETATM    8  H   UNL     1      -9.170   8.317  64.535  1.00  0.00     0.000 HD 
BRANCH   7   9
HETATM    9  C   UNL     1      -7.521   9.548  64.628  1.00  0.00    -0.113 C  
BRANCH   9  10
HETATM   10  C   UNL     1      -6.992  10.403  65.723  1.00  0.00    -0.136 A  
HETATM   11  C   UNL     1      -5.815  10.401  66.438  1.00  0.00    -0.072 A  
HETATM   12  C   UNL     1      -5.904  11.477  67.353  1.00  0.00    -0.081 A  
HETATM   13  C   UNL     1      -7.120  12.090  67.130  1.00  0.00    -0.130 A  
HETATM   14  O   UNL     1      -7.779  11.435  66.128  1.00  0.00    -0.067 OA 
BRANCH  13  15
HETATM   15  C   UNL     1      -7.816  13.232  67.708  1.00  0.00    -0.157 A  
HETATM   16  C   UNL     1      -9.168  13.150  68.072  1.00  0.00    -0.211 A  
HETATM   17  C   UNL     1      -9.852  14.264  68.628  1.00  0.00    -0.228 A  
HETATM   18  C   UNL     1      -9.162  15.471  68.816  1.00  0.00    -0.210 A  
HETATM   19  C   UNL     1      -7.831  15.544  68.454  1.00  0.00    -0.126 A  
HETATM   20  N   UNL     1      -9.720  16.574  69.313  1.00  0.00    -0.231 NA 
HETATM   21  C   UNL     1     -11.013  16.493  69.617  1.00  0.00    -0.287 A  
HETATM   22  C   UNL     1      -7.160  14.447  67.909  1.00  0.00    -0.169 A  
HETATM   23  N   UNL     1     -11.776  15.412  69.475  1.00  0.00    -0.325 NA 
HETATM   24  C   UNL     1     -11.213  14.292  68.996  1.00  0.00    -0.266 A  
BRANCH  24  25
HETATM   25  N   UNL     1     -12.022  13.141  68.772  1.00  0.00    -0.315 NA 
HETATM   26  H   UNL     1     -12.812  13.270  68.139  1.00  0.00     0.000 HD 
BRANCH  25  27
HETATM   27  C   UNL     1     -11.874  11.842  69.312  1.00  0.00    -0.318 A  
HETATM   28  C   UNL     1     -11.391  10.760  68.578  1.00  0.00    -0.360 A  
HETATM   29  C   UNL     1     -11.157   9.507  69.148  1.00  0.00    -0.053 A  
HETATM   30  C   UNL     1     -11.378   9.313  70.517  1.00  0.00    -0.258 A  
HETATM   31 CL   UNL     1     -10.644   8.303  68.013  1.00  0.00    -0.230 Cl 
HETATM   32  C   UNL     1     -11.929  10.373  71.254  1.00  0.00    -0.425 A  
HETATM   33  C   UNL     1     -12.179  11.619  70.659  1.00  0.00    -0.461 A  
BRANCH  30  34
HETATM   34  O   UNL     1     -11.137   8.192  71.273  1.00  0.00    -0.239 OA 
BRANCH  34  35
HETATM   35  C   UNL     1      -9.882   8.151  71.945  1.00  0.00    -0.212 C  
BRANCH  35  36
HETATM   36  C   UNL     1      -8.731   8.142  70.973  1.00  0.00    -0.156 A  
HETATM   37  C   UNL     1      -8.345   6.959  70.338  1.00  0.00    -0.130 A  
HETATM   38  C   UNL     1      -7.208   6.951  69.538  1.00  0.00    -0.081 A  
HETATM   39  C   UNL     1      -6.448   8.101  69.358  1.00  0.00    -0.035 A  
HETATM   40  F   UNL     1      -6.828   5.811  68.947  1.00  0.00    -0.055 F  
HETATM   41  C   UNL     1      -6.828   9.283  69.984  1.00  0.00    -0.053 A  
HETATM   42  C   UNL     1      -7.963   9.307  70.790  1.00  0.00    -0.187 A  
ENDBRANCH  35  36
ENDBRANCH  34  35
ENDBRANCH  30  34
ENDBRANCH  25  27
ENDBRANCH  24  25
ENDBRANCH  13  15
ENDBRANCH   9  10
ENDBRANCH   7   9
ENDBRANCH   6   7
ENDBRANCH   5   6
ENDBRANCH   2   5
TORSDOF 11
ENDMDL
MODEL      123
REMARK 921   NORMALIZED FREE ENERGY PREDICTED BY IDOCK:   -5.34 KCAL/MOL
REMARK 922        TOTAL FREE ENERGY PREDICTED BY IDOCK:  -11.51 KCAL/MOL
REMARK 923 INTER-LIGAND FREE ENERGY PREDICTED BY IDOCK:   -9.75 KCAL/MOL
REMARK 924 INTRA-LIGAND FREE ENERGY PREDICTED BY IDOCK:   -1.76 KCAL/MOL
REMARK 927      BINDING AFFINITY PREDICTED BY RF-SCORE:    0.00 PKD
ROOT
HETATM    1  C   UNL     1      -7.202  17.271  66.084  1.00  0.00    -0.269 C  
HETATM    2  S   UNL     1      -7.788  16.171  67.347  1.00  0.00    -0.170 S  
HETATM    3  O   UNL     1      -8.598  16.943  68.267  1.00  0.00    -0.214 OA 
HETATM    4  O   UNL     1      -6.659  15.390  67.809  1.00  0.00    -0.129 OA 
ENDROOT
BRANCH   2   5
HETATM    5  C   UNL     1      -8.864  15.095  66.427  1.00  0.00    -0.242 C  
BRANCH   5   6
HETATM    6  C   UNL     1      -9.190  13.832  67.212  1.00  0.00    -0.239 C  
BRANCH   6   7
HETATM    7  N   UNL     1      -8.904  12.598  66.473  1.00  0.00    -0.408 NA 
HETATM    8  H   UNL     1      -8.723  12.799  65.489  1.00  0.00     0.000 HD 
BRANCH   7   9
HETATM    9  C   UNL     1      -7.812  11.813  67.051  1.00  0.00    -0.161 C  
BRANCH   9  10
HETATM   10  C   UNL     1      -7.667  10.519  66.334  1.00  0.00    -0.135 A  
HETATM   11  C   UNL     1      -7.206  10.180  65.081  1.00  0.00    -0.141 A  
HETATM   12  C   UNL     1      -7.319   8.773  64.984  1.00  0.00    -0.089 A  
HETATM   13  C   UNL     1      -7.822   8.329  66.191  1.00  0.00    -0.098 A  
HETATM   14  O   UNL     1      -8.027   9.399  67.016  1.00  0.00    -0.101 OA 
BRANCH  13  15
HETATM   15  C   UNL     1      -8.165   7.025  66.744  1.00  0.00    -0.111 A  
HETATM   16  C   UNL     1      -8.557   6.884  68.082  1.00  0.00    -0.123 A  
HETATM   17  C   UNL     1      -8.883   5.613  68.627  1.00  0.00    -0.109 A  
HETATM   18  C   UNL     1      -8.810   4.475  67.809  1.00  0.00    -0.107 A  
HETATM   19  C   UNL     1      -8.422   4.623  66.492  1.00  0.00    -0.109 A  
HETATM   20  N   UNL     1      -9.079   3.241  68.232  1.00  0.00    -0.143 NA 
HETATM   21  C   UNL     1      -9.412   3.118  69.513  1.00  0.00    -0.120 A  
HETATM   22  C   UNL     1      -8.103   5.873  65.958  1.00  0.00    -0.115 A  
HETATM   23  N   UNL     1      -9.505   4.116  70.389  1.00  0.00    -0.160 NA 
HETATM   24  C   UNL     1      -9.257   5.363  69.963  1.00  0.00    -0.138 A  
BRANCH  24  25
HETATM   25  N   UNL     1      -9.285   6.441  70.895  1.00  0.00    -0.157 NA 
HETATM   26  H   UNL     1      -8.550   6.435  71.602  1.00  0.00     0.000 HD 
BRANCH  25  27
HETATM   27  C   UNL     1     -10.198   7.518  70.968  1.00  0.00    -0.190 A  
HETATM   28  C   UNL     1     -11.520   7.372  71.388  1.00  0.00    -0.290 A  
HETATM   29  C   UNL     1     -12.383   8.458  71.549  1.00  0.00    -0.309 A  
HETATM   30  C   UNL     1     -11.919   9.757  71.316  1.00  0.00    -0.386 A  
HETATM   31 CL   UNL     1     -13.998   8.012  71.994  1.00  0.00    -0.396 Cl 
HETATM   32  C   UNL     1     -10.613   9.914  70.826  1.00  0.00    -0.309 A  
HETATM   33  C   UNL     1      -9.765   8.809  70.649  1.00  0.00    -0.239 A  
BRANCH  30  34
HETATM   34  O   UNL     1     -12.580  10.948  71.492  1.00  0.00    -0.384 OA 
BRANCH  34  35
HETATM   35  C   UNL     1     -12.291  11.969  70.542  1.00  0.00    -0.282 C  
BRANCH  35  36
HETATM   36  C   UNL     1     -12.485  13.343  71.128  1.00  0.00    -0.414 A  
HETATM   37  C   UNL     1     -11.726  14.425  70.674  1.00  0.00    -0.315 A  
HETATM   38  C   UNL     1     -11.839  15.656  71.310  1.00  0.00    -0.419 A  
HETATM   39  C   UNL     1     -12.695  15.830  72.393  1.00  0.00    -0.537 A  
HETATM   40  F   UNL     1     -11.095  16.685  70.886  1.00  0.00    -0.318 F  
HETATM   41  C   UNL     1     -13.455  14.759  72.848  1.00  0.00    -0.541 A  
HETATM   42  C   UNL     1     -13.353  13.519  72.222  1.00  0.00    -0.628 A  
ENDBRANCH  35  36
ENDBRANCH  34  35
ENDBRANCH  30  34
ENDBRANCH  25  27
ENDBRANCH  24  25
ENDBRANCH  13  15
ENDBRANCH   9  10
ENDBRANCH   7   9
ENDBRANCH   6   7
ENDBRANCH   5   6
ENDBRANCH   2   5
TORSDOF 11
ENDMDL
MODEL      124
REMARK 921   NORMALIZED FREE ENERGY PREDICTED BY IDOCK:   -5.32 KCAL/MOL
REMARK 922        TOTAL FREE ENERGY PREDICTED BY IDOCK:  -11.49 KCAL/MOL
REMARK 923 INTER-LIGAND FREE ENERGY PREDICTED BY IDOCK:   -9.51 KCAL/MOL
REMARK 924 INTRA-LIGAND FREE ENERGY PREDICTED BY IDOCK:   -1.97 KCAL/MOL
REMARK 927      BINDING AFFINITY PREDICTED BY RF-SCORE:    0.00 PKD
ROOT
HETATM    1  C   UNL     1      -9.676   7.537  71.387  1.00  0.00    -0.166 C  
HETATM    2  S   UNL     1     -10.675   7.272  72.829  1.00  0.00    -0.330 S  
HETATM    3  O   UNL     1     -11.797   8.187  72.767  1.00  0.00    -0.389 OA 
HETATM    4  O   UNL     1      -9.792   7.238  73.977  1.00  0.00    -0.292 OA 
ENDROOT
BRANCH   2   5
HETATM    5  C   UNL     1     -11.288   5.624  72.554  1.00  0.00    -0.294 C  
BRANCH   5   6
HETATM    6  C   UNL     1     -10.166   4.597  72.617  1.00  0.00    -0.184 C  
BRANCH   6   7
HETATM    7  N   UNL     1      -9.993   3.848  71.367  1.00  0.00    -0.165 NA 
HETATM    8  H   UNL     1     -10.821   3.934  70.777  1.00  0.00     0.000 HD 
BRANCH   7   9
HETATM    9  C   UNL     1      -8.787   4.221  70.627  1.00  0.00    -0.088 C  
BRANCH   9  10
HETATM   10  C   UNL     1      -8.949   3.913  69.182  1.00  0.00    -0.114 A  
HETATM   11  C   UNL     1      -9.398   2.806  68.497  1.00  0.00    -0.249 A  
HETATM   12  C   UNL     1      -9.315   3.129  67.122  1.00  0.00    -0.197 A  
HETATM   13  C   UNL     1      -8.842   4.424  67.044  1.00  0.00    -0.114 A  
HETATM   14  O   UNL     1      -8.626   4.903  68.306  1.00  0.00    -0.101 OA 
BRANCH  13  15
HETATM   15  C   UNL     1      -8.538   5.344  65.956  1.00  0.00    -0.127 A  
HETATM   16  C   UNL     1      -8.282   6.700  66.201  1.00  0.00    -0.124 A  
HETATM   17  C   UNL     1      -7.994   7.601  65.141  1.00  0.00    -0.130 A  
HETATM   18  C   UNL     1      -7.968   7.124  63.821  1.00  0.00    -0.072 A  
HETATM   19  C   UNL     1      -8.222   5.787  63.589  1.00  0.00    -0.072 A  
HETATM   20  N   UNL     1      -7.725   7.893  62.761  1.00  0.00    -0.124 NA 
HETATM   21  C   UNL     1      -7.522   9.185  63.005  1.00  0.00    -0.103 A  
HETATM   22  C   UNL     1      -8.503   4.903  64.632  1.00  0.00    -0.143 A  
HETATM   23  N   UNL     1      -7.532   9.757  64.207  1.00  0.00    -0.126 NA 
HETATM   24  C   UNL     1      -7.754   8.983  65.280  1.00  0.00    -0.100 A  
BRANCH  24  25
HETATM   25  N   UNL     1      -7.836   9.581  66.570  1.00  0.00    -0.100 NA 
HETATM   26  H   UNL     1      -6.968   9.605  67.104  1.00  0.00     0.000 HD 
BRANCH  25  27
HETATM   27  C   UNL     1      -8.965  10.147  67.208  1.00  0.00    -0.135 A  
HETATM   28  C   UNL     1      -9.916  10.916  66.538  1.00  0.00    -0.255 A  
HETATM   29  C   UNL     1     -11.076  11.386  67.157  1.00  0.00    -0.305 A  
HETATM   30  C   UNL     1     -11.334  11.060  68.493  1.00  0.00    -0.287 A  
HETATM   31 CL   UNL     1     -12.055  12.393  66.142  1.00  0.00    -0.402 Cl 
HETATM   32  C   UNL     1     -10.354  10.345  69.199  1.00  0.00    -0.241 A  
HETATM   33  C   UNL     1      -9.182   9.899  68.567  1.00  0.00    -0.136 A  
BRANCH  30  34
HETATM   34  O   UNL     1     -12.441  11.356  69.249  1.00  0.00    -0.276 OA 
BRANCH  34  35
HETATM   35  C   UNL     1     -12.205  11.611  70.631  1.00  0.00    -0.366 C  
BRANCH  35  36
HETATM   36  C   UNL     1     -12.615  13.008  71.015  1.00  0.00    -0.386 A  
HETATM   37  C   UNL     1     -11.930  14.116  70.509  1.00  0.00    -0.393 A  
HETATM   38  C   UNL     1     -12.250  15.388  70.970  1.00  0.00    -0.376 A  
HETATM   39  C   UNL     1     -13.241  15.578  71.927  1.00  0.00    -0.553 A  
HETATM   40  F   UNL     1     -11.577  16.446  70.498  1.00  0.00    -0.366 F  
HETATM   41  C   UNL     1     -13.929  14.481  72.432  1.00  0.00    -0.580 A  
HETATM   42  C   UNL     1     -13.619  13.200  71.982  1.00  0.00    -0.554 A  
ENDBRANCH  35  36
ENDBRANCH  34  35
ENDBRANCH  30  34
ENDBRANCH  25  27
ENDBRANCH  24  25
ENDBRANCH  13  15
ENDBRANCH   9  10
ENDBRANCH   7   9
ENDBRANCH   6   7
ENDBRANCH   5   6
ENDBRANCH   2   5
TORSDOF 11
ENDMDL
MODEL      125
REMARK 921   NORMALIZED FREE ENERGY PREDICTED BY IDOCK:   -5.32 KCAL/MOL
REMARK 922        TOTAL FREE ENERGY PREDICTED BY IDOCK:  -11.48 KCAL/MOL
REMARK 923 INTER-LIGAND FREE ENERGY PREDICTED BY IDOCK:   -9.79 KCAL/MOL
REMARK 924 INTRA-LIGAND FREE ENERGY PREDICTED BY IDOCK:   -1.70 KCAL/MOL
REMARK 927      BINDING AFFINITY PREDICTED BY RF-SCORE:    0.00 PKD
ROOT
HETATM    1  C   UNL     1     -10.374   6.169  72.518  1.00  0.00    -0.193 C  
HETATM    2  S   UNL     1      -8.967   5.284  71.898  1.00  0.00    -0.135 S  
HETATM    3  O   UNL     1      -9.286   4.822  70.562  1.00  0.00    -0.134 OA 
HETATM    4  O   UNL     1      -8.535   4.364  72.930  1.00  0.00    -0.101 OA 
ENDROOT
BRANCH   2   5
HETATM    5  C   UNL     1      -7.751   6.574  71.763  1.00  0.00    -0.095 C  
BRANCH   5   6
HETATM    6  C   UNL     1      -8.108   7.562  70.662  1.00  0.00    -0.109 C  
BRANCH   6   7
HETATM    7  N   UNL     1      -7.755   7.089  69.319  1.00  0.00    -0.106 NA 
HETATM    8  H   UNL     1      -8.470   7.355  68.642  1.00  0.00     0.000 HD 
BRANCH   7   9
HETATM    9  C   UNL     1      -6.432   7.530  68.875  1.00  0.00    -0.044 C  
BRANCH   9  10
HETATM   10  C   UNL     1      -6.533   8.820  68.144  1.00  0.00    -0.060 A  
HETATM   11  C   UNL     1      -5.741   9.946  68.100  1.00  0.00    -0.039 A  
HETATM   12  C   UNL     1      -6.376  10.844  67.209  1.00  0.00    -0.068 A  
HETATM   13  C   UNL     1      -7.509  10.207  66.742  1.00  0.00    -0.104 A  
HETATM   14  O   UNL     1      -7.598   8.968  67.310  1.00  0.00    -0.087 OA 
BRANCH  13  15
HETATM   15  C   UNL     1      -8.577  10.560  65.817  1.00  0.00    -0.180 A  
HETATM   16  C   UNL     1      -9.668  11.338  66.230  1.00  0.00    -0.246 A  
HETATM   17  C   UNL     1     -10.716  11.677  65.333  1.00  0.00    -0.341 A  
HETATM   18  C   UNL     1     -10.660  11.222  64.007  1.00  0.00    -0.386 A  
HETATM   19  C   UNL     1      -9.582  10.456  63.608  1.00  0.00    -0.364 A  
HETATM   20  N   UNL     1     -11.601  11.472  63.097  1.00  0.00    -0.081 NA 
HETATM   21  C   UNL     1     -12.648  12.178  63.514  1.00  0.00    -0.506 A  
HETATM   22  C   UNL     1      -8.553  10.126  64.491  1.00  0.00    -0.198 A  
HETATM   23  N   UNL     1     -12.822  12.654  64.745  1.00  0.00    -0.830 NA 
HETATM   24  C   UNL     1     -11.867  12.424  65.658  1.00  0.00    -0.409 A  
BRANCH  24  25
HETATM   25  N   UNL     1     -12.058  12.866  66.999  1.00  0.00    -0.413 NA 
HETATM   26  H   UNL     1     -12.743  12.343  67.544  1.00  0.00     0.000 HD 
BRANCH  25  27
HETATM   27  C   UNL     1     -11.422  13.934  67.674  1.00  0.00    -0.324 A  
HETATM   28  C   UNL     1     -11.597  14.191  69.033  1.00  0.00    -0.342 A  
HETATM   29  C   UNL     1     -10.889  15.188  69.708  1.00  0.00    -0.284 A  
HETATM   30  C   UNL     1      -9.937  15.952  69.022  1.00  0.00    -0.233 A  
HETATM   31 CL   UNL     1     -11.346  15.373  71.369  1.00  0.00    -0.435 Cl 
HETATM   32  C   UNL     1      -9.801  15.751  67.639  1.00  0.00    -0.232 A  
HETATM   33  C   UNL     1     -10.537  14.759  66.973  1.00  0.00    -0.290 A  
BRANCH  30  34
HETATM   34  O   UNL     1      -9.092  16.914  69.517  1.00  0.00     0.063 OA 
BRANCH  34  35
HETATM   35  C   UNL     1      -7.836  17.043  68.857  1.00  0.00    -0.224 C  
BRANCH  35  36
HETATM   36  C   UNL     1      -7.669  18.408  68.245  1.00  0.00    -0.308 A  
HETATM   37  C   UNL     1      -8.761  19.272  68.121  1.00  0.00    -0.370 A  
HETATM   38  C   UNL     1      -8.607  20.478  67.446  1.00  0.00    -0.271 A  
HETATM   39  C   UNL     1      -7.385  20.841  66.892  1.00  0.00    -0.312 A  
HETATM   40  F   UNL     1      -9.660  21.294  67.310  1.00  0.00    -0.572 F  
HETATM   41  C   UNL     1      -6.293  19.989  67.015  1.00  0.00    -0.213 A  
HETATM   42  C   UNL     1      -6.431  18.776  67.686  1.00  0.00    -0.209 A  
ENDBRANCH  35  36
ENDBRANCH  34  35
ENDBRANCH  30  34
ENDBRANCH  25  27
ENDBRANCH  24  25
ENDBRANCH  13  15
ENDBRANCH   9  10
ENDBRANCH   7   9
ENDBRANCH   6   7
ENDBRANCH   5   6
ENDBRANCH   2   5
TORSDOF 11
ENDMDL
MODEL      126
REMARK 921   NORMALIZED FREE ENERGY PREDICTED BY IDOCK:   -5.31 KCAL/MOL
REMARK 922        TOTAL FREE ENERGY PREDICTED BY IDOCK:  -11.47 KCAL/MOL
REMARK 923 INTER-LIGAND FREE ENERGY PREDICTED BY IDOCK:   -9.12 KCAL/MOL
REMARK 924 INTRA-LIGAND FREE ENERGY PREDICTED BY IDOCK:   -2.35 KCAL/MOL
REMARK 927      BINDING AFFINITY PREDICTED BY RF-SCORE:    0.00 PKD
ROOT
HETATM    1  C   UNL     1     -10.243  19.509  67.309  1.00  0.00    -0.429 C  
HETATM    2  S   UNL     1      -9.494  17.975  66.827  1.00  0.00    -0.303 S  
HETATM    3  O   UNL     1      -8.057  18.130  66.932  1.00  0.00    -0.223 OA 
HETATM    4  O   UNL     1     -10.118  17.549  65.591  1.00  0.00    -0.574 OA 
ENDROOT
BRANCH   2   5
HETATM    5  C   UNL     1     -10.030  16.880  68.122  1.00  0.00    -0.285 C  
BRANCH   5   6
HETATM    6  C   UNL     1     -11.321  16.165  67.746  1.00  0.00    -0.126 C  
BRANCH   6   7
HETATM    7  N   UNL     1     -11.155  14.718  67.575  1.00  0.00    -0.308 NA 
HETATM    8  H   UNL     1     -10.175  14.482  67.416  1.00  0.00     0.000 HD 
BRANCH   7   9
HETATM    9  C   UNL     1     -11.705  13.934  68.681  1.00  0.00    -0.361 C  
BRANCH   9  10
HETATM   10  C   UNL     1     -11.438  12.487  68.474  1.00  0.00    -0.305 A  
HETATM   11  C   UNL     1     -12.025  11.338  68.959  1.00  0.00    -0.393 A  
HETATM   12  C   UNL     1     -11.314  10.257  68.388  1.00  0.00    -0.244 A  
HETATM   13  C   UNL     1     -10.347  10.804  67.567  1.00  0.00    -0.206 A  
HETATM   14  O   UNL     1     -10.431  12.167  67.617  1.00  0.00    -0.201 OA 
BRANCH  13  15
HETATM   15  C   UNL     1      -9.308  10.263  66.703  1.00  0.00    -0.192 A  
HETATM   16  C   UNL     1      -9.353   8.935  66.256  1.00  0.00    -0.279 A  
HETATM   17  C   UNL     1      -8.335   8.401  65.420  1.00  0.00    -0.166 A  
HETATM   18  C   UNL     1      -7.263   9.220  65.035  1.00  0.00    -0.098 A  
HETATM   19  C   UNL     1      -7.225  10.526  65.479  1.00  0.00    -0.103 A  
HETATM   20  N   UNL     1      -6.254   8.806  64.268  1.00  0.00    -0.071 NA 
HETATM   21  C   UNL     1      -6.290   7.533  63.884  1.00  0.00    -0.053 A  
HETATM   22  C   UNL     1      -8.227  11.049  66.299  1.00  0.00    -0.164 A  
HETATM   23  N   UNL     1      -7.244   6.658  64.193  1.00  0.00    -0.061 NA 
HETATM   24  C   UNL     1      -8.273   7.075  64.945  1.00  0.00    -0.074 A  
BRANCH  24  25
HETATM   25  N   UNL     1      -9.273   6.142  65.344  1.00  0.00    -0.366 NA 
HETATM   26  H   UNL     1      -9.902   5.823  64.607  1.00  0.00     0.000 HD 
BRANCH  25  27
HETATM   27  C   UNL     1      -9.508   5.598  66.629  1.00  0.00    -0.147 A  
HETATM   28  C   UNL     1      -8.585   4.797  67.299  1.00  0.00    -0.104 A  
HETATM   29  C   UNL     1      -8.787   4.348  68.607  1.00  0.00    -0.104 A  
HETATM   30  C   UNL     1      -9.939   4.730  69.304  1.00  0.00    -0.184 A  
HETATM   31 CL   UNL     1      -7.541   3.293  69.188  1.00  0.00    -0.048 Cl 
HETATM   32  C   UNL     1     -10.908   5.479  68.618  1.00  0.00    -0.088 A  
HETATM   33  C   UNL     1     -10.698   5.903  67.297  1.00  0.00    -0.380 A  
BRANCH  30  34
HETATM   34  O   UNL     1     -10.280   4.461  70.606  1.00  0.00    -0.178 OA 
BRANCH  34  35
HETATM   35  C   UNL     1      -9.540   5.160  71.603  1.00  0.00    -0.154 C  
BRANCH  35  36
HETATM   36  C   UNL     1     -10.023   6.577  71.762  1.00  0.00    -0.192 A  
HETATM   37  C   UNL     1     -11.332   6.842  72.174  1.00  0.00    -0.307 A  
HETATM   38  C   UNL     1     -11.790   8.154  72.198  1.00  0.00    -0.359 A  
HETATM   39  C   UNL     1     -10.968   9.210  71.820  1.00  0.00    -0.429 A  
HETATM   40  F   UNL     1     -13.051   8.403  72.573  1.00  0.00    -0.337 F  
HETATM   41  C   UNL     1      -9.664   8.955  71.413  1.00  0.00    -0.370 A  
HETATM   42  C   UNL     1      -9.190   7.646  71.381  1.00  0.00    -0.152 A  
ENDBRANCH  35  36
ENDBRANCH  34  35
ENDBRANCH  30  34
ENDBRANCH  25  27
ENDBRANCH  24  25
ENDBRANCH  13  15
ENDBRANCH   9  10
ENDBRANCH   7   9
ENDBRANCH   6   7
ENDBRANCH   5   6
ENDBRANCH   2   5
TORSDOF 11
ENDMDL
MODEL      127
REMARK 921   NORMALIZED FREE ENERGY PREDICTED BY IDOCK:   -5.29 KCAL/MOL
REMARK 922        TOTAL FREE ENERGY PREDICTED BY IDOCK:  -11.44 KCAL/MOL
REMARK 923 INTER-LIGAND FREE ENERGY PREDICTED BY IDOCK:   -9.50 KCAL/MOL
REMARK 924 INTRA-LIGAND FREE ENERGY PREDICTED BY IDOCK:   -1.94 KCAL/MOL
REMARK 927      BINDING AFFINITY PREDICTED BY RF-SCORE:    0.00 PKD
ROOT
HETATM    1  C   UNL     1     -14.403  14.628  72.067  1.00  0.00    -0.558 C  
HETATM    2  S   UNL     1     -12.798  13.929  72.350  1.00  0.00    -0.248 S  
HETATM    3  O   UNL     1     -12.853  12.527  71.987  1.00  0.00    -0.264 OA 
HETATM    4  O   UNL     1     -12.359  14.351  73.665  1.00  0.00    -0.310 OA 
ENDROOT
BRANCH   2   5
HETATM    5  C   UNL     1     -11.808  14.778  71.139  1.00  0.00    -0.334 C  
BRANCH   5   6
HETATM    6  C   UNL     1     -12.669  15.627  70.215  1.00  0.00    -0.206 C  
BRANCH   6   7
HETATM    7  N   UNL     1     -12.445  15.348  68.793  1.00  0.00    -0.454 NA 
HETATM    8  H   UNL     1     -12.071  16.170  68.317  1.00  0.00     0.000 HD 
BRANCH   7   9
HETATM    9  C   UNL     1     -11.596  14.180  68.555  1.00  0.00    -0.316 C  
BRANCH   9  10
HETATM   10  C   UNL     1     -11.744  13.709  67.153  1.00  0.00    -0.383 A  
HETATM   11  C   UNL     1     -12.647  13.990  66.152  1.00  0.00    -0.407 A  
HETATM   12  C   UNL     1     -12.252  13.218  65.033  1.00  0.00    -0.477 A  
HETATM   13  C   UNL     1     -11.117  12.526  65.406  1.00  0.00    -0.302 A  
HETATM   14  O   UNL     1     -10.805  12.834  66.700  1.00  0.00    -0.258 OA 
BRANCH  13  15
HETATM   15  C   UNL     1     -10.225  11.583  64.744  1.00  0.00    -0.331 A  
HETATM   16  C   UNL     1     -10.003  10.303  65.271  1.00  0.00    -0.387 A  
HETATM   17  C   UNL     1      -9.126   9.384  64.633  1.00  0.00    -0.228 A  
HETATM   18  C   UNL     1      -8.469   9.767  63.453  1.00  0.00    -0.186 A  
HETATM   19  C   UNL     1      -8.694  11.029  62.942  1.00  0.00    -0.209 A  
HETATM   20  N   UNL     1      -7.618   8.983  62.793  1.00  0.00    -0.104 NA 
HETATM   21  C   UNL     1      -7.386   7.786  63.325  1.00  0.00    -0.101 A  
HETATM   22  C   UNL     1      -9.556  11.930  63.569  1.00  0.00    -0.197 A  
HETATM   23  N   UNL     1      -7.937   7.315  64.441  1.00  0.00    -0.128 NA 
HETATM   24  C   UNL     1      -8.812   8.091  65.097  1.00  0.00     0.106 A  
BRANCH  24  25
HETATM   25  N   UNL     1      -9.366   7.636  66.329  1.00  0.00    -0.304 NA 
HETATM   26  H   UNL     1     -10.093   6.926  66.253  1.00  0.00     0.000 HD 
BRANCH  25  27
HETATM   27  C   UNL     1      -9.039   8.042  67.644  1.00  0.00    -0.137 A  
HETATM   28  C   UNL     1      -9.902   8.779  68.453  1.00  0.00    -0.189 A  
HETATM   29  C   UNL     1      -9.607   9.089  69.783  1.00  0.00    -0.175 A  
HETATM   30  C   UNL     1      -8.419   8.626  70.359  1.00  0.00    -0.140 A  
HETATM   31 CL   UNL     1     -10.795  10.090  70.551  1.00  0.00    -0.373 Cl 
HETATM   32  C   UNL     1      -7.509   7.943  69.537  1.00  0.00    -0.093 A  
HETATM   33  C   UNL     1      -7.812   7.659  68.196  1.00  0.00    -0.121 A  
BRANCH  30  34
HETATM   34  O   UNL     1      -7.988   8.756  71.656  1.00  0.00    -0.207 OA 
BRANCH  34  35
HETATM   35  C   UNL     1      -7.529   7.563  72.284  1.00  0.00    -0.074 C  
BRANCH  35  36
HETATM   36  C   UNL     1      -8.671   6.645  72.633  1.00  0.00    -0.127 A  
HETATM   37  C   UNL     1      -8.789   5.392  72.025  1.00  0.00    -0.139 A  
HETATM   38  C   UNL     1      -9.914   4.613  72.273  1.00  0.00    -0.177 A  
HETATM   39  C   UNL     1     -10.925   5.059  73.118  1.00  0.00    -0.375 A  
HETATM   40  F   UNL     1     -10.034   3.422  71.673  1.00  0.00    -0.229 F  
HETATM   41  C   UNL     1     -10.812   6.303  73.729  1.00  0.00    -0.070 A  
HETATM   42  C   UNL     1      -9.693   7.095  73.489  1.00  0.00    -0.293 A  
ENDBRANCH  35  36
ENDBRANCH  34  35
ENDBRANCH  30  34
ENDBRANCH  25  27
ENDBRANCH  24  25
ENDBRANCH  13  15
ENDBRANCH   9  10
ENDBRANCH   7   9
ENDBRANCH   6   7
ENDBRANCH   5   6
ENDBRANCH   2   5
TORSDOF 11
ENDMDL
MODEL      128
REMARK 921   NORMALIZED FREE ENERGY PREDICTED BY IDOCK:   -5.29 KCAL/MOL
REMARK 922        TOTAL FREE ENERGY PREDICTED BY IDOCK:  -11.44 KCAL/MOL
REMARK 923 INTER-LIGAND FREE ENERGY PREDICTED BY IDOCK:   -9.55 KCAL/MOL
REMARK 924 INTRA-LIGAND FREE ENERGY PREDICTED BY IDOCK:   -1.88 KCAL/MOL
REMARK 927      BINDING AFFINITY PREDICTED BY RF-SCORE:    0.00 PKD
ROOT
HETATM    1  C   UNL     1     -11.438   5.009  73.083  1.00  0.00    -0.282 C  
HETATM    2  S   UNL     1      -9.887   4.176  73.299  1.00  0.00    -0.133 S  
HETATM    3  O   UNL     1      -9.567   3.502  72.057  1.00  0.00    -0.123 OA 
HETATM    4  O   UNL     1      -9.945   3.456  74.555  1.00  0.00    -0.123 OA 
ENDROOT
BRANCH   2   5
HETATM    5  C   UNL     1      -8.761   5.540  73.497  1.00  0.00    -0.117 C  
BRANCH   5   6
HETATM    6  C   UNL     1      -9.027   6.633  72.472  1.00  0.00    -0.131 C  
BRANCH   6   7
HETATM    7  N   UNL     1      -8.526   6.309  71.132  1.00  0.00    -0.124 NA 
HETATM    8  H   UNL     1      -9.152   6.673  70.414  1.00  0.00     0.000 HD 
BRANCH   7   9
HETATM    9  C   UNL     1      -7.153   6.758  70.900  1.00  0.00    -0.068 C  
BRANCH   9  10
HETATM   10  C   UNL     1      -7.147   8.106  70.273  1.00  0.00    -0.047 A  
HETATM   11  C   UNL     1      -6.845   9.365  70.743  1.00  0.00    -0.109 A  
HETATM   12  C   UNL     1      -7.031  10.250  69.655  1.00  0.00    -0.114 A  
HETATM   13  C   UNL     1      -7.413   9.479  68.575  1.00  0.00    -0.080 A  
HETATM   14  O   UNL     1      -7.476   8.168  68.955  1.00  0.00    -0.084 OA 
BRANCH  13  15
HETATM   15  C   UNL     1      -7.748   9.754  67.184  1.00  0.00    -0.095 A  
HETATM   16  C   UNL     1      -8.951  10.385  66.837  1.00  0.00    -0.151 A  
HETATM   17  C   UNL     1      -9.284  10.646  65.481  1.00  0.00    -0.228 A  
HETATM   18  C   UNL     1      -8.392  10.264  64.468  1.00  0.00    -0.168 A  
HETATM   19  C   UNL     1      -7.210   9.642  64.817  1.00  0.00    -0.119 A  
HETATM   20  N   UNL     1      -8.623  10.450  63.169  1.00  0.00    -0.178 NA 
HETATM   21  C   UNL     1      -9.786  11.014  62.853  1.00  0.00    -0.323 A  
HETATM   22  C   UNL     1      -6.883   9.388  66.151  1.00  0.00    -0.085 A  
HETATM   23  N   UNL     1     -10.716  11.409  63.719  1.00  0.00    -0.385 NA 
HETATM   24  C   UNL     1     -10.478  11.244  65.029  1.00  0.00    -0.298 A  
BRANCH  24  25
HETATM   25  N   UNL     1     -11.485  11.598  65.974  1.00  0.00    -0.328 NA 
HETATM   26  H   UNL     1     -12.223  10.908  66.114  1.00  0.00     0.000 HD 
BRANCH  25  27
HETATM   27  C   UNL     1     -11.594  12.780  66.743  1.00  0.00    -0.370 A  
HETATM   28  C   UNL     1     -11.823  12.777  68.119  1.00  0.00    -0.372 A  
HETATM   29  C   UNL     1     -11.831  13.947  68.883  1.00  0.00    -0.358 A  
HETATM   30  C   UNL     1     -11.570  15.179  68.272  1.00  0.00    -0.339 A  
HETATM   31 CL   UNL     1     -12.226  13.693  70.551  1.00  0.00    -0.428 Cl 
HETATM   32  C   UNL     1     -11.407  15.204  66.879  1.00  0.00    -0.264 A  
HETATM   33  C   UNL     1     -11.424  14.021  66.123  1.00  0.00    -0.350 A  
BRANCH  30  34
HETATM   34  O   UNL     1     -11.457  16.417  68.856  1.00  0.00    -0.311 OA 
BRANCH  34  35
HETATM   35  C   UNL     1     -10.130  16.869  69.108  1.00  0.00    -0.269 C  
BRANCH  35  36
HETATM   36  C   UNL     1      -9.692  17.895  68.096  1.00  0.00    -0.320 A  
HETATM   37  C   UNL     1      -8.586  17.658  67.275  1.00  0.00    -0.238 A  
HETATM   38  C   UNL     1      -8.129  18.666  66.433  1.00  0.00    -0.281 A  
HETATM   39  C   UNL     1      -8.755  19.907  66.393  1.00  0.00    -0.397 A  
HETATM   40  F   UNL     1      -7.057  18.443  65.663  1.00  0.00    -0.295 F  
HETATM   41  C   UNL     1      -9.858  20.149  67.204  1.00  0.00    -0.586 A  
HETATM   42  C   UNL     1     -10.326  19.150  68.054  1.00  0.00    -0.483 A  
ENDBRANCH  35  36
ENDBRANCH  34  35
ENDBRANCH  30  34
ENDBRANCH  25  27
ENDBRANCH  24  25
ENDBRANCH  13  15
ENDBRANCH   9  10
ENDBRANCH   7   9
ENDBRANCH   6   7
ENDBRANCH   5   6
ENDBRANCH   2   5
TORSDOF 11
ENDMDL
MODEL      129
REMARK 921   NORMALIZED FREE ENERGY PREDICTED BY IDOCK:   -5.29 KCAL/MOL
REMARK 922        TOTAL FREE ENERGY PREDICTED BY IDOCK:  -11.43 KCAL/MOL
REMARK 923 INTER-LIGAND FREE ENERGY PREDICTED BY IDOCK:   -9.65 KCAL/MOL
REMARK 924 INTRA-LIGAND FREE ENERGY PREDICTED BY IDOCK:   -1.78 KCAL/MOL
REMARK 927      BINDING AFFINITY PREDICTED BY RF-SCORE:    0.00 PKD
ROOT
HETATM    1  C   UNL     1     -10.477   3.719  74.411  1.00  0.00    -0.208 C  
HETATM    2  S   UNL     1      -8.780   3.505  73.939  1.00  0.00    -0.088 S  
HETATM    3  O   UNL     1      -8.362   2.187  74.372  1.00  0.00    -0.056 OA 
HETATM    4  O   UNL     1      -8.058   4.695  74.339  1.00  0.00    -0.098 OA 
ENDROOT
BRANCH   2   5
HETATM    5  C   UNL     1      -8.891   3.497  72.164  1.00  0.00    -0.092 C  
BRANCH   5   6
HETATM    6  C   UNL     1      -9.019   4.908  71.609  1.00  0.00    -0.138 C  
BRANCH   6   7
HETATM    7  N   UNL     1     -10.286   5.145  70.909  1.00  0.00    -0.228 NA 
HETATM    8  H   UNL     1     -10.808   4.275  70.801  1.00  0.00     0.000 HD 
BRANCH   7   9
HETATM    9  C   UNL     1     -11.116   6.172  71.540  1.00  0.00    -0.286 C  
BRANCH   9  10
HETATM   10  C   UNL     1     -10.936   7.478  70.855  1.00  0.00    -0.253 A  
HETATM   11  C   UNL     1     -11.107   8.786  71.252  1.00  0.00    -0.348 A  
HETATM   12  C   UNL     1     -10.769   9.588  70.136  1.00  0.00    -0.299 A  
HETATM   13  C   UNL     1     -10.388   8.727  69.127  1.00  0.00    -0.217 A  
HETATM   14  O   UNL     1     -10.485   7.438  69.572  1.00  0.00    -0.221 OA 
BRANCH  13  15
HETATM   15  C   UNL     1      -9.929   8.892  67.754  1.00  0.00    -0.241 A  
HETATM   16  C   UNL     1     -10.403   9.939  66.951  1.00  0.00    -0.300 A  
HETATM   17  C   UNL     1      -9.964  10.097  65.609  1.00  0.00    -0.348 A  
HETATM   18  C   UNL     1      -9.038   9.187  65.076  1.00  0.00    -0.156 A  
HETATM   19  C   UNL     1      -8.576   8.159  65.874  1.00  0.00    -0.171 A  
HETATM   20  N   UNL     1      -8.580   9.243  63.827  1.00  0.00    -0.203 NA 
HETATM   21  C   UNL     1      -9.068  10.217  63.064  1.00  0.00    -0.271 A  
HETATM   22  C   UNL     1      -9.008   8.006  67.193  1.00  0.00    -0.150 A  
HETATM   23  N   UNL     1      -9.956  11.131  63.449  1.00  0.00    -0.349 NA 
HETATM   24  C   UNL     1     -10.403  11.094  64.713  1.00  0.00    -0.325 A  
BRANCH  24  25
HETATM   25  N   UNL     1     -11.402  12.019  65.131  1.00  0.00    -0.320 NA 
HETATM   26  H   UNL     1     -12.350  11.823  64.811  1.00  0.00     0.000 HD 
BRANCH  25  27
HETATM   27  C   UNL     1     -11.251  13.175  65.933  1.00  0.00    -0.289 A  
HETATM   28  C   UNL     1     -10.419  14.239  65.589  1.00  0.00    -0.336 A  
HETATM   29  C   UNL     1     -10.353  15.417  66.339  1.00  0.00    -0.296 A  
HETATM   30  C   UNL     1     -11.169  15.571  67.466  1.00  0.00    -0.272 A  
HETATM   31 CL   UNL     1      -9.180  16.553  65.760  1.00  0.00    -0.184 Cl 
HETATM   32  C   UNL     1     -11.960  14.481  67.862  1.00  0.00    -0.322 A  
HETATM   33  C   UNL     1     -11.997  13.297  67.109  1.00  0.00    -0.400 A  
BRANCH  30  34
HETATM   34  O   UNL     1     -11.307  16.668  68.279  1.00  0.00    -0.309 OA 
BRANCH  34  35
HETATM   35  C   UNL     1     -10.323  16.818  69.299  1.00  0.00    -0.309 C  
BRANCH  35  36
HETATM   36  C   UNL     1      -9.264  17.813  68.906  1.00  0.00    -0.142 A  
HETATM   37  C   UNL     1      -7.939  17.645  69.321  1.00  0.00     0.171 A  
HETATM   38  C   UNL     1      -7.004  18.636  69.047  1.00  0.00    -0.281 A  
HETATM   39  C   UNL     1      -7.363  19.794  68.366  1.00  0.00    -0.348 A  
HETATM   40  F   UNL     1      -5.741  18.482  69.464  1.00  0.00    -0.203 F  
HETATM   41  C   UNL     1      -8.678  19.967  67.947  1.00  0.00    -0.348 A  
HETATM   42  C   UNL     1      -9.627  18.983  68.215  1.00  0.00    -0.411 A  
ENDBRANCH  35  36
ENDBRANCH  34  35
ENDBRANCH  30  34
ENDBRANCH  25  27
ENDBRANCH  24  25
ENDBRANCH  13  15
ENDBRANCH   9  10
ENDBRANCH   7   9
ENDBRANCH   6   7
ENDBRANCH   5   6
ENDBRANCH   2   5
TORSDOF 11
ENDMDL
MODEL      130
REMARK 921   NORMALIZED FREE ENERGY PREDICTED BY IDOCK:   -5.28 KCAL/MOL
REMARK 922        TOTAL FREE ENERGY PREDICTED BY IDOCK:  -11.43 KCAL/MOL
REMARK 923 INTER-LIGAND FREE ENERGY PREDICTED BY IDOCK:   -9.22 KCAL/MOL
REMARK 924 INTRA-LIGAND FREE ENERGY PREDICTED BY IDOCK:   -2.21 KCAL/MOL
REMARK 927      BINDING AFFINITY PREDICTED BY RF-SCORE:    0.00 PKD
ROOT
HETATM    1  C   UNL     1     -11.440  15.770  64.461  1.00  0.00    -0.289 C  
HETATM    2  S   UNL     1     -11.896  14.158  65.043  1.00  0.00    -0.411 S  
HETATM    3  O   UNL     1     -13.286  14.209  65.451  1.00  0.00    -0.741 OA 
HETATM    4  O   UNL     1     -10.861  13.708  65.951  1.00  0.00    -0.274 OA 
ENDROOT
BRANCH   2   5
HETATM    5  C   UNL     1     -11.788  13.186  63.558  1.00  0.00    -0.476 C  
BRANCH   5   6
HETATM    6  C   UNL     1     -11.188  11.814  63.833  1.00  0.00    -0.414 C  
BRANCH   6   7
HETATM    7  N   UNL     1      -9.728  11.781  63.697  1.00  0.00    -0.502 NA 
HETATM    8  H   UNL     1      -9.343  12.726  63.691  1.00  0.00     0.000 HD 
BRANCH   7   9
HETATM    9  C   UNL     1      -9.068  10.959  64.712  1.00  0.00    -0.178 C  
BRANCH   9  10
HETATM   10  C   UNL     1      -8.267   9.885  64.069  1.00  0.00    -0.159 A  
HETATM   11  C   UNL     1      -7.249   9.892  63.140  1.00  0.00    -0.128 A  
HETATM   12  C   UNL     1      -6.895   8.538  62.929  1.00  0.00    -0.090 A  
HETATM   13  C   UNL     1      -7.700   7.781  63.757  1.00  0.00    -0.123 A  
HETATM   14  O   UNL     1      -8.532   8.608  64.457  1.00  0.00    -0.163 OA 
BRANCH  13  15
HETATM   15  C   UNL     1      -7.843   6.357  64.028  1.00  0.00    -0.111 A  
HETATM   16  C   UNL     1      -7.663   5.842  65.319  1.00  0.00    -0.095 A  
HETATM   17  C   UNL     1      -7.794   4.452  65.585  1.00  0.00    -0.094 A  
HETATM   18  C   UNL     1      -8.108   3.577  64.534  1.00  0.00    -0.086 A  
HETATM   19  C   UNL     1      -8.283   4.093  63.265  1.00  0.00    -0.088 A  
HETATM   20  N   UNL     1      -8.234   2.259  64.681  1.00  0.00    -0.085 NA 
HETATM   21  C   UNL     1      -8.022   1.780  65.903  1.00  0.00    -0.077 A  
HETATM   22  C   UNL     1      -8.156   5.459  63.006  1.00  0.00    -0.101 A  
HETATM   23  N   UNL     1      -7.709   2.504  66.975  1.00  0.00    -0.069 NA 
HETATM   24  C   UNL     1      -7.602   3.834  66.838  1.00  0.00    -0.080 A  
BRANCH  24  25
HETATM   25  N   UNL     1      -7.203   4.624  67.954  1.00  0.00    -0.065 NA 
HETATM   26  H   UNL     1      -6.213   4.864  67.997  1.00  0.00     0.000 HD 
BRANCH  25  27
HETATM   27  C   UNL     1      -8.001   5.121  69.012  1.00  0.00    -0.085 A  
HETATM   28  C   UNL     1      -9.347   5.451  68.863  1.00  0.00    -0.161 A  
HETATM   29  C   UNL     1     -10.149   5.846  69.936  1.00  0.00    -0.198 A  
HETATM   30  C   UNL     1      -9.612   5.891  71.227  1.00  0.00    -0.168 A  
HETATM   31 CL   UNL     1     -11.762   6.290  69.482  1.00  0.00    -0.275 Cl 
HETATM   32  C   UNL     1      -8.242   5.628  71.382  1.00  0.00    -0.122 A  
HETATM   33  C   UNL     1      -7.445   5.253  70.288  1.00  0.00    -0.071 A  
BRANCH  30  34
HETATM   34  O   UNL     1     -10.248   6.175  72.410  1.00  0.00    -0.185 OA 
BRANCH  34  35
HETATM   35  C   UNL     1     -10.159   7.524  72.859  1.00  0.00    -0.261 C  
BRANCH  35  36
HETATM   36  C   UNL     1     -11.166   8.406  72.168  1.00  0.00    -0.431 A  
HETATM   37  C   UNL     1     -10.747   9.436  71.321  1.00  0.00    -0.421 A  
HETATM   38  C   UNL     1     -11.688  10.310  70.789  1.00  0.00    -0.360 A  
HETATM   39  C   UNL     1     -13.041  10.177  71.084  1.00  0.00    -0.480 A  
HETATM   40  F   UNL     1     -11.282  11.309  69.995  1.00  0.00    -0.312 F  
HETATM   41  C   UNL     1     -13.465   9.153  71.923  1.00  0.00    -0.492 A  
HETATM   42  C   UNL     1     -12.534   8.270  72.465  1.00  0.00    -0.300 A  
ENDBRANCH  35  36
ENDBRANCH  34  35
ENDBRANCH  30  34
ENDBRANCH  25  27
ENDBRANCH  24  25
ENDBRANCH  13  15
ENDBRANCH   9  10
ENDBRANCH   7   9
ENDBRANCH   6   7
ENDBRANCH   5   6
ENDBRANCH   2   5
TORSDOF 11
ENDMDL
MODEL      131
REMARK 921   NORMALIZED FREE ENERGY PREDICTED BY IDOCK:   -5.27 KCAL/MOL
REMARK 922        TOTAL FREE ENERGY PREDICTED BY IDOCK:  -11.41 KCAL/MOL
REMARK 923 INTER-LIGAND FREE ENERGY PREDICTED BY IDOCK:   -8.89 KCAL/MOL
REMARK 924 INTRA-LIGAND FREE ENERGY PREDICTED BY IDOCK:   -2.52 KCAL/MOL
REMARK 927      BINDING AFFINITY PREDICTED BY RF-SCORE:    0.00 PKD
ROOT
HETATM    1  C   UNL     1     -10.231  19.909  67.990  1.00  0.00    -0.436 C  
HETATM    2  S   UNL     1      -9.351  18.630  67.132  1.00  0.00    -0.297 S  
HETATM    3  O   UNL     1      -8.191  18.278  67.926  1.00  0.00    -0.244 OA 
HETATM    4  O   UNL     1      -9.221  19.037  65.747  1.00  0.00    -0.385 OA 
ENDROOT
BRANCH   2   5
HETATM    5  C   UNL     1     -10.504  17.277  67.204  1.00  0.00    -0.297 C  
BRANCH   5   6
HETATM    6  C   UNL     1     -10.308  16.317  66.040  1.00  0.00    -0.349 C  
BRANCH   6   7
HETATM    7  N   UNL     1     -10.064  14.934  66.461  1.00  0.00    -0.262 NA 
HETATM    8  H   UNL     1     -10.259  14.284  65.699  1.00  0.00     0.000 HD 
BRANCH   7   9
HETATM    9  C   UNL     1      -8.720  14.716  66.998  1.00  0.00    -0.235 C  
BRANCH   9  10
HETATM   10  C   UNL     1      -8.626  13.377  67.635  1.00  0.00    -0.193 A  
HETATM   11  C   UNL     1      -7.622  12.437  67.716  1.00  0.00    -0.134 A  
HETATM   12  C   UNL     1      -8.148  11.357  68.464  1.00  0.00    -0.149 A  
HETATM   13  C   UNL     1      -9.436  11.707  68.818  1.00  0.00    -0.058 A  
HETATM   14  O   UNL     1      -9.722  12.945  68.315  1.00  0.00    -0.219 OA 
BRANCH  13  15
HETATM   15  C   UNL     1     -10.502  11.066  69.575  1.00  0.00    -0.133 A  
HETATM   16  C   UNL     1     -10.325   9.801  70.152  1.00  0.00    -0.335 A  
HETATM   17  C   UNL     1     -11.366   9.170  70.884  1.00  0.00    -0.359 A  
HETATM   18  C   UNL     1     -12.598   9.825  71.031  1.00  0.00    -0.314 A  
HETATM   19  C   UNL     1     -12.765  11.071  70.460  1.00  0.00    -0.331 A  
HETATM   20  N   UNL     1     -13.638   9.309  71.684  1.00  0.00    -0.386 NA 
HETATM   21  C   UNL     1     -13.469   8.091  72.192  1.00  0.00    -0.165 A  
HETATM   22  C   UNL     1     -11.740  11.690  69.742  1.00  0.00    -0.425 A  
HETATM   23  N   UNL     1     -12.356   7.366  72.109  1.00  0.00    -0.247 NA 
HETATM   24  C   UNL     1     -11.298   7.890  71.473  1.00  0.00    -0.256 A  
BRANCH  24  25
HETATM   25  N   UNL     1     -10.118   7.109  71.313  1.00  0.00    -0.190 NA 
HETATM   26  H   UNL     1      -9.702   6.752  72.173  1.00  0.00     0.000 HD 
BRANCH  25  27
HETATM   27  C   UNL     1      -9.447   6.762  70.116  1.00  0.00    -0.158 A  
HETATM   28  C   UNL     1     -10.042   6.025  69.093  1.00  0.00    -0.229 A  
HETATM   29  C   UNL     1      -9.403   5.773  67.877  1.00  0.00    -0.105 A  
HETATM   30  C   UNL     1      -8.127   6.297  67.639  1.00  0.00    -0.117 A  
HETATM   31 CL   UNL     1     -10.311   4.760  66.803  1.00  0.00    -0.254 Cl 
HETATM   32  C   UNL     1      -7.489   6.982  68.685  1.00  0.00    -0.102 A  
HETATM   33  C   UNL     1      -8.138   7.207  69.909  1.00  0.00    -0.125 A  
BRANCH  30  34
HETATM   34  O   UNL     1      -7.373   6.229  66.494  1.00  0.00    -0.078 OA 
BRANCH  34  35
HETATM   35  C   UNL     1      -8.056   6.523  65.278  1.00  0.00    -0.133 C  
BRANCH  35  36
HETATM   36  C   UNL     1      -8.276   8.003  65.110  1.00  0.00    -0.147 A  
HETATM   37  C   UNL     1      -9.444   8.608  65.584  1.00  0.00    -0.114 A  
HETATM   38  C   UNL     1      -9.678   9.951  65.312  1.00  0.00    -0.313 A  
HETATM   39  C   UNL     1      -8.770  10.705  64.576  1.00  0.00    -0.154 A  
HETATM   40  F   UNL     1     -10.808  10.523  65.749  1.00  0.00    -0.233 F  
HETATM   41  C   UNL     1      -7.605  10.111  64.105  1.00  0.00    -0.125 A  
HETATM   42  C   UNL     1      -7.356   8.766  64.368  1.00  0.00    -0.103 A  
ENDBRANCH  35  36
ENDBRANCH  34  35
ENDBRANCH  30  34
ENDBRANCH  25  27
ENDBRANCH  24  25
ENDBRANCH  13  15
ENDBRANCH   9  10
ENDBRANCH   7   9
ENDBRANCH   6   7
ENDBRANCH   5   6
ENDBRANCH   2   5
TORSDOF 11
ENDMDL
MODEL      132
REMARK 921   NORMALIZED FREE ENERGY PREDICTED BY IDOCK:   -5.26 KCAL/MOL
REMARK 922        TOTAL FREE ENERGY PREDICTED BY IDOCK:  -11.39 KCAL/MOL
REMARK 923 INTER-LIGAND FREE ENERGY PREDICTED BY IDOCK:   -8.94 KCAL/MOL
REMARK 924 INTRA-LIGAND FREE ENERGY PREDICTED BY IDOCK:   -2.45 KCAL/MOL
REMARK 927      BINDING AFFINITY PREDICTED BY RF-SCORE:    0.00 PKD
ROOT
HETATM    1  C   UNL     1      -7.000  15.243  69.258  1.00  0.00    -0.166 C  
HETATM    2  S   UNL     1      -7.880  15.723  67.795  1.00  0.00    -0.150 S  
HETATM    3  O   UNL     1      -8.065  14.539  66.979  1.00  0.00    -0.191 OA 
HETATM    4  O   UNL     1      -7.242  16.911  67.266  1.00  0.00    -0.144 OA 
ENDROOT
BRANCH   2   5
HETATM    5  C   UNL     1      -9.463  16.194  68.455  1.00  0.00    -0.216 C  
BRANCH   5   6
HETATM    6  C   UNL     1     -10.129  15.035  69.182  1.00  0.00    -0.245 C  
BRANCH   6   7
HETATM    7  N   UNL     1     -10.643  14.000  68.279  1.00  0.00    -0.242 NA 
HETATM    8  H   UNL     1     -10.773  13.118  68.776  1.00  0.00     0.000 HD 
BRANCH   7   9
HETATM    9  C   UNL     1     -11.872  14.390  67.586  1.00  0.00    -0.378 C  
BRANCH   9  10
HETATM   10  C   UNL     1     -11.974  13.691  66.278  1.00  0.00    -0.423 A  
HETATM   11  C   UNL     1     -12.903  13.720  65.261  1.00  0.00    -0.430 A  
HETATM   12  C   UNL     1     -12.435  12.824  64.271  1.00  0.00    -0.461 A  
HETATM   13  C   UNL     1     -11.235  12.315  64.727  1.00  0.00    -0.318 A  
HETATM   14  O   UNL     1     -10.954  12.853  65.952  1.00  0.00    -0.272 OA 
BRANCH  13  15
HETATM   15  C   UNL     1     -10.255  11.372  64.207  1.00  0.00    -0.367 A  
HETATM   16  C   UNL     1      -9.974  10.173  64.876  1.00  0.00    -0.358 A  
HETATM   17  C   UNL     1      -9.012   9.255  64.376  1.00  0.00    -0.163 A  
HETATM   18  C   UNL     1      -8.327   9.556  63.188  1.00  0.00    -0.180 A  
HETATM   19  C   UNL     1      -8.609  10.739  62.536  1.00  0.00    -0.301 A  
HETATM   20  N   UNL     1      -7.397   8.768  62.650  1.00  0.00    -0.097 NA 
HETATM   21  C   UNL     1      -7.113   7.653  63.317  1.00  0.00    -0.071 A  
HETATM   22  C   UNL     1      -9.556  11.639  63.028  1.00  0.00    -0.311 A  
HETATM   23  N   UNL     1      -7.683   7.264  64.455  1.00  0.00    -0.115 NA 
HETATM   24  C   UNL     1      -8.636   8.042  64.989  1.00  0.00    -0.011 A  
BRANCH  24  25
HETATM   25  N   UNL     1      -9.216   7.682  66.240  1.00  0.00    -0.253 NA 
HETATM   26  H   UNL     1      -9.927   6.952  66.206  1.00  0.00     0.000 HD 
BRANCH  25  27
HETATM   27  C   UNL     1      -8.933   8.205  67.524  1.00  0.00    -0.137 A  
HETATM   28  C   UNL     1      -9.910   8.740  68.362  1.00  0.00    -0.189 A  
HETATM   29  C   UNL     1      -9.636   9.163  69.665  1.00  0.00    -0.176 A  
HETATM   30  C   UNL     1      -8.343   9.025  70.183  1.00  0.00    -0.151 A  
HETATM   31 CL   UNL     1     -10.993   9.872  70.474  1.00  0.00    -0.366 Cl 
HETATM   32  C   UNL     1      -7.335   8.553  69.328  1.00  0.00    -0.071 A  
HETATM   33  C   UNL     1      -7.625   8.153  68.014  1.00  0.00    -0.106 A  
BRANCH  30  34
HETATM   34  O   UNL     1      -7.894   9.305  71.450  1.00  0.00    -0.335 OA 
BRANCH  34  35
HETATM   35  C   UNL     1      -7.348   8.208  72.176  1.00  0.00    -0.100 C  
BRANCH  35  36
HETATM   36  C   UNL     1      -8.428   7.345  72.774  1.00  0.00    -0.141 A  
HETATM   37  C   UNL     1      -8.283   5.955  72.825  1.00  0.00    -0.118 A  
HETATM   38  C   UNL     1      -9.342   5.173  73.272  1.00  0.00    -0.134 A  
HETATM   39  C   UNL     1     -10.544   5.748  73.669  1.00  0.00    -0.302 A  
HETATM   40  F   UNL     1      -9.207   3.841  73.300  1.00  0.00    -0.100 F  
HETATM   41  C   UNL     1     -10.693   7.129  73.624  1.00  0.00    -0.302 A  
HETATM   42  C   UNL     1      -9.643   7.927  73.178  1.00  0.00    -0.352 A  
ENDBRANCH  35  36
ENDBRANCH  34  35
ENDBRANCH  30  34
ENDBRANCH  25  27
ENDBRANCH  24  25
ENDBRANCH  13  15
ENDBRANCH   9  10
ENDBRANCH   7   9
ENDBRANCH   6   7
ENDBRANCH   5   6
ENDBRANCH   2   5
TORSDOF 11
ENDMDL
MODEL      133
REMARK 921   NORMALIZED FREE ENERGY PREDICTED BY IDOCK:   -5.25 KCAL/MOL
REMARK 922        TOTAL FREE ENERGY PREDICTED BY IDOCK:  -11.37 KCAL/MOL
REMARK 923 INTER-LIGAND FREE ENERGY PREDICTED BY IDOCK:   -8.82 KCAL/MOL
REMARK 924 INTRA-LIGAND FREE ENERGY PREDICTED BY IDOCK:   -2.55 KCAL/MOL
REMARK 927      BINDING AFFINITY PREDICTED BY RF-SCORE:    0.00 PKD
ROOT
HETATM    1  C   UNL     1     -12.838  14.381  73.017  1.00  0.00    -0.424 C  
HETATM    2  S   UNL     1     -12.877  15.188  71.438  1.00  0.00    -0.426 S  
HETATM    3  O   UNL     1     -11.783  16.137  71.396  1.00  0.00    -0.443 OA 
HETATM    4  O   UNL     1     -14.243  15.602  71.188  1.00  0.00    -0.514 OA 
ENDROOT
BRANCH   2   5
HETATM    5  C   UNL     1     -12.495  13.850  70.330  1.00  0.00    -0.334 C  
BRANCH   5   6
HETATM    6  C   UNL     1     -11.328  14.199  69.419  1.00  0.00    -0.272 C  
BRANCH   6   7
HETATM    7  N   UNL     1     -10.958  13.113  68.505  1.00  0.00    -0.253 NA 
HETATM    8  H   UNL     1     -11.691  12.957  67.813  1.00  0.00     0.000 HD 
BRANCH   7   9
HETATM    9  C   UNL     1      -9.664  13.316  67.853  1.00  0.00    -0.224 C  
BRANCH   9  10
HETATM   10  C   UNL     1      -8.790  12.130  68.052  1.00  0.00    -0.181 A  
HETATM   11  C   UNL     1      -7.766  11.848  68.930  1.00  0.00    -0.016 A  
HETATM   12  C   UNL     1      -7.327  10.539  68.619  1.00  0.00    -0.091 A  
HETATM   13  C   UNL     1      -8.122  10.086  67.585  1.00  0.00    -0.110 A  
HETATM   14  O   UNL     1      -9.020  11.059  67.246  1.00  0.00    -0.138 OA 
BRANCH  13  15
HETATM   15  C   UNL     1      -8.202   8.852  66.815  1.00  0.00    -0.111 A  
HETATM   16  C   UNL     1      -7.983   7.605  67.417  1.00  0.00    -0.119 A  
HETATM   17  C   UNL     1      -8.051   6.400  66.667  1.00  0.00    -0.110 A  
HETATM   18  C   UNL     1      -8.342   6.460  65.296  1.00  0.00    -0.131 A  
HETATM   19  C   UNL     1      -8.555   7.692  64.710  1.00  0.00     0.135 A  
HETATM   20  N   UNL     1      -8.411   5.389  64.507  1.00  0.00    -0.140 NA 
HETATM   21  C   UNL     1      -8.163   4.216  65.084  1.00  0.00    -0.102 A  
HETATM   22  C   UNL     1      -8.489   8.874  65.449  1.00  0.00    -0.176 A  
HETATM   23  N   UNL     1      -7.866   4.032  66.368  1.00  0.00    -0.093 NA 
HETATM   24  C   UNL     1      -7.818   5.105  67.171  1.00  0.00    -0.096 A  
BRANCH  24  25
HETATM   25  N   UNL     1      -7.438   4.942  68.535  1.00  0.00    -0.069 NA 
HETATM   26  H   UNL     1      -6.468   4.670  68.696  1.00  0.00     0.000 HD 
BRANCH  25  27
HETATM   27  C   UNL     1      -8.229   5.111  69.695  1.00  0.00    -0.093 A  
HETATM   28  C   UNL     1      -7.700   5.464  70.936  1.00  0.00    -0.090 A  
HETATM   29  C   UNL     1      -8.502   5.723  72.050  1.00  0.00    -0.126 A  
HETATM   30  C   UNL     1      -9.895   5.663  71.935  1.00  0.00    -0.166 A  
HETATM   31 CL   UNL     1      -7.607   6.054  73.497  1.00  0.00    -0.096 Cl 
HETATM   32  C   UNL     1     -10.439   5.241  70.711  1.00  0.00    -0.298 A  
HETATM   33  C   UNL     1      -9.617   4.964  69.608  1.00  0.00    -0.243 A  
BRANCH  30  34
HETATM   34  O   UNL     1     -10.846   5.956  72.880  1.00  0.00    -0.229 OA 
BRANCH  34  35
HETATM   35  C   UNL     1     -10.757   7.246  73.477  1.00  0.00    -0.321 C  
BRANCH  35  36
HETATM   36  C   UNL     1     -11.105   8.336  72.498  1.00  0.00    -0.439 A  
HETATM   37  C   UNL     1     -12.437   8.703  72.283  1.00  0.00    -0.460 A  
HETATM   38  C   UNL     1     -12.741   9.626  71.290  1.00  0.00    -0.352 A  
HETATM   39  C   UNL     1     -11.743  10.193  70.504  1.00  0.00    -0.407 A  
HETATM   40  F   UNL     1     -14.019   9.960  71.072  1.00  0.00    -0.319 F  
HETATM   41  C   UNL     1     -10.416   9.835  70.715  1.00  0.00    -0.339 A  
HETATM   42  C   UNL     1     -10.095   8.911  71.705  1.00  0.00    -0.407 A  
ENDBRANCH  35  36
ENDBRANCH  34  35
ENDBRANCH  30  34
ENDBRANCH  25  27
ENDBRANCH  24  25
ENDBRANCH  13  15
ENDBRANCH   9  10
ENDBRANCH   7   9
ENDBRANCH   6   7
ENDBRANCH   5   6
ENDBRANCH   2   5
TORSDOF 11
ENDMDL
MODEL      134
REMARK 921   NORMALIZED FREE ENERGY PREDICTED BY IDOCK:   -5.18 KCAL/MOL
REMARK 922        TOTAL FREE ENERGY PREDICTED BY IDOCK:  -11.26 KCAL/MOL
REMARK 923 INTER-LIGAND FREE ENERGY PREDICTED BY IDOCK:   -9.67 KCAL/MOL
REMARK 924 INTRA-LIGAND FREE ENERGY PREDICTED BY IDOCK:   -1.59 KCAL/MOL
REMARK 927      BINDING AFFINITY PREDICTED BY RF-SCORE:    0.00 PKD
ROOT
HETATM    1  C   UNL     1      -7.734   5.944  65.156  1.00  0.00    -0.093 C  
HETATM    2  S   UNL     1      -7.225   7.642  65.202  1.00  0.00    -0.072 S  
HETATM    3  O   UNL     1      -8.348   8.454  64.777  1.00  0.00    -0.163 OA 
HETATM    4  O   UNL     1      -5.937   7.734  64.546  1.00  0.00    -0.041 OA 
ENDROOT
BRANCH   2   5
HETATM    5  C   UNL     1      -6.978   7.905  66.944  1.00  0.00    -0.073 C  
BRANCH   5   6
HETATM    6  C   UNL     1      -6.962   9.388  67.285  1.00  0.00    -0.085 C  
BRANCH   6   7
HETATM    7  N   UNL     1      -5.639  10.004  67.140  1.00  0.00    -0.045 NA 
HETATM    8  H   UNL     1      -5.016   9.401  66.602  1.00  0.00     0.000 HD 
BRANCH   7   9
HETATM    9  C   UNL     1      -5.682  11.349  66.566  1.00  0.00    -0.142 C  
BRANCH   9  10
HETATM   10  C   UNL     1      -5.983  12.354  67.619  1.00  0.00    -0.128 A  
HETATM   11  C   UNL     1      -5.784  12.382  68.982  1.00  0.00    -0.067 A  
HETATM   12  C   UNL     1      -6.288  13.626  69.431  1.00  0.00    -0.108 A  
HETATM   13  C   UNL     1      -6.746  14.297  68.315  1.00  0.00    -0.108 A  
HETATM   14  O   UNL     1      -6.552  13.519  67.208  1.00  0.00    -0.247 OA 
BRANCH  13  15
HETATM   15  C   UNL     1      -7.364  15.595  68.079  1.00  0.00    -0.137 A  
HETATM   16  C   UNL     1      -8.404  15.746  67.151  1.00  0.00    -0.231 A  
HETATM   17  C   UNL     1      -9.002  17.012  66.912  1.00  0.00    -0.248 A  
HETATM   18  C   UNL     1      -8.542  18.135  67.617  1.00  0.00    -0.251 A  
HETATM   19  C   UNL     1      -7.517  17.977  68.528  1.00  0.00    -0.283 A  
HETATM   20  N   UNL     1      -9.027  19.364  67.450  1.00  0.00    -0.294 NA 
HETATM   21  C   UNL     1      -9.986  19.499  66.538  1.00  0.00    -0.420 A  
HETATM   22  C   UNL     1      -6.931  16.732  68.763  1.00  0.00    -0.197 A  
HETATM   23  N   UNL     1     -10.498  18.517  65.800  1.00  0.00    -0.628 NA 
HETATM   24  C   UNL     1     -10.028  17.274  65.981  1.00  0.00    -0.233 A  
BRANCH  24  25
HETATM   25  N   UNL     1     -10.512  16.216  65.157  1.00  0.00    -0.608 NA 
HETATM   26  H   UNL     1     -10.599  16.431  64.164  1.00  0.00     0.000 HD 
BRANCH  25  27
HETATM   27  C   UNL     1     -10.885  14.905  65.537  1.00  0.00    -0.356 A  
HETATM   28  C   UNL     1     -10.607  13.778  64.765  1.00  0.00    -0.444 A  
HETATM   29  C   UNL     1     -10.894  12.481  65.196  1.00  0.00    -0.288 A  
HETATM   30  C   UNL     1     -11.454  12.275  66.462  1.00  0.00    -0.381 A  
HETATM   31 CL   UNL     1     -10.539  11.256  64.022  1.00  0.00    -0.425 Cl 
HETATM   32  C   UNL     1     -11.802  13.404  67.221  1.00  0.00    -0.422 A  
HETATM   33  C   UNL     1     -11.526  14.702  66.762  1.00  0.00    -0.371 A  
BRANCH  30  34
HETATM   34  O   UNL     1     -11.733  11.088  67.093  1.00  0.00    -0.456 OA 
BRANCH  34  35
HETATM   35  C   UNL     1     -10.924   9.977  66.719  1.00  0.00     0.053 C  
BRANCH  35  36
HETATM   36  C   UNL     1     -10.736   9.018  67.865  1.00  0.00    -0.200 A  
HETATM   37  C   UNL     1     -10.630   7.643  67.633  1.00  0.00    -0.294 A  
HETATM   38  C   UNL     1     -10.577   6.769  68.713  1.00  0.00    -0.226 A  
HETATM   39  C   UNL     1     -10.626   7.238  70.021  1.00  0.00    -0.247 A  
HETATM   40  F   UNL     1     -10.497   5.451  68.488  1.00  0.00    -0.234 F  
HETATM   41  C   UNL     1     -10.727   8.604  70.259  1.00  0.00    -0.243 A  
HETATM   42  C   UNL     1     -10.784   9.493  69.188  1.00  0.00    -0.228 A  
ENDBRANCH  35  36
ENDBRANCH  34  35
ENDBRANCH  30  34
ENDBRANCH  25  27
ENDBRANCH  24  25
ENDBRANCH  13  15
ENDBRANCH   9  10
ENDBRANCH   7   9
ENDBRANCH   6   7
ENDBRANCH   5   6
ENDBRANCH   2   5
TORSDOF 11
ENDMDL
MODEL      135
REMARK 921   NORMALIZED FREE ENERGY PREDICTED BY IDOCK:   -5.18 KCAL/MOL
REMARK 922        TOTAL FREE ENERGY PREDICTED BY IDOCK:  -11.25 KCAL/MOL
REMARK 923 INTER-LIGAND FREE ENERGY PREDICTED BY IDOCK:   -9.19 KCAL/MOL
REMARK 924 INTRA-LIGAND FREE ENERGY PREDICTED BY IDOCK:   -2.06 KCAL/MOL
REMARK 927      BINDING AFFINITY PREDICTED BY RF-SCORE:    0.00 PKD
ROOT
HETATM    1  C   UNL     1      -9.333  19.121  68.501  1.00  0.00    -0.374 C  
HETATM    2  S   UNL     1     -10.136  17.976  67.409  1.00  0.00    -0.366 S  
HETATM    3  O   UNL     1     -10.610  18.718  66.258  1.00  0.00    -0.419 OA 
HETATM    4  O   UNL     1     -11.034  17.164  68.204  1.00  0.00    -0.361 OA 
ENDROOT
BRANCH   2   5
HETATM    5  C   UNL     1      -8.780  16.950  66.888  1.00  0.00    -0.223 C  
BRANCH   5   6
HETATM    6  C   UNL     1      -9.255  15.560  66.492  1.00  0.00    -0.293 C  
BRANCH   6   7
HETATM    7  N   UNL     1     -10.286  15.573  65.449  1.00  0.00    -0.379 NA 
HETATM    8  H   UNL     1      -9.896  15.288  64.550  1.00  0.00     0.000 HD 
BRANCH   7   9
HETATM    9  C   UNL     1     -11.462  14.768  65.782  1.00  0.00    -0.322 C  
BRANCH   9  10
HETATM   10  C   UNL     1     -11.060  13.377  66.115  1.00  0.00    -0.288 A  
HETATM   11  C   UNL     1     -10.342  12.413  65.442  1.00  0.00    -0.303 A  
HETATM   12  C   UNL     1     -10.298  11.284  66.292  1.00  0.00    -0.294 A  
HETATM   13  C   UNL     1     -10.971  11.627  67.447  1.00  0.00    -0.261 A  
HETATM   14  O   UNL     1     -11.430  12.910  67.338  1.00  0.00    -0.296 OA 
BRANCH  13  15
HETATM   15  C   UNL     1     -11.282  10.945  68.697  1.00  0.00    -0.326 A  
HETATM   16  C   UNL     1     -10.512   9.862  69.144  1.00  0.00    -0.235 A  
HETATM   17  C   UNL     1     -10.818   9.189  70.357  1.00  0.00    -0.285 A  
HETATM   18  C   UNL     1     -11.915   9.616  71.123  1.00  0.00    -0.367 A  
HETATM   19  C   UNL     1     -12.668  10.683  70.675  1.00  0.00    -0.445 A  
HETATM   20  N   UNL     1     -12.290   9.040  72.263  1.00  0.00    -0.356 NA 
HETATM   21  C   UNL     1     -11.575   7.989  72.655  1.00  0.00    -0.387 A  
HETATM   22  C   UNL     1     -12.364  11.344  69.483  1.00  0.00    -0.211 A  
HETATM   23  N   UNL     1     -10.524   7.484  72.013  1.00  0.00    -0.204 NA 
HETATM   24  C   UNL     1     -10.128   8.075  70.876  1.00  0.00    -0.191 A  
BRANCH  24  25
HETATM   25  N   UNL     1      -9.048   7.514  70.134  1.00  0.00    -0.148 NA 
HETATM   26  H   UNL     1      -8.169   8.031  70.171  1.00  0.00     0.000 HD 
BRANCH  25  27
HETATM   27  C   UNL     1      -9.034   6.335  69.353  1.00  0.00    -0.126 A  
HETATM   28  C   UNL     1      -8.197   5.253  69.619  1.00  0.00    -0.095 A  
HETATM   29  C   UNL     1      -8.262   4.056  68.902  1.00  0.00    -0.073 A  
HETATM   30  C   UNL     1      -9.218   3.901  67.891  1.00  0.00    -0.165 A  
HETATM   31 CL   UNL     1      -7.059   2.896  69.360  1.00  0.00    -0.044 Cl 
HETATM   32  C   UNL     1     -10.021   5.006  67.567  1.00  0.00    -0.209 A  
HETATM   33  C   UNL     1      -9.927   6.208  68.285  1.00  0.00    -0.162 A  
BRANCH  30  34
HETATM   34  O   UNL     1      -9.491   2.789  67.134  1.00  0.00    -0.141 OA 
BRANCH  34  35
HETATM   35  C   UNL     1      -8.504   2.431  66.171  1.00  0.00    -0.101 C  
BRANCH  35  36
HETATM   36  C   UNL     1      -8.701   3.169  64.873  1.00  0.00    -0.108 A  
HETATM   37  C   UNL     1      -7.729   4.056  64.403  1.00  0.00    -0.084 A  
HETATM   38  C   UNL     1      -7.985   4.813  63.265  1.00  0.00    -0.086 A  
HETATM   39  C   UNL     1      -9.194   4.703  62.586  1.00  0.00    -0.092 A  
HETATM   40  F   UNL     1      -7.061   5.678  62.830  1.00  0.00    -0.039 F  
HETATM   41  C   UNL     1     -10.164   3.820  63.046  1.00  0.00    -0.189 A  
HETATM   42  C   UNL     1      -9.923   3.055  64.184  1.00  0.00    -0.149 A  
ENDBRANCH  35  36
ENDBRANCH  34  35
ENDBRANCH  30  34
ENDBRANCH  25  27
ENDBRANCH  24  25
ENDBRANCH  13  15
ENDBRANCH   9  10
ENDBRANCH   7   9
ENDBRANCH   6   7
ENDBRANCH   5   6
ENDBRANCH   2   5
TORSDOF 11
ENDMDL
MODEL      136
REMARK 921   NORMALIZED FREE ENERGY PREDICTED BY IDOCK:   -5.17 KCAL/MOL
REMARK 922        TOTAL FREE ENERGY PREDICTED BY IDOCK:  -11.24 KCAL/MOL
REMARK 923 INTER-LIGAND FREE ENERGY PREDICTED BY IDOCK:   -9.19 KCAL/MOL
REMARK 924 INTRA-LIGAND FREE ENERGY PREDICTED BY IDOCK:   -2.05 KCAL/MOL
REMARK 927      BINDING AFFINITY PREDICTED BY RF-SCORE:    0.00 PKD
ROOT
HETATM    1  C   UNL     1     -11.113  15.123  71.095  1.00  0.00    -0.225 C  
HETATM    2  S   UNL     1     -10.720  15.504  69.408  1.00  0.00    -0.273 S  
HETATM    3  O   UNL     1     -10.711  16.946  69.268  1.00  0.00    -0.335 OA 
HETATM    4  O   UNL     1     -11.550  14.670  68.563  1.00  0.00    -0.287 OA 
ENDROOT
BRANCH   2   5
HETATM    5  C   UNL     1      -9.043  14.923  69.280  1.00  0.00    -0.096 C  
BRANCH   5   6
HETATM    6  C   UNL     1      -8.051  15.988  69.724  1.00  0.00     0.315 C  
BRANCH   6   7
HETATM    7  N   UNL     1      -6.925  16.155  68.799  1.00  0.00    -0.139 NA 
HETATM    8  H   UNL     1      -6.931  15.425  68.086  1.00  0.00     0.000 HD 
BRANCH   7   9
HETATM    9  C   UNL     1      -6.869  17.482  68.184  1.00  0.00    -0.197 C  
BRANCH   9  10
HETATM   10  C   UNL     1      -8.077  17.718  67.352  1.00  0.00    -0.209 A  
HETATM   11  C   UNL     1      -8.765  18.855  66.986  1.00  0.00    -0.305 A  
HETATM   12  C   UNL     1      -9.841  18.424  66.174  1.00  0.00    -0.279 A  
HETATM   13  C   UNL     1      -9.738  17.051  66.070  1.00  0.00    -0.218 A  
HETATM   14  O   UNL     1      -8.654  16.624  66.786  1.00  0.00    -0.197 OA 
BRANCH  13  15
HETATM   15  C   UNL     1     -10.502  16.011  65.394  1.00  0.00    -0.415 A  
HETATM   16  C   UNL     1     -10.193  14.655  65.566  1.00  0.00    -0.395 A  
HETATM   17  C   UNL     1     -10.930  13.639  64.900  1.00  0.00    -0.372 A  
HETATM   18  C   UNL     1     -11.988  14.001  64.052  1.00  0.00    -0.354 A  
HETATM   19  C   UNL     1     -12.285  15.339  63.888  1.00  0.00     0.134 A  
HETATM   20  N   UNL     1     -12.726  13.124  63.373  1.00  0.00    -0.648 NA 
HETATM   21  C   UNL     1     -12.396  11.843  63.516  1.00  0.00    -0.490 A  
HETATM   22  C   UNL     1     -11.560  16.336  64.544  1.00  0.00    -0.091 A  
HETATM   23  N   UNL     1     -11.411  11.377  64.278  1.00  0.00    -0.244 NA 
HETATM   24  C   UNL     1     -10.680  12.254  64.982  1.00  0.00    -0.298 A  
BRANCH  24  25
HETATM   25  N   UNL     1      -9.577  11.787  65.755  1.00  0.00    -0.236 NA 
HETATM   26  H   UNL     1      -8.672  11.793  65.285  1.00  0.00     0.000 HD 
BRANCH  25  27
HETATM   27  C   UNL     1      -9.573  11.316  67.089  1.00  0.00    -0.177 A  
HETATM   28  C   UNL     1     -10.679  11.405  67.933  1.00  0.00    -0.242 A  
HETATM   29  C   UNL     1     -10.695  10.849  69.214  1.00  0.00    -0.231 A  
HETATM   30  C   UNL     1      -9.581  10.143  69.681  1.00  0.00    -0.210 A  
HETATM   31 CL   UNL     1     -12.149  11.170  70.101  1.00  0.00    -0.413 Cl 
HETATM   32  C   UNL     1      -8.436  10.105  68.869  1.00  0.00    -0.139 A  
HETATM   33  C   UNL     1      -8.430  10.688  67.592  1.00  0.00    -0.118 A  
BRANCH  30  34
HETATM   34  O   UNL     1      -9.431   9.464  70.865  1.00  0.00    -0.257 OA 
BRANCH  34  35
HETATM   35  C   UNL     1     -10.206   8.277  71.007  1.00  0.00    -0.191 C  
BRANCH  35  36
HETATM   36  C   UNL     1      -9.889   7.275  69.928  1.00  0.00    -0.178 A  
HETATM   37  C   UNL     1     -10.716   7.148  68.809  1.00  0.00    -0.199 A  
HETATM   38  C   UNL     1     -10.471   6.138  67.887  1.00  0.00    -0.229 A  
HETATM   39  C   UNL     1      -9.415   5.249  68.058  1.00  0.00    -0.147 A  
HETATM   40  F   UNL     1     -11.278   6.005  66.827  1.00  0.00    -0.355 F  
HETATM   41  C   UNL     1      -8.585   5.372  69.167  1.00  0.00    -0.102 A  
HETATM   42  C   UNL     1      -8.819   6.378  70.101  1.00  0.00    -0.150 A  
ENDBRANCH  35  36
ENDBRANCH  34  35
ENDBRANCH  30  34
ENDBRANCH  25  27
ENDBRANCH  24  25
ENDBRANCH  13  15
ENDBRANCH   9  10
ENDBRANCH   7   9
ENDBRANCH   6   7
ENDBRANCH   5   6
ENDBRANCH   2   5
TORSDOF 11
ENDMDL
MODEL      137
REMARK 921   NORMALIZED FREE ENERGY PREDICTED BY IDOCK:   -5.14 KCAL/MOL
REMARK 922        TOTAL FREE ENERGY PREDICTED BY IDOCK:  -11.18 KCAL/MOL
REMARK 923 INTER-LIGAND FREE ENERGY PREDICTED BY IDOCK:   -9.58 KCAL/MOL
REMARK 924 INTRA-LIGAND FREE ENERGY PREDICTED BY IDOCK:   -1.60 KCAL/MOL
REMARK 927      BINDING AFFINITY PREDICTED BY RF-SCORE:    0.00 PKD
ROOT
HETATM    1  C   UNL     1     -11.053   8.695  72.194  1.00  0.00    -0.364 C  
HETATM    2  S   UNL     1     -12.786   8.653  71.815  1.00  0.00    -0.378 S  
HETATM    3  O   UNL     1     -13.516   8.796  73.059  1.00  0.00    -0.270 OA 
HETATM    4  O   UNL     1     -13.016   7.530  70.930  1.00  0.00    -0.163 OA 
ENDROOT
BRANCH   2   5
HETATM    5  C   UNL     1     -12.993  10.149  70.875  1.00  0.00    -0.351 C  
BRANCH   5   6
HETATM    6  C   UNL     1     -12.761  11.383  71.734  1.00  0.00    -0.254 C  
BRANCH   6   7
HETATM    7  N   UNL     1     -13.999  12.076  72.104  1.00  0.00    -0.038 NA 
HETATM    8  H   UNL     1     -14.557  11.505  72.740  1.00  0.00     0.000 HD 
BRANCH   7   9
HETATM    9  C   UNL     1     -13.775  13.409  72.664  1.00  0.00    -0.400 C  
BRANCH   9  10
HETATM   10  C   UNL     1     -12.809  14.168  71.828  1.00  0.00    -0.347 A  
HETATM   11  C   UNL     1     -11.903  15.169  72.103  1.00  0.00    -0.501 A  
HETATM   12  C   UNL     1     -11.270  15.479  70.876  1.00  0.00    -0.409 A  
HETATM   13  C   UNL     1     -11.807  14.635  69.925  1.00  0.00    -0.319 A  
HETATM   14  O   UNL     1     -12.743  13.830  70.512  1.00  0.00    -0.298 OA 
BRANCH  13  15
HETATM   15  C   UNL     1     -11.599  14.431  68.498  1.00  0.00    -0.347 A  
HETATM   16  C   UNL     1     -11.568  13.143  67.945  1.00  0.00    -0.375 A  
HETATM   17  C   UNL     1     -11.356  12.941  66.555  1.00  0.00    -0.361 A  
HETATM   18  C   UNL     1     -11.173  14.052  65.718  1.00  0.00    -0.303 A  
HETATM   19  C   UNL     1     -11.205  15.317  66.270  1.00  0.00    -0.223 A  
HETATM   20  N   UNL     1     -10.952  13.963  64.407  1.00  0.00    -0.360 NA 
HETATM   21  C   UNL     1     -10.886  12.734  63.903  1.00  0.00    -0.411 A  
HETATM   22  C   UNL     1     -11.415  15.514  67.636  1.00  0.00    -0.211 A  
HETATM   23  N   UNL     1     -11.031  11.606  64.593  1.00  0.00    -0.310 NA 
HETATM   24  C   UNL     1     -11.276  11.690  65.909  1.00  0.00    -0.238 A  
BRANCH  24  25
HETATM   25  N   UNL     1     -11.370  10.496  66.683  1.00  0.00    -0.011 NA 
HETATM   26  H   UNL     1     -12.304  10.095  66.767  1.00  0.00     0.000 HD 
BRANCH  25  27
HETATM   27  C   UNL     1     -10.338   9.796  67.349  1.00  0.00    -0.240 A  
HETATM   28  C   UNL     1      -9.361   9.058  66.681  1.00  0.00    -0.229 A  
HETATM   29  C   UNL     1      -8.291   8.452  67.343  1.00  0.00    -0.124 A  
HETATM   30  C   UNL     1      -8.153   8.603  68.728  1.00  0.00    -0.116 A  
HETATM   31 CL   UNL     1      -7.263   7.517  66.308  1.00  0.00    -0.073 Cl 
HETATM   32  C   UNL     1      -9.165   9.285  69.421  1.00  0.00    -0.159 A  
HETATM   33  C   UNL     1     -10.246   9.869  68.742  1.00  0.00    -0.205 A  
BRANCH  30  34
HETATM   34  O   UNL     1      -7.141   8.157  69.541  1.00  0.00    -0.049 OA 
BRANCH  34  35
HETATM   35  C   UNL     1      -6.783   6.786  69.398  1.00  0.00    -0.050 C  
BRANCH  35  36
HETATM   36  C   UNL     1      -7.905   5.872  69.815  1.00  0.00    -0.100 A  
HETATM   37  C   UNL     1      -8.599   6.095  71.007  1.00  0.00    -0.132 A  
HETATM   38  C   UNL     1      -9.550   5.172  71.429  1.00  0.00    -0.161 A  
HETATM   39  C   UNL     1      -9.823   4.030  70.684  1.00  0.00    -0.229 A  
HETATM   40  F   UNL     1     -10.198   5.377  72.582  1.00  0.00    -0.190 F  
HETATM   41  C   UNL     1      -9.139   3.804  69.495  1.00  0.00    -0.200 A  
HETATM   42  C   UNL     1      -8.183   4.718  69.060  1.00  0.00    -0.081 A  
ENDBRANCH  35  36
ENDBRANCH  34  35
ENDBRANCH  30  34
ENDBRANCH  25  27
ENDBRANCH  24  25
ENDBRANCH  13  15
ENDBRANCH   9  10
ENDBRANCH   7   9
ENDBRANCH   6   7
ENDBRANCH   5   6
ENDBRANCH   2   5
TORSDOF 11
ENDMDL
MODEL      138
REMARK 921   NORMALIZED FREE ENERGY PREDICTED BY IDOCK:   -5.13 KCAL/MOL
REMARK 922        TOTAL FREE ENERGY PREDICTED BY IDOCK:  -11.17 KCAL/MOL
REMARK 923 INTER-LIGAND FREE ENERGY PREDICTED BY IDOCK:   -9.04 KCAL/MOL
REMARK 924 INTRA-LIGAND FREE ENERGY PREDICTED BY IDOCK:   -2.13 KCAL/MOL
REMARK 927      BINDING AFFINITY PREDICTED BY RF-SCORE:    0.00 PKD
ROOT
HETATM    1  C   UNL     1     -10.495   3.343  74.068  1.00  0.00    -0.185 C  
HETATM    2  S   UNL     1     -10.703   4.924  73.292  1.00  0.00    -0.283 S  
HETATM    3  O   UNL     1     -12.123   5.208  73.235  1.00  0.00    -0.032 OA 
HETATM    4  O   UNL     1      -9.883   4.941  72.098  1.00  0.00    -0.161 OA 
ENDROOT
BRANCH   2   5
HETATM    5  C   UNL     1      -9.966   6.019  74.484  1.00  0.00    -0.310 C  
BRANCH   5   6
HETATM    6  C   UNL     1      -9.824   7.430  73.930  1.00  0.00    -0.225 C  
BRANCH   6   7
HETATM    7  N   UNL     1     -11.016   7.896  73.214  1.00  0.00    -0.293 NA 
HETATM    8  H   UNL     1     -11.639   8.405  73.842  1.00  0.00     0.000 HD 
BRANCH   7   9
HETATM    9  C   UNL     1     -10.708   8.696  72.029  1.00  0.00    -0.357 C  
BRANCH   9  10
HETATM   10  C   UNL     1     -10.875   7.883  70.796  1.00  0.00    -0.232 A  
HETATM   11  C   UNL     1     -11.876   7.054  70.339  1.00  0.00    -0.295 A  
HETATM   12  C   UNL     1     -11.444   6.565  69.084  1.00  0.00    -0.245 A  
HETATM   13  C   UNL     1     -10.214   7.139  68.833  1.00  0.00    -0.186 A  
HETATM   14  O   UNL     1      -9.873   7.950  69.879  1.00  0.00    -0.179 OA 
BRANCH  13  15
HETATM   15  C   UNL     1      -9.250   7.067  67.744  1.00  0.00    -0.124 A  
HETATM   16  C   UNL     1      -9.395   7.853  66.592  1.00  0.00    -0.244 A  
HETATM   17  C   UNL     1      -8.461   7.778  65.524  1.00  0.00    -0.146 A  
HETATM   18  C   UNL     1      -7.371   6.899  65.623  1.00  0.00    -0.079 A  
HETATM   19  C   UNL     1      -7.236   6.128  66.761  1.00  0.00    -0.074 A  
HETATM   20  N   UNL     1      -6.454   6.746  64.669  1.00  0.00    -0.041 NA 
HETATM   21  C   UNL     1      -6.626   7.469  63.566  1.00  0.00    -0.054 A  
HETATM   22  C   UNL     1      -8.154   6.204  67.810  1.00  0.00    -0.113 A  
HETATM   23  N   UNL     1      -7.621   8.326  63.349  1.00  0.00    -0.123 NA 
HETATM   24  C   UNL     1      -8.535   8.500  64.315  1.00  0.00    -0.051 A  
BRANCH  24  25
HETATM   25  N   UNL     1      -9.646   9.362  64.082  1.00  0.00    -0.329 NA 
HETATM   26  H   UNL     1     -10.314   9.044  63.380  1.00  0.00     0.000 HD 
BRANCH  25  27
HETATM   27  C   UNL     1      -9.944  10.600  64.698  1.00  0.00    -0.337 A  
HETATM   28  C   UNL     1     -11.159  11.263  64.529  1.00  0.00    -0.245 A  
HETATM   29  C   UNL     1     -11.479  12.435  65.219  1.00  0.00    -0.344 A  
HETATM   30  C   UNL     1     -10.573  12.967  66.145  1.00  0.00    -0.277 A  
HETATM   31 CL   UNL     1     -13.007  13.118  64.773  1.00  0.00    -0.276 Cl 
HETATM   32  C   UNL     1      -9.320  12.349  66.273  1.00  0.00    -0.189 A  
HETATM   33  C   UNL     1      -9.007  11.184  65.555  1.00  0.00    -0.178 A  
BRANCH  30  34
HETATM   34  O   UNL     1     -10.731  14.053  66.970  1.00  0.00    -0.281 OA 
BRANCH  34  35
HETATM   35  C   UNL     1      -9.963  14.043  68.170  1.00  0.00    -0.242 C  
BRANCH  35  36
HETATM   36  C   UNL     1     -10.747  14.587  69.335  1.00  0.00    -0.213 A  
HETATM   37  C   UNL     1     -11.775  13.838  69.915  1.00  0.00    -0.353 A  
HETATM   38  C   UNL     1     -12.561  14.408  70.909  1.00  0.00    -0.352 A  
HETATM   39  C   UNL     1     -12.342  15.712  71.339  1.00  0.00    -0.485 A  
HETATM   40  F   UNL     1     -13.558  13.695  71.448  1.00  0.00    -0.385 F  
HETATM   41  C   UNL     1     -11.319  16.462  70.770  1.00  0.00    -0.211 A  
HETATM   42  C   UNL     1     -10.524  15.906  69.772  1.00  0.00    -0.311 A  
ENDBRANCH  35  36
ENDBRANCH  34  35
ENDBRANCH  30  34
ENDBRANCH  25  27
ENDBRANCH  24  25
ENDBRANCH  13  15
ENDBRANCH   9  10
ENDBRANCH   7   9
ENDBRANCH   6   7
ENDBRANCH   5   6
ENDBRANCH   2   5
TORSDOF 11
ENDMDL
MODEL      139
REMARK 921   NORMALIZED FREE ENERGY PREDICTED BY IDOCK:   -5.12 KCAL/MOL
REMARK 922        TOTAL FREE ENERGY PREDICTED BY IDOCK:  -11.17 KCAL/MOL
REMARK 923 INTER-LIGAND FREE ENERGY PREDICTED BY IDOCK:   -9.13 KCAL/MOL
REMARK 924 INTRA-LIGAND FREE ENERGY PREDICTED BY IDOCK:   -2.04 KCAL/MOL
REMARK 927      BINDING AFFINITY PREDICTED BY RF-SCORE:    0.00 PKD
ROOT
HETATM    1  C   UNL     1     -10.171  17.067  68.967  1.00  0.00    -0.313 C  
HETATM    2  S   UNL     1      -9.710  18.653  68.320  1.00  0.00    -0.377 S  
HETATM    3  O   UNL     1      -8.474  18.490  67.582  1.00  0.00    -0.259 OA 
HETATM    4  O   UNL     1      -9.825  19.618  69.395  1.00  0.00    -0.383 OA 
ENDROOT
BRANCH   2   5
HETATM    5  C   UNL     1     -11.016  18.968  67.153  1.00  0.00    -0.250 C  
BRANCH   5   6
HETATM    6  C   UNL     1     -10.554  18.726  65.724  1.00  0.00    -0.271 C  
BRANCH   6   7
HETATM    7  N   UNL     1     -10.046  17.368  65.499  1.00  0.00    -0.579 NA 
HETATM    8  H   UNL     1      -9.627  16.993  66.350  1.00  0.00     0.000 HD 
BRANCH   7   9
HETATM    9  C   UNL     1     -11.055  16.449  64.970  1.00  0.00    -0.208 C  
BRANCH   9  10
HETATM   10  C   UNL     1     -10.802  15.067  65.455  1.00  0.00    -0.364 A  
HETATM   11  C   UNL     1     -10.115  13.993  64.932  1.00  0.00    -0.288 A  
HETATM   12  C   UNL     1     -10.238  12.946  65.876  1.00  0.00    -0.299 A  
HETATM   13  C   UNL     1     -10.973  13.445  66.932  1.00  0.00    -0.284 A  
HETATM   14  O   UNL     1     -11.311  14.744  66.674  1.00  0.00    -0.345 OA 
BRANCH  13  15
HETATM   15  C   UNL     1     -11.444  12.907  68.201  1.00  0.00    -0.354 A  
HETATM   16  C   UNL     1     -11.380  11.534  68.476  1.00  0.00    -0.337 A  
HETATM   17  C   UNL     1     -11.847  11.004  69.710  1.00  0.00    -0.421 A  
HETATM   18  C   UNL     1     -12.384  11.874  70.672  1.00  0.00    -0.313 A  
HETATM   19  C   UNL     1     -12.444  13.225  70.393  1.00  0.00    -0.295 A  
HETATM   20  N   UNL     1     -12.862  11.471  71.848  1.00  0.00    -0.347 NA 
HETATM   21  C   UNL     1     -12.831  10.162  72.079  1.00  0.00    -0.376 A  
HETATM   22  C   UNL     1     -11.984  13.743  69.181  1.00  0.00    -0.403 A  
HETATM   23  N   UNL     1     -12.358   9.239  71.245  1.00  0.00    -0.320 NA 
HETATM   24  C   UNL     1     -11.855   9.641  70.068  1.00  0.00     0.045 A  
BRANCH  24  25
HETATM   25  N   UNL     1     -11.404   8.668  69.129  1.00  0.00    -0.244 NA 
HETATM   26  H   UNL     1     -12.070   8.413  68.401  1.00  0.00     0.000 HD 
BRANCH  25  27
HETATM   27  C   UNL     1     -10.153   8.011  69.076  1.00  0.00    -0.201 A  
HETATM   28  C   UNL     1      -9.078   8.347  69.897  1.00  0.00    -0.146 A  
HETATM   29  C   UNL     1      -7.880   7.627  69.903  1.00  0.00    -0.102 A  
HETATM   30  C   UNL     1      -7.742   6.500  69.085  1.00  0.00    -0.102 A  
HETATM   31 CL   UNL     1      -6.665   8.294  70.943  1.00  0.00    -0.038 Cl 
HETATM   32  C   UNL     1      -8.789   6.191  68.203  1.00  0.00    -0.112 A  
HETATM   33  C   UNL     1      -9.977   6.939  68.195  1.00  0.00    -0.170 A  
BRANCH  30  34
HETATM   34  O   UNL     1      -6.687   5.625  69.005  1.00  0.00    -0.055 OA 
BRANCH  34  35
HETATM   35  C   UNL     1      -6.205   5.112  70.244  1.00  0.00    -0.022 C  
BRANCH  35  36
HETATM   36  C   UNL     1      -7.264   4.322  70.967  1.00  0.00    -0.037 A  
HETATM   37  C   UNL     1      -7.563   4.590  72.306  1.00  0.00    -0.083 A  
HETATM   38  C   UNL     1      -8.458   3.771  72.985  1.00  0.00    -0.094 A  
HETATM   39  C   UNL     1      -9.062   2.689  72.355  1.00  0.00    -0.125 A  
HETATM   40  F   UNL     1      -8.726   4.018  74.274  1.00  0.00    -0.094 F  
HETATM   41  C   UNL     1      -8.773   2.419  71.023  1.00  0.00    -0.114 A  
HETATM   42  C   UNL     1      -7.877   3.229  70.329  1.00  0.00    -0.046 A  
ENDBRANCH  35  36
ENDBRANCH  34  35
ENDBRANCH  30  34
ENDBRANCH  25  27
ENDBRANCH  24  25
ENDBRANCH  13  15
ENDBRANCH   9  10
ENDBRANCH   7   9
ENDBRANCH   6   7
ENDBRANCH   5   6
ENDBRANCH   2   5
TORSDOF 11
ENDMDL
MODEL      140
REMARK 921   NORMALIZED FREE ENERGY PREDICTED BY IDOCK:   -5.12 KCAL/MOL
REMARK 922        TOTAL FREE ENERGY PREDICTED BY IDOCK:  -11.16 KCAL/MOL
REMARK 923 INTER-LIGAND FREE ENERGY PREDICTED BY IDOCK:   -8.84 KCAL/MOL
REMARK 924 INTRA-LIGAND FREE ENERGY PREDICTED BY IDOCK:   -2.31 KCAL/MOL
REMARK 927      BINDING AFFINITY PREDICTED BY RF-SCORE:    0.00 PKD
ROOT
HETATM    1  C   UNL     1      -5.232  13.354  69.821  1.00  0.00    -0.088 C  
HETATM    2  S   UNL     1      -5.996  14.143  68.428  1.00  0.00    -0.114 S  
HETATM    3  O   UNL     1      -7.408  14.288  68.718  1.00  0.00    -0.120 OA 
HETATM    4  O   UNL     1      -5.538  13.466  67.232  1.00  0.00    -0.354 OA 
ENDROOT
BRANCH   2   5
HETATM    5  C   UNL     1      -5.253  15.759  68.467  1.00  0.00    -0.096 C  
BRANCH   5   6
HETATM    6  C   UNL     1      -6.220  16.827  67.978  1.00  0.00    -0.136 C  
BRANCH   6   7
HETATM    7  N   UNL     1      -6.973  17.470  69.061  1.00  0.00    -0.244 NA 
HETATM    8  H   UNL     1      -6.353  18.023  69.654  1.00  0.00     0.000 HD 
BRANCH   7   9
HETATM    9  C   UNL     1      -8.097  18.279  68.589  1.00  0.00    -0.286 C  
BRANCH   9  10
HETATM   10  C   UNL     1      -9.239  17.408  68.208  1.00  0.00    -0.271 A  
HETATM   11  C   UNL     1      -9.981  17.271  67.055  1.00  0.00    -0.289 A  
HETATM   12  C   UNL     1     -10.939  16.264  67.316  1.00  0.00    -0.144 A  
HETATM   13  C   UNL     1     -10.715  15.824  68.606  1.00  0.00    -0.263 A  
HETATM   14  O   UNL     1      -9.671  16.521  69.145  1.00  0.00    -0.259 OA 
BRANCH  13  15
HETATM   15  C   UNL     1     -11.327  14.825  69.471  1.00  0.00    -0.312 A  
HETATM   16  C   UNL     1     -11.394  13.478  69.090  1.00  0.00    -0.333 A  
HETATM   17  C   UNL     1     -11.998  12.502  69.928  1.00  0.00    -0.371 A  
HETATM   18  C   UNL     1     -12.540  12.895  71.162  1.00  0.00    -0.281 A  
HETATM   19  C   UNL     1     -12.469  14.224  71.530  1.00  0.00    -0.435 A  
HETATM   20  N   UNL     1     -13.140  12.059  72.007  1.00  0.00    -0.427 NA 
HETATM   21  C   UNL     1     -13.232  10.791  71.615  1.00  0.00    -0.383 A  
HETATM   22  C   UNL     1     -11.874  15.181  70.705  1.00  0.00    -0.371 A  
HETATM   23  N   UNL     1     -12.769  10.300  70.468  1.00  0.00    -0.290 NA 
HETATM   24  C   UNL     1     -12.144  11.133  69.623  1.00  0.00    -0.336 A  
BRANCH  24  25
HETATM   25  N   UNL     1     -11.698  10.647  68.360  1.00  0.00    -0.701 NA 
HETATM   26  H   UNL     1     -12.295  10.869  67.564  1.00  0.00     0.000 HD 
BRANCH  25  27
HETATM   27  C   UNL     1     -10.536   9.896  68.066  1.00  0.00    -0.222 A  
HETATM   28  C   UNL     1      -9.273  10.221  68.558  1.00  0.00    -0.144 A  
HETATM   29  C   UNL     1      -8.150   9.418  68.342  1.00  0.00    -0.109 A  
HETATM   30  C   UNL     1      -8.280   8.218  67.632  1.00  0.00    -0.127 A  
HETATM   31 CL   UNL     1      -6.680  10.079  68.977  1.00  0.00    -0.052 Cl 
HETATM   32  C   UNL     1      -9.530   7.914  67.072  1.00  0.00    -0.222 A  
HETATM   33  C   UNL     1     -10.642   8.744  67.282  1.00  0.00    -0.303 A  
BRANCH  30  34
HETATM   34  O   UNL     1      -7.325   7.263  67.383  1.00  0.00    -0.087 OA 
BRANCH  34  35
HETATM   35  C   UNL     1      -6.897   6.500  68.507  1.00  0.00    -0.071 C  
BRANCH  35  36
HETATM   36  C   UNL     1      -7.150   5.029  68.308  1.00  0.00    -0.062 A  
HETATM   37  C   UNL     1      -8.455   4.528  68.279  1.00  0.00    -0.099 A  
HETATM   38  C   UNL     1      -8.660   3.155  68.213  1.00  0.00    -0.091 A  
HETATM   39  C   UNL     1      -7.589   2.269  68.175  1.00  0.00    -0.055 A  
HETATM   40  F   UNL     1      -9.911   2.677  68.206  1.00  0.00    -0.237 F  
HETATM   41  C   UNL     1      -6.289   2.760  68.200  1.00  0.00    -0.029 A  
HETATM   42  C   UNL     1      -6.066   4.133  68.267  1.00  0.00    -0.031 A  
ENDBRANCH  35  36
ENDBRANCH  34  35
ENDBRANCH  30  34
ENDBRANCH  25  27
ENDBRANCH  24  25
ENDBRANCH  13  15
ENDBRANCH   9  10
ENDBRANCH   7   9
ENDBRANCH   6   7
ENDBRANCH   5   6
ENDBRANCH   2   5
TORSDOF 11
ENDMDL
MODEL      141
REMARK 921   NORMALIZED FREE ENERGY PREDICTED BY IDOCK:   -5.12 KCAL/MOL
REMARK 922        TOTAL FREE ENERGY PREDICTED BY IDOCK:  -11.16 KCAL/MOL
REMARK 923 INTER-LIGAND FREE ENERGY PREDICTED BY IDOCK:   -8.81 KCAL/MOL
REMARK 924 INTRA-LIGAND FREE ENERGY PREDICTED BY IDOCK:   -2.35 KCAL/MOL
REMARK 927      BINDING AFFINITY PREDICTED BY RF-SCORE:    0.00 PKD
ROOT
HETATM    1  C   UNL     1     -14.005   7.115  71.500  1.00  0.00    -0.312 C  
HETATM    2  S   UNL     1     -12.237   7.169  71.364  1.00  0.00    -0.379 S  
HETATM    3  O   UNL     1     -11.896   7.053  69.960  1.00  0.00    -0.194 OA 
HETATM    4  O   UNL     1     -11.691   6.260  72.350  1.00  0.00    -0.295 OA 
ENDROOT
BRANCH   2   5
HETATM    5  C   UNL     1     -11.878   8.831  71.887  1.00  0.00    -0.367 C  
BRANCH   5   6
HETATM    6  C   UNL     1     -10.757   9.444  71.060  1.00  0.00    -0.337 C  
BRANCH   6   7
HETATM    7  N   UNL     1     -11.205   9.951  69.758  1.00  0.00    -0.303 NA 
HETATM    8  H   UNL     1     -12.037  10.532  69.863  1.00  0.00     0.000 HD 
BRANCH   7   9
HETATM    9  C   UNL     1     -10.163  10.667  69.022  1.00  0.00    -0.215 C  
BRANCH   9  10
HETATM   10  C   UNL     1     -10.711  11.914  68.428  1.00  0.00    -0.220 A  
HETATM   11  C   UNL     1     -11.862  12.200  67.727  1.00  0.00    -0.327 A  
HETATM   12  C   UNL     1     -11.813  13.583  67.430  1.00  0.00    -0.423 A  
HETATM   13  C   UNL     1     -10.646  14.069  67.985  1.00  0.00    -0.247 A  
HETATM   14  O   UNL     1      -9.978  13.047  68.600  1.00  0.00    -0.202 OA 
BRANCH  13  15
HETATM   15  C   UNL     1     -10.006  15.376  68.051  1.00  0.00    -0.221 A  
HETATM   16  C   UNL     1      -8.736  15.535  68.622  1.00  0.00    -0.188 A  
HETATM   17  C   UNL     1      -8.113  16.810  68.696  1.00  0.00    -0.251 A  
HETATM   18  C   UNL     1      -8.784  17.933  68.187  1.00  0.00    -0.268 A  
HETATM   19  C   UNL     1     -10.034  17.768  67.626  1.00  0.00    -0.322 A  
HETATM   20  N   UNL     1      -8.290  19.170  68.225  1.00  0.00    -0.322 NA 
HETATM   21  C   UNL     1      -7.102  19.311  68.805  1.00  0.00    -0.340 A  
HETATM   22  C   UNL     1     -10.644  16.514  67.554  1.00  0.00    -0.313 A  
HETATM   23  N   UNL     1      -6.375  18.329  69.333  1.00  0.00    -0.259 NA 
HETATM   24  C   UNL     1      -6.857  17.079  69.277  1.00  0.00    -0.219 A  
BRANCH  24  25
HETATM   25  N   UNL     1      -6.130  16.019  69.893  1.00  0.00    -0.175 NA 
HETATM   26  H   UNL     1      -5.716  16.234  70.800  1.00  0.00     0.000 HD 
BRANCH  25  27
HETATM   27  C   UNL     1      -5.908  14.708  69.411  1.00  0.00    -0.097 A  
HETATM   28  C   UNL     1      -6.023  13.571  70.210  1.00  0.00    -0.146 A  
HETATM   29  C   UNL     1      -5.898  12.276  69.700  1.00  0.00    -0.111 A  
HETATM   30  C   UNL     1      -5.679  12.086  68.331  1.00  0.00    -0.049 A  
HETATM   31 CL   UNL     1      -5.991  11.035  70.905  1.00  0.00    -0.019 Cl 
HETATM   32  C   UNL     1      -5.492  13.221  67.527  1.00  0.00     0.015 A  
HETATM   33  C   UNL     1      -5.600  14.515  68.061  1.00  0.00    -0.133 A  
BRANCH  30  34
HETATM   34  O   UNL     1      -5.606  10.906  67.631  1.00  0.00    -0.043 OA 
BRANCH  34  35
HETATM   35  C   UNL     1      -6.085  10.945  66.290  1.00  0.00    -0.137 C  
BRANCH  35  36
HETATM   36  C   UNL     1      -7.337  10.125  66.125  1.00  0.00    -0.115 A  
HETATM   37  C   UNL     1      -8.485  10.684  65.555  1.00  0.00    -0.177 A  
HETATM   38  C   UNL     1      -9.662   9.945  65.522  1.00  0.00    -0.302 A  
HETATM   39  C   UNL     1      -9.719   8.658  66.045  1.00  0.00    -0.238 A  
HETATM   40  F   UNL     1     -10.765  10.491  64.995  1.00  0.00    -0.339 F  
HETATM   41  C   UNL     1      -8.580   8.094  66.610  1.00  0.00    -0.140 A  
HETATM   42  C   UNL     1      -7.393   8.822  66.652  1.00  0.00    -0.082 A  
ENDBRANCH  35  36
ENDBRANCH  34  35
ENDBRANCH  30  34
ENDBRANCH  25  27
ENDBRANCH  24  25
ENDBRANCH  13  15
ENDBRANCH   9  10
ENDBRANCH   7   9
ENDBRANCH   6   7
ENDBRANCH   5   6
ENDBRANCH   2   5
TORSDOF 11
ENDMDL
MODEL      142
REMARK 921   NORMALIZED FREE ENERGY PREDICTED BY IDOCK:   -5.12 KCAL/MOL
REMARK 922        TOTAL FREE ENERGY PREDICTED BY IDOCK:  -11.15 KCAL/MOL
REMARK 923 INTER-LIGAND FREE ENERGY PREDICTED BY IDOCK:   -8.86 KCAL/MOL
REMARK 924 INTRA-LIGAND FREE ENERGY PREDICTED BY IDOCK:   -2.29 KCAL/MOL
REMARK 927      BINDING AFFINITY PREDICTED BY RF-SCORE:    0.00 PKD
ROOT
HETATM    1  C   UNL     1     -12.248  12.922  63.122  1.00  0.00    -0.229 C  
HETATM    2  S   UNL     1     -11.626  13.036  64.780  1.00  0.00    -0.349 S  
HETATM    3  O   UNL     1     -12.736  13.371  65.649  1.00  0.00    -0.458 OA 
HETATM    4  O   UNL     1     -10.425  13.846  64.745  1.00  0.00    -0.408 OA 
ENDROOT
BRANCH   2   5
HETATM    5  C   UNL     1     -11.149  11.355  65.111  1.00  0.00    -0.133 C  
BRANCH   5   6
HETATM    6  C   UNL     1     -10.162  10.843  64.072  1.00  0.00    -0.357 C  
BRANCH   6   7
HETATM    7  N   UNL     1      -9.720   9.467  64.319  1.00  0.00    -0.290 NA 
HETATM    8  H   UNL     1     -10.350   8.799  63.875  1.00  0.00     0.000 HD 
BRANCH   7   9
HETATM    9  C   UNL     1      -8.335   9.219  63.915  1.00  0.00    -0.179 C  
BRANCH   9  10
HETATM   10  C   UNL     1      -7.405   9.537  65.029  1.00  0.00    -0.110 A  
HETATM   11  C   UNL     1      -6.424   8.817  65.677  1.00  0.00    -0.059 A  
HETATM   12  C   UNL     1      -5.884   9.678  66.661  1.00  0.00    -0.055 A  
HETATM   13  C   UNL     1      -6.548  10.883  66.545  1.00  0.00    -0.127 A  
HETATM   14  O   UNL     1      -7.472  10.795  65.542  1.00  0.00    -0.104 OA 
BRANCH  13  15
HETATM   15  C   UNL     1      -6.477  12.165  67.233  1.00  0.00    -0.152 A  
HETATM   16  C   UNL     1      -7.635  12.906  67.510  1.00  0.00    -0.164 A  
HETATM   17  C   UNL     1      -7.568  14.161  68.172  1.00  0.00    -0.136 A  
HETATM   18  C   UNL     1      -6.318  14.671  68.555  1.00  0.00    -0.087 A  
HETATM   19  C   UNL     1      -5.183  13.936  68.278  1.00  0.00    -0.110 A  
HETATM   20  N   UNL     1      -6.152  15.844  69.164  1.00  0.00    -0.123 NA 
HETATM   21  C   UNL     1      -7.255  16.553  69.386  1.00  0.00    -0.151 A  
HETATM   22  C   UNL     1      -5.251  12.702  67.628  1.00  0.00    -0.110 A  
HETATM   23  N   UNL     1      -8.492  16.184  69.061  1.00  0.00    -0.244 NA 
HETATM   24  C   UNL     1      -8.667  14.994  68.468  1.00  0.00    -0.175 A  
BRANCH  24  25
HETATM   25  N   UNL     1      -9.972  14.604  68.050  1.00  0.00    -0.217 NA 
HETATM   26  H   UNL     1     -10.363  15.130  67.269  1.00  0.00     0.000 HD 
BRANCH  25  27
HETATM   27  C   UNL     1     -10.797  13.582  68.576  1.00  0.00    -0.264 A  
HETATM   28  C   UNL     1     -10.654  12.237  68.239  1.00  0.00    -0.243 A  
HETATM   29  C   UNL     1     -11.409  11.226  68.840  1.00  0.00    -0.275 A  
HETATM   30  C   UNL     1     -12.329  11.548  69.844  1.00  0.00    -0.180 A  
HETATM   31 CL   UNL     1     -11.114   9.648  68.189  1.00  0.00    -0.176 Cl 
HETATM   32  C   UNL     1     -12.532  12.904  70.145  1.00  0.00    -0.144 A  
HETATM   33  C   UNL     1     -11.779  13.908  69.516  1.00  0.00    -0.369 A  
BRANCH  30  34
HETATM   34  O   UNL     1     -13.100  10.701  70.602  1.00  0.00    -0.318 OA 
BRANCH  34  35
HETATM   35  C   UNL     1     -12.501  10.213  71.799  1.00  0.00    -0.360 C  
BRANCH  35  36
HETATM   36  C   UNL     1     -11.686   8.973  71.545  1.00  0.00    -0.415 A  
HETATM   37  C   UNL     1     -10.289   9.016  71.593  1.00  0.00    -0.420 A  
HETATM   38  C   UNL     1      -9.557   7.888  71.239  1.00  0.00    -0.157 A  
HETATM   39  C   UNL     1     -10.190   6.716  70.839  1.00  0.00    -0.219 A  
HETATM   40  F   UNL     1      -8.219   7.939  71.265  1.00  0.00    -0.091 F  
HETATM   41  C   UNL     1     -11.578   6.665  70.793  1.00  0.00    -0.432 A  
HETATM   42  C   UNL     1     -12.326   7.786  71.143  1.00  0.00    -0.268 A  
ENDBRANCH  35  36
ENDBRANCH  34  35
ENDBRANCH  30  34
ENDBRANCH  25  27
ENDBRANCH  24  25
ENDBRANCH  13  15
ENDBRANCH   9  10
ENDBRANCH   7   9
ENDBRANCH   6   7
ENDBRANCH   5   6
ENDBRANCH   2   5
TORSDOF 11
ENDMDL
MODEL      143
REMARK 921   NORMALIZED FREE ENERGY PREDICTED BY IDOCK:   -5.10 KCAL/MOL
REMARK 922        TOTAL FREE ENERGY PREDICTED BY IDOCK:  -11.13 KCAL/MOL
REMARK 923 INTER-LIGAND FREE ENERGY PREDICTED BY IDOCK:   -9.52 KCAL/MOL
REMARK 924 INTRA-LIGAND FREE ENERGY PREDICTED BY IDOCK:   -1.61 KCAL/MOL
REMARK 927      BINDING AFFINITY PREDICTED BY RF-SCORE:    0.00 PKD
ROOT
HETATM    1  C   UNL     1     -10.641   2.729  73.176  1.00  0.00    -0.162 C  
HETATM    2  S   UNL     1      -9.798   4.199  72.650  1.00  0.00    -0.157 S  
HETATM    3  O   UNL     1     -10.053   4.374  71.234  1.00  0.00    -0.186 OA 
HETATM    4  O   UNL     1      -8.448   4.143  73.172  1.00  0.00    -0.092 OA 
ENDROOT
BRANCH   2   5
HETATM    5  C   UNL     1     -10.680   5.465  73.534  1.00  0.00    -0.287 C  
BRANCH   5   6
HETATM    6  C   UNL     1     -11.555   6.288  72.600  1.00  0.00    -0.175 C  
BRANCH   6   7
HETATM    7  N   UNL     1     -11.765   7.665  73.061  1.00  0.00    -0.616 NA 
HETATM    8  H   UNL     1     -10.881   8.093  73.336  1.00  0.00     0.000 HD 
BRANCH   7   9
HETATM    9  C   UNL     1     -12.469   8.504  72.090  1.00  0.00    -0.379 C  
BRANCH   9  10
HETATM   10  C   UNL     1     -11.500   9.170  71.182  1.00  0.00    -0.318 A  
HETATM   11  C   UNL     1     -10.141   9.045  70.994  1.00  0.00    -0.352 A  
HETATM   12  C   UNL     1      -9.795   9.962  69.974  1.00  0.00    -0.291 A  
HETATM   13  C   UNL     1     -10.964  10.580  69.579  1.00  0.00    -0.264 A  
HETATM   14  O   UNL     1     -12.005  10.089  70.316  1.00  0.00    -0.249 OA 
BRANCH  13  15
HETATM   15  C   UNL     1     -11.307  11.597  68.594  1.00  0.00    -0.326 A  
HETATM   16  C   UNL     1     -11.232  11.330  67.220  1.00  0.00    -0.364 A  
HETATM   17  C   UNL     1     -11.558  12.323  66.256  1.00  0.00    -0.446 A  
HETATM   18  C   UNL     1     -11.961  13.595  66.688  1.00  0.00    -0.415 A  
HETATM   19  C   UNL     1     -12.031  13.849  68.044  1.00  0.00    -0.390 A  
HETATM   20  N   UNL     1     -12.269  14.594  65.863  1.00  0.00    -0.226 NA 
HETATM   21  C   UNL     1     -12.156  14.339  64.562  1.00  0.00    -0.480 A  
HETATM   22  C   UNL     1     -11.713  12.873  68.989  1.00  0.00    -0.375 A  
HETATM   23  N   UNL     1     -11.774  13.181  64.031  1.00  0.00    -0.413 NA 
HETATM   24  C   UNL     1     -11.484  12.165  64.857  1.00  0.00    -0.325 A  
BRANCH  24  25
HETATM   25  N   UNL     1     -11.010  10.934  64.316  1.00  0.00    -0.296 NA 
HETATM   26  H   UNL     1     -11.718  10.219  64.153  1.00  0.00     0.000 HD 
BRANCH  25  27
HETATM   27  C   UNL     1      -9.685  10.575  63.975  1.00  0.00    -0.323 A  
HETATM   28  C   UNL     1      -8.636  10.566  64.893  1.00  0.00    -0.179 A  
HETATM   29  C   UNL     1      -7.354  10.116  64.568  1.00  0.00    -0.121 A  
HETATM   30  C   UNL     1      -7.095   9.621  63.285  1.00  0.00    -0.109 A  
HETATM   31 CL   UNL     1      -6.202  10.288  65.851  1.00  0.00    -0.095 Cl 
HETATM   32  C   UNL     1      -8.122   9.688  62.331  1.00  0.00    -0.140 A  
HETATM   33  C   UNL     1      -9.399  10.164  62.670  1.00  0.00    -0.322 A  
BRANCH  30  34
HETATM   34  O   UNL     1      -5.937   9.066  62.799  1.00  0.00    -0.089 OA 
BRANCH  34  35
HETATM   35  C   UNL     1      -5.452   7.922  63.494  1.00  0.00    -0.053 C  
BRANCH  35  36
HETATM   36  C   UNL     1      -6.488   6.831  63.558  1.00  0.00    -0.042 A  
HETATM   37  C   UNL     1      -7.024   6.428  64.785  1.00  0.00    -0.051 A  
HETATM   38  C   UNL     1      -7.889   5.341  64.830  1.00  0.00    -0.095 A  
HETATM   39  C   UNL     1      -8.232   4.646  63.675  1.00  0.00    -0.107 A  
HETATM   40  F   UNL     1      -8.385   4.945  66.009  1.00  0.00    -0.109 F  
HETATM   41  C   UNL     1      -7.706   5.043  62.451  1.00  0.00    -0.061 A  
HETATM   42  C   UNL     1      -6.836   6.129  62.389  1.00  0.00    -0.037 A  
ENDBRANCH  35  36
ENDBRANCH  34  35
ENDBRANCH  30  34
ENDBRANCH  25  27
ENDBRANCH  24  25
ENDBRANCH  13  15
ENDBRANCH   9  10
ENDBRANCH   7   9
ENDBRANCH   6   7
ENDBRANCH   5   6
ENDBRANCH   2   5
TORSDOF 11
ENDMDL
MODEL      144
REMARK 921   NORMALIZED FREE ENERGY PREDICTED BY IDOCK:   -5.09 KCAL/MOL
REMARK 922        TOTAL FREE ENERGY PREDICTED BY IDOCK:  -11.10 KCAL/MOL
REMARK 923 INTER-LIGAND FREE ENERGY PREDICTED BY IDOCK:   -9.09 KCAL/MOL
REMARK 924 INTRA-LIGAND FREE ENERGY PREDICTED BY IDOCK:   -2.01 KCAL/MOL
REMARK 927      BINDING AFFINITY PREDICTED BY RF-SCORE:    0.00 PKD
ROOT
HETATM    1  C   UNL     1      -9.898   8.718  66.192  1.00  0.00    -0.227 C  
HETATM    2  S   UNL     1      -8.169   9.105  66.293  1.00  0.00    -0.113 S  
HETATM    3  O   UNL     1      -7.787   9.073  67.690  1.00  0.00    -0.099 OA 
HETATM    4  O   UNL     1      -7.931  10.274  65.472  1.00  0.00    -0.141 OA 
ENDROOT
BRANCH   2   5
HETATM    5  C   UNL     1      -7.431   7.703  65.484  1.00  0.00    -0.077 C  
BRANCH   5   6
HETATM    6  C   UNL     1      -8.488   6.730  64.982  1.00  0.00     0.012 C  
BRANCH   6   7
HETATM    7  N   UNL     1      -8.174   5.328  65.275  1.00  0.00    -0.123 NA 
HETATM    8  H   UNL     1      -7.299   5.254  65.794  1.00  0.00     0.000 HD 
BRANCH   7   9
HETATM    9  C   UNL     1      -9.251   4.623  65.972  1.00  0.00    -0.144 C  
BRANCH   9  10
HETATM   10  C   UNL     1      -9.132   4.817  67.441  1.00  0.00    -0.117 A  
HETATM   11  C   UNL     1      -8.286   4.298  68.397  1.00  0.00    -0.087 A  
HETATM   12  C   UNL     1      -8.678   4.874  69.628  1.00  0.00    -0.109 A  
HETATM   13  C   UNL     1      -9.726   5.729  69.353  1.00  0.00    -0.155 A  
HETATM   14  O   UNL     1      -9.996   5.697  68.014  1.00  0.00    -0.127 OA 
BRANCH  13  15
HETATM   15  C   UNL     1     -10.565   6.615  70.149  1.00  0.00    -0.264 A  
HETATM   16  C   UNL     1     -10.908   7.895  69.693  1.00  0.00    -0.177 A  
HETATM   17  C   UNL     1     -11.719   8.765  70.471  1.00  0.00    -0.115 A  
HETATM   18  C   UNL     1     -12.185   8.334  71.723  1.00  0.00    -0.326 A  
HETATM   19  C   UNL     1     -11.842   7.072  72.165  1.00  0.00    -0.314 A  
HETATM   20  N   UNL     1     -12.935   9.082  72.530  1.00  0.00    -0.406 NA 
HETATM   21  C   UNL     1     -13.219  10.308  72.101  1.00  0.00    -0.340 A  
HETATM   22  C   UNL     1     -11.047   6.218  71.398  1.00  0.00    -0.339 A  
HETATM   23  N   UNL     1     -12.828  10.834  70.943  1.00  0.00    -0.360 NA 
HETATM   24  C   UNL     1     -12.092  10.077  70.116  1.00  0.00    -0.091 A  
BRANCH  24  25
HETATM   25  N   UNL     1     -11.604  10.638  68.900  1.00  0.00    -0.420 NA 
HETATM   26  H   UNL     1     -11.743  10.072  68.064  1.00  0.00     0.000 HD 
BRANCH  25  27
HETATM   27  C   UNL     1     -10.953  11.878  68.701  1.00  0.00    -0.228 A  
HETATM   28  C   UNL     1      -9.611  11.987  68.340  1.00  0.00    -0.190 A  
HETATM   29  C   UNL     1      -9.006  13.213  68.051  1.00  0.00    -0.195 A  
HETATM   30  C   UNL     1      -9.764  14.389  68.088  1.00  0.00    -0.223 A  
HETATM   31 CL   UNL     1      -7.310  13.097  67.716  1.00  0.00    -0.127 Cl 
HETATM   32  C   UNL     1     -11.097  14.303  68.517  1.00  0.00    -0.276 A  
HETATM   33  C   UNL     1     -11.683  13.065  68.824  1.00  0.00    -0.363 A  
BRANCH  30  34
HETATM   34  O   UNL     1      -9.378  15.666  67.765  1.00  0.00    -0.200 OA 
BRANCH  34  35
HETATM   35  C   UNL     1     -10.279  16.705  68.139  1.00  0.00    -0.280 C  
BRANCH  35  36
HETATM   36  C   UNL     1      -9.724  18.066  67.811  1.00  0.00    -0.292 A  
HETATM   37  C   UNL     1     -10.123  18.737  66.651  1.00  0.00    -0.418 A  
HETATM   38  C   UNL     1      -9.509  19.936  66.309  1.00  0.00    -0.410 A  
HETATM   39  C   UNL     1      -8.505  20.482  67.102  1.00  0.00    -0.357 A  
HETATM   40  F   UNL     1      -9.878  20.566  65.186  1.00  0.00    -0.218 F  
HETATM   41  C   UNL     1      -8.107  19.822  68.259  1.00  0.00    -0.322 A  
HETATM   42  C   UNL     1      -8.710  18.619  68.614  1.00  0.00    -0.333 A  
ENDBRANCH  35  36
ENDBRANCH  34  35
ENDBRANCH  30  34
ENDBRANCH  25  27
ENDBRANCH  24  25
ENDBRANCH  13  15
ENDBRANCH   9  10
ENDBRANCH   7   9
ENDBRANCH   6   7
ENDBRANCH   5   6
ENDBRANCH   2   5
TORSDOF 11
ENDMDL
MODEL      145
REMARK 921   NORMALIZED FREE ENERGY PREDICTED BY IDOCK:   -5.08 KCAL/MOL
REMARK 922        TOTAL FREE ENERGY PREDICTED BY IDOCK:  -11.10 KCAL/MOL
REMARK 923 INTER-LIGAND FREE ENERGY PREDICTED BY IDOCK:   -9.12 KCAL/MOL
REMARK 924 INTRA-LIGAND FREE ENERGY PREDICTED BY IDOCK:   -1.98 KCAL/MOL
REMARK 927      BINDING AFFINITY PREDICTED BY RF-SCORE:    0.00 PKD
ROOT
HETATM    1  C   UNL     1     -10.624   3.271  74.343  1.00  0.00    -0.164 C  
HETATM    2  S   UNL     1     -10.601   4.776  73.405  1.00  0.00    -0.262 S  
HETATM    3  O   UNL     1     -11.965   5.252  73.294  1.00  0.00    -0.071 OA 
HETATM    4  O   UNL     1      -9.784   4.550  72.230  1.00  0.00    -0.150 OA 
ENDROOT
BRANCH   2   5
HETATM    5  C   UNL     1      -9.715   5.873  74.490  1.00  0.00    -0.239 C  
BRANCH   5   6
HETATM    6  C   UNL     1      -9.125   7.051  73.729  1.00  0.00    -0.185 C  
BRANCH   6   7
HETATM    7  N   UNL     1     -10.121   7.801  72.955  1.00  0.00    -0.294 NA 
HETATM    8  H   UNL     1     -10.519   8.556  73.515  1.00  0.00     0.000 HD 
BRANCH   7   9
HETATM    9  C   UNL     1      -9.606   8.314  71.685  1.00  0.00    -0.198 C  
BRANCH   9  10
HETATM   10  C   UNL     1     -10.208   7.575  70.545  1.00  0.00    -0.201 A  
HETATM   11  C   UNL     1     -11.441   6.995  70.340  1.00  0.00    -0.355 A  
HETATM   12  C   UNL     1     -11.407   6.440  69.039  1.00  0.00    -0.332 A  
HETATM   13  C   UNL     1     -10.164   6.731  68.513  1.00  0.00    -0.175 A  
HETATM   14  O   UNL     1      -9.437   7.431  69.434  1.00  0.00    -0.155 OA 
BRANCH  13  15
HETATM   15  C   UNL     1      -9.497   6.463  67.246  1.00  0.00    -0.135 A  
HETATM   16  C   UNL     1      -9.046   7.507  66.427  1.00  0.00    -0.210 A  
HETATM   17  C   UNL     1      -8.403   7.249  65.187  1.00  0.00    -0.081 A  
HETATM   18  C   UNL     1      -8.216   5.922  64.773  1.00  0.00    -0.129 A  
HETATM   19  C   UNL     1      -8.663   4.899  65.585  1.00  0.00    -0.135 A  
HETATM   20  N   UNL     1      -7.640   5.580  63.622  1.00  0.00    -0.066 NA 
HETATM   21  C   UNL     1      -7.253   6.581  62.837  1.00  0.00    -0.054 A  
HETATM   22  C   UNL     1      -9.293   5.155  66.804  1.00  0.00    -0.134 A  
HETATM   23  N   UNL     1      -7.385   7.877  63.112  1.00  0.00    -0.098 NA 
HETATM   24  C   UNL     1      -7.944   8.226  64.280  1.00  0.00    -0.148 A  
BRANCH  24  25
HETATM   25  N   UNL     1      -8.157   9.605  64.571  1.00  0.00    -0.133 NA 
HETATM   26  H   UNL     1      -7.318  10.182  64.627  1.00  0.00     0.000 HD 
BRANCH  25  27
HETATM   27  C   UNL     1      -9.381  10.279  64.791  1.00  0.00    -0.260 A  
HETATM   28  C   UNL     1      -9.887  10.547  66.062  1.00  0.00    -0.277 A  
HETATM   29  C   UNL     1     -11.046  11.299  66.268  1.00  0.00    -0.166 A  
HETATM   30  C   UNL     1     -11.728  11.842  65.173  1.00  0.00    -0.179 A  
HETATM   31 CL   UNL     1     -11.521  11.417  67.930  1.00  0.00    -0.361 Cl 
HETATM   32  C   UNL     1     -11.269  11.523  63.885  1.00  0.00    -0.439 A  
HETATM   33  C   UNL     1     -10.114  10.748  63.696  1.00  0.00    -0.375 A  
BRANCH  30  34
HETATM   34  O   UNL     1     -12.827  12.664  65.170  1.00  0.00    -0.721 OA 
BRANCH  34  35
HETATM   35  C   UNL     1     -12.586  14.029  64.842  1.00  0.00    -0.342 C  
BRANCH  35  36
HETATM   36  C   UNL     1     -11.735  14.708  65.882  1.00  0.00    -0.301 A  
HETATM   37  C   UNL     1     -12.173  14.810  67.206  1.00  0.00     0.018 A  
HETATM   38  C   UNL     1     -11.425  15.543  68.120  1.00  0.00    -0.326 A  
HETATM   39  C   UNL     1     -10.248  16.178  67.741  1.00  0.00    -0.267 A  
HETATM   40  F   UNL     1     -11.858  15.656  69.382  1.00  0.00    -0.311 F  
HETATM   41  C   UNL     1      -9.804  16.078  66.428  1.00  0.00    -0.308 A  
HETATM   42  C   UNL     1     -10.542  15.349  65.499  1.00  0.00    -0.400 A  
ENDBRANCH  35  36
ENDBRANCH  34  35
ENDBRANCH  30  34
ENDBRANCH  25  27
ENDBRANCH  24  25
ENDBRANCH  13  15
ENDBRANCH   9  10
ENDBRANCH   7   9
ENDBRANCH   6   7
ENDBRANCH   5   6
ENDBRANCH   2   5
TORSDOF 11
ENDMDL
MODEL      146
REMARK 921   NORMALIZED FREE ENERGY PREDICTED BY IDOCK:   -5.07 KCAL/MOL
REMARK 922        TOTAL FREE ENERGY PREDICTED BY IDOCK:  -11.07 KCAL/MOL
REMARK 923 INTER-LIGAND FREE ENERGY PREDICTED BY IDOCK:   -9.12 KCAL/MOL
REMARK 924 INTRA-LIGAND FREE ENERGY PREDICTED BY IDOCK:   -1.96 KCAL/MOL
REMARK 927      BINDING AFFINITY PREDICTED BY RF-SCORE:    0.00 PKD
ROOT
HETATM    1  C   UNL     1     -10.476   2.578  72.939  1.00  0.00    -0.152 C  
HETATM    2  S   UNL     1     -10.059   4.254  72.536  1.00  0.00    -0.175 S  
HETATM    3  O   UNL     1      -9.968   4.355  71.093  1.00  0.00    -0.190 OA 
HETATM    4  O   UNL     1      -8.959   4.652  73.390  1.00  0.00    -0.109 OA 
ENDROOT
BRANCH   2   5
HETATM    5  C   UNL     1     -11.514   5.132  73.063  1.00  0.00    -0.274 C  
BRANCH   5   6
HETATM    6  C   UNL     1     -11.793   6.331  72.169  1.00  0.00    -0.315 C  
BRANCH   6   7
HETATM    7  N   UNL     1     -11.708   7.615  72.874  1.00  0.00    -0.610 NA 
HETATM    8  H   UNL     1     -10.742   7.829  73.119  1.00  0.00     0.000 HD 
BRANCH   7   9
HETATM    9  C   UNL     1     -12.315   8.725  72.137  1.00  0.00    -0.389 C  
BRANCH   9  10
HETATM   10  C   UNL     1     -11.352   9.281  71.152  1.00  0.00    -0.342 A  
HETATM   11  C   UNL     1      -9.985   9.187  71.010  1.00  0.00    -0.367 A  
HETATM   12  C   UNL     1      -9.651   9.945  69.862  1.00  0.00    -0.265 A  
HETATM   13  C   UNL     1     -10.835  10.441  69.354  1.00  0.00    -0.248 A  
HETATM   14  O   UNL     1     -11.873  10.027  70.141  1.00  0.00    -0.238 OA 
BRANCH  13  15
HETATM   15  C   UNL     1     -11.195  11.273  68.214  1.00  0.00    -0.331 A  
HETATM   16  C   UNL     1     -10.886  10.882  66.904  1.00  0.00    -0.307 A  
HETATM   17  C   UNL     1     -11.228  11.695  65.790  1.00  0.00    -0.290 A  
HETATM   18  C   UNL     1     -11.887  12.915  66.005  1.00  0.00    -0.430 A  
HETATM   19  C   UNL     1     -12.187  13.293  67.299  1.00  0.00    -0.258 A  
HETATM   20  N   UNL     1     -12.233  13.752  65.028  1.00  0.00    -0.401 NA 
HETATM   21  C   UNL     1     -11.898  13.386  63.794  1.00  0.00    -0.431 A  
HETATM   22  C   UNL     1     -11.852  12.492  68.392  1.00  0.00    -0.353 A  
HETATM   23  N   UNL     1     -11.265  12.264  63.464  1.00  0.00    -0.451 NA 
HETATM   24  C   UNL     1     -10.935  11.407  64.441  1.00  0.00    -0.302 A  
BRANCH  24  25
HETATM   25  N   UNL     1     -10.198  10.229  64.122  1.00  0.00    -0.449 NA 
HETATM   26  H   UNL     1     -10.563   9.674  63.348  1.00  0.00     0.000 HD 
BRANCH  25  27
HETATM   27  C   UNL     1      -9.026   9.730  64.738  1.00  0.00    -0.225 A  
HETATM   28  C   UNL     1      -7.779  10.341  64.615  1.00  0.00    -0.114 A  
HETATM   29  C   UNL     1      -6.650   9.895  65.306  1.00  0.00    -0.105 A  
HETATM   30  C   UNL     1      -6.757   8.813  66.188  1.00  0.00    -0.073 A  
HETATM   31 CL   UNL     1      -5.201  10.761  64.919  1.00  0.00    -0.150 Cl 
HETATM   32  C   UNL     1      -7.989   8.145  66.269  1.00  0.00    -0.101 A  
HETATM   33  C   UNL     1      -9.108   8.594  65.549  1.00  0.00    -0.190 A  
BRANCH  30  34
HETATM   34  O   UNL     1      -5.794   8.279  67.009  1.00  0.00    -0.043 OA 
BRANCH  34  35
HETATM   35  C   UNL     1      -5.439   9.062  68.145  1.00  0.00    -0.038 C  
BRANCH  35  36
HETATM   36  C   UNL     1      -5.963   8.457  69.421  1.00  0.00    -0.037 A  
HETATM   37  C   UNL     1      -6.516   7.173  69.427  1.00  0.00    -0.036 A  
HETATM   38  C   UNL     1      -7.100   6.684  70.589  1.00  0.00    -0.069 A  
HETATM   39  C   UNL     1      -7.143   7.450  71.749  1.00  0.00    -0.063 A  
HETATM   40  F   UNL     1      -7.647   5.462  70.586  1.00  0.00    -0.071 F  
HETATM   41  C   UNL     1      -6.592   8.726  71.752  1.00  0.00    -0.074 A  
HETATM   42  C   UNL     1      -6.005   9.232  70.595  1.00  0.00    -0.052 A  
ENDBRANCH  35  36
ENDBRANCH  34  35
ENDBRANCH  30  34
ENDBRANCH  25  27
ENDBRANCH  24  25
ENDBRANCH  13  15
ENDBRANCH   9  10
ENDBRANCH   7   9
ENDBRANCH   6   7
ENDBRANCH   5   6
ENDBRANCH   2   5
TORSDOF 11
ENDMDL
MODEL      147
REMARK 921   NORMALIZED FREE ENERGY PREDICTED BY IDOCK:   -5.03 KCAL/MOL
REMARK 922        TOTAL FREE ENERGY PREDICTED BY IDOCK:  -11.01 KCAL/MOL
REMARK 923 INTER-LIGAND FREE ENERGY PREDICTED BY IDOCK:   -8.91 KCAL/MOL
REMARK 924 INTRA-LIGAND FREE ENERGY PREDICTED BY IDOCK:   -2.10 KCAL/MOL
REMARK 927      BINDING AFFINITY PREDICTED BY RF-SCORE:    0.00 PKD
ROOT
HETATM    1  C   UNL     1      -6.871  12.573  67.218  1.00  0.00    -0.114 C  
HETATM    2  S   UNL     1      -8.138  13.453  68.095  1.00  0.00    -0.163 S  
HETATM    3  O   UNL     1      -7.500  14.218  69.147  1.00  0.00    -0.123 OA 
HETATM    4  O   UNL     1      -9.205  12.516  68.384  1.00  0.00    -0.196 OA 
ENDROOT
BRANCH   2   5
HETATM    5  C   UNL     1      -8.721  14.590  66.857  1.00  0.00    -0.211 C  
BRANCH   5   6
HETATM    6  C   UNL     1      -8.921  13.897  65.517  1.00  0.00     1.137 C  
BRANCH   6   7
HETATM    7  N   UNL     1     -10.318  13.541  65.249  1.00  0.00    -0.323 NA 
HETATM    8  H   UNL     1     -10.873  14.375  65.053  1.00  0.00     0.000 HD 
BRANCH   7   9
HETATM    9  C   UNL     1     -10.472  12.554  64.179  1.00  0.00    -0.403 C  
BRANCH   9  10
HETATM   10  C   UNL     1      -9.982  11.224  64.627  1.00  0.00    -0.281 A  
HETATM   11  C   UNL     1      -9.339  10.189  63.984  1.00  0.00    -0.339 A  
HETATM   12  C   UNL     1      -9.134   9.183  64.958  1.00  0.00    -0.215 A  
HETATM   13  C   UNL     1      -9.643   9.669  66.146  1.00  0.00    -0.233 A  
HETATM   14  O   UNL     1     -10.154  10.919  65.941  1.00  0.00    -0.234 OA 
BRANCH  13  15
HETATM   15  C   UNL     1      -9.746   9.155  67.505  1.00  0.00    -0.204 A  
HETATM   16  C   UNL     1     -10.757   9.593  68.372  1.00  0.00    -0.251 A  
HETATM   17  C   UNL     1     -10.855   9.100  69.701  1.00  0.00    -0.210 A  
HETATM   18  C   UNL     1      -9.919   8.158  70.156  1.00  0.00    -0.187 A  
HETATM   19  C   UNL     1      -8.926   7.733  69.296  1.00  0.00    -0.139 A  
HETATM   20  N   UNL     1      -9.918   7.652  71.388  1.00  0.00    -0.181 NA 
HETATM   21  C   UNL     1     -10.859   8.105  72.212  1.00  0.00    -0.320 A  
HETATM   22  C   UNL     1      -8.833   8.217  67.990  1.00  0.00    -0.135 A  
HETATM   23  N   UNL     1     -11.792   9.003  71.903  1.00  0.00    -0.365 NA 
HETATM   24  C   UNL     1     -11.812   9.499  70.657  1.00  0.00    -0.233 A  
BRANCH  24  25
HETATM   25  N   UNL     1     -12.758  10.510  70.320  1.00  0.00    -0.484 NA 
HETATM   26  H   UNL     1     -13.699  10.181  70.102  1.00  0.00     0.000 HD 
BRANCH  25  27
HETATM   27  C   UNL     1     -12.564  11.909  70.247  1.00  0.00    -0.015 A  
HETATM   28  C   UNL     1     -12.576  12.740  71.366  1.00  0.00    -0.308 A  
HETATM   29  C   UNL     1     -12.285  14.105  71.293  1.00  0.00    -0.339 A  
HETATM   30  C   UNL     1     -11.935  14.678  70.065  1.00  0.00    -0.320 A  
HETATM   31 CL   UNL     1     -12.454  14.940  72.802  1.00  0.00    -0.439 Cl 
HETATM   32  C   UNL     1     -11.985  13.868  68.920  1.00  0.00    -0.393 A  
HETATM   33  C   UNL     1     -12.301  12.502  69.009  1.00  0.00     0.167 A  
BRANCH  30  34
HETATM   34  O   UNL     1     -11.543  15.967  69.802  1.00  0.00    -0.323 OA 
BRANCH  34  35
HETATM   35  C   UNL     1     -10.139  16.185  69.697  1.00  0.00    -0.212 C  
BRANCH  35  36
HETATM   36  C   UNL     1      -9.827  17.394  68.856  1.00  0.00    -0.286 A  
HETATM   37  C   UNL     1      -8.649  18.119  69.061  1.00  0.00    -0.021 A  
HETATM   38  C   UNL     1      -8.439  19.298  68.355  1.00  0.00    -0.351 A  
HETATM   39  C   UNL     1      -9.381  19.769  67.446  1.00  0.00    -0.444 A  
HETATM   40  F   UNL     1      -7.320  20.002  68.568  1.00  0.00    -0.338 F  
HETATM   41  C   UNL     1     -10.552  19.051  67.235  1.00  0.00    -0.554 A  
HETATM   42  C   UNL     1     -10.778  17.869  67.935  1.00  0.00    -0.328 A  
ENDBRANCH  35  36
ENDBRANCH  34  35
ENDBRANCH  30  34
ENDBRANCH  25  27
ENDBRANCH  24  25
ENDBRANCH  13  15
ENDBRANCH   9  10
ENDBRANCH   7   9
ENDBRANCH   6   7
ENDBRANCH   5   6
ENDBRANCH   2   5
TORSDOF 11
ENDMDL
MODEL      148
REMARK 921   NORMALIZED FREE ENERGY PREDICTED BY IDOCK:   -5.01 KCAL/MOL
REMARK 922        TOTAL FREE ENERGY PREDICTED BY IDOCK:  -10.97 KCAL/MOL
REMARK 923 INTER-LIGAND FREE ENERGY PREDICTED BY IDOCK:   -9.85 KCAL/MOL
REMARK 924 INTRA-LIGAND FREE ENERGY PREDICTED BY IDOCK:   -1.12 KCAL/MOL
REMARK 927      BINDING AFFINITY PREDICTED BY RF-SCORE:    0.00 PKD
ROOT
HETATM    1  C   UNL     1      -9.734  18.669  67.958  1.00  0.00    -0.321 C  
HETATM    2  S   UNL     1      -9.643  20.008  66.799  1.00  0.00    -0.438 S  
HETATM    3  O   UNL     1      -9.858  21.242  67.528  1.00  0.00    -0.215 OA 
HETATM    4  O   UNL     1     -10.458  19.657  65.654  1.00  0.00    -0.464 OA 
ENDROOT
BRANCH   2   5
HETATM    5  C   UNL     1      -7.936  19.948  66.301  1.00  0.00    -0.327 C  
BRANCH   5   6
HETATM    6  C   UNL     1      -7.335  18.572  66.544  1.00  0.00    -0.232 C  
BRANCH   6   7
HETATM    7  N   UNL     1      -6.305  18.563  67.589  1.00  0.00    -0.197 NA 
HETATM    8  H   UNL     1      -6.659  18.982  68.449  1.00  0.00     0.000 HD 
BRANCH   7   9
HETATM    9  C   UNL     1      -5.750  17.234  67.849  1.00  0.00    -0.117 C  
BRANCH   9  10
HETATM   10  C   UNL     1      -6.838  16.266  68.143  1.00  0.00    -0.128 A  
HETATM   11  C   UNL     1      -7.211  15.578  69.276  1.00  0.00    -0.196 A  
HETATM   12  C   UNL     1      -8.340  14.804  68.918  1.00  0.00    -0.163 A  
HETATM   13  C   UNL     1      -8.609  15.080  67.593  1.00  0.00    -0.171 A  
HETATM   14  O   UNL     1      -7.693  15.980  67.124  1.00  0.00    -0.165 OA 
BRANCH  13  15
HETATM   15  C   UNL     1      -9.612  14.636  66.634  1.00  0.00    -0.294 A  
HETATM   16  C   UNL     1      -9.584  13.341  66.101  1.00  0.00    -0.211 A  
HETATM   17  C   UNL     1     -10.556  12.908  65.159  1.00  0.00    -0.321 A  
HETATM   18  C   UNL     1     -11.563  13.796  64.753  1.00  0.00    -0.362 A  
HETATM   19  C   UNL     1     -11.583  15.071  65.283  1.00  0.00    -0.258 A  
HETATM   20  N   UNL     1     -12.507  13.490  63.864  1.00  0.00    -0.705 NA 
HETATM   21  C   UNL     1     -12.444  12.270  63.337  1.00  0.00    -0.481 A  
HETATM   22  C   UNL     1     -10.628  15.494  66.209  1.00  0.00    -0.310 A  
HETATM   23  N   UNL     1     -11.534  11.345  63.631  1.00  0.00    -0.283 NA 
HETATM   24  C   UNL     1     -10.595  11.640  64.542  1.00  0.00    -0.318 A  
BRANCH  24  25
HETATM   25  N   UNL     1      -9.570  10.692  64.826  1.00  0.00    -0.253 NA 
HETATM   26  H   UNL     1      -8.859  10.578  64.104  1.00  0.00     0.000 HD 
BRANCH  25  27
HETATM   27  C   UNL     1      -9.410   9.888  65.979  1.00  0.00    -0.188 A  
HETATM   28  C   UNL     1     -10.272   8.842  66.306  1.00  0.00    -0.203 A  
HETATM   29  C   UNL     1     -10.048   7.993  67.393  1.00  0.00    -0.228 A  
HETATM   30  C   UNL     1      -8.903   8.159  68.181  1.00  0.00    -0.132 A  
HETATM   31 CL   UNL     1     -11.306   6.829  67.646  1.00  0.00    -0.197 Cl 
HETATM   32  C   UNL     1      -8.064   9.250  67.906  1.00  0.00    -0.104 A  
HETATM   33  C   UNL     1      -8.316  10.106  66.822  1.00  0.00    -0.122 A  
BRANCH  30  34
HETATM   34  O   UNL     1      -8.468   7.390  69.232  1.00  0.00    -0.134 OA 
BRANCH  34  35
HETATM   35  C   UNL     1      -9.324   7.348  70.371  1.00  0.00    -0.161 C  
BRANCH  35  36
HETATM   36  C   UNL     1      -9.606   5.932  70.800  1.00  0.00    -0.203 A  
HETATM   37  C   UNL     1     -10.026   5.653  72.104  1.00  0.00    -0.214 A  
HETATM   38  C   UNL     1     -10.165   4.331  72.510  1.00  0.00    -0.174 A  
HETATM   39  C   UNL     1      -9.895   3.279  71.641  1.00  0.00    -0.220 A  
HETATM   40  F   UNL     1     -10.547   4.066  73.766  1.00  0.00    -0.188 F  
HETATM   41  C   UNL     1      -9.481   3.549  70.342  1.00  0.00    -0.254 A  
HETATM   42  C   UNL     1      -9.335   4.868  69.920  1.00  0.00    -0.204 A  
ENDBRANCH  35  36
ENDBRANCH  34  35
ENDBRANCH  30  34
ENDBRANCH  25  27
ENDBRANCH  24  25
ENDBRANCH  13  15
ENDBRANCH   9  10
ENDBRANCH   7   9
ENDBRANCH   6   7
ENDBRANCH   5   6
ENDBRANCH   2   5
TORSDOF 11
ENDMDL
MODEL      149
REMARK 921   NORMALIZED FREE ENERGY PREDICTED BY IDOCK:   -5.01 KCAL/MOL
REMARK 922        TOTAL FREE ENERGY PREDICTED BY IDOCK:  -10.97 KCAL/MOL
REMARK 923 INTER-LIGAND FREE ENERGY PREDICTED BY IDOCK:   -9.45 KCAL/MOL
REMARK 924 INTRA-LIGAND FREE ENERGY PREDICTED BY IDOCK:   -1.53 KCAL/MOL
REMARK 927      BINDING AFFINITY PREDICTED BY RF-SCORE:    0.00 PKD
ROOT
HETATM    1  C   UNL     1      -8.752  16.705  66.043  1.00  0.00    -0.204 C  
HETATM    2  S   UNL     1     -10.521  16.823  66.093  1.00  0.00    -0.231 S  
HETATM    3  O   UNL     1     -10.964  17.393  64.836  1.00  0.00    -0.862 OA 
HETATM    4  O   UNL     1     -10.887  17.419  67.362  1.00  0.00    -0.290 OA 
ENDROOT
BRANCH   2   5
HETATM    5  C   UNL     1     -11.004  15.111  66.127  1.00  0.00    -0.331 C  
BRANCH   5   6
HETATM    6  C   UNL     1     -12.023  14.800  65.040  1.00  0.00    -0.318 C  
BRANCH   6   7
HETATM    7  N   UNL     1     -12.316  13.369  64.911  1.00  0.00    -0.461 NA 
HETATM    8  H   UNL     1     -12.249  13.072  63.937  1.00  0.00     0.000 HD 
BRANCH   7   9
HETATM    9  C   UNL     1     -11.484  12.524  65.769  1.00  0.00    -0.365 C  
BRANCH   9  10
HETATM   10  C   UNL     1     -10.676  11.586  64.946  1.00  0.00    -0.297 A  
HETATM   11  C   UNL     1     -10.304  11.572  63.620  1.00  0.00    -0.467 A  
HETATM   12  C   UNL     1      -9.527  10.404  63.437  1.00  0.00    -0.356 A  
HETATM   13  C   UNL     1      -9.449   9.781  64.667  1.00  0.00    -0.229 A  
HETATM   14  O   UNL     1     -10.147  10.510  65.588  1.00  0.00    -0.250 OA 
BRANCH  13  15
HETATM   15  C   UNL     1      -8.813   8.569  65.166  1.00  0.00    -0.116 A  
HETATM   16  C   UNL     1      -8.494   8.422  66.523  1.00  0.00    -0.116 A  
HETATM   17  C   UNL     1      -7.865   7.246  67.011  1.00  0.00    -0.112 A  
HETATM   18  C   UNL     1      -7.555   6.210  66.117  1.00  0.00    -0.090 A  
HETATM   19  C   UNL     1      -7.871   6.363  64.781  1.00  0.00    -0.111 A  
HETATM   20  N   UNL     1      -6.951   5.078  66.475  1.00  0.00    -0.066 NA 
HETATM   21  C   UNL     1      -6.619   4.969  67.759  1.00  0.00    -0.050 A  
HETATM   22  C   UNL     1      -8.491   7.519  64.304  1.00  0.00     0.211 A  
HETATM   23  N   UNL     1      -6.848   5.883  68.698  1.00  0.00    -0.064 NA 
HETATM   24  C   UNL     1      -7.476   7.015  68.347  1.00  0.00    -0.102 A  
BRANCH  24  25
HETATM   25  N   UNL     1      -7.675   8.038  69.319  1.00  0.00    -0.100 NA 
HETATM   26  H   UNL     1      -7.042   8.018  70.119  1.00  0.00     0.000 HD 
BRANCH  25  27
HETATM   27  C   UNL     1      -8.634   9.077  69.321  1.00  0.00    -0.136 A  
HETATM   28  C   UNL     1      -8.344  10.384  68.932  1.00  0.00    -0.138 A  
HETATM   29  C   UNL     1      -9.322  11.379  68.844  1.00  0.00    -0.032 A  
HETATM   30  C   UNL     1     -10.658  11.067  69.121  1.00  0.00    -0.219 A  
HETATM   31 CL   UNL     1      -8.700  12.941  68.428  1.00  0.00    -0.158 Cl 
HETATM   32  C   UNL     1     -10.954   9.774  69.579  1.00  0.00    -0.256 A  
HETATM   33  C   UNL     1      -9.954   8.793  69.682  1.00  0.00    -0.191 A  
BRANCH  30  34
HETATM   34  O   UNL     1     -11.765  11.873  69.016  1.00  0.00    -0.284 OA 
BRANCH  34  35
HETATM   35  C   UNL     1     -12.491  12.095  70.222  1.00  0.00    -0.087 C  
BRANCH  35  36
HETATM   36  C   UNL     1     -12.499  13.552  70.604  1.00  0.00    -0.405 A  
HETATM   37  C   UNL     1     -11.530  14.426  70.103  1.00  0.00    -0.280 A  
HETATM   38  C   UNL     1     -11.487  15.737  70.562  1.00  0.00    -0.381 A  
HETATM   39  C   UNL     1     -12.392  16.196  71.513  1.00  0.00    -0.288 A  
HETATM   40  F   UNL     1     -10.544  16.566  70.096  1.00  0.00    -0.289 F  
HETATM   41  C   UNL     1     -13.361  15.334  72.013  1.00  0.00    -0.522 A  
HETATM   42  C   UNL     1     -13.417  14.017  71.564  1.00  0.00    -0.404 A  
ENDBRANCH  35  36
ENDBRANCH  34  35
ENDBRANCH  30  34
ENDBRANCH  25  27
ENDBRANCH  24  25
ENDBRANCH  13  15
ENDBRANCH   9  10
ENDBRANCH   7   9
ENDBRANCH   6   7
ENDBRANCH   5   6
ENDBRANCH   2   5
TORSDOF 11
ENDMDL
MODEL      150
REMARK 921   NORMALIZED FREE ENERGY PREDICTED BY IDOCK:   -4.97 KCAL/MOL
REMARK 922        TOTAL FREE ENERGY PREDICTED BY IDOCK:  -10.91 KCAL/MOL
REMARK 923 INTER-LIGAND FREE ENERGY PREDICTED BY IDOCK:   -8.70 KCAL/MOL
REMARK 924 INTRA-LIGAND FREE ENERGY PREDICTED BY IDOCK:   -2.22 KCAL/MOL
REMARK 927      BINDING AFFINITY PREDICTED BY RF-SCORE:    0.00 PKD
ROOT
HETATM    1  C   UNL     1     -13.130  10.090  71.864  1.00  0.00    -0.460 C  
HETATM    2  S   UNL     1     -11.766   9.230  71.126  1.00  0.00    -0.349 S  
HETATM    3  O   UNL     1     -10.724   9.108  72.126  1.00  0.00    -0.288 OA 
HETATM    4  O   UNL     1     -11.506   9.839  69.837  1.00  0.00    -0.222 OA 
ENDROOT
BRANCH   2   5
HETATM    5  C   UNL     1     -12.457   7.615  70.845  1.00  0.00    -0.094 C  
BRANCH   5   6
HETATM    6  C   UNL     1     -12.166   6.676  72.006  1.00  0.00    -0.293 C  
BRANCH   6   7
HETATM    7  N   UNL     1     -10.754   6.290  72.101  1.00  0.00    -0.223 NA 
HETATM    8  H   UNL     1     -10.238   6.947  72.688  1.00  0.00     0.000 HD 
BRANCH   7   9
HETATM    9  C   UNL     1     -10.556   4.916  72.563  1.00  0.00    -0.210 C  
BRANCH   9  10
HETATM   10  C   UNL     1      -9.999   4.076  71.470  1.00  0.00    -0.150 A  
HETATM   11  C   UNL     1      -9.614   2.756  71.395  1.00  0.00    -0.223 A  
HETATM   12  C   UNL     1      -9.163   2.548  70.070  1.00  0.00    -0.195 A  
HETATM   13  C   UNL     1      -9.319   3.747  69.403  1.00  0.00    -0.175 A  
HETATM   14  O   UNL     1      -9.837   4.677  70.260  1.00  0.00    -0.208 OA 
BRANCH  13  15
HETATM   15  C   UNL     1      -9.061   4.209  68.046  1.00  0.00    -0.172 A  
HETATM   16  C   UNL     1      -8.692   5.536  67.788  1.00  0.00    -0.106 A  
HETATM   17  C   UNL     1      -8.448   5.992  66.464  1.00  0.00    -0.115 A  
HETATM   18  C   UNL     1      -8.581   5.096  65.393  1.00  0.00    -0.146 A  
HETATM   19  C   UNL     1      -8.945   3.790  65.655  1.00  0.00    -0.136 A  
HETATM   20  N   UNL     1      -8.390   5.432  64.118  1.00  0.00    -0.134 NA 
HETATM   21  C   UNL     1      -8.079   6.704  63.886  1.00  0.00    -0.012 A  
HETATM   22  C   UNL     1      -9.183   3.344  66.957  1.00  0.00    -0.208 A  
HETATM   23  N   UNL     1      -7.936   7.648  64.812  1.00  0.00    -0.135 NA 
HETATM   24  C   UNL     1      -8.104   7.310  66.099  1.00  0.00    -0.121 A  
BRANCH  24  25
HETATM   25  N   UNL     1      -8.022   8.316  67.105  1.00  0.00    -0.104 NA 
HETATM   26  H   UNL     1      -7.383   8.120  67.876  1.00  0.00     0.000 HD 
BRANCH  25  27
HETATM   27  C   UNL     1      -8.710   9.550  67.175  1.00  0.00    -0.132 A  
HETATM   28  C   UNL     1      -8.117  10.730  67.619  1.00  0.00    -0.114 A  
HETATM   29  C   UNL     1      -8.777  11.962  67.591  1.00  0.00    -0.162 A  
HETATM   30  C   UNL     1     -10.074  12.044  67.072  1.00  0.00    -0.203 A  
HETATM   31 CL   UNL     1      -7.864  13.264  68.279  1.00  0.00    -0.136 Cl 
HETATM   32  C   UNL     1     -10.708  10.853  66.686  1.00  0.00    -0.289 A  
HETATM   33  C   UNL     1     -10.037   9.621  66.741  1.00  0.00    -0.301 A  
BRANCH  30  34
HETATM   34  O   UNL     1     -10.853  13.160  66.887  1.00  0.00    -0.262 OA 
BRANCH  34  35
HETATM   35  C   UNL     1     -10.408  14.073  65.888  1.00  0.00    -0.318 C  
BRANCH  35  36
HETATM   36  C   UNL     1     -10.332  15.481  66.419  1.00  0.00    -0.303 A  
HETATM   37  C   UNL     1     -10.363  15.727  67.794  1.00  0.00    -0.275 A  
HETATM   38  C   UNL     1     -10.411  17.037  68.255  1.00  0.00    -0.363 A  
HETATM   39  C   UNL     1     -10.428  18.110  67.370  1.00  0.00    -0.414 A  
HETATM   40  F   UNL     1     -10.462  17.269  69.573  1.00  0.00    -0.321 F  
HETATM   41  C   UNL     1     -10.393  17.874  66.001  1.00  0.00    -0.318 A  
HETATM   42  C   UNL     1     -10.347  16.566  65.523  1.00  0.00    -0.307 A  
ENDBRANCH  35  36
ENDBRANCH  34  35
ENDBRANCH  30  34
ENDBRANCH  25  27
ENDBRANCH  24  25
ENDBRANCH  13  15
ENDBRANCH   9  10
ENDBRANCH   7   9
ENDBRANCH   6   7
ENDBRANCH   5   6
ENDBRANCH   2   5
TORSDOF 11
ENDMDL
MODEL      151
REMARK 921   NORMALIZED FREE ENERGY PREDICTED BY IDOCK:   -4.97 KCAL/MOL
REMARK 922        TOTAL FREE ENERGY PREDICTED BY IDOCK:  -10.91 KCAL/MOL
REMARK 923 INTER-LIGAND FREE ENERGY PREDICTED BY IDOCK:   -9.48 KCAL/MOL
REMARK 924 INTRA-LIGAND FREE ENERGY PREDICTED BY IDOCK:   -1.43 KCAL/MOL
REMARK 927      BINDING AFFINITY PREDICTED BY RF-SCORE:    0.00 PKD
ROOT
HETATM    1  C   UNL     1     -12.045  15.448  73.793  1.00  0.00    -0.521 C  
HETATM    2  S   UNL     1     -13.337  15.549  72.582  1.00  0.00    -0.571 S  
HETATM    3  O   UNL     1     -12.729  15.882  71.310  1.00  0.00    -0.467 OA 
HETATM    4  O   UNL     1     -14.404  16.353  73.141  1.00  0.00    -0.103 OA 
ENDROOT
BRANCH   2   5
HETATM    5  C   UNL     1     -13.900  13.863  72.503  1.00  0.00    -0.515 C  
BRANCH   5   6
HETATM    6  C   UNL     1     -12.805  12.935  71.996  1.00  0.00    -0.174 C  
BRANCH   6   7
HETATM    7  N   UNL     1     -13.273  11.983  70.983  1.00  0.00     0.084 NA 
HETATM    8  H   UNL     1     -13.614  12.473  70.156  1.00  0.00     0.000 HD 
BRANCH   7   9
HETATM    9  C   UNL     1     -12.269  10.983  70.616  1.00  0.00    -0.385 C  
BRANCH   9  10
HETATM   10  C   UNL     1     -12.674   9.639  71.103  1.00  0.00    -0.320 A  
HETATM   11  C   UNL     1     -13.856   9.126  71.590  1.00  0.00    -0.396 A  
HETATM   12  C   UNL     1     -13.607   7.766  71.889  1.00  0.00    -0.333 A  
HETATM   13  C   UNL     1     -12.293   7.517  71.547  1.00  0.00    -0.339 A  
HETATM   14  O   UNL     1     -11.728   8.662  71.060  1.00  0.00    -0.281 OA 
BRANCH  13  15
HETATM   15  C   UNL     1     -11.423   6.349  71.593  1.00  0.00    -0.354 A  
HETATM   16  C   UNL     1     -10.503   6.088  70.568  1.00  0.00    -0.303 A  
HETATM   17  C   UNL     1      -9.659   4.945  70.605  1.00  0.00    -0.254 A  
HETATM   18  C   UNL     1      -9.750   4.059  71.689  1.00  0.00    -0.172 A  
HETATM   19  C   UNL     1     -10.660   4.323  72.694  1.00  0.00    -0.215 A  
HETATM   20  N   UNL     1      -9.015   2.954  71.806  1.00  0.00    -0.079 NA 
HETATM   21  C   UNL     1      -8.175   2.699  70.807  1.00  0.00    -0.049 A  
HETATM   22  C   UNL     1     -11.486   5.447  72.656  1.00  0.00    -0.305 A  
HETATM   23  N   UNL     1      -8.006   3.453  69.724  1.00  0.00    -0.049 NA 
HETATM   24  C   UNL     1      -8.727   4.579  69.613  1.00  0.00    -0.081 A  
BRANCH  24  25
HETATM   25  N   UNL     1      -8.614   5.370  68.433  1.00  0.00    -0.096 NA 
HETATM   26  H   UNL     1      -8.545   4.853  67.557  1.00  0.00     0.000 HD 
BRANCH  25  27
HETATM   27  C   UNL     1      -8.586   6.780  68.318  1.00  0.00    -0.124 A  
HETATM   28  C   UNL     1      -7.494   7.556  68.704  1.00  0.00    -0.101 A  
HETATM   29  C   UNL     1      -7.439   8.936  68.495  1.00  0.00    -0.085 A  
HETATM   30  C   UNL     1      -8.496   9.584  67.846  1.00  0.00    -0.119 A  
HETATM   31 CL   UNL     1      -6.019   9.689  69.143  1.00  0.00    -0.035 Cl 
HETATM   32  C   UNL     1      -9.630   8.828  67.514  1.00  0.00    -0.192 A  
HETATM   33  C   UNL     1      -9.677   7.445  67.751  1.00  0.00    -0.171 A  
BRANCH  30  34
HETATM   34  O   UNL     1      -8.596  10.904  67.481  1.00  0.00    -0.126 OA 
BRANCH  34  35
HETATM   35  C   UNL     1      -9.531  11.197  66.447  1.00  0.00    -0.193 C  
BRANCH  35  36
HETATM   36  C   UNL     1     -10.136  12.566  66.617  1.00  0.00    -0.241 A  
HETATM   37  C   UNL     1     -10.493  13.330  65.503  1.00  0.00    -0.295 A  
HETATM   38  C   UNL     1     -10.938  14.635  65.681  1.00  0.00    -0.335 A  
HETATM   39  C   UNL     1     -11.034  15.194  66.951  1.00  0.00    -0.323 A  
HETATM   40  F   UNL     1     -11.259  15.372  64.611  1.00  0.00    -0.381 F  
HETATM   41  C   UNL     1     -10.685  14.438  68.064  1.00  0.00    -0.244 A  
HETATM   42  C   UNL     1     -10.236  13.130  67.902  1.00  0.00    -0.233 A  
ENDBRANCH  35  36
ENDBRANCH  34  35
ENDBRANCH  30  34
ENDBRANCH  25  27
ENDBRANCH  24  25
ENDBRANCH  13  15
ENDBRANCH   9  10
ENDBRANCH   7   9
ENDBRANCH   6   7
ENDBRANCH   5   6
ENDBRANCH   2   5
TORSDOF 11
ENDMDL
MODEL      152
REMARK 921   NORMALIZED FREE ENERGY PREDICTED BY IDOCK:   -4.96 KCAL/MOL
REMARK 922        TOTAL FREE ENERGY PREDICTED BY IDOCK:  -10.90 KCAL/MOL
REMARK 923 INTER-LIGAND FREE ENERGY PREDICTED BY IDOCK:   -8.16 KCAL/MOL
REMARK 924 INTRA-LIGAND FREE ENERGY PREDICTED BY IDOCK:   -2.73 KCAL/MOL
REMARK 927      BINDING AFFINITY PREDICTED BY RF-SCORE:    0.00 PKD
ROOT
HETATM    1  C   UNL     1     -11.789  15.334  72.434  1.00  0.00    -0.434 C  
HETATM    2  S   UNL     1     -12.840  14.604  71.205  1.00  0.00    -0.360 S  
HETATM    3  O   UNL     1     -13.927  15.527  70.945  1.00  0.00    -0.489 OA 
HETATM    4  O   UNL     1     -13.094  13.233  71.600  1.00  0.00    -0.376 OA 
ENDROOT
BRANCH   2   5
HETATM    5  C   UNL     1     -11.778  14.580  69.779  1.00  0.00    -0.303 C  
BRANCH   5   6
HETATM    6  C   UNL     1     -12.009  13.335  68.935  1.00  0.00    -0.297 C  
BRANCH   6   7
HETATM    7  N   UNL     1     -11.242  12.171  69.392  1.00  0.00    -0.412 NA 
HETATM    8  H   UNL     1     -11.853  11.364  69.523  1.00  0.00     0.000 HD 
BRANCH   7   9
HETATM    9  C   UNL     1     -10.118  11.835  68.517  1.00  0.00    -0.207 C  
BRANCH   9  10
HETATM   10  C   UNL     1      -9.291  10.761  69.126  1.00  0.00    -0.125 A  
HETATM   11  C   UNL     1      -7.975  10.383  68.977  1.00  0.00    -0.131 A  
HETATM   12  C   UNL     1      -7.779   9.277  69.838  1.00  0.00    -0.101 A  
HETATM   13  C   UNL     1      -8.980   9.056  70.482  1.00  0.00    -0.213 A  
HETATM   14  O   UNL     1      -9.900   9.969  70.050  1.00  0.00    -0.241 OA 
BRANCH  13  15
HETATM   15  C   UNL     1      -9.452   8.101  71.476  1.00  0.00    -0.222 A  
HETATM   16  C   UNL     1      -8.936   6.799  71.535  1.00  0.00    -0.137 A  
HETATM   17  C   UNL     1      -9.401   5.862  72.497  1.00  0.00    -0.146 A  
HETATM   18  C   UNL     1     -10.397   6.248  73.407  1.00  0.00    -0.242 A  
HETATM   19  C   UNL     1     -10.900   7.533  73.342  1.00  0.00    -0.339 A  
HETATM   20  N   UNL     1     -10.908   5.438  74.333  1.00  0.00    -0.173 NA 
HETATM   21  C   UNL     1     -10.437   4.195  74.351  1.00  0.00    -0.235 A  
HETATM   22  C   UNL     1     -10.441   8.452  72.397  1.00  0.00    -0.402 A  
HETATM   23  N   UNL     1      -9.504   3.707  73.536  1.00  0.00    -0.103 NA 
HETATM   24  C   UNL     1      -8.970   4.525  72.617  1.00  0.00    -0.119 A  
BRANCH  24  25
HETATM   25  N   UNL     1      -8.018   4.011  71.690  1.00  0.00    -0.072 NA 
HETATM   26  H   UNL     1      -7.202   3.556  72.098  1.00  0.00     0.000 HD 
BRANCH  25  27
HETATM   27  C   UNL     1      -8.056   4.049  70.276  1.00  0.00    -0.054 A  
HETATM   28  C   UNL     1      -6.988   4.487  69.495  1.00  0.00    -0.050 A  
HETATM   29  C   UNL     1      -7.002   4.428  68.099  1.00  0.00    -0.056 A  
HETATM   30  C   UNL     1      -8.107   3.883  67.436  1.00  0.00    -0.091 A  
HETATM   31 CL   UNL     1      -5.596   5.115  67.353  1.00  0.00    -0.012 Cl 
HETATM   32  C   UNL     1      -9.217   3.502  68.206  1.00  0.00    -0.225 A  
HETATM   33  C   UNL     1      -9.194   3.588  69.607  1.00  0.00    -0.223 A  
BRANCH  30  34
HETATM   34  O   UNL     1      -8.278   3.666  66.091  1.00  0.00    -0.099 OA 
BRANCH  34  35
HETATM   35  C   UNL     1      -9.311   4.420  65.463  1.00  0.00    -0.162 C  
BRANCH  35  36
HETATM   36  C   UNL     1      -9.157   5.896  65.722  1.00  0.00    -0.101 A  
HETATM   37  C   UNL     1     -10.116   6.593  66.463  1.00  0.00    -0.140 A  
HETATM   38  C   UNL     1     -10.015   7.973  66.588  1.00  0.00    -0.256 A  
HETATM   39  C   UNL     1      -8.974   8.675  65.989  1.00  0.00    -0.227 A  
HETATM   40  F   UNL     1     -10.946   8.641  67.280  1.00  0.00    -0.333 F  
HETATM   41  C   UNL     1      -8.015   7.988  65.254  1.00  0.00    -0.124 A  
HETATM   42  C   UNL     1      -8.103   6.605  65.118  1.00  0.00    -0.133 A  
ENDBRANCH  35  36
ENDBRANCH  34  35
ENDBRANCH  30  34
ENDBRANCH  25  27
ENDBRANCH  24  25
ENDBRANCH  13  15
ENDBRANCH   9  10
ENDBRANCH   7   9
ENDBRANCH   6   7
ENDBRANCH   5   6
ENDBRANCH   2   5
TORSDOF 11
ENDMDL
MODEL      153
REMARK 921   NORMALIZED FREE ENERGY PREDICTED BY IDOCK:   -4.95 KCAL/MOL
REMARK 922        TOTAL FREE ENERGY PREDICTED BY IDOCK:  -10.88 KCAL/MOL
REMARK 923 INTER-LIGAND FREE ENERGY PREDICTED BY IDOCK:   -8.55 KCAL/MOL
REMARK 924 INTRA-LIGAND FREE ENERGY PREDICTED BY IDOCK:   -2.33 KCAL/MOL
REMARK 927      BINDING AFFINITY PREDICTED BY RF-SCORE:    0.00 PKD
ROOT
HETATM    1  C   UNL     1     -12.819   9.164  72.430  1.00  0.00    -0.367 C  
HETATM    2  S   UNL     1     -11.447   8.945  71.327  1.00  0.00    -0.324 S  
HETATM    3  O   UNL     1     -10.234   8.963  72.118  1.00  0.00    -0.321 OA 
HETATM    4  O   UNL     1     -11.631   9.849  70.210  1.00  0.00    -0.254 OA 
ENDROOT
BRANCH   2   5
HETATM    5  C   UNL     1     -11.705   7.285  70.742  1.00  0.00    -0.299 C  
BRANCH   5   6
HETATM    6  C   UNL     1     -11.643   6.279  71.882  1.00  0.00    -0.317 C  
BRANCH   6   7
HETATM    7  N   UNL     1     -10.274   5.965  72.307  1.00  0.00    -0.186 NA 
HETATM    8  H   UNL     1      -9.854   6.759  72.790  1.00  0.00     0.000 HD 
BRANCH   7   9
HETATM    9  C   UNL     1     -10.181   4.753  73.122  1.00  0.00    -0.169 C  
BRANCH   9  10
HETATM   10  C   UNL     1      -9.927   3.568  72.262  1.00  0.00    -0.166 A  
HETATM   11  C   UNL     1      -9.953   2.210  72.493  1.00  0.00    -0.208 A  
HETATM   12  C   UNL     1      -9.618   1.592  71.265  1.00  0.00    -0.200 A  
HETATM   13  C   UNL     1      -9.429   2.605  70.347  1.00  0.00    -0.115 A  
HETATM   14  O   UNL     1      -9.625   3.812  70.959  1.00  0.00    -0.157 OA 
BRANCH  13  15
HETATM   15  C   UNL     1      -9.080   2.659  68.934  1.00  0.00    -0.200 A  
HETATM   16  C   UNL     1      -8.402   3.761  68.394  1.00  0.00    -0.098 A  
HETATM   17  C   UNL     1      -8.068   3.820  67.014  1.00  0.00    -0.095 A  
HETATM   18  C   UNL     1      -8.427   2.755  66.174  1.00  0.00    -0.106 A  
HETATM   19  C   UNL     1      -9.095   1.674  66.713  1.00  0.00    -0.074 A  
HETATM   20  N   UNL     1      -8.174   2.726  64.866  1.00  0.00    -0.086 NA 
HETATM   21  C   UNL     1      -7.564   3.795  64.361  1.00  0.00    -0.079 A  
HETATM   22  C   UNL     1      -9.421   1.617  68.069  1.00  0.00    -0.192 A  
HETATM   23  N   UNL     1      -7.186   4.869  65.051  1.00  0.00    -0.063 NA 
HETATM   24  C   UNL     1      -7.418   4.893  66.371  1.00  0.00    -0.087 A  
BRANCH  24  25
HETATM   25  N   UNL     1      -7.082   6.058  67.121  1.00  0.00    -0.069 NA 
HETATM   26  H   UNL     1      -6.173   6.041  67.583  1.00  0.00     0.000 HD 
BRANCH  25  27
HETATM   27  C   UNL     1      -7.845   7.234  67.309  1.00  0.00    -0.111 A  
HETATM   28  C   UNL     1      -7.585   8.160  68.318  1.00  0.00    -0.102 A  
HETATM   29  C   UNL     1      -8.283   9.365  68.433  1.00  0.00    -0.117 A  
HETATM   30  C   UNL     1      -9.265   9.693  67.491  1.00  0.00    -0.133 A  
HETATM   31 CL   UNL     1      -7.839  10.304  69.819  1.00  0.00    -0.170 Cl 
HETATM   32  C   UNL     1      -9.585   8.741  66.511  1.00  0.00    -0.302 A  
HETATM   33  C   UNL     1      -8.888   7.525  66.424  1.00  0.00    -0.178 A  
BRANCH  30  34
HETATM   34  O   UNL     1      -9.998  10.849  67.385  1.00  0.00    -0.180 OA 
BRANCH  34  35
HETATM   35  C   UNL     1      -9.385  11.914  66.664  1.00  0.00    -0.205 C  
BRANCH  35  36
HETATM   36  C   UNL     1     -10.403  12.738  65.920  1.00  0.00    -0.298 A  
HETATM   37  C   UNL     1     -10.145  14.076  65.607  1.00  0.00    -0.342 A  
HETATM   38  C   UNL     1     -11.145  14.848  65.026  1.00  0.00    -0.414 A  
HETATM   39  C   UNL     1     -12.398  14.312  64.749  1.00  0.00    -0.440 A  
HETATM   40  F   UNL     1     -10.903  16.135  64.748  1.00  0.00    -0.425 F  
HETATM   41  C   UNL     1     -12.659  12.981  65.053  1.00  0.00    -0.515 A  
HETATM   42  C   UNL     1     -11.669  12.195  65.637  1.00  0.00    -0.385 A  
ENDBRANCH  35  36
ENDBRANCH  34  35
ENDBRANCH  30  34
ENDBRANCH  25  27
ENDBRANCH  24  25
ENDBRANCH  13  15
ENDBRANCH   9  10
ENDBRANCH   7   9
ENDBRANCH   6   7
ENDBRANCH   5   6
ENDBRANCH   2   5
TORSDOF 11
ENDMDL
MODEL      154
REMARK 921   NORMALIZED FREE ENERGY PREDICTED BY IDOCK:   -4.95 KCAL/MOL
REMARK 922        TOTAL FREE ENERGY PREDICTED BY IDOCK:  -10.88 KCAL/MOL
REMARK 923 INTER-LIGAND FREE ENERGY PREDICTED BY IDOCK:   -8.72 KCAL/MOL
REMARK 924 INTRA-LIGAND FREE ENERGY PREDICTED BY IDOCK:   -2.16 KCAL/MOL
REMARK 927      BINDING AFFINITY PREDICTED BY RF-SCORE:    0.00 PKD
ROOT
HETATM    1  C   UNL     1      -9.189  20.725  67.191  1.00  0.00    -0.214 C  
HETATM    2  S   UNL     1     -10.036  19.222  66.775  1.00  0.00    -0.395 S  
HETATM    3  O   UNL     1     -10.372  19.277  65.366  1.00  0.00    -0.398 OA 
HETATM    4  O   UNL     1     -11.050  18.994  67.784  1.00  0.00    -0.287 OA 
ENDROOT
BRANCH   2   5
HETATM    5  C   UNL     1      -8.756  18.006  66.994  1.00  0.00    -0.247 C  
BRANCH   5   6
HETATM    6  C   UNL     1      -9.258  16.607  66.665  1.00  0.00    -0.253 C  
BRANCH   6   7
HETATM    7  N   UNL     1      -9.943  16.524  65.371  1.00  0.00    -0.545 NA 
HETATM    8  H   UNL     1      -9.276  16.346  64.620  1.00  0.00     0.000 HD 
BRANCH   7   9
HETATM    9  C   UNL     1     -11.025  15.538  65.348  1.00  0.00    -0.357 C  
BRANCH   9  10
HETATM   10  C   UNL     1     -10.595  14.280  66.013  1.00  0.00    -0.300 A  
HETATM   11  C   UNL     1      -9.614  13.353  65.738  1.00  0.00    -0.068 A  
HETATM   12  C   UNL     1      -9.703  12.368  66.750  1.00  0.00    -0.226 A  
HETATM   13  C   UNL     1     -10.719  12.760  67.599  1.00  0.00    -0.219 A  
HETATM   14  O   UNL     1     -11.257  13.933  67.149  1.00  0.00    -0.296 OA 
BRANCH  13  15
HETATM   15  C   UNL     1     -11.310  12.215  68.814  1.00  0.00    -0.339 A  
HETATM   16  C   UNL     1     -11.313  10.835  69.064  1.00  0.00    -0.349 A  
HETATM   17  C   UNL     1     -11.896  10.299  70.243  1.00  0.00    -0.372 A  
HETATM   18  C   UNL     1     -12.483  11.168  71.176  1.00  0.00    -0.393 A  
HETATM   19  C   UNL     1     -12.477  12.525  70.922  1.00  0.00    -0.361 A  
HETATM   20  N   UNL     1     -13.069  10.760  72.300  1.00  0.00    -0.256 NA 
HETATM   21  C   UNL     1     -13.099   9.446  72.505  1.00  0.00    -0.299 A  
HETATM   22  C   UNL     1     -11.901  13.050  69.763  1.00  0.00    -0.381 A  
HETATM   23  N   UNL     1     -12.589   8.524  71.693  1.00  0.00    -0.321 NA 
HETATM   24  C   UNL     1     -11.978   8.930  70.570  1.00  0.00     0.017 A  
BRANCH  24  25
HETATM   25  N   UNL     1     -11.482   7.960  69.652  1.00  0.00    -0.396 NA 
HETATM   26  H   UNL     1     -12.187   7.467  69.104  1.00  0.00     0.000 HD 
BRANCH  25  27
HETATM   27  C   UNL     1     -10.139   7.593  69.399  1.00  0.00    -0.196 A  
HETATM   28  C   UNL     1      -9.781   6.543  68.554  1.00  0.00    -0.129 A  
HETATM   29  C   UNL     1      -8.452   6.252  68.236  1.00  0.00    -0.114 A  
HETATM   30  C   UNL     1      -7.423   7.051  68.748  1.00  0.00    -0.099 A  
HETATM   31 CL   UNL     1      -8.260   4.848  67.240  1.00  0.00    -0.106 Cl 
HETATM   32  C   UNL     1      -7.764   8.067  69.654  1.00  0.00    -0.102 A  
HETATM   33  C   UNL     1      -9.104   8.332  69.979  1.00  0.00    -0.150 A  
BRANCH  30  34
HETATM   34  O   UNL     1      -6.076   6.978  68.494  1.00  0.00    -0.027 OA 
BRANCH  34  35
HETATM   35  C   UNL     1      -5.469   8.167  67.995  1.00  0.00    -0.034 C  
BRANCH  35  36
HETATM   36  C   UNL     1      -6.023   8.549  66.648  1.00  0.00    -0.053 A  
HETATM   37  C   UNL     1      -5.843   7.715  65.541  1.00  0.00    -0.038 A  
HETATM   38  C   UNL     1      -6.258   8.143  64.286  1.00  0.00    -0.065 A  
HETATM   39  C   UNL     1      -6.851   9.389  64.111  1.00  0.00    -0.095 A  
HETATM   40  F   UNL     1      -6.065   7.351  63.224  1.00  0.00    -0.049 F  
HETATM   41  C   UNL     1      -7.037  10.223  65.208  1.00  0.00    -0.130 A  
HETATM   42  C   UNL     1      -6.625   9.809  66.472  1.00  0.00    -0.072 A  
ENDBRANCH  35  36
ENDBRANCH  34  35
ENDBRANCH  30  34
ENDBRANCH  25  27
ENDBRANCH  24  25
ENDBRANCH  13  15
ENDBRANCH   9  10
ENDBRANCH   7   9
ENDBRANCH   6   7
ENDBRANCH   5   6
ENDBRANCH   2   5
TORSDOF 11
ENDMDL
MODEL      155
REMARK 921   NORMALIZED FREE ENERGY PREDICTED BY IDOCK:   -4.94 KCAL/MOL
REMARK 922        TOTAL FREE ENERGY PREDICTED BY IDOCK:  -10.86 KCAL/MOL
REMARK 923 INTER-LIGAND FREE ENERGY PREDICTED BY IDOCK:   -8.23 KCAL/MOL
REMARK 924 INTRA-LIGAND FREE ENERGY PREDICTED BY IDOCK:   -2.63 KCAL/MOL
REMARK 927      BINDING AFFINITY PREDICTED BY RF-SCORE:    0.00 PKD
ROOT
HETATM    1  C   UNL     1     -11.599   8.147  72.126  1.00  0.00    -0.357 C  
HETATM    2  S   UNL     1      -9.905   7.620  72.141  1.00  0.00    -0.189 S  
HETATM    3  O   UNL     1      -9.874   6.237  72.574  1.00  0.00    -0.167 OA 
HETATM    4  O   UNL     1      -9.132   8.640  72.821  1.00  0.00    -0.327 OA 
ENDROOT
BRANCH   2   5
HETATM    5  C   UNL     1      -9.488   7.671  70.413  1.00  0.00    -0.164 C  
BRANCH   5   6
HETATM    6  C   UNL     1     -10.004   8.942  69.754  1.00  0.00    -0.191 C  
BRANCH   6   7
HETATM    7  N   UNL     1      -9.265  10.145  70.152  1.00  0.00    -0.369 NA 
HETATM    8  H   UNL     1      -9.470  10.392  71.120  1.00  0.00     0.000 HD 
BRANCH   7   9
HETATM    9  C   UNL     1      -7.822  10.039  69.938  1.00  0.00    -0.174 C  
BRANCH   9  10
HETATM   10  C   UNL     1      -7.327  11.200  69.153  1.00  0.00    -0.115 A  
HETATM   11  C   UNL     1      -6.068  11.682  68.868  1.00  0.00    -0.053 A  
HETATM   12  C   UNL     1      -6.254  12.831  68.064  1.00  0.00    -0.103 A  
HETATM   13  C   UNL     1      -7.615  12.974  67.882  1.00  0.00    -0.144 A  
HETATM   14  O   UNL     1      -8.267  11.971  68.543  1.00  0.00    -0.153 OA 
BRANCH  13  15
HETATM   15  C   UNL     1      -8.462  13.922  67.171  1.00  0.00    -0.196 A  
HETATM   16  C   UNL     1      -9.503  13.484  66.339  1.00  0.00    -0.236 A  
HETATM   17  C   UNL     1     -10.325  14.406  65.637  1.00  0.00    -0.360 A  
HETATM   18  C   UNL     1     -10.090  15.782  65.777  1.00  0.00    -0.371 A  
HETATM   19  C   UNL     1      -9.063  16.205  66.597  1.00  0.00    -0.282 A  
HETATM   20  N   UNL     1     -10.795  16.721  65.148  1.00  0.00    -0.591 NA 
HETATM   21  C   UNL     1     -11.753  16.290  64.332  1.00  0.00     0.039 A  
HETATM   22  C   UNL     1      -8.257  15.297  67.288  1.00  0.00    -0.230 A  
HETATM   23  N   UNL     1     -12.064  15.016  64.107  1.00  0.00    -0.535 NA 
HETATM   24  C   UNL     1     -11.372  14.067  64.756  1.00  0.00    -0.366 A  
BRANCH  24  25
HETATM   25  N   UNL     1     -11.640  12.694  64.483  1.00  0.00    -0.328 NA 
HETATM   26  H   UNL     1     -12.625  12.431  64.459  1.00  0.00     0.000 HD 
BRANCH  25  27
HETATM   27  C   UNL     1     -10.719  11.648  64.241  1.00  0.00    -0.341 A  
HETATM   28  C   UNL     1     -10.469  10.624  65.154  1.00  0.00    -0.271 A  
HETATM   29  C   UNL     1      -9.631   9.544  64.864  1.00  0.00    -0.088 A  
HETATM   30  C   UNL     1      -9.032   9.448  63.603  1.00  0.00    -0.115 A  
HETATM   31 CL   UNL     1      -9.410   8.451  66.190  1.00  0.00    -0.268 Cl 
HETATM   32  C   UNL     1      -9.219  10.506  62.700  1.00  0.00    -0.329 A  
HETATM   33  C   UNL     1     -10.047  11.594  63.016  1.00  0.00    -0.311 A  
BRANCH  30  34
HETATM   34  O   UNL     1      -8.248   8.438  63.102  1.00  0.00    -0.167 OA 
BRANCH  34  35
HETATM   35  C   UNL     1      -6.840   8.638  63.189  1.00  0.00    -0.090 C  
BRANCH  35  36
HETATM   36  C   UNL     1      -6.304   8.236  64.537  1.00  0.00    -0.065 A  
HETATM   37  C   UNL     1      -6.423   6.918  64.987  1.00  0.00    -0.043 A  
HETATM   38  C   UNL     1      -6.028   6.597  66.281  1.00  0.00    -0.032 A  
HETATM   39  C   UNL     1      -5.516   7.566  67.137  1.00  0.00    -0.030 A  
HETATM   40  F   UNL     1      -6.163   5.338  66.716  1.00  0.00    -0.030 F  
HETATM   41  C   UNL     1      -5.391   8.878  66.695  1.00  0.00    -0.039 A  
HETATM   42  C   UNL     1      -5.783   9.216  65.402  1.00  0.00    -0.053 A  
ENDBRANCH  35  36
ENDBRANCH  34  35
ENDBRANCH  30  34
ENDBRANCH  25  27
ENDBRANCH  24  25
ENDBRANCH  13  15
ENDBRANCH   9  10
ENDBRANCH   7   9
ENDBRANCH   6   7
ENDBRANCH   5   6
ENDBRANCH   2   5
TORSDOF 11
ENDMDL
MODEL      156
REMARK 921   NORMALIZED FREE ENERGY PREDICTED BY IDOCK:   -4.93 KCAL/MOL
REMARK 922        TOTAL FREE ENERGY PREDICTED BY IDOCK:  -10.85 KCAL/MOL
REMARK 923 INTER-LIGAND FREE ENERGY PREDICTED BY IDOCK:   -8.74 KCAL/MOL
REMARK 924 INTRA-LIGAND FREE ENERGY PREDICTED BY IDOCK:   -2.11 KCAL/MOL
REMARK 927      BINDING AFFINITY PREDICTED BY RF-SCORE:    0.00 PKD
ROOT
HETATM    1  C   UNL     1     -10.562   8.131  72.683  1.00  0.00    -0.344 C  
HETATM    2  S   UNL     1     -10.931   8.173  70.948  1.00  0.00    -0.246 S  
HETATM    3  O   UNL     1      -9.678   8.093  70.225  1.00  0.00    -0.174 OA 
HETATM    4  O   UNL     1     -11.864   9.259  70.722  1.00  0.00    -0.281 OA 
ENDROOT
BRANCH   2   5
HETATM    5  C   UNL     1     -11.804   6.640  70.719  1.00  0.00    -0.383 C  
BRANCH   5   6
HETATM    6  C   UNL     1     -11.128   5.499  71.466  1.00  0.00    -0.094 C  
BRANCH   6   7
HETATM    7  N   UNL     1      -9.833   5.116  70.894  1.00  0.00    -0.187 NA 
HETATM    8  H   UNL     1      -9.086   5.707  71.260  1.00  0.00     0.000 HD 
BRANCH   7   9
HETATM    9  C   UNL     1      -9.511   3.700  71.078  1.00  0.00    -0.164 C  
BRANCH   9  10
HETATM   10  C   UNL     1      -9.417   3.014  69.764  1.00  0.00    -0.114 A  
HETATM   11  C   UNL     1      -9.524   1.696  69.375  1.00  0.00    -0.131 A  
HETATM   12  C   UNL     1      -9.339   1.679  67.973  1.00  0.00    -0.219 A  
HETATM   13  C   UNL     1      -9.152   2.989  67.579  1.00  0.00    -0.180 A  
HETATM   14  O   UNL     1      -9.208   3.803  68.676  1.00  0.00    -0.131 OA 
BRANCH  13  15
HETATM   15  C   UNL     1      -8.919   3.656  66.305  1.00  0.00    -0.144 A  
HETATM   16  C   UNL     1      -8.513   4.996  66.250  1.00  0.00    -0.112 A  
HETATM   17  C   UNL     1      -8.294   5.652  65.008  1.00  0.00    -0.146 A  
HETATM   18  C   UNL     1      -8.489   4.943  63.813  1.00  0.00    -0.133 A  
HETATM   19  C   UNL     1      -8.889   3.623  63.876  1.00  0.00    -0.096 A  
HETATM   20  N   UNL     1      -8.325   5.475  62.602  1.00  0.00    -0.113 NA 
HETATM   21  C   UNL     1      -7.978   6.758  62.565  1.00  0.00    -0.103 A  
HETATM   22  C   UNL     1      -9.103   2.981  65.097  1.00  0.00    -0.148 A  
HETATM   23  N   UNL     1      -7.775   7.537  63.625  1.00  0.00    -0.122 NA 
HETATM   24  C   UNL     1      -7.917   7.000  64.847  1.00  0.00    -0.127 A  
BRANCH  24  25
HETATM   25  N   UNL     1      -7.770   7.828  65.997  1.00  0.00    -0.090 NA 
HETATM   26  H   UNL     1      -6.870   7.770  66.473  1.00  0.00     0.000 HD 
BRANCH  25  27
HETATM   27  C   UNL     1      -8.709   8.721  66.565  1.00  0.00    -0.120 A  
HETATM   28  C   UNL     1      -8.380  10.007  66.990  1.00  0.00    -0.121 A  
HETATM   29  C   UNL     1      -9.334  10.914  67.458  1.00  0.00    -0.154 A  
HETATM   30  C   UNL     1     -10.686  10.551  67.480  1.00  0.00    -0.276 A  
HETATM   31 CL   UNL     1      -8.667  12.414  68.011  1.00  0.00    -0.179 Cl 
HETATM   32  C   UNL     1     -11.023   9.237  67.121  1.00  0.00     0.048 A  
HETATM   33  C   UNL     1     -10.048   8.332  66.674  1.00  0.00    -0.351 A  
BRANCH  30  34
HETATM   34  O   UNL     1     -11.772  11.316  67.826  1.00  0.00    -0.549 OA 
BRANCH  34  35
HETATM   35  C   UNL     1     -11.622  12.724  67.664  1.00  0.00    -0.358 C  
BRANCH  35  36
HETATM   36  C   UNL     1     -11.936  13.156  66.256  1.00  0.00    -0.473 A  
HETATM   37  C   UNL     1     -12.368  12.227  65.305  1.00  0.00    -0.225 A  
HETATM   38  C   UNL     1     -12.537  12.627  63.984  1.00  0.00    -0.338 A  
HETATM   39  C   UNL     1     -12.284  13.937  63.592  1.00  0.00    -0.232 A  
HETATM   40  F   UNL     1     -12.931  11.730  63.071  1.00  0.00    -0.685 F  
HETATM   41  C   UNL     1     -11.858  14.867  64.533  1.00  0.00    -0.404 A  
HETATM   42  C   UNL     1     -11.682  14.482  65.860  1.00  0.00    -0.345 A  
ENDBRANCH  35  36
ENDBRANCH  34  35
ENDBRANCH  30  34
ENDBRANCH  25  27
ENDBRANCH  24  25
ENDBRANCH  13  15
ENDBRANCH   9  10
ENDBRANCH   7   9
ENDBRANCH   6   7
ENDBRANCH   5   6
ENDBRANCH   2   5
TORSDOF 11
ENDMDL
MODEL      157
REMARK 921   NORMALIZED FREE ENERGY PREDICTED BY IDOCK:   -4.93 KCAL/MOL
REMARK 922        TOTAL FREE ENERGY PREDICTED BY IDOCK:  -10.85 KCAL/MOL
REMARK 923 INTER-LIGAND FREE ENERGY PREDICTED BY IDOCK:   -9.06 KCAL/MOL
REMARK 924 INTRA-LIGAND FREE ENERGY PREDICTED BY IDOCK:   -1.78 KCAL/MOL
REMARK 927      BINDING AFFINITY PREDICTED BY RF-SCORE:    0.00 PKD
ROOT
HETATM    1  C   UNL     1      -8.588   8.411  65.700  1.00  0.00    -0.174 C  
HETATM    2  S   UNL     1      -6.914   7.898  65.988  1.00  0.00    -0.062 S  
HETATM    3  O   UNL     1      -6.619   8.111  67.390  1.00  0.00    -0.056 OA 
HETATM    4  O   UNL     1      -6.090   8.479  64.947  1.00  0.00    -0.058 OA 
ENDROOT
BRANCH   2   5
HETATM    5  C   UNL     1      -7.011   6.145  65.701  1.00  0.00    -0.057 C  
BRANCH   5   6
HETATM    6  C   UNL     1      -7.895   5.827  64.504  1.00  0.00    -0.113 C  
BRANCH   6   7
HETATM    7  N   UNL     1      -8.181   4.395  64.356  1.00  0.00    -0.100 NA 
HETATM    8  H   UNL     1      -7.443   3.834  64.782  1.00  0.00     0.000 HD 
BRANCH   7   9
HETATM    9  C   UNL     1      -9.493   4.007  64.874  1.00  0.00    -0.171 C  
BRANCH   9  10
HETATM   10  C   UNL     1      -9.439   3.836  66.349  1.00  0.00    -0.183 A  
HETATM   11  C   UNL     1      -8.943   2.846  67.169  1.00  0.00    -0.181 A  
HETATM   12  C   UNL     1      -9.192   3.267  68.496  1.00  0.00    -0.233 A  
HETATM   13  C   UNL     1      -9.805   4.502  68.415  1.00  0.00    -0.084 A  
HETATM   14  O   UNL     1      -9.948   4.849  67.101  1.00  0.00    -0.177 OA 
BRANCH  13  15
HETATM   15  C   UNL     1     -10.309   5.464  69.385  1.00  0.00    -0.339 A  
HETATM   16  C   UNL     1     -10.601   6.784  69.014  1.00  0.00    -0.258 A  
HETATM   17  C   UNL     1     -11.084   7.728  69.960  1.00  0.00    -0.182 A  
HETATM   18  C   UNL     1     -11.270   7.332  71.294  1.00  0.00    -0.256 A  
HETATM   19  C   UNL     1     -10.979   6.030  71.651  1.00  0.00    -0.328 A  
HETATM   20  N   UNL     1     -11.702   8.147  72.255  1.00  0.00    -0.354 NA 
HETATM   21  C   UNL     1     -11.938   9.406  71.896  1.00  0.00    -0.346 A  
HETATM   22  C   UNL     1     -10.507   5.104  70.719  1.00  0.00    -0.263 A  
HETATM   23  N   UNL     1     -11.788   9.904  70.671  1.00  0.00    -0.291 NA 
HETATM   24  C   UNL     1     -11.376   9.081  69.695  1.00  0.00     0.121 A  
BRANCH  24  25
HETATM   25  N   UNL     1     -11.145   9.604  68.389  1.00  0.00    -0.481 NA 
HETATM   26  H   UNL     1     -11.298   8.955  67.618  1.00  0.00     0.000 HD 
BRANCH  25  27
HETATM   27  C   UNL     1     -10.731  10.906  68.023  1.00  0.00    -0.220 A  
HETATM   28  C   UNL     1     -11.580  11.839  67.430  1.00  0.00    -0.352 A  
HETATM   29  C   UNL     1     -11.187  13.153  67.163  1.00  0.00    -0.294 A  
HETATM   30  C   UNL     1      -9.905  13.583  67.524  1.00  0.00    -0.227 A  
HETATM   31 CL   UNL     1     -12.389  14.092  66.341  1.00  0.00    -0.480 Cl 
HETATM   32  C   UNL     1      -9.017  12.636  68.058  1.00  0.00    -0.200 A  
HETATM   33  C   UNL     1      -9.422  11.314  68.300  1.00  0.00    -0.190 A  
BRANCH  30  34
HETATM   34  O   UNL     1      -9.362  14.839  67.419  1.00  0.00    -0.190 OA 
BRANCH  34  35
HETATM   35  C   UNL     1      -8.250  15.112  68.267  1.00  0.00    -0.144 C  
BRANCH  35  36
HETATM   36  C   UNL     1      -8.094  16.589  68.519  1.00  0.00    -0.218 A  
HETATM   37  C   UNL     1      -9.140  17.473  68.243  1.00  0.00    -0.274 A  
HETATM   38  C   UNL     1      -8.932  18.842  68.371  1.00  0.00    -0.335 A  
HETATM   39  C   UNL     1      -7.699  19.347  68.770  1.00  0.00    -0.397 A  
HETATM   40  F   UNL     1      -9.930  19.688  68.086  1.00  0.00    -0.418 F  
HETATM   41  C   UNL     1      -6.655  18.473  69.050  1.00  0.00    -0.277 A  
HETATM   42  C   UNL     1      -6.847  17.100  68.924  1.00  0.00    -0.221 A  
ENDBRANCH  35  36
ENDBRANCH  34  35
ENDBRANCH  30  34
ENDBRANCH  25  27
ENDBRANCH  24  25
ENDBRANCH  13  15
ENDBRANCH   9  10
ENDBRANCH   7   9
ENDBRANCH   6   7
ENDBRANCH   5   6
ENDBRANCH   2   5
TORSDOF 11
ENDMDL
MODEL      158
REMARK 921   NORMALIZED FREE ENERGY PREDICTED BY IDOCK:   -4.93 KCAL/MOL
REMARK 922        TOTAL FREE ENERGY PREDICTED BY IDOCK:  -10.85 KCAL/MOL
REMARK 923 INTER-LIGAND FREE ENERGY PREDICTED BY IDOCK:   -7.83 KCAL/MOL
REMARK 924 INTRA-LIGAND FREE ENERGY PREDICTED BY IDOCK:   -3.02 KCAL/MOL
REMARK 927      BINDING AFFINITY PREDICTED BY RF-SCORE:    0.00 PKD
ROOT
HETATM    1  C   UNL     1     -12.397  13.329  65.944  1.00  0.00    -0.418 C  
HETATM    2  S   UNL     1     -11.813  13.959  64.392  1.00  0.00    -0.424 S  
HETATM    3  O   UNL     1     -10.417  14.313  64.554  1.00  0.00    -0.381 OA 
HETATM    4  O   UNL     1     -12.784  14.922  63.914  1.00  0.00    -0.789 OA 
ENDROOT
BRANCH   2   5
HETATM    5  C   UNL     1     -11.904  12.519  63.352  1.00  0.00    -0.503 C  
BRANCH   5   6
HETATM    6  C   UNL     1     -10.855  11.487  63.739  1.00  0.00    -0.416 C  
BRANCH   6   7
HETATM    7  N   UNL     1      -9.519  11.791  63.215  1.00  0.00    -0.569 NA 
HETATM    8  H   UNL     1      -8.994  12.366  63.874  1.00  0.00     0.000 HD 
BRANCH   7   9
HETATM    9  C   UNL     1      -8.755  10.599  62.843  1.00  0.00    -0.222 C  
BRANCH   9  10
HETATM   10  C   UNL     1      -8.161   9.967  64.049  1.00  0.00    -0.152 A  
HETATM   11  C   UNL     1      -7.588  10.471  65.196  1.00  0.00    -0.046 A  
HETATM   12  C   UNL     1      -7.210   9.353  65.976  1.00  0.00    -0.092 A  
HETATM   13  C   UNL     1      -7.593   8.228  65.273  1.00  0.00    -0.094 A  
HETATM   14  O   UNL     1      -8.180   8.607  64.099  1.00  0.00    -0.160 OA 
BRANCH  13  15
HETATM   15  C   UNL     1      -7.507   6.793  65.506  1.00  0.00    -0.083 A  
HETATM   16  C   UNL     1      -7.089   6.281  66.742  1.00  0.00    -0.073 A  
HETATM   17  C   UNL     1      -6.996   4.882  66.970  1.00  0.00    -0.061 A  
HETATM   18  C   UNL     1      -7.327   3.993  65.935  1.00  0.00    -0.076 A  
HETATM   19  C   UNL     1      -7.738   4.506  64.720  1.00  0.00    -0.081 A  
HETATM   20  N   UNL     1      -7.255   2.668  66.046  1.00  0.00    -0.064 NA 
HETATM   21  C   UNL     1      -6.820   2.198  67.211  1.00  0.00    -0.040 A  
HETATM   22  C   UNL     1      -7.830   5.881  64.500  1.00  0.00    -0.115 A  
HETATM   23  N   UNL     1      -6.466   2.936  68.261  1.00  0.00    -0.032 NA 
HETATM   24  C   UNL     1      -6.557   4.270  68.162  1.00  0.00    -0.042 A  
BRANCH  24  25
HETATM   25  N   UNL     1      -6.122   5.085  69.247  1.00  0.00    -0.021 NA 
HETATM   26  H   UNL     1      -5.134   5.011  69.488  1.00  0.00     0.000 HD 
BRANCH  25  27
HETATM   27  C   UNL     1      -6.881   5.983  70.033  1.00  0.00    -0.057 A  
HETATM   28  C   UNL     1      -6.696   7.365  70.007  1.00  0.00    -0.047 A  
HETATM   29  C   UNL     1      -7.517   8.248  70.713  1.00  0.00    -0.065 A  
HETATM   30  C   UNL     1      -8.593   7.753  71.458  1.00  0.00    -0.117 A  
HETATM   31 CL   UNL     1      -7.030   9.907  70.593  1.00  0.00    -0.112 Cl 
HETATM   32  C   UNL     1      -8.749   6.361  71.549  1.00  0.00    -0.134 A  
HETATM   33  C   UNL     1      -7.902   5.488  70.850  1.00  0.00    -0.104 A  
BRANCH  30  34
HETATM   34  O   UNL     1      -9.550   8.454  72.149  1.00  0.00    -0.240 OA 
BRANCH  34  35
HETATM   35  C   UNL     1     -10.863   8.430  71.597  1.00  0.00    -0.268 C  
BRANCH  35  36
HETATM   36  C   UNL     1     -10.889   9.002  70.204  1.00  0.00    -0.261 A  
HETATM   37  C   UNL     1     -10.786   8.165  69.088  1.00  0.00    -0.033 A  
HETATM   38  C   UNL     1     -10.693   8.724  67.819  1.00  0.00    -0.125 A  
HETATM   39  C   UNL     1     -10.702  10.103  67.639  1.00  0.00    -0.339 A  
HETATM   40  F   UNL     1     -10.573   7.921  66.755  1.00  0.00    -0.374 F  
HETATM   41  C   UNL     1     -10.808  10.941  68.743  1.00  0.00    -0.251 A  
HETATM   42  C   UNL     1     -10.900  10.397  70.021  1.00  0.00    -0.348 A  
ENDBRANCH  35  36
ENDBRANCH  34  35
ENDBRANCH  30  34
ENDBRANCH  25  27
ENDBRANCH  24  25
ENDBRANCH  13  15
ENDBRANCH   9  10
ENDBRANCH   7   9
ENDBRANCH   6   7
ENDBRANCH   5   6
ENDBRANCH   2   5
TORSDOF 11
ENDMDL
MODEL      159
REMARK 921   NORMALIZED FREE ENERGY PREDICTED BY IDOCK:   -4.89 KCAL/MOL
REMARK 922        TOTAL FREE ENERGY PREDICTED BY IDOCK:  -10.77 KCAL/MOL
REMARK 923 INTER-LIGAND FREE ENERGY PREDICTED BY IDOCK:   -9.21 KCAL/MOL
REMARK 924 INTRA-LIGAND FREE ENERGY PREDICTED BY IDOCK:   -1.56 KCAL/MOL
REMARK 927      BINDING AFFINITY PREDICTED BY RF-SCORE:    0.00 PKD
ROOT
HETATM    1  C   UNL     1     -12.814   9.204  72.294  1.00  0.00    -0.401 C  
HETATM    2  S   UNL     1     -11.351   8.604  71.490  1.00  0.00    -0.314 S  
HETATM    3  O   UNL     1     -10.383   8.275  72.517  1.00  0.00    -0.303 OA 
HETATM    4  O   UNL     1     -11.029   9.522  70.417  1.00  0.00    -0.239 OA 
ENDROOT
BRANCH   2   5
HETATM    5  C   UNL     1     -11.926   7.086  70.763  1.00  0.00    -0.345 C  
BRANCH   5   6
HETATM    6  C   UNL     1     -11.136   5.890  71.275  1.00  0.00    -0.241 C  
BRANCH   6   7
HETATM    7  N   UNL     1      -9.851   5.707  70.592  1.00  0.00    -0.179 NA 
HETATM    8  H   UNL     1      -9.147   6.343  70.968  1.00  0.00     0.000 HD 
BRANCH   7   9
HETATM    9  C   UNL     1      -9.369   4.326  70.619  1.00  0.00    -0.143 C  
BRANCH   9  10
HETATM   10  C   UNL     1      -9.225   3.800  69.236  1.00  0.00    -0.160 A  
HETATM   11  C   UNL     1      -9.384   2.550  68.679  1.00  0.00    -0.242 A  
HETATM   12  C   UNL     1      -9.103   2.690  67.300  1.00  0.00    -0.194 A  
HETATM   13  C   UNL     1      -8.810   4.023  67.086  1.00  0.00    -0.119 A  
HETATM   14  O   UNL     1      -8.892   4.699  68.271  1.00  0.00    -0.101 OA 
BRANCH  13  15
HETATM   15  C   UNL     1      -8.448   4.821  65.923  1.00  0.00    -0.117 A  
HETATM   16  C   UNL     1      -8.564   6.218  65.937  1.00  0.00    -0.150 A  
HETATM   17  C   UNL     1      -8.220   6.999  64.801  1.00  0.00    -0.048 A  
HETATM   18  C   UNL     1      -7.757   6.359  63.641  1.00  0.00    -0.114 A  
HETATM   19  C   UNL     1      -7.647   4.983  63.635  1.00  0.00    -0.067 A  
HETATM   20  N   UNL     1      -7.427   7.003  62.522  1.00  0.00    -0.081 NA 
HETATM   21  C   UNL     1      -7.579   8.324  62.536  1.00  0.00    -0.112 A  
HETATM   22  C   UNL     1      -7.983   4.218  64.753  1.00  0.00    -0.090 A  
HETATM   23  N   UNL     1      -8.018   9.042  63.567  1.00  0.00    -0.142 NA 
HETATM   24  C   UNL     1      -8.330   8.402  64.703  1.00  0.00    -0.127 A  
BRANCH  24  25
HETATM   25  N   UNL     1      -8.865   9.139  65.799  1.00  0.00    -0.163 NA 
HETATM   26  H   UNL     1      -8.522   8.873  66.722  1.00  0.00     0.000 HD 
BRANCH  25  27
HETATM   27  C   UNL     1      -9.810  10.191  65.775  1.00  0.00    -0.266 A  
HETATM   28  C   UNL     1     -10.462  10.659  66.915  1.00  0.00    -0.304 A  
HETATM   29  C   UNL     1     -11.318  11.763  66.894  1.00  0.00    -0.320 A  
HETATM   30  C   UNL     1     -11.522  12.463  65.699  1.00  0.00    -0.367 A  
HETATM   31 CL   UNL     1     -12.076  12.093  68.417  1.00  0.00    -0.241 Cl 
HETATM   32  C   UNL     1     -10.927  11.962  64.531  1.00  0.00    -0.376 A  
HETATM   33  C   UNL     1     -10.087  10.838  64.567  1.00  0.00    -0.415 A  
BRANCH  30  34
HETATM   34  O   UNL     1     -12.254  13.605  65.490  1.00  0.00    -0.387 OA 
BRANCH  34  35
HETATM   35  C   UNL     1     -11.541  14.715  64.954  1.00  0.00    -0.405 C  
BRANCH  35  36
HETATM   36  C   UNL     1     -10.932  15.561  66.040  1.00  0.00    -0.251 A  
HETATM   37  C   UNL     1     -11.440  15.523  67.342  1.00  0.00    -0.140 A  
HETATM   38  C   UNL     1     -10.939  16.399  68.299  1.00  0.00    -0.355 A  
HETATM   39  C   UNL     1      -9.940  17.314  67.983  1.00  0.00    -0.304 A  
HETATM   40  F   UNL     1     -11.443  16.374  69.539  1.00  0.00    -0.305 F  
HETATM   41  C   UNL     1      -9.428  17.355  66.692  1.00  0.00    -0.285 A  
HETATM   42  C   UNL     1      -9.920  16.485  65.722  1.00  0.00    -0.302 A  
ENDBRANCH  35  36
ENDBRANCH  34  35
ENDBRANCH  30  34
ENDBRANCH  25  27
ENDBRANCH  24  25
ENDBRANCH  13  15
ENDBRANCH   9  10
ENDBRANCH   7   9
ENDBRANCH   6   7
ENDBRANCH   5   6
ENDBRANCH   2   5
TORSDOF 11
ENDMDL
MODEL      160
REMARK 921   NORMALIZED FREE ENERGY PREDICTED BY IDOCK:   -4.88 KCAL/MOL
REMARK 922        TOTAL FREE ENERGY PREDICTED BY IDOCK:  -10.76 KCAL/MOL
REMARK 923 INTER-LIGAND FREE ENERGY PREDICTED BY IDOCK:   -8.65 KCAL/MOL
REMARK 924 INTRA-LIGAND FREE ENERGY PREDICTED BY IDOCK:   -2.12 KCAL/MOL
REMARK 927      BINDING AFFINITY PREDICTED BY RF-SCORE:    0.00 PKD
ROOT
HETATM    1  C   UNL     1     -10.738   5.270  71.420  1.00  0.00    -0.133 C  
HETATM    2  S   UNL     1     -11.036   7.015  71.314  1.00  0.00    -0.262 S  
HETATM    3  O   UNL     1     -12.463   7.214  71.161  1.00  0.00    -0.358 OA 
HETATM    4  O   UNL     1     -10.092   7.567  70.363  1.00  0.00    -0.194 OA 
ENDROOT
BRANCH   2   5
HETATM    5  C   UNL     1     -10.570   7.568  72.939  1.00  0.00    -0.337 C  
BRANCH   5   6
HETATM    6  C   UNL     1      -9.165   8.153  72.945  1.00  0.00    -0.273 C  
BRANCH   6   7
HETATM    7  N   UNL     1      -8.111   7.136  72.869  1.00  0.00    -0.104 NA 
HETATM    8  H   UNL     1      -8.278   6.499  72.090  1.00  0.00     0.000 HD 
BRANCH   7   9
HETATM    9  C   UNL     1      -6.762   7.699  72.799  1.00  0.00    -0.068 C  
BRANCH   9  10
HETATM   10  C   UNL     1      -6.518   8.295  71.460  1.00  0.00    -0.049 A  
HETATM   11  C   UNL     1      -6.010   9.505  71.042  1.00  0.00    -0.076 A  
HETATM   12  C   UNL     1      -6.029   9.478  69.628  1.00  0.00    -0.036 A  
HETATM   13  C   UNL     1      -6.526   8.243  69.259  1.00  0.00    -0.039 A  
HETATM   14  O   UNL     1      -6.817   7.520  70.382  1.00  0.00    -0.046 OA 
BRANCH  13  15
HETATM   15  C   UNL     1      -6.793   7.580  67.990  1.00  0.00    -0.067 A  
HETATM   16  C   UNL     1      -7.084   8.317  66.834  1.00  0.00    -0.078 A  
HETATM   17  C   UNL     1      -7.354   7.673  65.596  1.00  0.00    -0.073 A  
HETATM   18  C   UNL     1      -7.330   6.272  65.530  1.00  0.00    -0.080 A  
HETATM   19  C   UNL     1      -7.043   5.554  66.674  1.00  0.00    -0.069 A  
HETATM   20  N   UNL     1      -7.586   5.578  64.422  1.00  0.00    -0.069 NA 
HETATM   21  C   UNL     1      -7.899   6.289  63.342  1.00  0.00    -0.110 A  
HETATM   22  C   UNL     1      -6.776   6.188  67.889  1.00  0.00    -0.064 A  
HETATM   23  N   UNL     1      -7.966   7.617  63.281  1.00  0.00    -0.129 NA 
HETATM   24  C   UNL     1      -7.687   8.321  64.388  1.00  0.00    -0.125 A  
BRANCH  24  25
HETATM   25  N   UNL     1      -7.816   9.740  64.368  1.00  0.00    -0.130 NA 
HETATM   26  H   UNL     1      -7.029  10.250  63.969  1.00  0.00     0.000 HD 
BRANCH  25  27
HETATM   27  C   UNL     1      -8.893  10.533  64.829  1.00  0.00    -0.196 A  
HETATM   28  C   UNL     1      -9.997  10.853  64.041  1.00  0.00    -0.403 A  
HETATM   29  C   UNL     1     -11.099  11.554  64.538  1.00  0.00    -0.273 A  
HETATM   30  C   UNL     1     -11.133  11.934  65.885  1.00  0.00    -0.316 A  
HETATM   31 CL   UNL     1     -12.303  11.907  63.344  1.00  0.00    -0.647 Cl 
HETATM   32  C   UNL     1      -9.999  11.679  66.671  1.00  0.00    -0.230 A  
HETATM   33  C   UNL     1      -8.891  10.992  66.149  1.00  0.00    -0.197 A  
BRANCH  30  34
HETATM   34  O   UNL     1     -12.146  12.552  66.575  1.00  0.00    -0.572 OA 
BRANCH  34  35
HETATM   35  C   UNL     1     -12.158  13.976  66.524  1.00  0.00    -0.459 C  
BRANCH  35  36
HETATM   36  C   UNL     1     -11.842  14.581  67.866  1.00  0.00    -0.370 A  
HETATM   37  C   UNL     1     -11.330  15.879  67.960  1.00  0.00    -0.284 A  
HETATM   38  C   UNL     1     -10.935  16.372  69.198  1.00  0.00    -0.324 A  
HETATM   39  C   UNL     1     -11.041  15.596  70.348  1.00  0.00    -0.369 A  
HETATM   40  F   UNL     1     -10.426  17.607  69.282  1.00  0.00    -0.349 F  
HETATM   41  C   UNL     1     -11.553  14.306  70.263  1.00  0.00    -0.289 A  
HETATM   42  C   UNL     1     -11.951  13.797  69.029  1.00  0.00    -0.399 A  
ENDBRANCH  35  36
ENDBRANCH  34  35
ENDBRANCH  30  34
ENDBRANCH  25  27
ENDBRANCH  24  25
ENDBRANCH  13  15
ENDBRANCH   9  10
ENDBRANCH   7   9
ENDBRANCH   6   7
ENDBRANCH   5   6
ENDBRANCH   2   5
TORSDOF 11
ENDMDL
MODEL      161
REMARK 921   NORMALIZED FREE ENERGY PREDICTED BY IDOCK:   -4.86 KCAL/MOL
REMARK 922        TOTAL FREE ENERGY PREDICTED BY IDOCK:  -10.74 KCAL/MOL
REMARK 923 INTER-LIGAND FREE ENERGY PREDICTED BY IDOCK:   -8.98 KCAL/MOL
REMARK 924 INTRA-LIGAND FREE ENERGY PREDICTED BY IDOCK:   -1.76 KCAL/MOL
REMARK 927      BINDING AFFINITY PREDICTED BY RF-SCORE:    0.00 PKD
ROOT
HETATM    1  C   UNL     1      -8.297   7.687  73.917  1.00  0.00    -0.210 C  
HETATM    2  S   UNL     1      -7.624   8.172  72.349  1.00  0.00    -0.120 S  
HETATM    3  O   UNL     1      -8.480   9.203  71.798  1.00  0.00    -0.340 OA 
HETATM    4  O   UNL     1      -7.323   6.965  71.606  1.00  0.00    -0.082 OA 
ENDROOT
BRANCH   2   5
HETATM    5  C   UNL     1      -6.084   8.924  72.827  1.00  0.00    -0.012 C  
BRANCH   5   6
HETATM    6  C   UNL     1      -5.407   9.603  71.644  1.00  0.00    -0.076 C  
BRANCH   6   7
HETATM    7  N   UNL     1      -6.230  10.645  71.023  1.00  0.00    -0.344 NA 
HETATM    8  H   UNL     1      -6.521  11.337  71.714  1.00  0.00     0.000 HD 
BRANCH   7   9
HETATM    9  C   UNL     1      -5.584  11.293  69.880  1.00  0.00    -0.080 C  
BRANCH   9  10
HETATM   10  C   UNL     1      -6.129  12.662  69.684  1.00  0.00    -0.128 A  
HETATM   11  C   UNL     1      -5.836  13.885  70.245  1.00  0.00    -0.150 A  
HETATM   12  C   UNL     1      -6.708  14.820  69.638  1.00  0.00    -0.166 A  
HETATM   13  C   UNL     1      -7.469  14.120  68.724  1.00  0.00    -0.129 A  
HETATM   14  O   UNL     1      -7.108  12.802  68.750  1.00  0.00    -0.094 OA 
BRANCH  13  15
HETATM   15  C   UNL     1      -8.526  14.471  67.784  1.00  0.00    -0.176 A  
HETATM   16  C   UNL     1      -9.253  13.482  67.107  1.00  0.00    -0.236 A  
HETATM   17  C   UNL     1     -10.278  13.821  66.183  1.00  0.00    -0.305 A  
HETATM   18  C   UNL     1     -10.566  15.173  65.942  1.00  0.00    -0.337 A  
HETATM   19  C   UNL     1      -9.845  16.141  66.612  1.00  0.00    -0.262 A  
HETATM   20  N   UNL     1     -11.495  15.590  65.083  1.00  0.00    -0.217 NA 
HETATM   21  C   UNL     1     -12.151  14.642  64.419  1.00  0.00    -0.462 A  
HETATM   22  C   UNL     1      -8.839  15.805  67.521  1.00  0.00    -0.196 A  
HETATM   23  N   UNL     1     -11.961  13.331  64.552  1.00  0.00    -0.381 NA 
HETATM   24  C   UNL     1     -11.043  12.906  65.432  1.00  0.00    -0.281 A  
BRANCH  24  25
HETATM   25  N   UNL     1     -10.773  11.511  65.545  1.00  0.00    -0.278 NA 
HETATM   26  H   UNL     1     -10.623  11.016  64.666  1.00  0.00     0.000 HD 
BRANCH  25  27
HETATM   27  C   UNL     1     -10.687  10.723  66.717  1.00  0.00    -0.231 A  
HETATM   28  C   UNL     1     -11.396  11.009  67.882  1.00  0.00    -0.381 A  
HETATM   29  C   UNL     1     -11.379  10.169  68.999  1.00  0.00    -0.133 A  
HETATM   30  C   UNL     1     -10.654   8.973  68.959  1.00  0.00    -0.190 A  
HETATM   31 CL   UNL     1     -12.266  10.785  70.354  1.00  0.00    -0.404 Cl 
HETATM   32  C   UNL     1      -9.881   8.707  67.819  1.00  0.00    -0.218 A  
HETATM   33  C   UNL     1      -9.893   9.572  66.714  1.00  0.00    -0.277 A  
BRANCH  30  34
HETATM   34  O   UNL     1     -10.575   7.987  69.912  1.00  0.00    -0.236 OA 
BRANCH  34  35
HETATM   35  C   UNL     1     -11.370   6.828  69.680  1.00  0.00    -0.272 C  
BRANCH  35  36
HETATM   36  C   UNL     1     -10.518   5.616  69.411  1.00  0.00    -0.367 A  
HETATM   37  C   UNL     1     -10.253   5.208  68.100  1.00  0.00    -0.177 A  
HETATM   38  C   UNL     1      -9.565   4.020  67.878  1.00  0.00    -0.143 A  
HETATM   39  C   UNL     1      -9.134   3.230  68.939  1.00  0.00    -0.207 A  
HETATM   40  F   UNL     1      -9.332   3.621  66.622  1.00  0.00    -0.150 F  
HETATM   41  C   UNL     1      -9.391   3.632  70.245  1.00  0.00    -0.241 A  
HETATM   42  C   UNL     1     -10.080   4.818  70.483  1.00  0.00    -0.291 A  
ENDBRANCH  35  36
ENDBRANCH  34  35
ENDBRANCH  30  34
ENDBRANCH  25  27
ENDBRANCH  24  25
ENDBRANCH  13  15
ENDBRANCH   9  10
ENDBRANCH   7   9
ENDBRANCH   6   7
ENDBRANCH   5   6
ENDBRANCH   2   5
TORSDOF 11
ENDMDL
MODEL      162
REMARK 921   NORMALIZED FREE ENERGY PREDICTED BY IDOCK:   -4.86 KCAL/MOL
REMARK 922        TOTAL FREE ENERGY PREDICTED BY IDOCK:  -10.74 KCAL/MOL
REMARK 923 INTER-LIGAND FREE ENERGY PREDICTED BY IDOCK:   -8.71 KCAL/MOL
REMARK 924 INTRA-LIGAND FREE ENERGY PREDICTED BY IDOCK:   -2.02 KCAL/MOL
REMARK 927      BINDING AFFINITY PREDICTED BY RF-SCORE:    0.00 PKD
ROOT
HETATM    1  C   UNL     1      -9.813  18.516  68.331  1.00  0.00    -0.372 C  
HETATM    2  S   UNL     1      -9.210  19.722  67.178  1.00  0.00    -0.362 S  
HETATM    3  O   UNL     1     -10.099  20.866  67.226  1.00  0.00    -0.301 OA 
HETATM    4  O   UNL     1      -8.928  19.038  65.933  1.00  0.00    -0.448 OA 
ENDROOT
BRANCH   2   5
HETATM    5  C   UNL     1      -7.660  20.192  67.914  1.00  0.00    -0.276 C  
BRANCH   5   6
HETATM    6  C   UNL     1      -6.481  19.717  67.076  1.00  0.00    -0.192 C  
BRANCH   6   7
HETATM    7  N   UNL     1      -5.583  18.809  67.798  1.00  0.00    -0.177 NA 
HETATM    8  H   UNL     1      -5.940  18.615  68.734  1.00  0.00     0.000 HD 
BRANCH   7   9
HETATM    9  C   UNL     1      -5.312  17.565  67.078  1.00  0.00    -0.141 C  
BRANCH   9  10
HETATM   10  C   UNL     1      -6.339  16.542  67.404  1.00  0.00    -0.167 A  
HETATM   11  C   UNL     1      -6.499  15.663  68.453  1.00  0.00    -0.113 A  
HETATM   12  C   UNL     1      -7.688  14.943  68.191  1.00  0.00    -0.117 A  
HETATM   13  C   UNL     1      -8.201  15.437  67.009  1.00  0.00    -0.236 A  
HETATM   14  O   UNL     1      -7.378  16.419  66.534  1.00  0.00    -0.229 OA 
BRANCH  13  15
HETATM   15  C   UNL     1      -9.377  15.147  66.198  1.00  0.00    -0.346 A  
HETATM   16  C   UNL     1      -9.578  13.878  65.639  1.00  0.00    -0.067 A  
HETATM   17  C   UNL     1     -10.719  13.594  64.841  1.00  0.00    -0.400 A  
HETATM   18  C   UNL     1     -11.662  14.607  64.606  1.00  0.00    -0.426 A  
HETATM   19  C   UNL     1     -11.456  15.855  65.160  1.00  0.00    -0.002 A  
HETATM   20  N   UNL     1     -12.753  14.443  63.858  1.00  0.00    -0.721 NA 
HETATM   21  C   UNL     1     -12.911  13.245  63.303  1.00  0.00     0.545 A  
HETATM   22  C   UNL     1     -10.335  16.130  65.945  1.00  0.00    -0.384 A  
HETATM   23  N   UNL     1     -12.084  12.212  63.441  1.00  0.00    -0.515 NA 
HETATM   24  C   UNL     1     -10.996  12.364  64.211  1.00  0.00    -0.351 A  
BRANCH  24  25
HETATM   25  N   UNL     1     -10.060  11.295  64.322  1.00  0.00    -0.285 NA 
HETATM   26  H   UNL     1      -9.600  11.017  63.456  1.00  0.00     0.000 HD 
BRANCH  25  27
HETATM   27  C   UNL     1      -9.686  10.569  65.477  1.00  0.00    -0.242 A  
HETATM   28  C   UNL     1      -8.382  10.537  65.969  1.00  0.00    -0.158 A  
HETATM   29  C   UNL     1      -8.044   9.897  67.165  1.00  0.00    -0.117 A  
HETATM   30  C   UNL     1      -9.041   9.285  67.933  1.00  0.00    -0.127 A  
HETATM   31 CL   UNL     1      -6.348   9.918  67.517  1.00  0.00    -0.063 Cl 
HETATM   32  C   UNL     1     -10.346   9.251  67.415  1.00  0.00    -0.327 A  
HETATM   33  C   UNL     1     -10.663   9.880  66.201  1.00  0.00     0.063 A  
BRANCH  30  34
HETATM   34  O   UNL     1      -8.927   8.680  69.160  1.00  0.00    -0.140 OA 
BRANCH  34  35
HETATM   35  C   UNL     1      -8.917   9.551  70.287  1.00  0.00    -0.248 C  
BRANCH  35  36
HETATM   36  C   UNL     1     -10.286  10.113  70.567  1.00  0.00    -0.034 A  
HETATM   37  C   UNL     1     -10.606  11.423  70.203  1.00  0.00     0.765 A  
HETATM   38  C   UNL     1     -11.834  11.958  70.577  1.00  0.00    -0.159 A  
HETATM   39  C   UNL     1     -12.750  11.210  71.308  1.00  0.00    -0.531 A  
HETATM   40  F   UNL     1     -12.129  13.220  70.245  1.00  0.00    -0.371 F  
HETATM   41  C   UNL     1     -12.440   9.904  71.671  1.00  0.00    -0.507 A  
HETATM   42  C   UNL     1     -11.214   9.355  71.305  1.00  0.00    -0.437 A  
ENDBRANCH  35  36
ENDBRANCH  34  35
ENDBRANCH  30  34
ENDBRANCH  25  27
ENDBRANCH  24  25
ENDBRANCH  13  15
ENDBRANCH   9  10
ENDBRANCH   7   9
ENDBRANCH   6   7
ENDBRANCH   5   6
ENDBRANCH   2   5
TORSDOF 11
ENDMDL
MODEL      163
REMARK 921   NORMALIZED FREE ENERGY PREDICTED BY IDOCK:   -4.86 KCAL/MOL
REMARK 922        TOTAL FREE ENERGY PREDICTED BY IDOCK:  -10.73 KCAL/MOL
REMARK 923 INTER-LIGAND FREE ENERGY PREDICTED BY IDOCK:   -8.62 KCAL/MOL
REMARK 924 INTRA-LIGAND FREE ENERGY PREDICTED BY IDOCK:   -2.11 KCAL/MOL
REMARK 927      BINDING AFFINITY PREDICTED BY RF-SCORE:    0.00 PKD
ROOT
HETATM    1  C   UNL     1      -8.672  10.487  63.954  1.00  0.00    -0.171 C  
HETATM    2  S   UNL     1      -7.295   9.370  63.921  1.00  0.00    -0.110 S  
HETATM    3  O   UNL     1      -6.098  10.147  63.669  1.00  0.00    -0.124 OA 
HETATM    4  O   UNL     1      -7.658   8.249  63.077  1.00  0.00    -0.109 OA 
ENDROOT
BRANCH   2   5
HETATM    5  C   UNL     1      -7.243   8.799  65.605  1.00  0.00    -0.084 C  
BRANCH   5   6
HETATM    6  C   UNL     1      -7.675   7.344  65.712  1.00  0.00    -0.102 C  
BRANCH   6   7
HETATM    7  N   UNL     1      -9.128   7.161  65.625  1.00  0.00    -0.380 NA 
HETATM    8  H   UNL     1      -9.457   7.326  64.674  1.00  0.00     0.000 HD 
BRANCH   7   9
HETATM    9  C   UNL     1      -9.580   5.857  66.112  1.00  0.00    -0.076 C  
BRANCH   9  10
HETATM   10  C   UNL     1     -10.055   5.963  67.516  1.00  0.00    -0.165 A  
HETATM   11  C   UNL     1     -10.132   5.066  68.559  1.00  0.00    -0.184 A  
HETATM   12  C   UNL     1     -10.679   5.776  69.654  1.00  0.00    -0.416 A  
HETATM   13  C   UNL     1     -10.884   7.073  69.227  1.00  0.00    -0.214 A  
HETATM   14  O   UNL     1     -10.495   7.185  67.922  1.00  0.00    -0.189 OA 
BRANCH  13  15
HETATM   15  C   UNL     1     -11.403   8.287  69.842  1.00  0.00     0.064 A  
HETATM   16  C   UNL     1     -11.190   9.544  69.260  1.00  0.00    -0.032 A  
HETATM   17  C   UNL     1     -11.687  10.731  69.862  1.00  0.00    -0.412 A  
HETATM   18  C   UNL     1     -12.404  10.643  71.065  1.00  0.00    -0.403 A  
HETATM   19  C   UNL     1     -12.609   9.401  71.632  1.00  0.00    -0.460 A  
HETATM   20  N   UNL     1     -12.894  11.699  71.714  1.00  0.00    -0.359 NA 
HETATM   21  C   UNL     1     -12.651  12.888  71.170  1.00  0.00    -0.281 A  
HETATM   22  C   UNL     1     -12.121   8.236  71.038  1.00  0.00    -0.225 A  
HETATM   23  N   UNL     1     -11.976  13.101  70.043  1.00  0.00    -0.339 NA 
HETATM   24  C   UNL     1     -11.500  12.041  69.375  1.00  0.00    -0.296 A  
BRANCH  24  25
HETATM   25  N   UNL     1     -10.717  12.245  68.201  1.00  0.00    -0.208 NA 
HETATM   26  H   UNL     1     -10.292  11.409  67.801  1.00  0.00     0.000 HD 
BRANCH  25  27
HETATM   27  C   UNL     1     -10.453  13.455  67.519  1.00  0.00    -0.236 A  
HETATM   28  C   UNL     1      -9.176  14.003  67.402  1.00  0.00    -0.216 A  
HETATM   29  C   UNL     1      -8.914  15.146  66.643  1.00  0.00    -0.287 A  
HETATM   30  C   UNL     1      -9.951  15.767  65.938  1.00  0.00    -0.352 A  
HETATM   31 CL   UNL     1      -7.268  15.681  66.726  1.00  0.00    -0.059 Cl 
HETATM   32  C   UNL     1     -11.253  15.268  66.102  1.00  0.00    -0.225 A  
HETATM   33  C   UNL     1     -11.501  14.130  66.886  1.00  0.00    -0.373 A  
BRANCH  30  34
HETATM   34  O   UNL     1      -9.884  16.840  65.084  1.00  0.00    -0.297 OA 
BRANCH  34  35
HETATM   35  C   UNL     1     -10.713  17.952  65.412  1.00  0.00     0.123 C  
BRANCH  35  36
HETATM   36  C   UNL     1     -10.132  18.764  66.539  1.00  0.00    -0.437 A  
HETATM   37  C   UNL     1     -10.752  18.789  67.792  1.00  0.00    -0.406 A  
HETATM   38  C   UNL     1     -10.266  19.638  68.779  1.00  0.00    -0.361 A  
HETATM   39  C   UNL     1      -9.172  20.463  68.543  1.00  0.00     0.189 A  
HETATM   40  F   UNL     1     -10.875  19.676  69.971  1.00  0.00     0.421 F  
HETATM   41  C   UNL     1      -8.548  20.440  67.301  1.00  0.00    -0.414 A  
HETATM   42  C   UNL     1      -9.024  19.597  66.301  1.00  0.00    -0.420 A  
ENDBRANCH  35  36
ENDBRANCH  34  35
ENDBRANCH  30  34
ENDBRANCH  25  27
ENDBRANCH  24  25
ENDBRANCH  13  15
ENDBRANCH   9  10
ENDBRANCH   7   9
ENDBRANCH   6   7
ENDBRANCH   5   6
ENDBRANCH   2   5
TORSDOF 11
ENDMDL
MODEL      164
REMARK 921   NORMALIZED FREE ENERGY PREDICTED BY IDOCK:   -4.86 KCAL/MOL
REMARK 922        TOTAL FREE ENERGY PREDICTED BY IDOCK:  -10.73 KCAL/MOL
REMARK 923 INTER-LIGAND FREE ENERGY PREDICTED BY IDOCK:   -8.71 KCAL/MOL
REMARK 924 INTRA-LIGAND FREE ENERGY PREDICTED BY IDOCK:   -2.02 KCAL/MOL
REMARK 927      BINDING AFFINITY PREDICTED BY RF-SCORE:    0.00 PKD
ROOT
HETATM    1  C   UNL     1     -12.386  13.350  65.995  1.00  0.00    -0.413 C  
HETATM    2  S   UNL     1     -11.723  14.105  64.533  1.00  0.00    -0.405 S  
HETATM    3  O   UNL     1     -10.318  14.371  64.768  1.00  0.00    -0.431 OA 
HETATM    4  O   UNL     1     -12.633  15.158  64.130  1.00  0.00    -0.737 OA 
ENDROOT
BRANCH   2   5
HETATM    5  C   UNL     1     -11.848  12.785  63.348  1.00  0.00    -0.518 C  
BRANCH   5   6
HETATM    6  C   UNL     1     -10.900  11.644  63.686  1.00  0.00    -0.432 C  
BRANCH   6   7
HETATM    7  N   UNL     1      -9.520  11.886  63.251  1.00  0.00    -0.636 NA 
HETATM    8  H   UNL     1      -8.998  12.390  63.968  1.00  0.00     0.000 HD 
BRANCH   7   9
HETATM    9  C   UNL     1      -8.812  10.668  62.855  1.00  0.00    -0.245 C  
BRANCH   9  10
HETATM   10  C   UNL     1      -8.274   9.968  64.050  1.00  0.00    -0.156 A  
HETATM   11  C   UNL     1      -7.683  10.405  65.215  1.00  0.00    -0.124 A  
HETATM   12  C   UNL     1      -7.388   9.246  65.971  1.00  0.00    -0.095 A  
HETATM   13  C   UNL     1      -7.836   8.166  65.236  1.00  0.00    -0.115 A  
HETATM   14  O   UNL     1      -8.384   8.612  64.066  1.00  0.00    -0.168 OA 
BRANCH  13  15
HETATM   15  C   UNL     1      -7.848   6.723  65.434  1.00  0.00    -0.115 A  
HETATM   16  C   UNL     1      -7.321   6.145  66.597  1.00  0.00    -0.082 A  
HETATM   17  C   UNL     1      -7.323   4.737  66.788  1.00  0.00    -0.082 A  
HETATM   18  C   UNL     1      -7.861   3.908  65.792  1.00  0.00    -0.090 A  
HETATM   19  C   UNL     1      -8.378   4.486  64.649  1.00  0.00    -0.117 A  
HETATM   20  N   UNL     1      -7.893   2.579  65.872  1.00  0.00    -0.080 NA 
HETATM   21  C   UNL     1      -7.354   2.043  66.964  1.00  0.00    -0.060 A  
HETATM   22  C   UNL     1      -8.376   5.869  64.464  1.00  0.00    -0.069 A  
HETATM   23  N   UNL     1      -6.805   2.719  67.969  1.00  0.00    -0.047 NA 
HETATM   24  C   UNL     1      -6.791   4.059  67.904  1.00  0.00    -0.047 A  
BRANCH  24  25
HETATM   25  N   UNL     1      -6.150   4.805  68.935  1.00  0.00    -0.029 NA 
HETATM   26  H   UNL     1      -5.223   5.166  68.711  1.00  0.00     0.000 HD 
BRANCH  25  27
HETATM   27  C   UNL     1      -6.631   5.109  70.230  1.00  0.00    -0.039 A  
HETATM   28  C   UNL     1      -6.842   6.412  70.679  1.00  0.00    -0.063 A  
HETATM   29  C   UNL     1      -7.409   6.697  71.924  1.00  0.00    -0.086 A  
HETATM   30  C   UNL     1      -7.819   5.651  72.758  1.00  0.00    -0.102 A  
HETATM   31 CL   UNL     1      -7.485   8.389  72.290  1.00  0.00    -0.148 Cl 
HETATM   32  C   UNL     1      -7.550   4.335  72.349  1.00  0.00    -0.074 A  
HETATM   33  C   UNL     1      -6.959   4.068  71.104  1.00  0.00    -0.032 A  
BRANCH  30  34
HETATM   34  O   UNL     1      -8.461   5.723  73.969  1.00  0.00    -0.117 OA 
BRANCH  34  35
HETATM   35  C   UNL     1      -9.866   5.483  73.947  1.00  0.00    -0.178 C  
BRANCH  35  36
HETATM   36  C   UNL     1     -10.559   6.339  72.921  1.00  0.00    -0.257 A  
HETATM   37  C   UNL     1     -10.876   5.825  71.661  1.00  0.00    -0.316 A  
HETATM   38  C   UNL     1     -11.408   6.668  70.691  1.00  0.00    -0.347 A  
HETATM   39  C   UNL     1     -11.630   8.016  70.954  1.00  0.00    -0.284 A  
HETATM   40  F   UNL     1     -11.691   6.177  69.478  1.00  0.00    -0.494 F  
HETATM   41  C   UNL     1     -11.321   8.533  72.206  1.00  0.00    -0.441 A  
HETATM   42  C   UNL     1     -10.786   7.702  73.188  1.00  0.00    -0.440 A  
ENDBRANCH  35  36
ENDBRANCH  34  35
ENDBRANCH  30  34
ENDBRANCH  25  27
ENDBRANCH  24  25
ENDBRANCH  13  15
ENDBRANCH   9  10
ENDBRANCH   7   9
ENDBRANCH   6   7
ENDBRANCH   5   6
ENDBRANCH   2   5
TORSDOF 11
ENDMDL
MODEL      165
REMARK 921   NORMALIZED FREE ENERGY PREDICTED BY IDOCK:   -4.85 KCAL/MOL
REMARK 922        TOTAL FREE ENERGY PREDICTED BY IDOCK:  -10.72 KCAL/MOL
REMARK 923 INTER-LIGAND FREE ENERGY PREDICTED BY IDOCK:   -8.59 KCAL/MOL
REMARK 924 INTRA-LIGAND FREE ENERGY PREDICTED BY IDOCK:   -2.13 KCAL/MOL
REMARK 927      BINDING AFFINITY PREDICTED BY RF-SCORE:    0.00 PKD
ROOT
HETATM    1  C   UNL     1     -10.709  19.262  67.150  1.00  0.00    -0.480 C  
HETATM    2  S   UNL     1     -10.369  17.544  66.871  1.00  0.00    -0.291 S  
HETATM    3  O   UNL     1     -10.597  17.267  65.467  1.00  0.00    -0.580 OA 
HETATM    4  O   UNL     1     -11.043  16.788  67.907  1.00  0.00    -0.302 OA 
ENDROOT
BRANCH   2   5
HETATM    5  C   UNL     1      -8.619  17.460  67.177  1.00  0.00    -0.219 C  
BRANCH   5   6
HETATM    6  C   UNL     1      -8.320  16.802  68.516  1.00  0.00    -0.243 C  
BRANCH   6   7
HETATM    7  N   UNL     1      -7.592  15.535  68.393  1.00  0.00    -0.114 NA 
HETATM    8  H   UNL     1      -7.790  14.925  69.186  1.00  0.00     0.000 HD 
BRANCH   7   9
HETATM    9  C   UNL     1      -7.843  14.840  67.129  1.00  0.00    -0.148 C  
BRANCH   9  10
HETATM   10  C   UNL     1      -8.223  13.426  67.382  1.00  0.00    -0.183 A  
HETATM   11  C   UNL     1      -7.773  12.223  66.885  1.00  0.00    -0.017 A  
HETATM   12  C   UNL     1      -8.539  11.218  67.522  1.00  0.00    -0.134 A  
HETATM   13  C   UNL     1      -9.398  11.862  68.390  1.00  0.00    -0.184 A  
HETATM   14  O   UNL     1      -9.197  13.211  68.307  1.00  0.00    -0.207 OA 
BRANCH  13  15
HETATM   15  C   UNL     1     -10.424  11.429  69.330  1.00  0.00    -0.104 A  
HETATM   16  C   UNL     1     -10.315  10.210  70.012  1.00  0.00    -0.301 A  
HETATM   17  C   UNL     1     -11.319   9.780  70.923  1.00  0.00    -0.439 A  
HETATM   18  C   UNL     1     -12.442  10.593  71.141  1.00  0.00    -0.418 A  
HETATM   19  C   UNL     1     -12.541  11.792  70.464  1.00  0.00    -0.234 A  
HETATM   20  N   UNL     1     -13.441  10.270  71.960  1.00  0.00    -0.357 NA 
HETATM   21  C   UNL     1     -13.344   9.092  72.571  1.00  0.00    -0.417 A  
HETATM   22  C   UNL     1     -11.553  12.212  69.571  1.00  0.00    -0.382 A  
HETATM   23  N   UNL     1     -12.338   8.231  72.438  1.00  0.00    -0.350 NA 
HETATM   24  C   UNL     1     -11.318   8.562  71.632  1.00  0.00    -0.295 A  
BRANCH  24  25
HETATM   25  N   UNL     1     -10.261   7.630  71.420  1.00  0.00    -0.186 NA 
HETATM   26  H   UNL     1      -9.566   7.571  72.164  1.00  0.00     0.000 HD 
BRANCH  25  27
HETATM   27  C   UNL     1     -10.049   6.776  70.313  1.00  0.00    -0.179 A  
HETATM   28  C   UNL     1      -8.863   6.072  70.107  1.00  0.00    -0.143 A  
HETATM   29  C   UNL     1      -8.702   5.156  69.064  1.00  0.00    -0.092 A  
HETATM   30  C   UNL     1      -9.768   4.895  68.197  1.00  0.00    -0.148 A  
HETATM   31 CL   UNL     1      -7.110   4.478  68.965  1.00  0.00    -0.051 Cl 
HETATM   32  C   UNL     1     -10.944   5.646  68.349  1.00  0.00    -0.038 A  
HETATM   33  C   UNL     1     -11.081   6.578  69.390  1.00  0.00    -0.407 A  
BRANCH  30  34
HETATM   34  O   UNL     1      -9.834   3.984  67.171  1.00  0.00    -0.202 OA 
BRANCH  34  35
HETATM   35  C   UNL     1      -9.944   4.528  65.859  1.00  0.00    -0.244 C  
BRANCH  35  36
HETATM   36  C   UNL     1      -8.651   5.156  65.409  1.00  0.00    -0.146 A  
HETATM   37  C   UNL     1      -7.541   4.362  65.104  1.00  0.00    -0.077 A  
HETATM   38  C   UNL     1      -6.327   4.969  64.806  1.00  0.00    -0.034 A  
HETATM   39  C   UNL     1      -6.195   6.354  64.806  1.00  0.00    -0.030 A  
HETATM   40  F   UNL     1      -5.260   4.206  64.535  1.00  0.00    -0.008 F  
HETATM   41  C   UNL     1      -7.295   7.149  65.104  1.00  0.00    -0.081 A  
HETATM   42  C   UNL     1      -8.519   6.557  65.406  1.00  0.00    -0.119 A  
ENDBRANCH  35  36
ENDBRANCH  34  35
ENDBRANCH  30  34
ENDBRANCH  25  27
ENDBRANCH  24  25
ENDBRANCH  13  15
ENDBRANCH   9  10
ENDBRANCH   7   9
ENDBRANCH   6   7
ENDBRANCH   5   6
ENDBRANCH   2   5
TORSDOF 11
ENDMDL
MODEL      166
REMARK 921   NORMALIZED FREE ENERGY PREDICTED BY IDOCK:   -4.80 KCAL/MOL
REMARK 922        TOTAL FREE ENERGY PREDICTED BY IDOCK:  -10.63 KCAL/MOL
REMARK 923 INTER-LIGAND FREE ENERGY PREDICTED BY IDOCK:   -8.50 KCAL/MOL
REMARK 924 INTRA-LIGAND FREE ENERGY PREDICTED BY IDOCK:   -2.13 KCAL/MOL
REMARK 927      BINDING AFFINITY PREDICTED BY RF-SCORE:    0.00 PKD
ROOT
HETATM    1  C   UNL     1      -9.901   6.955  66.873  1.00  0.00    -0.183 C  
HETATM    2  S   UNL     1      -9.612   5.240  66.525  1.00  0.00    -0.169 S  
HETATM    3  O   UNL     1     -10.597   4.812  65.552  1.00  0.00    -0.218 OA 
HETATM    4  O   UNL     1      -9.456   4.553  67.791  1.00  0.00    -0.138 OA 
ENDROOT
BRANCH   2   5
HETATM    5  C   UNL     1      -8.024   5.289  65.724  1.00  0.00    -0.105 C  
BRANCH   5   6
HETATM    6  C   UNL     1      -8.125   4.868  64.265  1.00  0.00    -0.115 C  
BRANCH   6   7
HETATM    7  N   UNL     1      -8.678   5.911  63.396  1.00  0.00    -0.324 NA 
HETATM    8  H   UNL     1      -9.200   6.597  63.941  1.00  0.00     0.000 HD 
BRANCH   7   9
HETATM    9  C   UNL     1      -7.671   6.568  62.561  1.00  0.00    -0.098 C  
BRANCH   9  10
HETATM   10  C   UNL     1      -7.477   7.976  62.996  1.00  0.00    -0.114 A  
HETATM   11  C   UNL     1      -6.360   8.751  63.219  1.00  0.00    -0.089 A  
HETATM   12  C   UNL     1      -6.832  10.023  63.620  1.00  0.00    -0.130 A  
HETATM   13  C   UNL     1      -8.211   9.962  63.598  1.00  0.00    -0.157 A  
HETATM   14  O   UNL     1      -8.602   8.711  63.209  1.00  0.00    -0.136 OA 
BRANCH  13  15
HETATM   15  C   UNL     1      -9.286  10.901  63.888  1.00  0.00    -0.267 A  
HETATM   16  C   UNL     1      -9.344  11.583  65.112  1.00  0.00    -0.129 A  
HETATM   17  C   UNL     1     -10.396  12.493  65.402  1.00  0.00    -0.305 A  
HETATM   18  C   UNL     1     -11.398  12.713  64.444  1.00  0.00    -0.344 A  
HETATM   19  C   UNL     1     -11.334  12.037  63.242  1.00  0.00    -0.396 A  
HETATM   20  N   UNL     1     -12.432  13.532  64.630  1.00  0.00    -0.598 NA 
HETATM   21  C   UNL     1     -12.495  14.142  65.810  1.00  0.00    -0.466 A  
HETATM   22  C   UNL     1     -10.299  11.144  62.959  1.00  0.00    -0.217 A  
HETATM   23  N   UNL     1     -11.615  14.008  66.799  1.00  0.00    -0.366 NA 
HETATM   24  C   UNL     1     -10.560  13.201  66.610  1.00  0.00    -0.279 A  
BRANCH  24  25
HETATM   25  N   UNL     1      -9.640  12.988  67.676  1.00  0.00    -0.200 NA 
HETATM   26  H   UNL     1      -9.112  13.808  67.977  1.00  0.00     0.000 HD 
BRANCH  25  27
HETATM   27  C   UNL     1      -9.362  11.789  68.373  1.00  0.00    -0.185 A  
HETATM   28  C   UNL     1      -8.069  11.321  68.603  1.00  0.00    -0.145 A  
HETATM   29  C   UNL     1      -7.804  10.189  69.377  1.00  0.00    -0.150 A  
HETATM   30  C   UNL     1      -8.860   9.497  69.981  1.00  0.00    -0.223 A  
HETATM   31 CL   UNL     1      -6.127   9.758  69.440  1.00  0.00    -0.040 Cl 
HETATM   32  C   UNL     1     -10.170   9.915  69.702  1.00  0.00    -0.261 A  
HETATM   33  C   UNL     1     -10.418  11.043  68.905  1.00  0.00    -0.229 A  
BRANCH  30  34
HETATM   34  O   UNL     1      -8.802   8.420  70.832  1.00  0.00    -0.139 OA 
BRANCH  34  35
HETATM   35  C   UNL     1      -9.512   8.555  72.060  1.00  0.00    -0.294 C  
BRANCH  35  36
HETATM   36  C   UNL     1     -10.624   7.546  72.171  1.00  0.00    -0.262 A  
HETATM   37  C   UNL     1     -11.929   7.878  71.793  1.00  0.00    -0.337 A  
HETATM   38  C   UNL     1     -12.958   6.971  72.016  1.00  0.00    -0.145 A  
HETATM   39  C   UNL     1     -12.714   5.737  72.609  1.00  0.00     0.456 A  
HETATM   40  F   UNL     1     -14.210   7.300  71.672  1.00  0.00    -0.463 F  
HETATM   41  C   UNL     1     -11.419   5.399  72.985  1.00  0.00    -0.324 A  
HETATM   42  C   UNL     1     -10.376   6.297  72.770  1.00  0.00    -0.216 A  
ENDBRANCH  35  36
ENDBRANCH  34  35
ENDBRANCH  30  34
ENDBRANCH  25  27
ENDBRANCH  24  25
ENDBRANCH  13  15
ENDBRANCH   9  10
ENDBRANCH   7   9
ENDBRANCH   6   7
ENDBRANCH   5   6
ENDBRANCH   2   5
TORSDOF 11
ENDMDL
MODEL      167
REMARK 921   NORMALIZED FREE ENERGY PREDICTED BY IDOCK:   -4.78 KCAL/MOL
REMARK 922        TOTAL FREE ENERGY PREDICTED BY IDOCK:  -10.59 KCAL/MOL
REMARK 923 INTER-LIGAND FREE ENERGY PREDICTED BY IDOCK:   -8.22 KCAL/MOL
REMARK 924 INTRA-LIGAND FREE ENERGY PREDICTED BY IDOCK:   -2.37 KCAL/MOL
REMARK 927      BINDING AFFINITY PREDICTED BY RF-SCORE:    0.00 PKD
ROOT
HETATM    1  C   UNL     1     -11.934  14.556  64.749  1.00  0.00    -0.442 C  
HETATM    2  S   UNL     1     -11.895  12.790  64.581  1.00  0.00    -0.400 S  
HETATM    3  O   UNL     1     -10.889  12.460  63.592  1.00  0.00    -0.411 OA 
HETATM    4  O   UNL     1     -13.262  12.330  64.448  1.00  0.00    -0.806 OA 
ENDROOT
BRANCH   2   5
HETATM    5  C   UNL     1     -11.294  12.281  66.176  1.00  0.00    -0.353 C  
BRANCH   5   6
HETATM    6  C   UNL     1      -9.974  12.959  66.514  1.00  0.00    -0.259 C  
BRANCH   6   7
HETATM    7  N   UNL     1      -8.933  12.022  66.950  1.00  0.00    -0.194 NA 
HETATM    8  H   UNL     1      -8.390  11.689  66.153  1.00  0.00     0.000 HD 
BRANCH   7   9
HETATM    9  C   UNL     1      -8.054  12.567  67.985  1.00  0.00    -0.164 C  
BRANCH   9  10
HETATM   10  C   UNL     1      -7.425  11.468  68.763  1.00  0.00    -0.119 A  
HETATM   11  C   UNL     1      -6.128  11.022  68.890  1.00  0.00    -0.041 A  
HETATM   12  C   UNL     1      -6.170   9.928  69.786  1.00  0.00    -0.050 A  
HETATM   13  C   UNL     1      -7.487   9.781  70.175  1.00  0.00    -0.164 A  
HETATM   14  O   UNL     1      -8.250  10.728  69.552  1.00  0.00    -0.091 OA 
BRANCH  13  15
HETATM   15  C   UNL     1      -8.200   8.873  71.063  1.00  0.00    -0.217 A  
HETATM   16  C   UNL     1      -9.265   8.090  70.598  1.00  0.00    -0.156 A  
HETATM   17  C   UNL     1      -9.969   7.210  71.464  1.00  0.00    -0.190 A  
HETATM   18  C   UNL     1      -9.591   7.125  72.813  1.00  0.00    -0.152 A  
HETATM   19  C   UNL     1      -8.541   7.900  73.263  1.00  0.00    -0.276 A  
HETATM   20  N   UNL     1     -10.199   6.344  73.704  1.00  0.00    -0.241 NA 
HETATM   21  C   UNL     1     -11.233   5.636  73.258  1.00  0.00    -0.187 A  
HETATM   22  C   UNL     1      -7.850   8.763  72.410  1.00  0.00     0.068 A  
HETATM   23  N   UNL     1     -11.693   5.640  72.009  1.00  0.00    -0.107 NA 
HETATM   24  C   UNL     1     -11.070   6.408  71.102  1.00  0.00    -0.291 A  
BRANCH  24  25
HETATM   25  N   UNL     1     -11.583   6.481  69.775  1.00  0.00    -0.609 NA 
HETATM   26  H   UNL     1     -12.597   6.554  69.694  1.00  0.00     0.000 HD 
BRANCH  25  27
HETATM   27  C   UNL     1     -10.869   6.465  68.553  1.00  0.00    -0.314 A  
HETATM   28  C   UNL     1     -10.686   7.598  67.762  1.00  0.00    -0.215 A  
HETATM   29  C   UNL     1      -9.897   7.591  66.609  1.00  0.00    -0.204 A  
HETATM   30  C   UNL     1      -9.228   6.421  66.230  1.00  0.00    -0.139 A  
HETATM   31 CL   UNL     1      -9.897   9.095  65.749  1.00  0.00    -0.329 Cl 
HETATM   32  C   UNL     1      -9.459   5.256  66.978  1.00  0.00    -0.137 A  
HETATM   33  C   UNL     1     -10.273   5.276  68.122  1.00  0.00    -0.204 A  
BRANCH  30  34
HETATM   34  O   UNL     1      -8.355   6.234  65.187  1.00  0.00    -0.142 OA 
BRANCH  34  35
HETATM   35  C   UNL     1      -6.999   6.593  65.436  1.00  0.00    -0.056 C  
BRANCH  35  36
HETATM   36  C   UNL     1      -6.639   7.896  64.771  1.00  0.00    -0.048 A  
HETATM   37  C   UNL     1      -6.352   9.030  65.536  1.00  0.00    -0.067 A  
HETATM   38  C   UNL     1      -6.139  10.249  64.901  1.00  0.00    -0.128 A  
HETATM   39  C   UNL     1      -6.208  10.359  63.516  1.00  0.00    -0.087 A  
HETATM   40  F   UNL     1      -5.885  11.338  65.637  1.00  0.00    -0.129 F  
HETATM   41  C   UNL     1      -6.490   9.235  62.749  1.00  0.00    -0.093 A  
HETATM   42  C   UNL     1      -6.707   8.007  63.370  1.00  0.00    -0.076 A  
ENDBRANCH  35  36
ENDBRANCH  34  35
ENDBRANCH  30  34
ENDBRANCH  25  27
ENDBRANCH  24  25
ENDBRANCH  13  15
ENDBRANCH   9  10
ENDBRANCH   7   9
ENDBRANCH   6   7
ENDBRANCH   5   6
ENDBRANCH   2   5
TORSDOF 11
ENDMDL
MODEL      168
REMARK 921   NORMALIZED FREE ENERGY PREDICTED BY IDOCK:   -4.77 KCAL/MOL
REMARK 922        TOTAL FREE ENERGY PREDICTED BY IDOCK:  -10.59 KCAL/MOL
REMARK 923 INTER-LIGAND FREE ENERGY PREDICTED BY IDOCK:   -8.41 KCAL/MOL
REMARK 924 INTRA-LIGAND FREE ENERGY PREDICTED BY IDOCK:   -2.17 KCAL/MOL
REMARK 927      BINDING AFFINITY PREDICTED BY RF-SCORE:    0.00 PKD
ROOT
HETATM    1  C   UNL     1     -10.823   2.922  72.859  1.00  0.00    -0.027 C  
HETATM    2  S   UNL     1     -10.140   4.553  72.721  1.00  0.00    -0.172 S  
HETATM    3  O   UNL     1     -11.178   5.428  72.215  1.00  0.00    -0.236 OA 
HETATM    4  O   UNL     1      -8.859   4.439  72.054  1.00  0.00    -0.114 OA 
ENDROOT
BRANCH   2   5
HETATM    5  C   UNL     1      -9.841   4.973  74.424  1.00  0.00    -0.186 C  
BRANCH   5   6
HETATM    6  C   UNL     1      -8.931   6.187  74.545  1.00  0.00    -0.141 C  
BRANCH   6   7
HETATM    7  N   UNL     1      -9.559   7.432  74.089  1.00  0.00    -0.415 NA 
HETATM    8  H   UNL     1      -9.788   8.033  74.881  1.00  0.00     0.000 HD 
BRANCH   7   9
HETATM    9  C   UNL     1      -8.761   8.158  73.100  1.00  0.00    -0.240 C  
BRANCH   9  10
HETATM   10  C   UNL     1      -9.513   8.296  71.826  1.00  0.00    -0.209 A  
HETATM   11  C   UNL     1     -10.575   9.082  71.435  1.00  0.00    -0.393 A  
HETATM   12  C   UNL     1     -10.839   8.751  70.085  1.00  0.00    -0.241 A  
HETATM   13  C   UNL     1      -9.910   7.797  69.719  1.00  0.00    -0.178 A  
HETATM   14  O   UNL     1      -9.097   7.527  70.784  1.00  0.00    -0.152 OA 
BRANCH  13  15
HETATM   15  C   UNL     1      -9.627   7.054  68.499  1.00  0.00    -0.137 A  
HETATM   16  C   UNL     1      -9.004   7.667  67.403  1.00  0.00    -0.130 A  
HETATM   17  C   UNL     1      -8.734   6.948  66.208  1.00  0.00    -0.149 A  
HETATM   18  C   UNL     1      -9.102   5.596  66.122  1.00  0.00    -0.152 A  
HETATM   19  C   UNL     1      -9.716   5.000  67.206  1.00  0.00    -0.182 A  
HETATM   20  N   UNL     1      -8.907   4.843  65.040  1.00  0.00    -0.152 NA 
HETATM   21  C   UNL     1      -8.350   5.449  63.995  1.00  0.00    -0.116 A  
HETATM   22  C   UNL     1      -9.978   5.709  68.379  1.00  0.00    -0.201 A  
HETATM   23  N   UNL     1      -7.970   6.723  63.950  1.00  0.00    -0.103 NA 
HETATM   24  C   UNL     1      -8.143   7.479  65.044  1.00  0.00    -0.127 A  
BRANCH  24  25
HETATM   25  N   UNL     1      -7.805   8.863  65.001  1.00  0.00    -0.106 NA 
HETATM   26  H   UNL     1      -6.836   9.076  64.764  1.00  0.00     0.000 HD 
BRANCH  25  27
HETATM   27  C   UNL     1      -8.638   9.981  65.243  1.00  0.00    -0.154 A  
HETATM   28  C   UNL     1      -8.436  10.869  66.298  1.00  0.00    -0.166 A  
HETATM   29  C   UNL     1      -9.205  12.023  66.469  1.00  0.00    -0.216 A  
HETATM   30  C   UNL     1     -10.204  12.337  65.540  1.00  0.00    -0.269 A  
HETATM   31 CL   UNL     1      -8.821  12.917  67.902  1.00  0.00    -0.180 Cl 
HETATM   32  C   UNL     1     -10.465  11.417  64.513  1.00  0.00    -0.381 A  
HETATM   33  C   UNL     1      -9.695  10.252  64.369  1.00  0.00    -0.381 A  
BRANCH  30  34
HETATM   34  O   UNL     1     -11.006  13.451  65.489  1.00  0.00    -0.280 OA 
BRANCH  34  35
HETATM   35  C   UNL     1     -10.452  14.590  64.838  1.00  0.00    -0.409 C  
BRANCH  35  36
HETATM   36  C   UNL     1     -10.082  15.667  65.823  1.00  0.00    -0.394 A  
HETATM   37  C   UNL     1      -8.789  16.198  65.847  1.00  0.00    -0.196 A  
HETATM   38  C   UNL     1      -8.439  17.104  66.841  1.00  0.00    -0.222 A  
HETATM   39  C   UNL     1      -9.353  17.493  67.814  1.00  0.00    -0.257 A  
HETATM   40  F   UNL     1      -7.193  17.594  66.875  1.00  0.00    -0.185 F  
HETATM   41  C   UNL     1     -10.642  16.973  67.794  1.00  0.00    -0.350 A  
HETATM   42  C   UNL     1     -11.008  16.063  66.805  1.00  0.00    -0.112 A  
ENDBRANCH  35  36
ENDBRANCH  34  35
ENDBRANCH  30  34
ENDBRANCH  25  27
ENDBRANCH  24  25
ENDBRANCH  13  15
ENDBRANCH   9  10
ENDBRANCH   7   9
ENDBRANCH   6   7
ENDBRANCH   5   6
ENDBRANCH   2   5
TORSDOF 11
ENDMDL
MODEL      169
REMARK 921   NORMALIZED FREE ENERGY PREDICTED BY IDOCK:   -4.75 KCAL/MOL
REMARK 922        TOTAL FREE ENERGY PREDICTED BY IDOCK:  -10.56 KCAL/MOL
REMARK 923 INTER-LIGAND FREE ENERGY PREDICTED BY IDOCK:   -8.87 KCAL/MOL
REMARK 924 INTRA-LIGAND FREE ENERGY PREDICTED BY IDOCK:   -1.69 KCAL/MOL
REMARK 927      BINDING AFFINITY PREDICTED BY RF-SCORE:    0.00 PKD
ROOT
HETATM    1  C   UNL     1      -7.980   5.594  65.192  1.00  0.00    -0.113 C  
HETATM    2  S   UNL     1      -9.138   4.251  65.199  1.00  0.00    -0.153 S  
HETATM    3  O   UNL     1      -9.467   3.940  63.823  1.00  0.00    -0.141 OA 
HETATM    4  O   UNL     1     -10.168   4.562  66.169  1.00  0.00    -0.247 OA 
ENDROOT
BRANCH   2   5
HETATM    5  C   UNL     1      -8.153   2.919  65.849  1.00  0.00    -0.087 C  
BRANCH   5   6
HETATM    6  C   UNL     1      -8.961   2.040  66.793  1.00  0.00    -0.106 C  
BRANCH   6   7
HETATM    7  N   UNL     1      -8.928   2.499  68.186  1.00  0.00    -0.132 NA 
HETATM    8  H   UNL     1      -9.457   3.365  68.294  1.00  0.00     0.000 HD 
BRANCH   7   9
HETATM    9  C   UNL     1      -9.385   1.490  69.142  1.00  0.00    -0.119 C  
BRANCH   9  10
HETATM   10  C   UNL     1      -9.282   2.008  70.531  1.00  0.00    -0.109 A  
HETATM   11  C   UNL     1      -9.851   1.626  71.727  1.00  0.00    -0.209 A  
HETATM   12  C   UNL     1      -9.357   2.521  72.705  1.00  0.00    -0.132 A  
HETATM   13  C   UNL     1      -8.496   3.385  72.058  1.00  0.00    -0.081 A  
HETATM   14  O   UNL     1      -8.448   3.064  70.730  1.00  0.00    -0.058 OA 
BRANCH  13  15
HETATM   15  C   UNL     1      -7.670   4.513  72.469  1.00  0.00    -0.086 A  
HETATM   16  C   UNL     1      -7.803   5.769  71.862  1.00  0.00    -0.106 A  
HETATM   17  C   UNL     1      -6.993   6.869  72.255  1.00  0.00    -0.062 A  
HETATM   18  C   UNL     1      -6.039   6.692  73.269  1.00  0.00    -0.058 A  
HETATM   19  C   UNL     1      -5.914   5.451  73.861  1.00  0.00    -0.051 A  
HETATM   20  N   UNL     1      -5.223   7.655  73.694  1.00  0.00    -0.045 NA 
HETATM   21  C   UNL     1      -5.333   8.832  73.083  1.00  0.00    -0.075 A  
HETATM   22  C   UNL     1      -6.713   4.373  73.475  1.00  0.00    -0.058 A  
HETATM   23  N   UNL     1      -6.187   9.119  72.103  1.00  0.00    -0.252 NA 
HETATM   24  C   UNL     1      -7.027   8.159  71.688  1.00  0.00    -0.072 A  
BRANCH  24  25
HETATM   25  N   UNL     1      -7.906   8.420  70.597  1.00  0.00    -0.085 NA 
HETATM   26  H   UNL     1      -7.610   8.054  69.692  1.00  0.00     0.000 HD 
BRANCH  25  27
HETATM   27  C   UNL     1      -9.134   9.121  70.604  1.00  0.00    -0.257 A  
HETATM   28  C   UNL     1      -9.553   9.939  69.556  1.00  0.00    -0.242 A  
HETATM   29  C   UNL     1     -10.810  10.548  69.531  1.00  0.00    -0.256 A  
HETATM   30  C   UNL     1     -11.715  10.318  70.574  1.00  0.00    -0.331 A  
HETATM   31 CL   UNL     1     -11.062  11.586  68.167  1.00  0.00    -0.276 Cl 
HETATM   32  C   UNL     1     -11.282   9.553  71.668  1.00  0.00    -0.378 A  
HETATM   33  C   UNL     1     -10.006   8.967  71.686  1.00  0.00    -0.397 A  
BRANCH  30  34
HETATM   34  O   UNL     1     -13.011  10.755  70.695  1.00  0.00    -0.323 OA 
BRANCH  34  35
HETATM   35  C   UNL     1     -13.319  11.474  71.886  1.00  0.00    -0.303 C  
BRANCH  35  36
HETATM   36  C   UNL     1     -13.095  12.954  71.714  1.00  0.00    -0.458 A  
HETATM   37  C   UNL     1     -13.542  13.859  72.680  1.00  0.00    -0.626 A  
HETATM   38  C   UNL     1     -13.430  15.224  72.444  1.00  0.00    -0.463 A  
HETATM   39  C   UNL     1     -12.879  15.706  71.261  1.00  0.00    -0.550 A  
HETATM   40  F   UNL     1     -13.878  16.089  73.362  1.00  0.00    -0.623 F  
HETATM   41  C   UNL     1     -12.428  14.811  70.297  1.00  0.00    -0.393 A  
HETATM   42  C   UNL     1     -12.535  13.441  70.518  1.00  0.00    -0.350 A  
ENDBRANCH  35  36
ENDBRANCH  34  35
ENDBRANCH  30  34
ENDBRANCH  25  27
ENDBRANCH  24  25
ENDBRANCH  13  15
ENDBRANCH   9  10
ENDBRANCH   7   9
ENDBRANCH   6   7
ENDBRANCH   5   6
ENDBRANCH   2   5
TORSDOF 11
ENDMDL
MODEL      170
REMARK 921   NORMALIZED FREE ENERGY PREDICTED BY IDOCK:   -4.75 KCAL/MOL
REMARK 922        TOTAL FREE ENERGY PREDICTED BY IDOCK:  -10.56 KCAL/MOL
REMARK 923 INTER-LIGAND FREE ENERGY PREDICTED BY IDOCK:   -8.65 KCAL/MOL
REMARK 924 INTRA-LIGAND FREE ENERGY PREDICTED BY IDOCK:   -1.91 KCAL/MOL
REMARK 927      BINDING AFFINITY PREDICTED BY RF-SCORE:    0.00 PKD
ROOT
HETATM    1  C   UNL     1     -10.613   5.336  70.394  1.00  0.00    -0.208 C  
HETATM    2  S   UNL     1      -9.330   5.197  71.611  1.00  0.00    -0.150 S  
HETATM    3  O   UNL     1      -9.781   5.870  72.812  1.00  0.00    -0.156 OA 
HETATM    4  O   UNL     1      -8.078   5.550  70.974  1.00  0.00    -0.113 OA 
ENDROOT
BRANCH   2   5
HETATM    5  C   UNL     1      -9.313   3.446  71.929  1.00  0.00    -0.127 C  
BRANCH   5   6
HETATM    6  C   UNL     1      -7.949   2.841  71.627  1.00  0.00    -0.056 C  
BRANCH   6   7
HETATM    7  N   UNL     1      -7.956   1.942  70.467  1.00  0.00    -0.042 NA 
HETATM    8  H   UNL     1      -8.912   1.734  70.177  1.00  0.00     0.000 HD 
BRANCH   7   9
HETATM    9  C   UNL     1      -7.168   2.441  69.340  1.00  0.00    -0.044 C  
BRANCH   9  10
HETATM   10  C   UNL     1      -8.058   3.021  68.301  1.00  0.00    -0.065 A  
HETATM   11  C   UNL     1      -9.305   2.678  67.825  1.00  0.00    -0.229 A  
HETATM   12  C   UNL     1      -9.624   3.628  66.826  1.00  0.00    -0.176 A  
HETATM   13  C   UNL     1      -8.566   4.512  66.764  1.00  0.00    -0.104 A  
HETATM   14  O   UNL     1      -7.614   4.142  67.671  1.00  0.00    -0.068 OA 
BRANCH  13  15
HETATM   15  C   UNL     1      -8.263   5.697  65.973  1.00  0.00    -0.113 A  
HETATM   16  C   UNL     1      -8.170   6.963  66.568  1.00  0.00    -0.117 A  
HETATM   17  C   UNL     1      -7.884   8.123  65.798  1.00  0.00    -0.096 A  
HETATM   18  C   UNL     1      -7.692   7.998  64.413  1.00  0.00    -0.130 A  
HETATM   19  C   UNL     1      -7.787   6.748  63.835  1.00  0.00    -0.106 A  
HETATM   20  N   UNL     1      -7.437   9.027  63.606  1.00  0.00    -0.101 NA 
HETATM   21  C   UNL     1      -7.390  10.227  64.179  1.00  0.00    -0.063 A  
HETATM   22  C   UNL     1      -8.067   5.610  64.594  1.00  0.00    -0.128 A  
HETATM   23  N   UNL     1      -7.565  10.474  65.475  1.00  0.00    -0.145 NA 
HETATM   24  C   UNL     1      -7.800   9.439  66.295  1.00  0.00    -0.100 A  
BRANCH  24  25
HETATM   25  N   UNL     1      -8.057   9.683  67.676  1.00  0.00    -0.113 NA 
HETATM   26  H   UNL     1      -7.235   9.725  68.278  1.00  0.00     0.000 HD 
BRANCH  25  27
HETATM   27  C   UNL     1      -9.302   9.876  68.319  1.00  0.00    -0.132 A  
HETATM   28  C   UNL     1      -9.558   9.461  69.625  1.00  0.00    -0.199 A  
HETATM   29  C   UNL     1     -10.758   9.743  70.283  1.00  0.00    -0.302 A  
HETATM   30  C   UNL     1     -11.744  10.499  69.638  1.00  0.00    -0.256 A  
HETATM   31 CL   UNL     1     -10.873   9.044  71.864  1.00  0.00    -0.432 Cl 
HETATM   32  C   UNL     1     -11.527  10.864  68.300  1.00  0.00    -0.376 A  
HETATM   33  C   UNL     1     -10.324  10.552  67.647  1.00  0.00    -0.257 A  
BRANCH  30  34
HETATM   34  O   UNL     1     -12.944  10.944  70.136  1.00  0.00    -0.183 OA 
BRANCH  34  35
HETATM   35  C   UNL     1     -12.902  11.534  71.432  1.00  0.00    -0.384 C  
BRANCH  35  36
HETATM   36  C   UNL     1     -12.842  13.036  71.356  1.00  0.00    -0.385 A  
HETATM   37  C   UNL     1     -13.578  13.825  72.246  1.00  0.00    -0.656 A  
HETATM   38  C   UNL     1     -13.599  15.205  72.081  1.00  0.00    -0.455 A  
HETATM   39  C   UNL     1     -12.901  15.816  71.045  1.00  0.00    -0.425 A  
HETATM   40  F   UNL     1     -14.322  15.955  72.922  1.00  0.00    -0.643 F  
HETATM   41  C   UNL     1     -12.165  15.039  70.159  1.00  0.00    -0.392 A  
HETATM   42  C   UNL     1     -12.134  13.655  70.310  1.00  0.00    -0.427 A  
ENDBRANCH  35  36
ENDBRANCH  34  35
ENDBRANCH  30  34
ENDBRANCH  25  27
ENDBRANCH  24  25
ENDBRANCH  13  15
ENDBRANCH   9  10
ENDBRANCH   7   9
ENDBRANCH   6   7
ENDBRANCH   5   6
ENDBRANCH   2   5
TORSDOF 11
ENDMDL
MODEL      171
REMARK 921   NORMALIZED FREE ENERGY PREDICTED BY IDOCK:   -4.72 KCAL/MOL
REMARK 922        TOTAL FREE ENERGY PREDICTED BY IDOCK:  -10.50 KCAL/MOL
REMARK 923 INTER-LIGAND FREE ENERGY PREDICTED BY IDOCK:   -8.54 KCAL/MOL
REMARK 924 INTRA-LIGAND FREE ENERGY PREDICTED BY IDOCK:   -1.97 KCAL/MOL
REMARK 927      BINDING AFFINITY PREDICTED BY RF-SCORE:    0.00 PKD
ROOT
HETATM    1  C   UNL     1      -6.828  11.482  67.010  1.00  0.00    -0.147 C  
HETATM    2  S   UNL     1      -7.377  12.158  68.555  1.00  0.00    -0.106 S  
HETATM    3  O   UNL     1      -8.645  12.819  68.325  1.00  0.00    -0.177 OA 
HETATM    4  O   UNL     1      -6.258  12.859  69.152  1.00  0.00    -0.088 OA 
ENDROOT
BRANCH   2   5
HETATM    5  C   UNL     1      -7.682  10.689  69.512  1.00  0.00    -0.106 C  
BRANCH   5   6
HETATM    6  C   UNL     1      -9.056  10.108  69.214  1.00  0.00    -0.198 C  
BRANCH   6   7
HETATM    7  N   UNL     1     -10.146  10.814  69.895  1.00  0.00    -0.401 NA 
HETATM    8  H   UNL     1     -10.549  11.529  69.288  1.00  0.00     0.000 HD 
BRANCH   7   9
HETATM    9  C   UNL     1     -11.187   9.922  70.408  1.00  0.00    -0.313 C  
BRANCH   9  10
HETATM   10  C   UNL     1     -10.579   8.788  71.150  1.00  0.00    -0.241 A  
HETATM   11  C   UNL     1     -10.210   8.608  72.465  1.00  0.00    -0.238 A  
HETATM   12  C   UNL     1      -9.683   7.298  72.554  1.00  0.00    -0.189 A  
HETATM   13  C   UNL     1      -9.780   6.742  71.294  1.00  0.00    -0.172 A  
HETATM   14  O   UNL     1     -10.335   7.654  70.440  1.00  0.00    -0.208 OA 
BRANCH  13  15
HETATM   15  C   UNL     1      -9.433   5.454  70.710  1.00  0.00    -0.215 A  
HETATM   16  C   UNL     1      -9.636   5.195  69.347  1.00  0.00    -0.225 A  
HETATM   17  C   UNL     1      -9.307   3.937  68.776  1.00  0.00    -0.231 A  
HETATM   18  C   UNL     1      -8.768   2.931  69.594  1.00  0.00    -0.075 A  
HETATM   19  C   UNL     1      -8.572   3.193  70.935  1.00  0.00    -0.114 A  
HETATM   20  N   UNL     1      -8.444   1.715  69.155  1.00  0.00    -0.048 NA 
HETATM   21  C   UNL     1      -8.679   1.472  67.869  1.00  0.00    -0.092 A  
HETATM   22  C   UNL     1      -8.895   4.431  71.493  1.00  0.00    -0.149 A  
HETATM   23  N   UNL     1      -9.195   2.336  66.998  1.00  0.00    -0.102 NA 
HETATM   24  C   UNL     1      -9.501   3.569  67.429  1.00  0.00    -0.190 A  
BRANCH  24  25
HETATM   25  N   UNL     1     -10.115   4.492  66.534  1.00  0.00    -0.239 NA 
HETATM   26  H   UNL     1     -10.835   4.106  65.923  1.00  0.00     0.000 HD 
BRANCH  25  27
HETATM   27  C   UNL     1      -9.858   5.875  66.382  1.00  0.00    -0.121 A  
HETATM   28  C   UNL     1      -8.734   6.374  65.725  1.00  0.00    -0.135 A  
HETATM   29  C   UNL     1      -8.540   7.738  65.495  1.00  0.00    -0.105 A  
HETATM   30  C   UNL     1      -9.513   8.658  65.903  1.00  0.00    -0.173 A  
HETATM   31 CL   UNL     1      -7.026   8.115  64.741  1.00  0.00    -0.073 Cl 
HETATM   32  C   UNL     1     -10.616   8.176  66.626  1.00  0.00    -0.076 A  
HETATM   33  C   UNL     1     -10.784   6.803  66.866  1.00  0.00    -0.394 A  
BRANCH  30  34
HETATM   34  O   UNL     1      -9.545  10.016  65.702  1.00  0.00    -0.211 OA 
BRANCH  34  35
HETATM   35  C   UNL     1     -10.496  10.484  64.750  1.00  0.00    -0.128 C  
BRANCH  35  36
HETATM   36  C   UNL     1     -11.212  11.715  65.240  1.00  0.00    -0.263 A  
HETATM   37  C   UNL     1     -11.536  12.750  64.357  1.00  0.00    -0.415 A  
HETATM   38  C   UNL     1     -12.089  13.925  64.853  1.00  0.00    -0.414 A  
HETATM   39  C   UNL     1     -12.325  14.090  66.213  1.00  0.00    -0.482 A  
HETATM   40  F   UNL     1     -12.379  14.922  64.008  1.00  0.00    -0.509 F  
HETATM   41  C   UNL     1     -12.009  13.065  67.097  1.00  0.00    -0.389 A  
HETATM   42  C   UNL     1     -11.453  11.882  66.616  1.00  0.00    -0.382 A  
ENDBRANCH  35  36
ENDBRANCH  34  35
ENDBRANCH  30  34
ENDBRANCH  25  27
ENDBRANCH  24  25
ENDBRANCH  13  15
ENDBRANCH   9  10
ENDBRANCH   7   9
ENDBRANCH   6   7
ENDBRANCH   5   6
ENDBRANCH   2   5
TORSDOF 11
ENDMDL
MODEL      172
REMARK 921   NORMALIZED FREE ENERGY PREDICTED BY IDOCK:   -4.70 KCAL/MOL
REMARK 922        TOTAL FREE ENERGY PREDICTED BY IDOCK:  -10.48 KCAL/MOL
REMARK 923 INTER-LIGAND FREE ENERGY PREDICTED BY IDOCK:   -9.03 KCAL/MOL
REMARK 924 INTRA-LIGAND FREE ENERGY PREDICTED BY IDOCK:   -1.44 KCAL/MOL
REMARK 927      BINDING AFFINITY PREDICTED BY RF-SCORE:    0.00 PKD
ROOT
HETATM    1  C   UNL     1     -11.875  15.319  72.640  1.00  0.00    -0.429 C  
HETATM    2  S   UNL     1     -13.438  15.186  71.810  1.00  0.00    -0.480 S  
HETATM    3  O   UNL     1     -13.200  15.329  70.388  1.00  0.00    -0.273 OA 
HETATM    4  O   UNL     1     -14.380  16.037  72.507  1.00  0.00    -0.365 OA 
ENDROOT
BRANCH   2   5
HETATM    5  C   UNL     1     -13.881  13.493  72.131  1.00  0.00    -0.533 C  
BRANCH   5   6
HETATM    6  C   UNL     1     -12.727  12.549  71.827  1.00  0.00    -0.139 C  
BRANCH   6   7
HETATM    7  N   UNL     1     -13.160  11.254  71.292  1.00  0.00    -0.299 NA 
HETATM    8  H   UNL     1     -14.036  11.349  70.779  1.00  0.00     0.000 HD 
BRANCH   7   9
HETATM    9  C   UNL     1     -12.145  10.595  70.468  1.00  0.00    -0.355 C  
BRANCH   9  10
HETATM   10  C   UNL     1     -11.713   9.320  71.098  1.00  0.00    -0.325 A  
HETATM   11  C   UNL     1     -12.136   8.624  72.209  1.00  0.00    -0.443 A  
HETATM   12  C   UNL     1     -11.323   7.469  72.287  1.00  0.00    -0.338 A  
HETATM   13  C   UNL     1     -10.464   7.512  71.208  1.00  0.00    -0.207 A  
HETATM   14  O   UNL     1     -10.710   8.642  70.479  1.00  0.00    -0.210 OA 
BRANCH  13  15
HETATM   15  C   UNL     1      -9.401   6.651  70.705  1.00  0.00    -0.159 A  
HETATM   16  C   UNL     1      -9.069   6.627  69.344  1.00  0.00    -0.143 A  
HETATM   17  C   UNL     1      -8.039   5.782  68.849  1.00  0.00    -0.102 A  
HETATM   18  C   UNL     1      -7.342   4.953  69.742  1.00  0.00    -0.056 A  
HETATM   19  C   UNL     1      -7.676   4.982  71.081  1.00  0.00    -0.091 A  
HETATM   20  N   UNL     1      -6.375   4.115  69.372  1.00  0.00    -0.028 NA 
HETATM   21  C   UNL     1      -6.097   4.075  68.072  1.00  0.00    -0.032 A  
HETATM   22  C   UNL     1      -8.687   5.815  71.565  1.00  0.00    -0.133 A  
HETATM   23  N   UNL     1      -6.693   4.800  67.129  1.00  0.00    -0.053 NA 
HETATM   24  C   UNL     1      -7.652   5.662  67.499  1.00  0.00    -0.089 A  
BRANCH  24  25
HETATM   25  N   UNL     1      -8.352   6.402  66.502  1.00  0.00    -0.112 NA 
HETATM   26  H   UNL     1      -8.519   5.914  65.623  1.00  0.00     0.000 HD 
BRANCH  25  27
HETATM   27  C   UNL     1      -8.845   7.726  66.573  1.00  0.00    -0.153 A  
HETATM   28  C   UNL     1      -8.023   8.851  66.530  1.00  0.00    -0.103 A  
HETATM   29  C   UNL     1      -8.528  10.153  66.502  1.00  0.00    -0.127 A  
HETATM   30  C   UNL     1      -9.912  10.362  66.485  1.00  0.00    -0.217 A  
HETATM   31 CL   UNL     1      -7.307  11.381  66.540  1.00  0.00    -0.106 Cl 
HETATM   32  C   UNL     1     -10.751   9.243  66.598  1.00  0.00    -0.066 A  
HETATM   33  C   UNL     1     -10.225   7.942  66.647  1.00  0.00    -0.303 A  
BRANCH  30  34
HETATM   34  O   UNL     1     -10.597  11.547  66.380  1.00  0.00    -0.241 OA 
BRANCH  34  35
HETATM   35  C   UNL     1     -10.435  12.460  67.462  1.00  0.00    -0.215 C  
BRANCH  35  36
HETATM   36  C   UNL     1     -10.426  13.889  66.986  1.00  0.00    -0.278 A  
HETATM   37  C   UNL     1     -10.787  14.929  67.846  1.00  0.00    -0.276 A  
HETATM   38  C   UNL     1     -10.885  16.225  67.352  1.00  0.00    -0.242 A  
HETATM   39  C   UNL     1     -10.630  16.505  66.014  1.00  0.00    -0.259 A  
HETATM   40  F   UNL     1     -11.252  17.216  68.174  1.00  0.00    -0.361 F  
HETATM   41  C   UNL     1     -10.266  15.475  65.153  1.00  0.00    -0.334 A  
HETATM   42  C   UNL     1     -10.165  14.172  65.632  1.00  0.00    -0.357 A  
ENDBRANCH  35  36
ENDBRANCH  34  35
ENDBRANCH  30  34
ENDBRANCH  25  27
ENDBRANCH  24  25
ENDBRANCH  13  15
ENDBRANCH   9  10
ENDBRANCH   7   9
ENDBRANCH   6   7
ENDBRANCH   5   6
ENDBRANCH   2   5
TORSDOF 11
ENDMDL
MODEL      173
REMARK 921   NORMALIZED FREE ENERGY PREDICTED BY IDOCK:   -4.70 KCAL/MOL
REMARK 922        TOTAL FREE ENERGY PREDICTED BY IDOCK:  -10.47 KCAL/MOL
REMARK 923 INTER-LIGAND FREE ENERGY PREDICTED BY IDOCK:  -10.02 KCAL/MOL
REMARK 924 INTRA-LIGAND FREE ENERGY PREDICTED BY IDOCK:   -0.46 KCAL/MOL
REMARK 927      BINDING AFFINITY PREDICTED BY RF-SCORE:    0.00 PKD
ROOT
HETATM    1  C   UNL     1      -9.900  18.545  67.665  1.00  0.00    -0.313 C  
HETATM    2  S   UNL     1      -9.759  19.979  66.630  1.00  0.00    -0.459 S  
HETATM    3  O   UNL     1      -9.749  21.147  67.488  1.00  0.00    -0.333 OA 
HETATM    4  O   UNL     1     -10.720  19.842  65.554  1.00  0.00    -0.479 OA 
ENDROOT
BRANCH   2   5
HETATM    5  C   UNL     1      -8.130  19.780  65.944  1.00  0.00    -0.252 C  
BRANCH   5   6
HETATM    6  C   UNL     1      -7.500  18.466  66.383  1.00  0.00    -0.247 C  
BRANCH   6   7
HETATM    7  N   UNL     1      -6.300  18.643  67.208  1.00  0.00    -0.185 NA 
HETATM    8  H   UNL     1      -6.504  19.222  68.023  1.00  0.00     0.000 HD 
BRANCH   7   9
HETATM    9  C   UNL     1      -5.678  17.381  67.610  1.00  0.00    -0.132 C  
BRANCH   9  10
HETATM   10  C   UNL     1      -6.719  16.367  67.926  1.00  0.00    -0.135 A  
HETATM   11  C   UNL     1      -7.005  15.626  69.051  1.00  0.00    -0.145 A  
HETATM   12  C   UNL     1      -8.129  14.829  68.726  1.00  0.00    -0.158 A  
HETATM   13  C   UNL     1      -8.481  15.146  67.429  1.00  0.00    -0.183 A  
HETATM   14  O   UNL     1      -7.621  16.091  66.945  1.00  0.00    -0.212 OA 
BRANCH  13  15
HETATM   15  C   UNL     1      -9.523  14.706  66.511  1.00  0.00    -0.319 A  
HETATM   16  C   UNL     1      -9.653  13.357  66.152  1.00  0.00    -0.216 A  
HETATM   17  C   UNL     1     -10.662  12.927  65.249  1.00  0.00    -0.318 A  
HETATM   18  C   UNL     1     -11.546  13.871  64.705  1.00  0.00    -0.385 A  
HETATM   19  C   UNL     1     -11.411  15.197  65.063  1.00  0.00    -0.381 A  
HETATM   20  N   UNL     1     -12.512  13.567  63.840  1.00  0.00    -0.705 NA 
HETATM   21  C   UNL     1     -12.599  12.290  63.478  1.00  0.00    -0.476 A  
HETATM   22  C   UNL     1     -10.419  15.618  65.951  1.00  0.00    -0.358 A  
HETATM   23  N   UNL     1     -11.815  11.307  63.914  1.00  0.00     0.119 NA 
HETATM   24  C   UNL     1     -10.855  11.603  64.803  1.00  0.00    -0.308 A  
BRANCH  24  25
HETATM   25  N   UNL     1      -9.961  10.582  65.235  1.00  0.00    -0.279 NA 
HETATM   26  H   UNL     1      -9.148  10.423  64.640  1.00  0.00     0.000 HD 
BRANCH  25  27
HETATM   27  C   UNL     1     -10.052   9.759  66.382  1.00  0.00    -0.243 A  
HETATM   28  C   UNL     1      -9.948   8.370  66.336  1.00  0.00    -0.291 A  
HETATM   29  C   UNL     1      -9.942   7.576  67.486  1.00  0.00    -0.174 A  
HETATM   30  C   UNL     1     -10.009   8.178  68.747  1.00  0.00    -0.189 A  
HETATM   31 CL   UNL     1      -9.893   5.874  67.164  1.00  0.00    -0.144 Cl 
HETATM   32  C   UNL     1     -10.184   9.569  68.807  1.00  0.00    -0.215 A  
HETATM   33  C   UNL     1     -10.210  10.349  67.640  1.00  0.00    -0.240 A  
BRANCH  30  34
HETATM   34  O   UNL     1      -9.938   7.585  69.984  1.00  0.00    -0.183 OA 
BRANCH  34  35
HETATM   35  C   UNL     1     -10.177   8.438  71.100  1.00  0.00    -0.202 C  
BRANCH  35  36
HETATM   36  C   UNL     1      -9.465   7.950  72.333  1.00  0.00    -0.252 A  
HETATM   37  C   UNL     1      -8.183   8.412  72.646  1.00  0.00    -0.190 A  
HETATM   38  C   UNL     1      -7.499   7.860  73.722  1.00  0.00    -0.148 A  
HETATM   39  C   UNL     1      -8.067   6.853  74.495  1.00  0.00    -0.159 A  
HETATM   40  F   UNL     1      -6.263   8.290  74.006  1.00  0.00    -0.091 F  
HETATM   41  C   UNL     1      -9.343   6.391  74.193  1.00  0.00    -0.193 A  
HETATM   42  C   UNL     1     -10.041   6.933  73.117  1.00  0.00    -0.241 A  
ENDBRANCH  35  36
ENDBRANCH  34  35
ENDBRANCH  30  34
ENDBRANCH  25  27
ENDBRANCH  24  25
ENDBRANCH  13  15
ENDBRANCH   9  10
ENDBRANCH   7   9
ENDBRANCH   6   7
ENDBRANCH   5   6
ENDBRANCH   2   5
TORSDOF 11
ENDMDL
MODEL      174
REMARK 921   NORMALIZED FREE ENERGY PREDICTED BY IDOCK:   -4.69 KCAL/MOL
REMARK 922        TOTAL FREE ENERGY PREDICTED BY IDOCK:  -10.45 KCAL/MOL
REMARK 923 INTER-LIGAND FREE ENERGY PREDICTED BY IDOCK:   -8.19 KCAL/MOL
REMARK 924 INTRA-LIGAND FREE ENERGY PREDICTED BY IDOCK:   -2.26 KCAL/MOL
REMARK 927      BINDING AFFINITY PREDICTED BY RF-SCORE:    0.00 PKD
ROOT
HETATM    1  C   UNL     1      -7.892  15.297  69.101  1.00  0.00    -0.204 C  
HETATM    2  S   UNL     1      -7.565  15.093  67.370  1.00  0.00    -0.205 S  
HETATM    3  O   UNL     1      -7.908  13.732  67.010  1.00  0.00    -0.071 OA 
HETATM    4  O   UNL     1      -6.248  15.635  67.103  1.00  0.00    -0.317 OA 
ENDROOT
BRANCH   2   5
HETATM    5  C   UNL     1      -8.768  16.181  66.638  1.00  0.00    -0.265 C  
BRANCH   5   6
HETATM    6  C   UNL     1      -9.540  15.486  65.525  1.00  0.00    -0.221 C  
BRANCH   6   7
HETATM    7  N   UNL     1     -10.401  14.400  66.005  1.00  0.00    -0.297 NA 
HETATM    8  H   UNL     1      -9.926  13.853  66.723  1.00  0.00     0.000 HD 
BRANCH   7   9
HETATM    9  C   UNL     1     -11.707  14.858  66.480  1.00  0.00    -0.199 C  
BRANCH   9  10
HETATM   10  C   UNL     1     -11.809  14.695  67.953  1.00  0.00    -0.320 A  
HETATM   11  C   UNL     1     -11.765  15.581  69.008  1.00  0.00    -0.392 A  
HETATM   12  C   UNL     1     -11.922  14.808  70.183  1.00  0.00    -0.367 A  
HETATM   13  C   UNL     1     -12.077  13.496  69.780  1.00  0.00    -0.318 A  
HETATM   14  O   UNL     1     -12.014  13.432  68.416  1.00  0.00    -0.348 OA 
BRANCH  13  15
HETATM   15  C   UNL     1     -12.282  12.228  70.467  1.00  0.00    -0.387 A  
HETATM   16  C   UNL     1     -11.763  11.032  69.953  1.00  0.00    -0.424 A  
HETATM   17  C   UNL     1     -11.969   9.792  70.615  1.00  0.00    -0.340 A  
HETATM   18  C   UNL     1     -12.708   9.764  71.808  1.00  0.00    -0.426 A  
HETATM   19  C   UNL     1     -13.217  10.947  72.307  1.00  0.00    -0.139 A  
HETATM   20  N   UNL     1     -12.969   8.651  72.492  1.00  0.00    -0.347 NA 
HETATM   21  C   UNL     1     -12.504   7.519  71.972  1.00  0.00    -0.257 A  
HETATM   22  C   UNL     1     -13.012  12.164  71.655  1.00  0.00    -0.427 A  
HETATM   23  N   UNL     1     -11.802   7.414  70.846  1.00  0.00    -0.302 NA 
HETATM   24  C   UNL     1     -11.517   8.535  70.165  1.00  0.00     0.003 A  
BRANCH  24  25
HETATM   25  N   UNL     1     -10.825   8.444  68.923  1.00  0.00    -0.425 NA 
HETATM   26  H   UNL     1     -11.318   8.818  68.112  1.00  0.00     0.000 HD 
BRANCH  25  27
HETATM   27  C   UNL     1      -9.543   7.903  68.668  1.00  0.00    -0.155 A  
HETATM   28  C   UNL     1      -8.615   7.630  69.672  1.00  0.00    -0.136 A  
HETATM   29  C   UNL     1      -7.392   7.005  69.418  1.00  0.00    -0.091 A  
HETATM   30  C   UNL     1      -7.074   6.600  68.116  1.00  0.00    -0.083 A  
HETATM   31 CL   UNL     1      -6.375   6.857  70.813  1.00  0.00    -0.039 Cl 
HETATM   32  C   UNL     1      -7.968   6.931  67.085  1.00  0.00    -0.113 A  
HETATM   33  C   UNL     1      -9.184   7.578  67.356  1.00  0.00    -0.149 A  
BRANCH  30  34
HETATM   34  O   UNL     1      -5.971   5.910  67.679  1.00  0.00    -0.016 OA 
BRANCH  34  35
HETATM   35  C   UNL     1      -6.215   4.608  67.156  1.00  0.00    -0.036 C  
BRANCH  35  36
HETATM   36  C   UNL     1      -6.596   3.636  68.242  1.00  0.00    -0.045 A  
HETATM   37  C   UNL     1      -7.867   3.055  68.264  1.00  0.00    -0.059 A  
HETATM   38  C   UNL     1      -8.235   2.254  69.340  1.00  0.00    -0.044 A  
HETATM   39  C   UNL     1      -7.360   2.021  70.395  1.00  0.00    -0.033 A  
HETATM   40  F   UNL     1      -9.461   1.716  69.369  1.00  0.00    -0.153 F  
HETATM   41  C   UNL     1      -6.093   2.593  70.377  1.00  0.00    -0.023 A  
HETATM   42  C   UNL     1      -5.709   3.398  69.308  1.00  0.00    -0.022 A  
ENDBRANCH  35  36
ENDBRANCH  34  35
ENDBRANCH  30  34
ENDBRANCH  25  27
ENDBRANCH  24  25
ENDBRANCH  13  15
ENDBRANCH   9  10
ENDBRANCH   7   9
ENDBRANCH   6   7
ENDBRANCH   5   6
ENDBRANCH   2   5
TORSDOF 11
ENDMDL
MODEL      175
REMARK 921   NORMALIZED FREE ENERGY PREDICTED BY IDOCK:   -4.68 KCAL/MOL
REMARK 922        TOTAL FREE ENERGY PREDICTED BY IDOCK:  -10.44 KCAL/MOL
REMARK 923 INTER-LIGAND FREE ENERGY PREDICTED BY IDOCK:  -10.55 KCAL/MOL
REMARK 924 INTRA-LIGAND FREE ENERGY PREDICTED BY IDOCK:    0.11 KCAL/MOL
REMARK 927      BINDING AFFINITY PREDICTED BY RF-SCORE:    0.00 PKD
ROOT
HETATM    1  C   UNL     1      -8.794   9.234  64.606  1.00  0.00    -0.178 C  
HETATM    2  S   UNL     1      -7.303   8.288  64.441  1.00  0.00    -0.098 S  
HETATM    3  O   UNL     1      -6.190   9.150  64.783  1.00  0.00    -0.065 OA 
HETATM    4  O   UNL     1      -7.359   7.596  63.169  1.00  0.00    -0.084 OA 
ENDROOT
BRANCH   2   5
HETATM    5  C   UNL     1      -7.488   7.080  65.734  1.00  0.00    -0.081 C  
BRANCH   5   6
HETATM    6  C   UNL     1      -7.672   5.681  65.165  1.00  0.00    -0.090 C  
BRANCH   6   7
HETATM    7  N   UNL     1      -8.983   5.474  64.542  1.00  0.00    -0.362 NA 
HETATM    8  H   UNL     1      -8.983   5.809  63.578  1.00  0.00     0.000 HD 
BRANCH   7   9
HETATM    9  C   UNL     1      -9.447   4.087  64.608  1.00  0.00    -0.169 C  
BRANCH   9  10
HETATM   10  C   UNL     1      -9.332   3.567  65.995  1.00  0.00    -0.158 A  
HETATM   11  C   UNL     1      -8.935   2.358  66.521  1.00  0.00    -0.130 A  
HETATM   12  C   UNL     1      -9.044   2.481  67.927  1.00  0.00    -0.230 A  
HETATM   13  C   UNL     1      -9.480   3.766  68.182  1.00  0.00    -0.157 A  
HETATM   14  O   UNL     1      -9.648   4.429  66.999  1.00  0.00    -0.171 OA 
BRANCH  13  15
HETATM   15  C   UNL     1      -9.784   4.527  69.386  1.00  0.00    -0.272 A  
HETATM   16  C   UNL     1     -10.172   5.872  69.317  1.00  0.00    -0.275 A  
HETATM   17  C   UNL     1     -10.462   6.620  70.490  1.00  0.00    -0.240 A  
HETATM   18  C   UNL     1     -10.355   5.999  71.744  1.00  0.00    -0.215 A  
HETATM   19  C   UNL     1      -9.972   4.674  71.804  1.00  0.00    -0.260 A  
HETATM   20  N   UNL     1     -10.588   6.620  72.899  1.00  0.00    -0.230 NA 
HETATM   21  C   UNL     1     -10.917   7.906  72.820  1.00  0.00    -0.393 A  
HETATM   22  C   UNL     1      -9.690   3.941  70.650  1.00  0.00    -0.248 A  
HETATM   23  N   UNL     1     -11.039   8.607  71.695  1.00  0.00    -0.281 NA 
HETATM   24  C   UNL     1     -10.828   7.980  70.528  1.00  0.00    -0.241 A  
BRANCH  24  25
HETATM   25  N   UNL     1     -10.887   8.723  69.313  1.00  0.00    -0.399 NA 
HETATM   26  H   UNL     1     -11.054   8.177  68.467  1.00  0.00     0.000 HD 
BRANCH  25  27
HETATM   27  C   UNL     1     -10.745  10.118  69.125  1.00  0.00    -0.226 A  
HETATM   28  C   UNL     1      -9.589  10.706  68.613  1.00  0.00    -0.179 A  
HETATM   29  C   UNL     1      -9.497  12.073  68.341  1.00  0.00    -0.181 A  
HETATM   30  C   UNL     1     -10.605  12.901  68.553  1.00  0.00    -0.253 A  
HETATM   31 CL   UNL     1      -7.931  12.576  67.796  1.00  0.00    -0.149 Cl 
HETATM   32  C   UNL     1     -11.751  12.336  69.133  1.00  0.00    -0.377 A  
HETATM   33  C   UNL     1     -11.819  10.963  69.420  1.00  0.00    -0.400 A  
BRANCH  30  34
HETATM   34  O   UNL     1     -10.739  14.240  68.278  1.00  0.00    -0.237 OA 
BRANCH  34  35
HETATM   35  C   UNL     1     -11.977  14.834  68.655  1.00  0.00    -0.257 C  
BRANCH  35  36
HETATM   36  C   UNL     1     -12.118  14.921  70.152  1.00  0.00    -0.379 A  
HETATM   37  C   UNL     1     -12.902  13.996  70.848  1.00  0.00    -0.389 A  
HETATM   38  C   UNL     1     -13.113  14.166  72.211  1.00  0.00    -0.423 A  
HETATM   39  C   UNL     1     -12.557  15.241  72.897  1.00  0.00    -0.512 A  
HETATM   40  F   UNL     1     -13.881  13.290  72.871  1.00  0.00    -0.552 F  
HETATM   41  C   UNL     1     -11.773  16.162  72.211  1.00  0.00    -0.564 A  
HETATM   42  C   UNL     1     -11.554  16.007  70.845  1.00  0.00    -0.453 A  
ENDBRANCH  35  36
ENDBRANCH  34  35
ENDBRANCH  30  34
ENDBRANCH  25  27
ENDBRANCH  24  25
ENDBRANCH  13  15
ENDBRANCH   9  10
ENDBRANCH   7   9
ENDBRANCH   6   7
ENDBRANCH   5   6
ENDBRANCH   2   5
TORSDOF 11
ENDMDL
MODEL      176
REMARK 921   NORMALIZED FREE ENERGY PREDICTED BY IDOCK:   -4.67 KCAL/MOL
REMARK 922        TOTAL FREE ENERGY PREDICTED BY IDOCK:  -10.42 KCAL/MOL
REMARK 923 INTER-LIGAND FREE ENERGY PREDICTED BY IDOCK:   -7.92 KCAL/MOL
REMARK 924 INTRA-LIGAND FREE ENERGY PREDICTED BY IDOCK:   -2.49 KCAL/MOL
REMARK 927      BINDING AFFINITY PREDICTED BY RF-SCORE:    0.00 PKD
ROOT
HETATM    1  C   UNL     1      -7.477   5.924  72.055  1.00  0.00    -0.096 C  
HETATM    2  S   UNL     1      -8.795   5.877  73.242  1.00  0.00    -0.126 S  
HETATM    3  O   UNL     1      -9.177   7.243  73.537  1.00  0.00    -0.159 OA 
HETATM    4  O   UNL     1      -8.409   4.958  74.293  1.00  0.00    -0.102 OA 
ENDROOT
BRANCH   2   5
HETATM    5  C   UNL     1     -10.107   5.124  72.305  1.00  0.00    -0.192 C  
BRANCH   5   6
HETATM    6  C   UNL     1     -11.458   5.338  72.971  1.00  0.00    -0.269 C  
BRANCH   6   7
HETATM    7  N   UNL     1     -12.405   6.087  72.138  1.00  0.00    -0.334 NA 
HETATM    8  H   UNL     1     -13.347   5.705  72.227  1.00  0.00     0.000 HD 
BRANCH   7   9
HETATM    9  C   UNL     1     -12.403   7.526  72.406  1.00  0.00    -0.080 C  
BRANCH   9  10
HETATM   10  C   UNL     1     -11.836   8.268  71.250  1.00  0.00    -0.288 A  
HETATM   11  C   UNL     1     -11.097   7.885  70.152  1.00  0.00    -0.204 A  
HETATM   12  C   UNL     1     -10.860   9.062  69.403  1.00  0.00    -0.152 A  
HETATM   13  C   UNL     1     -11.485  10.095  70.073  1.00  0.00    -0.277 A  
HETATM   14  O   UNL     1     -12.087   9.604  71.198  1.00  0.00    -0.316 OA 
BRANCH  13  15
HETATM   15  C   UNL     1     -11.632  11.526  69.847  1.00  0.00    -0.387 A  
HETATM   16  C   UNL     1     -11.193  12.122  68.657  1.00  0.00    -0.318 A  
HETATM   17  C   UNL     1     -11.327  13.520  68.437  1.00  0.00    -0.327 A  
HETATM   18  C   UNL     1     -11.909  14.320  69.432  1.00  0.00    -0.326 A  
HETATM   19  C   UNL     1     -12.338  13.725  70.602  1.00  0.00    -0.445 A  
HETATM   20  N   UNL     1     -12.062  15.639  69.326  1.00  0.00    -0.312 NA 
HETATM   21  C   UNL     1     -11.605  16.196  68.208  1.00  0.00    -0.181 A  
HETATM   22  C   UNL     1     -12.207  12.351  70.815  1.00  0.00    -0.336 A  
HETATM   23  N   UNL     1     -11.026  15.548  67.200  1.00  0.00    -0.317 NA 
HETATM   24  C   UNL     1     -10.890  14.217  67.292  1.00  0.00    -0.285 A  
BRANCH  24  25
HETATM   25  N   UNL     1     -10.214  13.508  66.257  1.00  0.00    -0.292 NA 
HETATM   26  H   UNL     1     -10.458  13.777  65.304  1.00  0.00     0.000 HD 
BRANCH  25  27
HETATM   27  C   UNL     1      -9.250  12.481  66.378  1.00  0.00    -0.177 A  
HETATM   28  C   UNL     1      -9.392  11.226  65.787  1.00  0.00    -0.245 A  
HETATM   29  C   UNL     1      -8.390  10.254  65.832  1.00  0.00    -0.145 A  
HETATM   30  C   UNL     1      -7.173  10.538  66.462  1.00  0.00    -0.124 A  
HETATM   31 CL   UNL     1      -8.839   8.747  65.104  1.00  0.00    -0.206 Cl 
HETATM   32  C   UNL     1      -7.041  11.771  67.120  1.00  0.00    -0.146 A  
HETATM   33  C   UNL     1      -8.068  12.728  67.083  1.00  0.00    -0.131 A  
BRANCH  30  34
HETATM   34  O   UNL     1      -6.048   9.755  66.544  1.00  0.00    -0.058 OA 
BRANCH  34  35
HETATM   35  C   UNL     1      -5.900   8.998  67.742  1.00  0.00    -0.039 C  
BRANCH  35  36
HETATM   36  C   UNL     1      -6.546   7.643  67.625  1.00  0.00    -0.062 A  
HETATM   37  C   UNL     1      -6.174   6.762  66.604  1.00  0.00    -0.044 A  
HETATM   38  C   UNL     1      -6.867   5.567  66.445  1.00  0.00    -0.059 A  
HETATM   39  C   UNL     1      -7.924   5.231  67.284  1.00  0.00    -0.101 A  
HETATM   40  F   UNL     1      -6.522   4.736  65.454  1.00  0.00    -0.032 F  
HETATM   41  C   UNL     1      -8.296   6.100  68.304  1.00  0.00    -0.114 A  
HETATM   42  C   UNL     1      -7.613   7.302  68.475  1.00  0.00    -0.118 A  
ENDBRANCH  35  36
ENDBRANCH  34  35
ENDBRANCH  30  34
ENDBRANCH  25  27
ENDBRANCH  24  25
ENDBRANCH  13  15
ENDBRANCH   9  10
ENDBRANCH   7   9
ENDBRANCH   6   7
ENDBRANCH   5   6
ENDBRANCH   2   5
TORSDOF 11
ENDMDL
MODEL      177
REMARK 921   NORMALIZED FREE ENERGY PREDICTED BY IDOCK:   -4.66 KCAL/MOL
REMARK 922        TOTAL FREE ENERGY PREDICTED BY IDOCK:  -10.41 KCAL/MOL
REMARK 923 INTER-LIGAND FREE ENERGY PREDICTED BY IDOCK:   -7.62 KCAL/MOL
REMARK 924 INTRA-LIGAND FREE ENERGY PREDICTED BY IDOCK:   -2.79 KCAL/MOL
REMARK 927      BINDING AFFINITY PREDICTED BY RF-SCORE:    0.00 PKD
ROOT
HETATM    1  C   UNL     1     -11.946  14.511  64.554  1.00  0.00    -0.468 C  
HETATM    2  S   UNL     1     -11.988  12.739  64.636  1.00  0.00    -0.423 S  
HETATM    3  O   UNL     1     -11.027  12.227  63.680  1.00  0.00    -0.399 OA 
HETATM    4  O   UNL     1     -13.377  12.329  64.603  1.00  0.00    -0.717 OA 
ENDROOT
BRANCH   2   5
HETATM    5  C   UNL     1     -11.361  12.432  66.272  1.00  0.00    -0.340 C  
BRANCH   5   6
HETATM    6  C   UNL     1      -9.984  13.051  66.465  1.00  0.00    -0.262 C  
BRANCH   6   7
HETATM    7  N   UNL     1      -8.956  12.076  66.844  1.00  0.00    -0.194 NA 
HETATM    8  H   UNL     1      -8.800  11.404  66.093  1.00  0.00     0.000 HD 
BRANCH   7   9
HETATM    9  C   UNL     1      -7.694  12.692  67.258  1.00  0.00    -0.140 C  
BRANCH   9  10
HETATM   10  C   UNL     1      -6.835  11.697  67.952  1.00  0.00    -0.074 A  
HETATM   11  C   UNL     1      -5.566  11.217  67.717  1.00  0.00    -0.043 A  
HETATM   12  C   UNL     1      -5.301  10.276  68.740  1.00  0.00    -0.038 A  
HETATM   13  C   UNL     1      -6.413  10.251  69.557  1.00  0.00    -0.060 A  
HETATM   14  O   UNL     1      -7.346  11.126  69.076  1.00  0.00    -0.105 OA 
BRANCH  13  15
HETATM   15  C   UNL     1      -6.786   9.525  70.763  1.00  0.00    -0.105 A  
HETATM   16  C   UNL     1      -8.072   8.989  70.921  1.00  0.00    -0.203 A  
HETATM   17  C   UNL     1      -8.441   8.288  72.100  1.00  0.00    -0.239 A  
HETATM   18  C   UNL     1      -7.500   8.129  73.129  1.00  0.00    -0.130 A  
HETATM   19  C   UNL     1      -6.235   8.660  72.966  1.00  0.00    -0.080 A  
HETATM   20  N   UNL     1      -7.756   7.503  74.276  1.00  0.00    -0.134 NA 
HETATM   21  C   UNL     1      -8.991   7.034  74.427  1.00  0.00    -0.207 A  
HETATM   22  C   UNL     1      -5.875   9.347  71.806  1.00  0.00    -0.038 A  
HETATM   23  N   UNL     1      -9.972   7.132  73.533  1.00  0.00    -0.267 NA 
HETATM   24  C   UNL     1      -9.713   7.741  72.367  1.00  0.00    -0.192 A  
BRANCH  24  25
HETATM   25  N   UNL     1     -10.763   7.917  71.419  1.00  0.00    -0.222 NA 
HETATM   26  H   UNL     1     -11.579   8.430  71.752  1.00  0.00     0.000 HD 
BRANCH  25  27
HETATM   27  C   UNL     1     -10.821   7.473  70.077  1.00  0.00    -0.249 A  
HETATM   28  C   UNL     1     -10.640   8.320  68.984  1.00  0.00    -0.167 A  
HETATM   29  C   UNL     1     -10.602   7.854  67.668  1.00  0.00    -0.206 A  
HETATM   30  C   UNL     1     -10.716   6.482  67.412  1.00  0.00    -0.340 A  
HETATM   31 CL   UNL     1     -10.457   9.108  66.482  1.00  0.00    -0.258 Cl 
HETATM   32  C   UNL     1     -10.967   5.627  68.496  1.00  0.00    -0.053 A  
HETATM   33  C   UNL     1     -11.024   6.116  69.811  1.00  0.00    -0.459 A  
BRANCH  30  34
HETATM   34  O   UNL     1     -10.626   5.825  66.210  1.00  0.00    -0.168 OA 
BRANCH  34  35
HETATM   35  C   UNL     1      -9.428   5.085  65.991  1.00  0.00    -0.161 C  
BRANCH  35  36
HETATM   36  C   UNL     1      -8.218   5.980  65.976  1.00  0.00    -0.125 A  
HETATM   37  C   UNL     1      -7.336   6.004  67.060  1.00  0.00    -0.076 A  
HETATM   38  C   UNL     1      -6.293   6.923  67.075  1.00  0.00    -0.045 A  
HETATM   39  C   UNL     1      -6.111   7.821  66.028  1.00  0.00    -0.038 A  
HETATM   40  F   UNL     1      -5.462   6.957  68.125  1.00  0.00    -0.015 F  
HETATM   41  C   UNL     1      -6.981   7.800  64.945  1.00  0.00    -0.055 A  
HETATM   42  C   UNL     1      -8.032   6.887  64.916  1.00  0.00    -0.124 A  
ENDBRANCH  35  36
ENDBRANCH  34  35
ENDBRANCH  30  34
ENDBRANCH  25  27
ENDBRANCH  24  25
ENDBRANCH  13  15
ENDBRANCH   9  10
ENDBRANCH   7   9
ENDBRANCH   6   7
ENDBRANCH   5   6
ENDBRANCH   2   5
TORSDOF 11
ENDMDL
MODEL      178
REMARK 921   NORMALIZED FREE ENERGY PREDICTED BY IDOCK:   -4.61 KCAL/MOL
REMARK 922        TOTAL FREE ENERGY PREDICTED BY IDOCK:  -10.31 KCAL/MOL
REMARK 923 INTER-LIGAND FREE ENERGY PREDICTED BY IDOCK:   -8.56 KCAL/MOL
REMARK 924 INTRA-LIGAND FREE ENERGY PREDICTED BY IDOCK:   -1.76 KCAL/MOL
REMARK 927      BINDING AFFINITY PREDICTED BY RF-SCORE:    0.00 PKD
ROOT
HETATM    1  C   UNL     1      -6.446  15.270  69.578  1.00  0.00    -0.152 C  
HETATM    2  S   UNL     1      -6.820  15.319  67.844  1.00  0.00    -0.167 S  
HETATM    3  O   UNL     1      -7.148  13.973  67.422  1.00  0.00    -0.180 OA 
HETATM    4  O   UNL     1      -5.776  16.081  67.190  1.00  0.00    -0.323 OA 
ENDROOT
BRANCH   2   5
HETATM    5  C   UNL     1      -8.311  16.289  67.816  1.00  0.00    -0.161 C  
BRANCH   5   6
HETATM    6  C   UNL     1      -9.379  15.691  68.721  1.00  0.00    -0.213 C  
BRANCH   6   7
HETATM    7  N   UNL     1     -10.128  14.598  68.093  1.00  0.00    -0.220 NA 
HETATM    8  H   UNL     1     -10.356  13.876  68.777  1.00  0.00     0.000 HD 
BRANCH   7   9
HETATM    9  C   UNL     1     -11.332  15.044  67.391  1.00  0.00    -0.332 C  
BRANCH   9  10
HETATM   10  C   UNL     1     -11.697  14.079  66.322  1.00  0.00    -0.387 A  
HETATM   11  C   UNL     1     -12.846  13.866  65.592  1.00  0.00    -0.467 A  
HETATM   12  C   UNL     1     -12.567  12.790  64.716  1.00  0.00    -0.518 A  
HETATM   13  C   UNL     1     -11.256  12.420  64.943  1.00  0.00    -0.311 A  
HETATM   14  O   UNL     1     -10.726  13.215  65.920  1.00  0.00    -0.270 OA 
BRANCH  13  15
HETATM   15  C   UNL     1     -10.363  11.411  64.390  1.00  0.00    -0.375 A  
HETATM   16  C   UNL     1      -9.988  10.286  65.137  1.00  0.00    -0.395 A  
HETATM   17  C   UNL     1      -9.110   9.304  64.603  1.00  0.00    -0.177 A  
HETATM   18  C   UNL     1      -8.607   9.466  63.303  1.00  0.00    -0.214 A  
HETATM   19  C   UNL     1      -8.981  10.577  62.574  1.00  0.00    -0.303 A  
HETATM   20  N   UNL     1      -7.766   8.610  62.723  1.00  0.00    -0.113 NA 
HETATM   21  C   UNL     1      -7.388   7.568  63.457  1.00  0.00    -0.090 A  
HETATM   22  C   UNL     1      -9.846  11.540  63.100  1.00  0.00    -0.413 A  
HETATM   23  N   UNL     1      -7.785   7.312  64.701  1.00  0.00    -0.109 NA 
HETATM   24  C   UNL     1      -8.649   8.158  65.282  1.00  0.00    -0.106 A  
BRANCH  24  25
HETATM   25  N   UNL     1      -9.038   7.943  66.636  1.00  0.00    -0.155 NA 
HETATM   26  H   UNL     1      -9.614   8.674  67.053  1.00  0.00     0.000 HD 
BRANCH  25  27
HETATM   27  C   UNL     1      -8.729   6.849  67.477  1.00  0.00    -0.120 A  
HETATM   28  C   UNL     1      -7.619   6.823  68.320  1.00  0.00    -0.107 A  
HETATM   29  C   UNL     1      -7.380   5.779  69.218  1.00  0.00    -0.079 A  
HETATM   30  C   UNL     1      -8.292   4.722  69.316  1.00  0.00    -0.080 A  
HETATM   31 CL   UNL     1      -5.891   5.931  70.090  1.00  0.00    -0.023 Cl 
HETATM   32  C   UNL     1      -9.376   4.701  68.425  1.00  0.00    -0.186 A  
HETATM   33  C   UNL     1      -9.590   5.747  67.515  1.00  0.00    -0.118 A  
BRANCH  30  34
HETATM   34  O   UNL     1      -8.276   3.655  70.180  1.00  0.00    -0.052 OA 
BRANCH  34  35
HETATM   35  C   UNL     1      -9.519   2.984  70.366  1.00  0.00    -0.148 C  
BRANCH  35  36
HETATM   36  C   UNL     1      -9.968   3.037  71.803  1.00  0.00    -0.192 A  
HETATM   37  C   UNL     1     -10.189   4.263  72.436  1.00  0.00    -0.248 A  
HETATM   38  C   UNL     1     -10.487   4.289  73.793  1.00  0.00    -0.212 A  
HETATM   39  C   UNL     1     -10.570   3.115  74.534  1.00  0.00    -0.168 A  
HETATM   40  F   UNL     1     -10.678   5.467  74.401  1.00  0.00    -0.292 F  
HETATM   41  C   UNL     1     -10.355   1.892  73.910  1.00  0.00    -0.170 A  
HETATM   42  C   UNL     1     -10.054   1.848  72.551  1.00  0.00    -0.213 A  
ENDBRANCH  35  36
ENDBRANCH  34  35
ENDBRANCH  30  34
ENDBRANCH  25  27
ENDBRANCH  24  25
ENDBRANCH  13  15
ENDBRANCH   9  10
ENDBRANCH   7   9
ENDBRANCH   6   7
ENDBRANCH   5   6
ENDBRANCH   2   5
TORSDOF 11
ENDMDL
MODEL      179
REMARK 921   NORMALIZED FREE ENERGY PREDICTED BY IDOCK:   -4.60 KCAL/MOL
REMARK 922        TOTAL FREE ENERGY PREDICTED BY IDOCK:  -10.31 KCAL/MOL
REMARK 923 INTER-LIGAND FREE ENERGY PREDICTED BY IDOCK:   -8.01 KCAL/MOL
REMARK 924 INTRA-LIGAND FREE ENERGY PREDICTED BY IDOCK:   -2.30 KCAL/MOL
REMARK 927      BINDING AFFINITY PREDICTED BY RF-SCORE:    0.00 PKD
ROOT
HETATM    1  C   UNL     1     -12.054  10.622  70.942  1.00  0.00    -0.385 C  
HETATM    2  S   UNL     1     -11.731  11.675  69.551  1.00  0.00    -0.365 S  
HETATM    3  O   UNL     1     -12.173  10.982  68.357  1.00  0.00    -0.586 OA 
HETATM    4  O   UNL     1     -10.375  12.169  69.677  1.00  0.00     0.404 OA 
ENDROOT
BRANCH   2   5
HETATM    5  C   UNL     1     -12.842  13.031  69.850  1.00  0.00     0.549 C  
BRANCH   5   6
HETATM    6  C   UNL     1     -12.549  13.707  71.181  1.00  0.00    -0.371 C  
BRANCH   6   7
HETATM    7  N   UNL     1     -11.367  14.574  71.145  1.00  0.00    -0.509 NA 
HETATM    8  H   UNL     1     -10.648  14.181  70.537  1.00  0.00     0.000 HD 
BRANCH   7   9
HETATM    9  C   UNL     1     -11.669  15.955  70.766  1.00  0.00    -0.401 C  
BRANCH   9  10
HETATM   10  C   UNL     1     -11.206  16.224  69.379  1.00  0.00    -0.311 A  
HETATM   11  C   UNL     1     -10.652  17.326  68.765  1.00  0.00    -0.305 A  
HETATM   12  C   UNL     1     -10.426  16.957  67.418  1.00  0.00    -0.310 A  
HETATM   13  C   UNL     1     -10.833  15.645  67.289  1.00  0.00    -0.298 A  
HETATM   14  O   UNL     1     -11.303  15.198  68.492  1.00  0.00    -0.278 OA 
BRANCH  13  15
HETATM   15  C   UNL     1     -10.868  14.682  66.196  1.00  0.00    -0.321 A  
HETATM   16  C   UNL     1     -10.220  13.443  66.299  1.00  0.00    -0.298 A  
HETATM   17  C   UNL     1     -10.244  12.506  65.231  1.00  0.00    -0.302 A  
HETATM   18  C   UNL     1     -10.929  12.827  64.049  1.00  0.00    -0.415 A  
HETATM   19  C   UNL     1     -11.563  14.050  63.956  1.00  0.00    -0.204 A  
HETATM   20  N   UNL     1     -10.994  12.023  62.989  1.00  0.00    -0.156 NA 
HETATM   21  C   UNL     1     -10.342  10.868  63.087  1.00  0.00    -0.109 A  
HETATM   22  C   UNL     1     -11.540  14.969  65.007  1.00  0.00    -0.332 A  
HETATM   23  N   UNL     1      -9.650  10.455  64.146  1.00  0.00    -0.301 NA 
HETATM   24  C   UNL     1      -9.601  11.251  65.224  1.00  0.00    -0.232 A  
BRANCH  24  25
HETATM   25  N   UNL     1      -8.813  10.863  66.347  1.00  0.00    -0.165 NA 
HETATM   26  H   UNL     1      -8.018  11.465  66.560  1.00  0.00     0.000 HD 
BRANCH  25  27
HETATM   27  C   UNL     1      -8.989   9.752  67.204  1.00  0.00    -0.135 A  
HETATM   28  C   UNL     1      -8.112   9.442  68.242  1.00  0.00    -0.109 A  
HETATM   29  C   UNL     1      -8.349   8.400  69.143  1.00  0.00    -0.122 A  
HETATM   30  C   UNL     1      -9.522   7.644  69.039  1.00  0.00    -0.150 A  
HETATM   31 CL   UNL     1      -7.071   8.156  70.287  1.00  0.00    -0.047 Cl 
HETATM   32  C   UNL     1     -10.380   7.900  67.958  1.00  0.00    -0.264 A  
HETATM   33  C   UNL     1     -10.115   8.937  67.049  1.00  0.00    -0.331 A  
BRANCH  30  34
HETATM   34  O   UNL     1      -9.971   6.642  69.863  1.00  0.00    -0.169 OA 
BRANCH  34  35
HETATM   35  C   UNL     1     -10.177   5.373  69.249  1.00  0.00    -0.245 C  
BRANCH  35  36
HETATM   36  C   UNL     1      -8.876   4.741  68.830  1.00  0.00    -0.122 A  
HETATM   37  C   UNL     1      -7.987   4.240  69.785  1.00  0.00    -0.056 A  
HETATM   38  C   UNL     1      -6.742   3.770  69.382  1.00  0.00    -0.037 A  
HETATM   39  C   UNL     1      -6.365   3.790  68.044  1.00  0.00    -0.037 A  
HETATM   40  F   UNL     1      -5.884   3.310  70.302  1.00  0.00    -0.015 F  
HETATM   41  C   UNL     1      -7.245   4.284  67.088  1.00  0.00    -0.068 A  
HETATM   42  C   UNL     1      -8.495   4.760  67.476  1.00  0.00    -0.104 A  
ENDBRANCH  35  36
ENDBRANCH  34  35
ENDBRANCH  30  34
ENDBRANCH  25  27
ENDBRANCH  24  25
ENDBRANCH  13  15
ENDBRANCH   9  10
ENDBRANCH   7   9
ENDBRANCH   6   7
ENDBRANCH   5   6
ENDBRANCH   2   5
TORSDOF 11
ENDMDL
MODEL      180
REMARK 921   NORMALIZED FREE ENERGY PREDICTED BY IDOCK:   -4.60 KCAL/MOL
REMARK 922        TOTAL FREE ENERGY PREDICTED BY IDOCK:  -10.31 KCAL/MOL
REMARK 923 INTER-LIGAND FREE ENERGY PREDICTED BY IDOCK:   -8.13 KCAL/MOL
REMARK 924 INTRA-LIGAND FREE ENERGY PREDICTED BY IDOCK:   -2.17 KCAL/MOL
REMARK 927      BINDING AFFINITY PREDICTED BY RF-SCORE:    0.00 PKD
ROOT
HETATM    1  C   UNL     1      -7.890  15.300  69.094  1.00  0.00    -0.204 C  
HETATM    2  S   UNL     1      -7.557  15.132  67.360  1.00  0.00    -0.205 S  
HETATM    3  O   UNL     1      -7.897  13.778  66.972  1.00  0.00    -0.071 OA 
HETATM    4  O   UNL     1      -6.240  15.680  67.109  1.00  0.00    -0.317 OA 
ENDROOT
BRANCH   2   5
HETATM    5  C   UNL     1      -8.758  16.233  66.646  1.00  0.00    -0.259 C  
BRANCH   5   6
HETATM    6  C   UNL     1      -9.524  15.561  65.515  1.00  0.00    -0.133 C  
BRANCH   6   7
HETATM    7  N   UNL     1     -10.382  14.461  65.967  1.00  0.00    -0.297 NA 
HETATM    8  H   UNL     1      -9.910  13.902  66.678  1.00  0.00     0.000 HD 
BRANCH   7   9
HETATM    9  C   UNL     1     -11.694  14.903  66.442  1.00  0.00    -0.190 C  
BRANCH   9  10
HETATM   10  C   UNL     1     -11.806  14.709  67.911  1.00  0.00    -0.320 A  
HETATM   11  C   UNL     1     -11.779  15.573  68.984  1.00  0.00    -0.392 A  
HETATM   12  C   UNL     1     -11.938  14.774  70.141  1.00  0.00    -0.367 A  
HETATM   13  C   UNL     1     -12.077  13.470  69.710  1.00  0.00    -0.318 A  
HETATM   14  O   UNL     1     -12.003  13.435  68.346  1.00  0.00    -0.348 OA 
BRANCH  13  15
HETATM   15  C   UNL     1     -12.275  12.186  70.369  1.00  0.00    -0.378 A  
HETATM   16  C   UNL     1     -11.746  11.005  69.832  1.00  0.00    -0.424 A  
HETATM   17  C   UNL     1     -11.945   9.750  70.467  1.00  0.00    -0.282 A  
HETATM   18  C   UNL     1     -12.688   9.691  71.656  1.00  0.00    -0.407 A  
HETATM   19  C   UNL     1     -13.207  10.859  72.178  1.00  0.00    -0.333 A  
HETATM   20  N   UNL     1     -12.943   8.562  72.315  1.00  0.00    -0.352 NA 
HETATM   21  C   UNL     1     -12.467   7.444  71.773  1.00  0.00    -0.336 A  
HETATM   22  C   UNL     1     -13.008  12.092  71.553  1.00  0.00    -0.407 A  
HETATM   23  N   UNL     1     -11.761   7.369  70.648  1.00  0.00    -0.274 NA 
HETATM   24  C   UNL     1     -11.482   8.505  69.992  1.00  0.00     0.082 A  
BRANCH  24  25
HETATM   25  N   UNL     1     -10.784   8.446  68.751  1.00  0.00    -0.413 NA 
HETATM   26  H   UNL     1     -11.262   8.865  67.954  1.00  0.00     0.000 HD 
BRANCH  25  27
HETATM   27  C   UNL     1      -9.515   7.883  68.481  1.00  0.00    -0.148 A  
HETATM   28  C   UNL     1      -9.243   6.521  68.603  1.00  0.00    -0.127 A  
HETATM   29  C   UNL     1      -8.015   5.963  68.239  1.00  0.00    -0.109 A  
HETATM   30  C   UNL     1      -7.013   6.777  67.699  1.00  0.00    -0.083 A  
HETATM   31 CL   UNL     1      -7.889   4.267  68.568  1.00  0.00    -0.073 Cl 
HETATM   32  C   UNL     1      -7.248   8.160  67.635  1.00  0.00    -0.092 A  
HETATM   33  C   UNL     1      -8.481   8.706  68.025  1.00  0.00    -0.127 A  
BRANCH  30  34
HETATM   34  O   UNL     1      -5.782   6.412  67.213  1.00  0.00    -0.012 OA 
BRANCH  34  35
HETATM   35  C   UNL     1      -5.575   6.616  65.819  1.00  0.00    -0.022 C  
BRANCH  35  36
HETATM   36  C   UNL     1      -6.360   5.632  64.992  1.00  0.00    -0.041 A  
HETATM   37  C   UNL     1      -7.384   6.069  64.146  1.00  0.00    -0.069 A  
HETATM   38  C   UNL     1      -8.171   5.134  63.485  1.00  0.00    -0.114 A  
HETATM   39  C   UNL     1      -7.958   3.770  63.649  1.00  0.00    -0.087 A  
HETATM   40  F   UNL     1      -9.165   5.556  62.692  1.00  0.00    -0.008 F  
HETATM   41  C   UNL     1      -6.939   3.328  64.485  1.00  0.00    -0.052 A  
HETATM   42  C   UNL     1      -6.143   4.252  65.156  1.00  0.00    -0.023 A  
ENDBRANCH  35  36
ENDBRANCH  34  35
ENDBRANCH  30  34
ENDBRANCH  25  27
ENDBRANCH  24  25
ENDBRANCH  13  15
ENDBRANCH   9  10
ENDBRANCH   7   9
ENDBRANCH   6   7
ENDBRANCH   5   6
ENDBRANCH   2   5
TORSDOF 11
ENDMDL
MODEL      181
REMARK 921   NORMALIZED FREE ENERGY PREDICTED BY IDOCK:   -4.59 KCAL/MOL
REMARK 922        TOTAL FREE ENERGY PREDICTED BY IDOCK:  -10.29 KCAL/MOL
REMARK 923 INTER-LIGAND FREE ENERGY PREDICTED BY IDOCK:   -8.80 KCAL/MOL
REMARK 924 INTRA-LIGAND FREE ENERGY PREDICTED BY IDOCK:   -1.49 KCAL/MOL
REMARK 927      BINDING AFFINITY PREDICTED BY RF-SCORE:    0.00 PKD
ROOT
HETATM    1  C   UNL     1      -9.831  19.553  67.580  1.00  0.00    -0.358 C  
HETATM    2  S   UNL     1      -9.797  17.838  67.128  1.00  0.00    -0.325 S  
HETATM    3  O   UNL     1      -9.859  17.758  65.682  1.00  0.00    -0.528 OA 
HETATM    4  O   UNL     1     -10.756  17.143  67.963  1.00  0.00    -0.372 OA 
ENDROOT
BRANCH   2   5
HETATM    5  C   UNL     1      -8.165  17.354  67.641  1.00  0.00    -0.206 C  
BRANCH   5   6
HETATM    6  C   UNL     1      -8.208  16.508  68.906  1.00  0.00    -0.241 C  
BRANCH   6   7
HETATM    7  N   UNL     1      -7.710  15.142  68.710  1.00  0.00    -0.133 NA 
HETATM    8  H   UNL     1      -8.067  14.520  69.436  1.00  0.00     0.000 HD 
BRANCH   7   9
HETATM    9  C   UNL     1      -7.994  14.604  67.379  1.00  0.00    -0.201 C  
BRANCH   9  10
HETATM   10  C   UNL     1      -8.515  13.216  67.481  1.00  0.00    -0.198 A  
HETATM   11  C   UNL     1      -8.288  12.066  66.757  1.00  0.00    -0.135 A  
HETATM   12  C   UNL     1      -9.086  11.059  67.350  1.00  0.00    -0.143 A  
HETATM   13  C   UNL     1      -9.738  11.644  68.418  1.00  0.00    -0.199 A  
HETATM   14  O   UNL     1      -9.380  12.961  68.499  1.00  0.00    -0.174 OA 
BRANCH  13  15
HETATM   15  C   UNL     1     -10.680  11.178  69.426  1.00  0.00    -0.220 A  
HETATM   16  C   UNL     1     -10.466   9.980  70.121  1.00  0.00    -0.338 A  
HETATM   17  C   UNL     1     -11.388   9.518  71.099  1.00  0.00    -0.440 A  
HETATM   18  C   UNL     1     -12.537  10.276  71.373  1.00  0.00    -0.434 A  
HETATM   19  C   UNL     1     -12.740  11.455  70.683  1.00  0.00    -0.282 A  
HETATM   20  N   UNL     1     -13.466   9.918  72.258  1.00  0.00    -0.389 NA 
HETATM   21  C   UNL     1     -13.269   8.760  72.882  1.00  0.00     0.051 A  
HETATM   22  C   UNL     1     -11.832  11.907  69.724  1.00  0.00    -0.411 A  
HETATM   23  N   UNL     1     -12.229   7.949  72.701  1.00  0.00    -0.202 NA 
HETATM   24  C   UNL     1     -11.280   8.316  71.827  1.00  0.00    -0.283 A  
BRANCH  24  25
HETATM   25  N   UNL     1     -10.190   7.435  71.566  1.00  0.00    -0.193 NA 
HETATM   26  H   UNL     1      -9.614   7.192  72.372  1.00  0.00     0.000 HD 
BRANCH  25  27
HETATM   27  C   UNL     1      -9.803   6.855  70.336  1.00  0.00    -0.179 A  
HETATM   28  C   UNL     1      -8.502   6.916  69.839  1.00  0.00    -0.140 A  
HETATM   29  C   UNL     1      -8.109   6.256  68.672  1.00  0.00    -0.109 A  
HETATM   30  C   UNL     1      -9.033   5.470  67.973  1.00  0.00    -0.108 A  
HETATM   31 CL   UNL     1      -6.466   6.558  68.212  1.00  0.00    -0.047 Cl 
HETATM   32  C   UNL     1     -10.362   5.455  68.423  1.00  0.00    -0.216 A  
HETATM   33  C   UNL     1     -10.743   6.142  69.586  1.00  0.00    -0.385 A  
BRANCH  30  34
HETATM   34  O   UNL     1      -8.826   4.689  66.863  1.00  0.00    -0.110 OA 
BRANCH  34  35
HETATM   35  C   UNL     1      -9.066   5.314  65.605  1.00  0.00    -0.153 C  
BRANCH  35  36
HETATM   36  C   UNL     1      -9.231   4.301  64.504  1.00  0.00    -0.155 A  
HETATM   37  C   UNL     1     -10.372   3.494  64.444  1.00  0.00    -0.152 A  
HETATM   38  C   UNL     1     -10.448   2.486  63.489  1.00  0.00    -0.187 A  
HETATM   39  C   UNL     1      -9.408   2.266  62.592  1.00  0.00    -0.090 A  
HETATM   40  F   UNL     1     -11.532   1.702  63.448  1.00  0.00    -0.246 F  
HETATM   41  C   UNL     1      -8.273   3.067  62.644  1.00  0.00    -0.073 A  
HETATM   42  C   UNL     1      -8.181   4.079  63.595  1.00  0.00    -0.092 A  
ENDBRANCH  35  36
ENDBRANCH  34  35
ENDBRANCH  30  34
ENDBRANCH  25  27
ENDBRANCH  24  25
ENDBRANCH  13  15
ENDBRANCH   9  10
ENDBRANCH   7   9
ENDBRANCH   6   7
ENDBRANCH   5   6
ENDBRANCH   2   5
TORSDOF 11
ENDMDL
MODEL      182
REMARK 921   NORMALIZED FREE ENERGY PREDICTED BY IDOCK:   -4.57 KCAL/MOL
REMARK 922        TOTAL FREE ENERGY PREDICTED BY IDOCK:  -10.26 KCAL/MOL
REMARK 923 INTER-LIGAND FREE ENERGY PREDICTED BY IDOCK:   -8.83 KCAL/MOL
REMARK 924 INTRA-LIGAND FREE ENERGY PREDICTED BY IDOCK:   -1.43 KCAL/MOL
REMARK 927      BINDING AFFINITY PREDICTED BY RF-SCORE:    0.00 PKD
ROOT
HETATM    1  C   UNL     1      -7.790  20.593  66.843  1.00  0.00    -0.205 C  
HETATM    2  S   UNL     1      -9.088  19.385  66.769  1.00  0.00    -0.352 S  
HETATM    3  O   UNL     1      -8.590  18.244  66.028  1.00  0.00    -0.494 OA 
HETATM    4  O   UNL     1     -10.303  20.069  66.375  1.00  0.00    -0.456 OA 
ENDROOT
BRANCH   2   5
HETATM    5  C   UNL     1      -9.249  18.912  68.476  1.00  0.00    -0.361 C  
BRANCH   5   6
HETATM    6  C   UNL     1      -9.154  17.403  68.646  1.00  0.00    -0.261 C  
BRANCH   6   7
HETATM    7  N   UNL     1     -10.337  16.814  69.281  1.00  0.00    -0.314 NA 
HETATM    8  H   UNL     1     -10.686  17.417  70.026  1.00  0.00     0.000 HD 
BRANCH   7   9
HETATM    9  C   UNL     1     -11.405  16.487  68.335  1.00  0.00    -0.209 C  
BRANCH   9  10
HETATM   10  C   UNL     1     -11.529  15.014  68.181  1.00  0.00    -0.339 A  
HETATM   11  C   UNL     1     -12.056  14.022  68.977  1.00  0.00    -0.358 A  
HETATM   12  C   UNL     1     -11.874  12.808  68.272  1.00  0.00    -0.357 A  
HETATM   13  C   UNL     1     -11.267  13.130  67.075  1.00  0.00    -0.294 A  
HETATM   14  O   UNL     1     -11.064  14.480  67.020  1.00  0.00    -0.304 OA 
BRANCH  13  15
HETATM   15  C   UNL     1     -10.818  12.372  65.915  1.00  0.00    -0.305 A  
HETATM   16  C   UNL     1      -9.651  11.598  65.960  1.00  0.00    -0.249 A  
HETATM   17  C   UNL     1      -9.205  10.864  64.828  1.00  0.00    -0.227 A  
HETATM   18  C   UNL     1      -9.949  10.917  63.639  1.00  0.00    -0.359 A  
HETATM   19  C   UNL     1     -11.097  11.682  63.602  1.00  0.00    -0.506 A  
HETATM   20  N   UNL     1      -9.604  10.279  62.521  1.00  0.00    -0.260 NA 
HETATM   21  C   UNL     1      -8.473   9.580  62.568  1.00  0.00    -0.184 A  
HETATM   22  C   UNL     1     -11.534  12.401  64.717  1.00  0.00    -0.375 A  
HETATM   23  N   UNL     1      -7.678   9.463  63.628  1.00  0.00    -0.117 NA 
HETATM   24  C   UNL     1      -8.032  10.084  64.763  1.00  0.00    -0.144 A  
BRANCH  24  25
HETATM   25  N   UNL     1      -7.166  10.029  65.893  1.00  0.00    -0.108 NA 
HETATM   26  H   UNL     1      -6.260  10.483  65.780  1.00  0.00     0.000 HD 
BRANCH  25  27
HETATM   27  C   UNL     1      -7.398   9.427  67.152  1.00  0.00    -0.087 A  
HETATM   28  C   UNL     1      -7.635   8.062  67.313  1.00  0.00    -0.097 A  
HETATM   29  C   UNL     1      -7.765   7.464  68.569  1.00  0.00    -0.120 A  
HETATM   30  C   UNL     1      -7.625   8.238  69.726  1.00  0.00    -0.092 A  
HETATM   31 CL   UNL     1      -8.145   5.774  68.506  1.00  0.00    -0.107 Cl 
HETATM   32  C   UNL     1      -7.455   9.623  69.578  1.00  0.00    -0.096 A  
HETATM   33  C   UNL     1      -7.348  10.211  68.308  1.00  0.00    -0.081 A  
BRANCH  30  34
HETATM   34  O   UNL     1      -7.640   7.828  71.037  1.00  0.00    -0.079 OA 
BRANCH  34  35
HETATM   35  C   UNL     1      -8.834   7.189  71.478  1.00  0.00    -0.127 C  
BRANCH  35  36
HETATM   36  C   UNL     1      -8.635   5.708  71.662  1.00  0.00    -0.132 A  
HETATM   37  C   UNL     1      -7.351   5.173  71.797  1.00  0.00    -0.085 A  
HETATM   38  C   UNL     1      -7.185   3.794  71.847  1.00  0.00    -0.054 A  
HETATM   39  C   UNL     1      -8.276   2.935  71.765  1.00  0.00    -0.062 A  
HETATM   40  F   UNL     1      -5.952   3.284  71.954  1.00  0.00    -0.011 F  
HETATM   41  C   UNL     1      -9.557   3.460  71.635  1.00  0.00    -0.229 A  
HETATM   42  C   UNL     1      -9.739   4.839  71.582  1.00  0.00    -0.230 A  
ENDBRANCH  35  36
ENDBRANCH  34  35
ENDBRANCH  30  34
ENDBRANCH  25  27
ENDBRANCH  24  25
ENDBRANCH  13  15
ENDBRANCH   9  10
ENDBRANCH   7   9
ENDBRANCH   6   7
ENDBRANCH   5   6
ENDBRANCH   2   5
TORSDOF 11
ENDMDL
MODEL      183
REMARK 921   NORMALIZED FREE ENERGY PREDICTED BY IDOCK:   -4.57 KCAL/MOL
REMARK 922        TOTAL FREE ENERGY PREDICTED BY IDOCK:  -10.26 KCAL/MOL
REMARK 923 INTER-LIGAND FREE ENERGY PREDICTED BY IDOCK:   -8.08 KCAL/MOL
REMARK 924 INTRA-LIGAND FREE ENERGY PREDICTED BY IDOCK:   -2.18 KCAL/MOL
REMARK 927      BINDING AFFINITY PREDICTED BY RF-SCORE:    0.00 PKD
ROOT
HETATM    1  C   UNL     1      -5.258  13.239  69.918  1.00  0.00    -0.088 C  
HETATM    2  S   UNL     1      -5.868  14.157  68.528  1.00  0.00    -0.102 S  
HETATM    3  O   UNL     1      -7.305  14.279  68.672  1.00  0.00    -0.111 OA 
HETATM    4  O   UNL     1      -5.276  13.591  67.333  1.00  0.00    -0.333 OA 
ENDROOT
BRANCH   2   5
HETATM    5  C   UNL     1      -5.145  15.759  68.798  1.00  0.00    -0.100 C  
BRANCH   5   6
HETATM    6  C   UNL     1      -5.969  16.858  68.144  1.00  0.00    -0.122 C  
BRANCH   6   7
HETATM    7  N   UNL     1      -6.860  17.552  69.080  1.00  0.00    -0.248 NA 
HETATM    8  H   UNL     1      -6.322  18.043  69.795  1.00  0.00     0.000 HD 
BRANCH   7   9
HETATM    9  C   UNL     1      -7.800  18.462  68.424  1.00  0.00    -0.306 C  
BRANCH   9  10
HETATM   10  C   UNL     1      -9.084  17.767  68.144  1.00  0.00    -0.274 A  
HETATM   11  C   UNL     1      -9.895  17.692  67.033  1.00  0.00    -0.307 A  
HETATM   12  C   UNL     1     -10.987  16.867  67.394  1.00  0.00    -0.073 A  
HETATM   13  C   UNL     1     -10.770  16.465  68.696  1.00  0.00    -0.317 A  
HETATM   14  O   UNL     1      -9.602  17.011  69.149  1.00  0.00    -0.230 OA 
BRANCH  13  15
HETATM   15  C   UNL     1     -11.487  15.623  69.645  1.00  0.00    -0.345 A  
HETATM   16  C   UNL     1     -11.566  14.235  69.469  1.00  0.00    -0.353 A  
HETATM   17  C   UNL     1     -12.272  13.412  70.387  1.00  0.00    -0.415 A  
HETATM   18  C   UNL     1     -12.906  14.002  71.492  1.00  0.00    -0.362 A  
HETATM   19  C   UNL     1     -12.824  15.370  71.657  1.00  0.00    -0.492 A  
HETATM   20  N   UNL     1     -13.605  13.318  72.396  1.00  0.00    -0.598 NA 
HETATM   21  C   UNL     1     -13.704  12.007  72.195  1.00  0.00     0.019 A  
HETATM   22  C   UNL     1     -12.128  16.176  70.754  1.00  0.00    -0.147 A  
HETATM   23  N   UNL     1     -13.159  11.335  71.183  1.00  0.00    -0.245 NA 
HETATM   24  C   UNL     1     -12.436  12.016  70.282  1.00  0.00    -0.099 A  
BRANCH  24  25
HETATM   25  N   UNL     1     -11.898  11.331  69.154  1.00  0.00    -0.332 NA 
HETATM   26  H   UNL     1     -12.283  11.598  68.248  1.00  0.00     0.000 HD 
BRANCH  25  27
HETATM   27  C   UNL     1     -10.899  10.330  69.126  1.00  0.00    -0.233 A  
HETATM   28  C   UNL     1      -9.540  10.611  68.987  1.00  0.00    -0.207 A  
HETATM   29  C   UNL     1      -8.556   9.622  69.059  1.00  0.00    -0.133 A  
HETATM   30  C   UNL     1      -8.920   8.294  69.311  1.00  0.00    -0.147 A  
HETATM   31 CL   UNL     1      -6.951  10.206  68.767  1.00  0.00    -0.064 Cl 
HETATM   32  C   UNL     1     -10.288   7.987  69.384  1.00  0.00    -0.217 A  
HETATM   33  C   UNL     1     -11.264   8.990  69.287  1.00  0.00     0.151 A  
BRANCH  30  34
HETATM   34  O   UNL     1      -8.107   7.203  69.494  1.00  0.00    -0.125 OA 
BRANCH  34  35
HETATM   35  C   UNL     1      -7.786   6.882  70.844  1.00  0.00    -0.092 C  
BRANCH  35  36
HETATM   36  C   UNL     1      -8.450   5.604  71.284  1.00  0.00    -0.128 A  
HETATM   37  C   UNL     1      -8.359   4.449  70.503  1.00  0.00    -0.086 A  
HETATM   38  C   UNL     1      -9.078   3.317  70.868  1.00  0.00    -0.112 A  
HETATM   39  C   UNL     1      -9.887   3.313  71.999  1.00  0.00    -0.240 A  
HETATM   40  F   UNL     1      -9.005   2.218  70.106  1.00  0.00    -0.108 F  
HETATM   41  C   UNL     1      -9.980   4.457  72.783  1.00  0.00    -0.209 A  
HETATM   42  C   UNL     1      -9.267   5.600  72.429  1.00  0.00    -0.151 A  
ENDBRANCH  35  36
ENDBRANCH  34  35
ENDBRANCH  30  34
ENDBRANCH  25  27
ENDBRANCH  24  25
ENDBRANCH  13  15
ENDBRANCH   9  10
ENDBRANCH   7   9
ENDBRANCH   6   7
ENDBRANCH   5   6
ENDBRANCH   2   5
TORSDOF 11
ENDMDL
MODEL      184
REMARK 921   NORMALIZED FREE ENERGY PREDICTED BY IDOCK:   -4.57 KCAL/MOL
REMARK 922        TOTAL FREE ENERGY PREDICTED BY IDOCK:  -10.25 KCAL/MOL
REMARK 923 INTER-LIGAND FREE ENERGY PREDICTED BY IDOCK:   -7.66 KCAL/MOL
REMARK 924 INTRA-LIGAND FREE ENERGY PREDICTED BY IDOCK:   -2.59 KCAL/MOL
REMARK 927      BINDING AFFINITY PREDICTED BY RF-SCORE:    0.00 PKD
ROOT
HETATM    1  C   UNL     1      -7.966  14.644  69.172  1.00  0.00    -0.097 C  
HETATM    2  S   UNL     1      -7.413  14.724  67.489  1.00  0.00    -0.198 S  
HETATM    3  O   UNL     1      -8.064  13.657  66.756  1.00  0.00     0.032 OA 
HETATM    4  O   UNL     1      -5.971  14.857  67.504  1.00  0.00    -0.320 OA 
ENDROOT
BRANCH   2   5
HETATM    5  C   UNL     1      -8.104  16.271  66.947  1.00  0.00    -0.235 C  
BRANCH   5   6
HETATM    6  C   UNL     1      -9.000  16.084  65.731  1.00  0.00    -0.062 C  
BRANCH   6   7
HETATM    7  N   UNL     1     -10.291  15.465  66.049  1.00  0.00    -0.304 NA 
HETATM    8  H   UNL     1     -10.162  14.631  66.621  1.00  0.00     0.000 HD 
BRANCH   7   9
HETATM    9  C   UNL     1     -11.237  16.386  66.682  1.00  0.00     0.305 C  
BRANCH   9  10
HETATM   10  C   UNL     1     -11.264  16.172  68.152  1.00  0.00    -0.311 A  
HETATM   11  C   UNL     1     -10.903  16.953  69.228  1.00  0.00    -0.214 A  
HETATM   12  C   UNL     1     -11.169  16.184  70.385  1.00  0.00    -0.394 A  
HETATM   13  C   UNL     1     -11.700  14.985  69.954  1.00  0.00    -0.307 A  
HETATM   14  O   UNL     1     -11.763  14.984  68.588  1.00  0.00    -0.329 OA 
BRANCH  13  15
HETATM   15  C   UNL     1     -12.182  13.778  70.613  1.00  0.00    -0.434 A  
HETATM   16  C   UNL     1     -11.916  12.507  70.086  1.00  0.00    -0.377 A  
HETATM   17  C   UNL     1     -12.393  11.329  70.721  1.00  0.00    -0.495 A  
HETATM   18  C   UNL     1     -13.147  11.441  71.899  1.00  0.00    -0.400 A  
HETATM   19  C   UNL     1     -13.406  12.697  72.411  1.00  0.00    -0.424 A  
HETATM   20  N   UNL     1     -13.651  10.397  72.557  1.00  0.00     0.084 NA 
HETATM   21  C   UNL     1     -13.423   9.200  72.025  1.00  0.00    -0.448 A  
HETATM   22  C   UNL     1     -12.935  13.853  71.786  1.00  0.00    -0.442 A  
HETATM   23  N   UNL     1     -12.735   8.966  70.910  1.00  0.00    -0.049 NA 
HETATM   24  C   UNL     1     -12.206  10.011  70.256  1.00  0.00    -0.112 A  
BRANCH  24  25
HETATM   25  N   UNL     1     -11.521   9.794  69.026  1.00  0.00    -0.467 NA 
HETATM   26  H   UNL     1     -12.035  10.046  68.182  1.00  0.00     0.000 HD 
BRANCH  25  27
HETATM   27  C   UNL     1     -10.221   9.275  68.822  1.00  0.00    -0.205 A  
HETATM   28  C   UNL     1      -9.940   8.254  67.915  1.00  0.00    -0.227 A  
HETATM   29  C   UNL     1      -8.639   7.818  67.651  1.00  0.00    -0.123 A  
HETATM   30  C   UNL     1      -7.555   8.436  68.286  1.00  0.00    -0.098 A  
HETATM   31 CL   UNL     1      -8.556   6.478  66.556  1.00  0.00    -0.119 Cl 
HETATM   32  C   UNL     1      -7.828   9.418  69.251  1.00  0.00    -0.085 A  
HETATM   33  C   UNL     1      -9.143   9.829  69.520  1.00  0.00    -0.227 A  
BRANCH  30  34
HETATM   34  O   UNL     1      -6.214   8.209  68.105  1.00  0.00    -0.048 OA 
BRANCH  34  35
HETATM   35  C   UNL     1      -5.481   9.256  67.475  1.00  0.00    -0.037 C  
BRANCH  35  36
HETATM   36  C   UNL     1      -5.650   9.229  65.979  1.00  0.00    -0.045 A  
HETATM   37  C   UNL     1      -5.517   8.032  65.269  1.00  0.00    -0.032 A  
HETATM   38  C   UNL     1      -5.559   8.051  63.879  1.00  0.00    -0.053 A  
HETATM   39  C   UNL     1      -5.731   9.242  63.182  1.00  0.00    -0.084 A  
HETATM   40  F   UNL     1      -5.411   6.906  63.202  1.00  0.00    -0.028 F  
HETATM   41  C   UNL     1      -5.867  10.436  63.882  1.00  0.00    -0.120 A  
HETATM   42  C   UNL     1      -5.826  10.433  65.274  1.00  0.00    -0.134 A  
ENDBRANCH  35  36
ENDBRANCH  34  35
ENDBRANCH  30  34
ENDBRANCH  25  27
ENDBRANCH  24  25
ENDBRANCH  13  15
ENDBRANCH   9  10
ENDBRANCH   7   9
ENDBRANCH   6   7
ENDBRANCH   5   6
ENDBRANCH   2   5
TORSDOF 11
ENDMDL
MODEL      185
REMARK 921   NORMALIZED FREE ENERGY PREDICTED BY IDOCK:   -4.57 KCAL/MOL
REMARK 922        TOTAL FREE ENERGY PREDICTED BY IDOCK:  -10.25 KCAL/MOL
REMARK 923 INTER-LIGAND FREE ENERGY PREDICTED BY IDOCK:   -8.46 KCAL/MOL
REMARK 924 INTRA-LIGAND FREE ENERGY PREDICTED BY IDOCK:   -1.79 KCAL/MOL
REMARK 927      BINDING AFFINITY PREDICTED BY RF-SCORE:    0.00 PKD
ROOT
HETATM    1  C   UNL     1      -9.877  19.811  66.226  1.00  0.00    -0.455 C  
HETATM    2  S   UNL     1      -9.035  18.343  66.757  1.00  0.00    -0.295 S  
HETATM    3  O   UNL     1      -8.451  18.610  68.057  1.00  0.00    -0.277 OA 
HETATM    4  O   UNL     1      -8.226  17.874  65.650  1.00  0.00    -0.476 OA 
ENDROOT
BRANCH   2   5
HETATM    5  C   UNL     1     -10.383  17.204  66.977  1.00  0.00    -0.308 C  
BRANCH   5   6
HETATM    6  C   UNL     1     -10.470  16.215  65.823  1.00  0.00    -0.367 C  
BRANCH   6   7
HETATM    7  N   UNL     1     -10.344  14.816  66.245  1.00  0.00    -0.287 NA 
HETATM    8  H   UNL     1     -10.703  14.188  65.526  1.00  0.00     0.000 HD 
BRANCH   7   9
HETATM    9  C   UNL     1      -8.982  14.443  66.627  1.00  0.00    -0.205 C  
BRANCH   9  10
HETATM   10  C   UNL     1      -8.954  13.056  67.159  1.00  0.00    -0.223 A  
HETATM   11  C   UNL     1      -8.109  11.985  66.963  1.00  0.00    -0.158 A  
HETATM   12  C   UNL     1      -8.615  10.929  67.758  1.00  0.00    -0.128 A  
HETATM   13  C   UNL     1      -9.727  11.420  68.413  1.00  0.00    -0.203 A  
HETATM   14  O   UNL     1      -9.927  12.723  68.049  1.00  0.00    -0.212 OA 
BRANCH  13  15
HETATM   15  C   UNL     1     -10.686  10.871  69.361  1.00  0.00    -0.265 A  
HETATM   16  C   UNL     1     -10.340   9.814  70.214  1.00  0.00    -0.348 A  
HETATM   17  C   UNL     1     -11.276   9.270  71.134  1.00  0.00    -0.413 A  
HETATM   18  C   UNL     1     -12.574   9.801  71.190  1.00  0.00    -0.345 A  
HETATM   19  C   UNL     1     -12.907  10.842  70.346  1.00  0.00    -0.285 A  
HETATM   20  N   UNL     1     -13.525   9.348  72.005  1.00  0.00    -0.424 NA 
HETATM   21  C   UNL     1     -13.194   8.319  72.781  1.00  0.00     0.153 A  
HETATM   22  C   UNL     1     -11.985  11.376  69.444  1.00  0.00    -0.407 A  
HETATM   23  N   UNL     1     -12.004   7.723  72.811  1.00  0.00    -0.207 NA 
HETATM   24  C   UNL     1     -11.036   8.190  72.008  1.00  0.00    -0.306 A  
BRANCH  24  25
HETATM   25  N   UNL     1      -9.774   7.529  71.974  1.00  0.00    -0.157 NA 
HETATM   26  H   UNL     1      -9.052   7.921  72.577  1.00  0.00     0.000 HD 
BRANCH  25  27
HETATM   27  C   UNL     1      -9.393   6.399  71.213  1.00  0.00    -0.156 A  
HETATM   28  C   UNL     1      -8.150   5.780  71.335  1.00  0.00    -0.114 A  
HETATM   29  C   UNL     1      -7.821   4.608  70.650  1.00  0.00    -0.061 A  
HETATM   30  C   UNL     1      -8.772   3.993  69.826  1.00  0.00    -0.075 A  
HETATM   31 CL   UNL     1      -6.189   4.083  70.898  1.00  0.00    -0.018 Cl 
HETATM   32  C   UNL     1     -10.002   4.642  69.640  1.00  0.00    -0.281 A  
HETATM   33  C   UNL     1     -10.307   5.832  70.320  1.00  0.00    -0.319 A  
BRANCH  30  34
HETATM   34  O   UNL     1      -8.671   2.810  69.138  1.00  0.00    -0.068 OA 
BRANCH  34  35
HETATM   35  C   UNL     1      -7.599   2.719  68.204  1.00  0.00    -0.056 C  
BRANCH  35  36
HETATM   36  C   UNL     1      -7.827   3.607  67.010  1.00  0.00    -0.080 A  
HETATM   37  C   UNL     1      -7.244   4.876  66.944  1.00  0.00    -0.077 A  
HETATM   38  C   UNL     1      -7.564   5.723  65.889  1.00  0.00    -0.086 A  
HETATM   39  C   UNL     1      -8.455   5.329  64.896  1.00  0.00    -0.150 A  
HETATM   40  F   UNL     1      -7.021   6.946  65.840  1.00  0.00    -0.057 F  
HETATM   41  C   UNL     1      -9.036   4.068  64.953  1.00  0.00    -0.134 A  
HETATM   42  C   UNL     1      -8.727   3.208  66.004  1.00  0.00    -0.129 A  
ENDBRANCH  35  36
ENDBRANCH  34  35
ENDBRANCH  30  34
ENDBRANCH  25  27
ENDBRANCH  24  25
ENDBRANCH  13  15
ENDBRANCH   9  10
ENDBRANCH   7   9
ENDBRANCH   6   7
ENDBRANCH   5   6
ENDBRANCH   2   5
TORSDOF 11
ENDMDL
MODEL      186
REMARK 921   NORMALIZED FREE ENERGY PREDICTED BY IDOCK:   -4.54 KCAL/MOL
REMARK 922        TOTAL FREE ENERGY PREDICTED BY IDOCK:  -10.21 KCAL/MOL
REMARK 923 INTER-LIGAND FREE ENERGY PREDICTED BY IDOCK:   -8.40 KCAL/MOL
REMARK 924 INTRA-LIGAND FREE ENERGY PREDICTED BY IDOCK:   -1.81 KCAL/MOL
REMARK 927      BINDING AFFINITY PREDICTED BY RF-SCORE:    0.00 PKD
ROOT
HETATM    1  C   UNL     1      -9.633   5.913  72.006  1.00  0.00    -0.149 C  
HETATM    2  S   UNL     1      -8.536   6.225  73.365  1.00  0.00    -0.121 S  
HETATM    3  O   UNL     1      -9.020   7.398  74.065  1.00  0.00    -0.207 OA 
HETATM    4  O   UNL     1      -7.180   6.153  72.862  1.00  0.00    -0.089 OA 
ENDROOT
BRANCH   2   5
HETATM    5  C   UNL     1      -8.818   4.805  74.399  1.00  0.00    -0.112 C  
BRANCH   5   6
HETATM    6  C   UNL     1      -7.574   3.934  74.497  1.00  0.00    -0.074 C  
BRANCH   6   7
HETATM    7  N   UNL     1      -7.702   2.655  73.791  1.00  0.00    -0.050 NA 
HETATM    8  H   UNL     1      -8.684   2.399  73.681  1.00  0.00     0.000 HD 
BRANCH   7   9
HETATM    9  C   UNL     1      -7.012   2.630  72.501  1.00  0.00    -0.030 C  
BRANCH   9  10
HETATM   10  C   UNL     1      -7.984   2.790  71.389  1.00  0.00    -0.051 A  
HETATM   11  C   UNL     1      -9.244   2.283  71.155  1.00  0.00    -0.188 A  
HETATM   12  C   UNL     1      -9.659   2.810  69.909  1.00  0.00    -0.088 A  
HETATM   13  C   UNL     1      -8.640   3.627  69.462  1.00  0.00    -0.067 A  
HETATM   14  O   UNL     1      -7.621   3.618  70.373  1.00  0.00    -0.041 OA 
BRANCH  13  15
HETATM   15  C   UNL     1      -8.430   4.457  68.283  1.00  0.00    -0.101 A  
HETATM   16  C   UNL     1      -8.405   5.855  68.374  1.00  0.00    -0.112 A  
HETATM   17  C   UNL     1      -8.210   6.667  67.224  1.00  0.00    -0.121 A  
HETATM   18  C   UNL     1      -8.040   6.056  65.972  1.00  0.00    -0.113 A  
HETATM   19  C   UNL     1      -8.067   4.678  65.891  1.00  0.00    -0.103 A  
HETATM   20  N   UNL     1      -7.868   6.731  64.837  1.00  0.00    -0.113 NA 
HETATM   21  C   UNL     1      -7.886   8.058  64.932  1.00  0.00    -0.129 A  
HETATM   22  C   UNL     1      -8.257   3.883  67.023  1.00  0.00    -0.099 A  
HETATM   23  N   UNL     1      -8.050   8.751  66.056  1.00  0.00    -0.109 NA 
HETATM   24  C   UNL     1      -8.201   8.077  67.206  1.00  0.00    -0.122 A  
BRANCH  24  25
HETATM   25  N   UNL     1      -8.444   8.794  68.413  1.00  0.00    -0.129 NA 
HETATM   26  H   UNL     1      -7.615   9.069  68.939  1.00  0.00     0.000 HD 
BRANCH  25  27
HETATM   27  C   UNL     1      -9.684   9.174  68.977  1.00  0.00    -0.166 A  
HETATM   28  C   UNL     1     -10.078   8.818  70.266  1.00  0.00    -0.214 A  
HETATM   29  C   UNL     1     -11.261   9.281  70.847  1.00  0.00    -0.306 A  
HETATM   30  C   UNL     1     -12.085  10.163  70.139  1.00  0.00    -0.149 A  
HETATM   31 CL   UNL     1     -11.573   8.627  72.421  1.00  0.00    -0.426 Cl 
HETATM   32  C   UNL     1     -11.737  10.474  68.816  1.00  0.00    -0.190 A  
HETATM   33  C   UNL     1     -10.554   9.983  68.240  1.00  0.00    -0.264 A  
BRANCH  30  34
HETATM   34  O   UNL     1     -13.235  10.784  70.559  1.00  0.00    -0.190 OA 
BRANCH  34  35
HETATM   35  C   UNL     1     -13.159  11.458  71.812  1.00  0.00    -0.418 C  
BRANCH  35  36
HETATM   36  C   UNL     1     -13.007  12.946  71.633  1.00  0.00    -0.410 A  
HETATM   37  C   UNL     1     -13.642  13.836  72.503  1.00  0.00    -0.680 A  
HETATM   38  C   UNL     1     -13.584  15.202  72.248  1.00  0.00    -0.462 A  
HETATM   39  C   UNL     1     -12.904  15.698  71.141  1.00  0.00    -0.540 A  
HETATM   40  F   UNL     1     -14.211  16.051  73.072  1.00  0.00    -0.673 F  
HETATM   41  C   UNL     1     -12.266  14.818  70.274  1.00  0.00    -0.394 A  
HETATM   42  C   UNL     1     -12.317  13.448  70.515  1.00  0.00    -0.401 A  
ENDBRANCH  35  36
ENDBRANCH  34  35
ENDBRANCH  30  34
ENDBRANCH  25  27
ENDBRANCH  24  25
ENDBRANCH  13  15
ENDBRANCH   9  10
ENDBRANCH   7   9
ENDBRANCH   6   7
ENDBRANCH   5   6
ENDBRANCH   2   5
TORSDOF 11
ENDMDL
MODEL      187
REMARK 921   NORMALIZED FREE ENERGY PREDICTED BY IDOCK:   -4.54 KCAL/MOL
REMARK 922        TOTAL FREE ENERGY PREDICTED BY IDOCK:  -10.20 KCAL/MOL
REMARK 923 INTER-LIGAND FREE ENERGY PREDICTED BY IDOCK:   -8.46 KCAL/MOL
REMARK 924 INTRA-LIGAND FREE ENERGY PREDICTED BY IDOCK:   -1.73 KCAL/MOL
REMARK 927      BINDING AFFINITY PREDICTED BY RF-SCORE:    0.00 PKD
ROOT
HETATM    1  C   UNL     1      -6.365  14.782  70.043  1.00  0.00    -0.164 C  
HETATM    2  S   UNL     1      -6.847  15.127  68.371  1.00  0.00    -0.117 S  
HETATM    3  O   UNL     1      -5.806  14.627  67.496  1.00  0.00    -0.337 OA 
HETATM    4  O   UNL     1      -7.282  16.507  68.314  1.00  0.00    -0.150 OA 
ENDROOT
BRANCH   2   5
HETATM    5  C   UNL     1      -8.279  14.088  68.179  1.00  0.00    -0.155 C  
BRANCH   5   6
HETATM    6  C   UNL     1      -9.364  14.783  67.369  1.00  0.00    -0.197 C  
BRANCH   6   7
HETATM    7  N   UNL     1      -9.025  14.934  65.951  1.00  0.00    -0.420 NA 
HETATM    8  H   UNL     1      -8.415  14.176  65.642  1.00  0.00     0.000 HD 
BRANCH   7   9
HETATM    9  C   UNL     1     -10.196  15.043  65.080  1.00  0.00    -0.365 C  
BRANCH   9  10
HETATM   10  C   UNL     1     -10.646  13.696  64.644  1.00  0.00    -0.430 A  
HETATM   11  C   UNL     1     -11.772  13.239  63.994  1.00  0.00    -0.483 A  
HETATM   12  C   UNL     1     -11.615  11.839  63.862  1.00  0.00    -0.469 A  
HETATM   13  C   UNL     1     -10.392  11.521  64.419  1.00  0.00    -0.312 A  
HETATM   14  O   UNL     1      -9.800  12.659  64.890  1.00  0.00    -0.179 OA 
BRANCH  13  15
HETATM   15  C   UNL     1      -9.637  10.289  64.604  1.00  0.00    -0.374 A  
HETATM   16  C   UNL     1      -9.936   9.403  65.648  1.00  0.00    -0.210 A  
HETATM   17  C   UNL     1      -9.196   8.205  65.836  1.00  0.00    -0.158 A  
HETATM   18  C   UNL     1      -8.142   7.904  64.960  1.00  0.00    -0.144 A  
HETATM   19  C   UNL     1      -7.854   8.782  63.934  1.00  0.00    -0.141 A  
HETATM   20  N   UNL     1      -7.381   6.815  65.064  1.00  0.00    -0.077 NA 
HETATM   21  C   UNL     1      -7.651   6.004  66.083  1.00  0.00    -0.087 A  
HETATM   22  C   UNL     1      -8.584   9.957  63.750  1.00  0.00    -0.205 A  
HETATM   23  N   UNL     1      -8.613   6.186  66.984  1.00  0.00    -0.108 NA 
HETATM   24  C   UNL     1      -9.397   7.268  66.870  1.00  0.00    -0.156 A  
BRANCH  24  25
HETATM   25  N   UNL     1     -10.391   7.522  67.860  1.00  0.00    -0.200 NA 
HETATM   26  H   UNL     1     -11.288   7.858  67.511  1.00  0.00     0.000 HD 
BRANCH  25  27
HETATM   27  C   UNL     1     -10.296   7.367  69.263  1.00  0.00    -0.204 A  
HETATM   28  C   UNL     1      -9.208   7.820  70.009  1.00  0.00    -0.153 A  
HETATM   29  C   UNL     1      -9.170   7.750  71.403  1.00  0.00    -0.134 A  
HETATM   30  C   UNL     1     -10.268   7.238  72.105  1.00  0.00    -0.190 A  
HETATM   31 CL   UNL     1      -7.677   8.292  72.094  1.00  0.00    -0.148 Cl 
HETATM   32  C   UNL     1     -11.340   6.715  71.364  1.00  0.00    -0.335 A  
HETATM   33  C   UNL     1     -11.352   6.774  69.962  1.00  0.00    -0.396 A  
BRANCH  30  34
HETATM   34  O   UNL     1     -10.455   7.157  73.463  1.00  0.00    -0.328 OA 
BRANCH  34  35
HETATM   35  C   UNL     1     -10.627   5.846  73.993  1.00  0.00    -0.194 C  
BRANCH  35  36
HETATM   36  C   UNL     1      -9.529   4.918  73.545  1.00  0.00    -0.139 A  
HETATM   37  C   UNL     1      -9.809   3.840  72.700  1.00  0.00    -0.210 A  
HETATM   38  C   UNL     1      -8.803   2.929  72.396  1.00  0.00    -0.075 A  
HETATM   39  C   UNL     1      -7.522   3.072  72.919  1.00  0.00    -0.050 A  
HETATM   40  F   UNL     1      -9.079   1.886  71.604  1.00  0.00    -0.099 F  
HETATM   41  C   UNL     1      -7.236   4.144  73.757  1.00  0.00    -0.066 A  
HETATM   42  C   UNL     1      -8.233   5.064  74.072  1.00  0.00    -0.104 A  
ENDBRANCH  35  36
ENDBRANCH  34  35
ENDBRANCH  30  34
ENDBRANCH  25  27
ENDBRANCH  24  25
ENDBRANCH  13  15
ENDBRANCH   9  10
ENDBRANCH   7   9
ENDBRANCH   6   7
ENDBRANCH   5   6
ENDBRANCH   2   5
TORSDOF 11
ENDMDL
MODEL      188
REMARK 921   NORMALIZED FREE ENERGY PREDICTED BY IDOCK:   -4.53 KCAL/MOL
REMARK 922        TOTAL FREE ENERGY PREDICTED BY IDOCK:  -10.19 KCAL/MOL
REMARK 923 INTER-LIGAND FREE ENERGY PREDICTED BY IDOCK:   -8.04 KCAL/MOL
REMARK 924 INTRA-LIGAND FREE ENERGY PREDICTED BY IDOCK:   -2.15 KCAL/MOL
REMARK 927      BINDING AFFINITY PREDICTED BY RF-SCORE:    0.00 PKD
ROOT
HETATM    1  C   UNL     1     -10.382  17.399  69.101  1.00  0.00    -0.271 C  
HETATM    2  S   UNL     1      -9.844  19.013  68.598  1.00  0.00    -0.425 S  
HETATM    3  O   UNL     1      -8.517  18.883  68.033  1.00  0.00    -0.279 OA 
HETATM    4  O   UNL     1     -10.113  19.926  69.690  1.00  0.00    -0.268 OA 
ENDROOT
BRANCH   2   5
HETATM    5  C   UNL     1     -10.977  19.383  67.277  1.00  0.00    -0.342 C  
BRANCH   5   6
HETATM    6  C   UNL     1     -10.337  19.153  65.916  1.00  0.00    -0.391 C  
BRANCH   6   7
HETATM    7  N   UNL     1     -10.026  17.744  65.650  1.00  0.00    -0.528 NA 
HETATM    8  H   UNL     1      -9.511  17.334  66.430  1.00  0.00     0.000 HD 
BRANCH   7   9
HETATM    9  C   UNL     1     -11.205  16.939  65.327  1.00  0.00     0.201 C  
BRANCH   9  10
HETATM   10  C   UNL     1     -10.874  15.491  65.378  1.00  0.00    -0.390 A  
HETATM   11  C   UNL     1     -11.285  14.401  64.644  1.00  0.00    -0.366 A  
HETATM   12  C   UNL     1     -10.605  13.282  65.179  1.00  0.00    -0.342 A  
HETATM   13  C   UNL     1      -9.798  13.754  66.196  1.00  0.00    -0.297 A  
HETATM   14  O   UNL     1      -9.960  15.106  66.310  1.00  0.00    -0.257 OA 
BRANCH  13  15
HETATM   15  C   UNL     1      -8.858  13.145  67.127  1.00  0.00    -0.222 A  
HETATM   16  C   UNL     1      -9.094  11.875  67.671  1.00  0.00    -0.179 A  
HETATM   17  C   UNL     1      -8.183  11.283  68.587  1.00  0.00    -0.146 A  
HETATM   18  C   UNL     1      -7.026  11.985  68.957  1.00  0.00    -0.094 A  
HETATM   19  C   UNL     1      -6.802  13.236  68.417  1.00  0.00    -0.098 A  
HETATM   20  N   UNL     1      -6.123  11.521  69.819  1.00  0.00    -0.113 NA 
HETATM   21  C   UNL     1      -6.379  10.332  70.357  1.00  0.00    -0.127 A  
HETATM   22  C   UNL     1      -7.697  13.815  67.516  1.00  0.00    -0.187 A  
HETATM   23  N   UNL     1      -7.443   9.577  70.096  1.00  0.00    -0.116 NA 
HETATM   24  C   UNL     1      -8.344  10.029  69.211  1.00  0.00    -0.154 A  
BRANCH  24  25
HETATM   25  N   UNL     1      -9.526   9.271  68.964  1.00  0.00    -0.153 NA 
HETATM   26  H   UNL     1     -10.362   9.581  69.457  1.00  0.00     0.000 HD 
BRANCH  25  27
HETATM   27  C   UNL     1      -9.689   8.145  68.124  1.00  0.00    -0.161 A  
HETATM   28  C   UNL     1      -8.931   7.934  66.973  1.00  0.00    -0.145 A  
HETATM   29  C   UNL     1      -9.034   6.771  66.206  1.00  0.00    -0.152 A  
HETATM   30  C   UNL     1      -9.902   5.749  66.604  1.00  0.00    -0.165 A  
HETATM   31 CL   UNL     1      -8.055   6.784  64.776  1.00  0.00    -0.121 Cl 
HETATM   32  C   UNL     1     -10.722   5.976  67.721  1.00  0.00    -0.369 A  
HETATM   33  C   UNL     1     -10.620   7.160  68.468  1.00  0.00    -0.219 A  
BRANCH  30  34
HETATM   34  O   UNL     1     -10.087   4.512  66.037  1.00  0.00    -0.223 OA 
BRANCH  34  35
HETATM   35  C   UNL     1      -8.932   3.683  65.956  1.00  0.00    -0.144 C  
BRANCH  35  36
HETATM   36  C   UNL     1      -8.463   3.249  67.320  1.00  0.00    -0.106 A  
HETATM   37  C   UNL     1      -9.344   2.630  68.212  1.00  0.00    -0.258 A  
HETATM   38  C   UNL     1      -8.921   2.347  69.506  1.00  0.00    -0.104 A  
HETATM   39  C   UNL     1      -7.636   2.668  69.929  1.00  0.00    -0.043 A  
HETATM   40  F   UNL     1      -9.774   1.773  70.364  1.00  0.00    -0.189 F  
HETATM   41  C   UNL     1      -6.754   3.281  69.046  1.00  0.00    -0.037 A  
HETATM   42  C   UNL     1      -7.162   3.573  67.747  1.00  0.00    -0.058 A  
ENDBRANCH  35  36
ENDBRANCH  34  35
ENDBRANCH  30  34
ENDBRANCH  25  27
ENDBRANCH  24  25
ENDBRANCH  13  15
ENDBRANCH   9  10
ENDBRANCH   7   9
ENDBRANCH   6   7
ENDBRANCH   5   6
ENDBRANCH   2   5
TORSDOF 11
ENDMDL
MODEL      189
REMARK 921   NORMALIZED FREE ENERGY PREDICTED BY IDOCK:   -4.52 KCAL/MOL
REMARK 922        TOTAL FREE ENERGY PREDICTED BY IDOCK:  -10.17 KCAL/MOL
REMARK 923 INTER-LIGAND FREE ENERGY PREDICTED BY IDOCK:   -9.59 KCAL/MOL
REMARK 924 INTRA-LIGAND FREE ENERGY PREDICTED BY IDOCK:   -0.58 KCAL/MOL
REMARK 927      BINDING AFFINITY PREDICTED BY RF-SCORE:    0.00 PKD
ROOT
HETATM    1  C   UNL     1      -8.004   7.999  74.563  1.00  0.00    -0.241 C  
HETATM    2  S   UNL     1      -7.158   7.566  73.065  1.00  0.00    -0.076 S  
HETATM    3  O   UNL     1      -6.094   6.643  73.407  1.00  0.00    -0.057 OA 
HETATM    4  O   UNL     1      -6.890   8.791  72.340  1.00  0.00    -0.242 OA 
ENDROOT
BRANCH   2   5
HETATM    5  C   UNL     1      -8.412   6.665  72.181  1.00  0.00    -0.112 C  
BRANCH   5   6
HETATM    6  C   UNL     1      -9.271   7.594  71.335  1.00  0.00    -0.136 C  
BRANCH   6   7
HETATM    7  N   UNL     1     -10.693   7.235  71.338  1.00  0.00    -0.227 NA 
HETATM    8  H   UNL     1     -10.883   6.517  72.038  1.00  0.00     0.000 HD 
BRANCH   7   9
HETATM    9  C   UNL     1     -11.583   8.383  71.516  1.00  0.00    -0.284 C  
BRANCH   9  10
HETATM   10  C   UNL     1     -11.477   9.306  70.357  1.00  0.00    -0.213 A  
HETATM   11  C   UNL     1     -11.899  10.599  70.136  1.00  0.00    -0.421 A  
HETATM   12  C   UNL     1     -11.495  10.930  68.821  1.00  0.00    -0.376 A  
HETATM   13  C   UNL     1     -10.829   9.829  68.320  1.00  0.00    -0.210 A  
HETATM   14  O   UNL     1     -10.814   8.841  69.264  1.00  0.00    -0.187 OA 
BRANCH  13  15
HETATM   15  C   UNL     1     -10.171   9.513  67.059  1.00  0.00    -0.321 A  
HETATM   16  C   UNL     1     -10.397  10.282  65.909  1.00  0.00    -0.241 A  
HETATM   17  C   UNL     1      -9.764   9.971  64.676  1.00  0.00    -0.339 A  
HETATM   18  C   UNL     1      -8.896   8.871  64.607  1.00  0.00    -0.055 A  
HETATM   19  C   UNL     1      -8.679   8.118  65.744  1.00  0.00    -0.183 A  
HETATM   20  N   UNL     1      -8.270   8.490  63.494  1.00  0.00    -0.160 NA 
HETATM   21  C   UNL     1      -8.525   9.206  62.402  1.00  0.00    -0.203 A  
HETATM   22  C   UNL     1      -9.301   8.427  66.955  1.00  0.00    -0.221 A  
HETATM   23  N   UNL     1      -9.334  10.260  62.337  1.00  0.00    -0.289 NA 
HETATM   24  C   UNL     1      -9.949  10.661  63.460  1.00  0.00    -0.285 A  
BRANCH  24  25
HETATM   25  N   UNL     1     -10.872  11.746  63.405  1.00  0.00    -0.589 NA 
HETATM   26  H   UNL     1     -11.484  11.766  62.589  1.00  0.00     0.000 HD 
BRANCH  25  27
HETATM   27  C   UNL     1     -11.050  12.798  64.333  1.00  0.00    -0.349 A  
HETATM   28  C   UNL     1     -10.073  13.757  64.597  1.00  0.00    -0.193 A  
HETATM   29  C   UNL     1     -10.297  14.847  65.442  1.00  0.00    -0.388 A  
HETATM   30  C   UNL     1     -11.552  15.022  66.035  1.00  0.00    -0.158 A  
HETATM   31 CL   UNL     1      -8.903  15.849  65.680  1.00  0.00     0.022 Cl 
HETATM   32  C   UNL     1     -12.522  14.028  65.833  1.00  0.00    -0.513 A  
HETATM   33  C   UNL     1     -12.273  12.928  64.998  1.00  0.00    -0.515 A  
BRANCH  30  34
HETATM   34  O   UNL     1     -11.990  16.057  66.824  1.00  0.00     0.729 OA 
BRANCH  34  35
HETATM   35  C   UNL     1     -11.072  16.523  67.809  1.00  0.00    -0.179 C  
BRANCH  35  36
HETATM   36  C   UNL     1     -10.688  17.960  67.574  1.00  0.00    -0.333 A  
HETATM   37  C   UNL     1     -10.973  18.584  66.355  1.00  0.00     0.135 A  
HETATM   38  C   UNL     1     -10.504  19.871  66.118  1.00  0.00    -0.473 A  
HETATM   39  C   UNL     1      -9.755  20.550  67.073  1.00  0.00    -0.548 A  
HETATM   40  F   UNL     1     -10.760  20.457  64.943  1.00  0.00    -0.329 F  
HETATM   41  C   UNL     1      -9.471  19.938  68.288  1.00  0.00    -0.403 A  
HETATM   42  C   UNL     1      -9.932  18.648  68.541  1.00  0.00    -0.430 A  
ENDBRANCH  35  36
ENDBRANCH  34  35
ENDBRANCH  30  34
ENDBRANCH  25  27
ENDBRANCH  24  25
ENDBRANCH  13  15
ENDBRANCH   9  10
ENDBRANCH   7   9
ENDBRANCH   6   7
ENDBRANCH   5   6
ENDBRANCH   2   5
TORSDOF 11
ENDMDL
MODEL      190
REMARK 921   NORMALIZED FREE ENERGY PREDICTED BY IDOCK:   -4.51 KCAL/MOL
REMARK 922        TOTAL FREE ENERGY PREDICTED BY IDOCK:  -10.16 KCAL/MOL
REMARK 923 INTER-LIGAND FREE ENERGY PREDICTED BY IDOCK:   -8.59 KCAL/MOL
REMARK 924 INTRA-LIGAND FREE ENERGY PREDICTED BY IDOCK:   -1.57 KCAL/MOL
REMARK 927      BINDING AFFINITY PREDICTED BY RF-SCORE:    0.00 PKD
ROOT
HETATM    1  C   UNL     1     -11.120  15.215  71.073  1.00  0.00    -0.238 C  
HETATM    2  S   UNL     1     -10.681  15.566  69.391  1.00  0.00    -0.273 S  
HETATM    3  O   UNL     1     -10.386  16.982  69.295  1.00  0.00    -0.308 OA 
HETATM    4  O   UNL     1     -11.671  14.943  68.537  1.00  0.00    -0.306 OA 
ENDROOT
BRANCH   2   5
HETATM    5  C   UNL     1      -9.155  14.668  69.214  1.00  0.00     0.047 C  
BRANCH   5   6
HETATM    6  C   UNL     1      -7.986  15.437  69.812  1.00  0.00    -0.041 C  
BRANCH   6   7
HETATM    7  N   UNL     1      -6.813  15.489  68.932  1.00  0.00    -0.116 NA 
HETATM    8  H   UNL     1      -6.909  14.826  68.162  1.00  0.00     0.000 HD 
BRANCH   7   9
HETATM    9  C   UNL     1      -6.524  16.832  68.427  1.00  0.00    -0.144 C  
BRANCH   9  10
HETATM   10  C   UNL     1      -7.536  17.235  67.416  1.00  0.00    -0.170 A  
HETATM   11  C   UNL     1      -7.880  18.445  66.854  1.00  0.00    -0.248 A  
HETATM   12  C   UNL     1      -8.930  18.176  65.944  1.00  0.00     0.190 A  
HETATM   13  C   UNL     1      -9.153  16.814  65.985  1.00  0.00    -0.190 A  
HETATM   14  O   UNL     1      -8.294  16.242  66.881  1.00  0.00    -0.188 OA 
BRANCH  13  15
HETATM   15  C   UNL     1     -10.066  15.903  65.308  1.00  0.00    -0.206 A  
HETATM   16  C   UNL     1      -9.851  14.518  65.320  1.00  0.00    -0.221 A  
HETATM   17  C   UNL     1     -10.735  13.627  64.654  1.00  0.00    -0.433 A  
HETATM   18  C   UNL     1     -11.845  14.144  63.969  1.00  0.00    -0.271 A  
HETATM   19  C   UNL     1     -12.050  15.509  63.962  1.00  0.00     0.058 A  
HETATM   20  N   UNL     1     -12.719  13.392  63.302  1.00  0.00    -0.597 NA 
HETATM   21  C   UNL     1     -12.481  12.084  63.289  1.00  0.00    -0.425 A  
HETATM   22  C   UNL     1     -11.181  16.383  64.618  1.00  0.00    -0.201 A  
HETATM   23  N   UNL     1     -11.459  11.476  63.888  1.00  0.00    -0.341 NA 
HETATM   24  C   UNL     1     -10.589  12.226  64.580  1.00  0.00    -0.303 A  
BRANCH  24  25
HETATM   25  N   UNL     1      -9.451  11.609  65.176  1.00  0.00    -0.378 NA 
HETATM   26  H   UNL     1      -8.563  11.761  64.698  1.00  0.00     0.000 HD 
BRANCH  25  27
HETATM   27  C   UNL     1      -9.391  10.814  66.345  1.00  0.00    -0.174 A  
HETATM   28  C   UNL     1      -8.587  11.126  67.440  1.00  0.00    -0.137 A  
HETATM   29  C   UNL     1      -8.610  10.387  68.626  1.00  0.00    -0.133 A  
HETATM   30  C   UNL     1      -9.490   9.307  68.755  1.00  0.00    -0.150 A  
HETATM   31 CL   UNL     1      -7.457  10.917  69.805  1.00  0.00    -0.044 Cl 
HETATM   32  C   UNL     1     -10.255   8.940  67.637  1.00  0.00    -0.296 A  
HETATM   33  C   UNL     1     -10.203   9.680  66.446  1.00  0.00    -0.288 A  
BRANCH  30  34
HETATM   34  O   UNL     1      -9.717   8.514  69.853  1.00  0.00    -0.176 OA 
BRANCH  34  35
HETATM   35  C   UNL     1      -9.965   9.199  71.078  1.00  0.00    -0.297 C  
BRANCH  35  36
HETATM   36  C   UNL     1      -9.813   8.286  72.265  1.00  0.00    -0.364 A  
HETATM   37  C   UNL     1      -8.548   8.006  72.791  1.00  0.00    -0.252 A  
HETATM   38  C   UNL     1      -8.422   7.069  73.810  1.00  0.00    -0.139 A  
HETATM   39  C   UNL     1      -9.533   6.404  74.317  1.00  0.00    -0.230 A  
HETATM   40  F   UNL     1      -7.207   6.788  74.298  1.00  0.00    -0.092 F  
HETATM   41  C   UNL     1     -10.795   6.680  73.801  1.00  0.00    -0.084 A  
HETATM   42  C   UNL     1     -10.937   7.615  72.779  1.00  0.00    -0.432 A  
ENDBRANCH  35  36
ENDBRANCH  34  35
ENDBRANCH  30  34
ENDBRANCH  25  27
ENDBRANCH  24  25
ENDBRANCH  13  15
ENDBRANCH   9  10
ENDBRANCH   7   9
ENDBRANCH   6   7
ENDBRANCH   5   6
ENDBRANCH   2   5
TORSDOF 11
ENDMDL
MODEL      191
REMARK 921   NORMALIZED FREE ENERGY PREDICTED BY IDOCK:   -4.50 KCAL/MOL
REMARK 922        TOTAL FREE ENERGY PREDICTED BY IDOCK:  -10.15 KCAL/MOL
REMARK 923 INTER-LIGAND FREE ENERGY PREDICTED BY IDOCK:   -8.47 KCAL/MOL
REMARK 924 INTRA-LIGAND FREE ENERGY PREDICTED BY IDOCK:   -1.67 KCAL/MOL
REMARK 927      BINDING AFFINITY PREDICTED BY RF-SCORE:    0.00 PKD
ROOT
HETATM    1  C   UNL     1     -13.615   8.997  72.700  1.00  0.00    -0.352 C  
HETATM    2  S   UNL     1     -12.313   9.065  71.496  1.00  0.00    -0.348 S  
HETATM    3  O   UNL     1     -12.525   7.987  70.551  1.00  0.00     0.132 OA 
HETATM    4  O   UNL     1     -11.061   9.206  72.210  1.00  0.00    -0.226 OA 
ENDROOT
BRANCH   2   5
HETATM    5  C   UNL     1     -12.655  10.603  70.670  1.00  0.00    -0.365 C  
BRANCH   5   6
HETATM    6  C   UNL     1     -11.653  10.870  69.556  1.00  0.00    -0.313 C  
BRANCH   6   7
HETATM    7  N   UNL     1     -12.283  11.199  68.274  1.00  0.00    -0.709 NA 
HETATM    8  H   UNL     1     -12.878  12.023  68.364  1.00  0.00     0.000 HD 
BRANCH   7   9
HETATM    9  C   UNL     1     -11.325  11.368  67.180  1.00  0.00    -0.255 C  
BRANCH   9  10
HETATM   10  C   UNL     1     -11.619  12.610  66.420  1.00  0.00    -0.384 A  
HETATM   11  C   UNL     1     -12.496  12.909  65.400  1.00  0.00    -0.511 A  
HETATM   12  C   UNL     1     -12.304  14.279  65.100  1.00  0.00    -0.427 A  
HETATM   13  C   UNL     1     -11.337  14.746  65.968  1.00  0.00    -0.332 A  
HETATM   14  O   UNL     1     -10.926  13.725  66.778  1.00  0.00    -0.298 OA 
BRANCH  13  15
HETATM   15  C   UNL     1     -10.694  16.033  66.192  1.00  0.00    -0.246 A  
HETATM   16  C   UNL     1      -9.740  16.201  67.205  1.00  0.00    -0.233 A  
HETATM   17  C   UNL     1      -9.116  17.458  67.432  1.00  0.00    -0.236 A  
HETATM   18  C   UNL     1      -9.464  18.553  66.627  1.00  0.00    -0.311 A  
HETATM   19  C   UNL     1     -10.405  18.379  65.631  1.00  0.00    -0.057 A  
HETATM   20  N   UNL     1      -8.948  19.773  66.773  1.00  0.00    -0.341 NA 
HETATM   21  C   UNL     1      -8.074  19.927  67.763  1.00  0.00    -0.294 A  
HETATM   22  C   UNL     1     -11.015  17.143  65.409  1.00  0.00     0.034 A  
HETATM   23  N   UNL     1      -7.673  18.972  68.599  1.00  0.00    -0.333 NA 
HETATM   24  C   UNL     1      -8.172  17.737  68.442  1.00  0.00    -0.298 A  
BRANCH  24  25
HETATM   25  N   UNL     1      -7.811  16.712  69.364  1.00  0.00    -0.073 NA 
HETATM   26  H   UNL     1      -8.154  16.831  70.316  1.00  0.00     0.000 HD 
BRANCH  25  27
HETATM   27  C   UNL     1      -7.038  15.551  69.130  1.00  0.00    -0.164 A  
HETATM   28  C   UNL     1      -6.549  14.740  70.154  1.00  0.00    -0.145 A  
HETATM   29  C   UNL     1      -5.871  13.544  69.908  1.00  0.00    -0.124 A  
HETATM   30  C   UNL     1      -5.690  13.104  68.592  1.00  0.00    -0.074 A  
HETATM   31 CL   UNL     1      -5.285  12.762  71.339  1.00  0.00    -0.165 Cl 
HETATM   32  C   UNL     1      -6.115  13.943  67.551  1.00  0.00     0.015 A  
HETATM   33  C   UNL     1      -6.776  15.153  67.816  1.00  0.00    -0.185 A  
BRANCH  30  34
HETATM   34  O   UNL     1      -5.126  11.932  68.151  1.00  0.00    -0.044 OA 
BRANCH  34  35
HETATM   35  C   UNL     1      -5.478  11.528  66.831  1.00  0.00    -0.126 C  
BRANCH  35  36
HETATM   36  C   UNL     1      -6.485  10.409  66.843  1.00  0.00    -0.076 A  
HETATM   37  C   UNL     1      -6.494   9.470  67.879  1.00  0.00    -0.062 A  
HETATM   38  C   UNL     1      -7.354   8.380  67.807  1.00  0.00    -0.093 A  
HETATM   39  C   UNL     1      -8.207   8.207  66.722  1.00  0.00    -0.107 A  
HETATM   40  F   UNL     1      -7.346   7.471  68.791  1.00  0.00    -0.083 F  
HETATM   41  C   UNL     1      -8.205   9.138  65.690  1.00  0.00    -0.121 A  
HETATM   42  C   UNL     1      -7.349  10.235  65.746  1.00  0.00    -0.140 A  
ENDBRANCH  35  36
ENDBRANCH  34  35
ENDBRANCH  30  34
ENDBRANCH  25  27
ENDBRANCH  24  25
ENDBRANCH  13  15
ENDBRANCH   9  10
ENDBRANCH   7   9
ENDBRANCH   6   7
ENDBRANCH   5   6
ENDBRANCH   2   5
TORSDOF 11
ENDMDL
MODEL      192
REMARK 921   NORMALIZED FREE ENERGY PREDICTED BY IDOCK:   -4.49 KCAL/MOL
REMARK 922        TOTAL FREE ENERGY PREDICTED BY IDOCK:  -10.12 KCAL/MOL
REMARK 923 INTER-LIGAND FREE ENERGY PREDICTED BY IDOCK:   -7.43 KCAL/MOL
REMARK 924 INTRA-LIGAND FREE ENERGY PREDICTED BY IDOCK:   -2.68 KCAL/MOL
REMARK 927      BINDING AFFINITY PREDICTED BY RF-SCORE:    0.00 PKD
ROOT
HETATM    1  C   UNL     1     -12.261  10.702  71.333  1.00  0.00    -0.302 C  
HETATM    2  S   UNL     1     -12.026  11.690  69.878  1.00  0.00    -0.330 S  
HETATM    3  O   UNL     1     -12.588  10.968  68.755  1.00  0.00    -0.350 OA 
HETATM    4  O   UNL     1     -10.650  12.144  69.871  1.00  0.00     0.503 OA 
ENDROOT
BRANCH   2   5
HETATM    5  C   UNL     1     -13.068  13.092  70.214  1.00  0.00     0.551 C  
BRANCH   5   6
HETATM    6  C   UNL     1     -12.528  13.920  71.371  1.00  0.00    -0.340 C  
BRANCH   6   7
HETATM    7  N   UNL     1     -11.328  14.690  71.027  1.00  0.00    -0.529 NA 
HETATM    8  H   UNL     1     -10.748  14.176  70.363  1.00  0.00     0.000 HD 
BRANCH   7   9
HETATM    9  C   UNL     1     -11.622  16.034  70.528  1.00  0.00    -0.362 C  
BRANCH   9  10
HETATM   10  C   UNL     1     -11.138  16.185  69.131  1.00  0.00    -0.329 A  
HETATM   11  C   UNL     1     -10.637  17.250  68.414  1.00  0.00    -0.368 A  
HETATM   12  C   UNL     1     -10.350  16.758  67.119  1.00  0.00    -0.297 A  
HETATM   13  C   UNL     1     -10.670  15.414  67.123  1.00  0.00    -0.314 A  
HETATM   14  O   UNL     1     -11.145  15.067  68.356  1.00  0.00    -0.255 OA 
BRANCH  13  15
HETATM   15  C   UNL     1     -10.612  14.342  66.139  1.00  0.00    -0.293 A  
HETATM   16  C   UNL     1      -9.677  13.304  66.250  1.00  0.00    -0.274 A  
HETATM   17  C   UNL     1      -9.612  12.261  65.287  1.00  0.00    -0.041 A  
HETATM   18  C   UNL     1     -10.502  12.271  64.202  1.00  0.00    -0.375 A  
HETATM   19  C   UNL     1     -11.420  13.298  64.099  1.00  0.00    -0.438 A  
HETATM   20  N   UNL     1     -10.508  11.349  63.240  1.00  0.00    -0.358 NA 
HETATM   21  C   UNL     1      -9.589  10.392  63.338  1.00  0.00    -0.312 A  
HETATM   22  C   UNL     1     -11.482  14.321  65.048  1.00  0.00    -0.364 A  
HETATM   23  N   UNL     1      -8.687  10.280  64.310  1.00  0.00    -0.193 NA 
HETATM   24  C   UNL     1      -8.691  11.194  65.292  1.00  0.00    -0.026 A  
BRANCH  24  25
HETATM   25  N   UNL     1      -7.694  11.135  66.308  1.00  0.00    -0.282 NA 
HETATM   26  H   UNL     1      -7.077  11.944  66.371  1.00  0.00     0.000 HD 
BRANCH  25  27
HETATM   27  C   UNL     1      -7.448  10.101  67.242  1.00  0.00    -0.091 A  
HETATM   28  C   UNL     1      -8.323   9.788  68.282  1.00  0.00    -0.106 A  
HETATM   29  C   UNL     1      -8.117   8.702  69.137  1.00  0.00    -0.116 A  
HETATM   30  C   UNL     1      -7.014   7.863  68.944  1.00  0.00    -0.066 A  
HETATM   31 CL   UNL     1      -9.293   8.574  70.404  1.00  0.00    -0.167 Cl 
HETATM   32  C   UNL     1      -6.090   8.206  67.945  1.00  0.00    -0.047 A  
HETATM   33  C   UNL     1      -6.301   9.314  67.108  1.00  0.00    -0.062 A  
BRANCH  30  34
HETATM   34  O   UNL     1      -6.684   6.714  69.619  1.00  0.00    -0.047 OA 
BRANCH  34  35
HETATM   35  C   UNL     1      -6.715   5.510  68.857  1.00  0.00    -0.053 C  
BRANCH  35  36
HETATM   36  C   UNL     1      -8.046   5.317  68.180  1.00  0.00    -0.095 A  
HETATM   37  C   UNL     1      -8.136   5.269  66.786  1.00  0.00    -0.105 A  
HETATM   38  C   UNL     1      -9.386   5.210  66.181  1.00  0.00    -0.155 A  
HETATM   39  C   UNL     1     -10.552   5.197  66.940  1.00  0.00    -0.234 A  
HETATM   40  F   UNL     1      -9.469   5.186  64.845  1.00  0.00    -0.125 F  
HETATM   41  C   UNL     1     -10.470   5.240  68.327  1.00  0.00    -0.140 A  
HETATM   42  C   UNL     1      -9.225   5.302  68.948  1.00  0.00    -0.150 A  
ENDBRANCH  35  36
ENDBRANCH  34  35
ENDBRANCH  30  34
ENDBRANCH  25  27
ENDBRANCH  24  25
ENDBRANCH  13  15
ENDBRANCH   9  10
ENDBRANCH   7   9
ENDBRANCH   6   7
ENDBRANCH   5   6
ENDBRANCH   2   5
TORSDOF 11
ENDMDL
MODEL      193
REMARK 921   NORMALIZED FREE ENERGY PREDICTED BY IDOCK:   -4.45 KCAL/MOL
REMARK 922        TOTAL FREE ENERGY PREDICTED BY IDOCK:  -10.06 KCAL/MOL
REMARK 923 INTER-LIGAND FREE ENERGY PREDICTED BY IDOCK:   -8.68 KCAL/MOL
REMARK 924 INTRA-LIGAND FREE ENERGY PREDICTED BY IDOCK:   -1.38 KCAL/MOL
REMARK 927      BINDING AFFINITY PREDICTED BY RF-SCORE:    0.00 PKD
ROOT
HETATM    1  C   UNL     1     -10.273   8.831  72.133  1.00  0.00    -0.301 C  
HETATM    2  S   UNL     1     -11.962   8.717  71.602  1.00  0.00    -0.357 S  
HETATM    3  O   UNL     1     -12.807   8.940  72.757  1.00  0.00    -0.347 OA 
HETATM    4  O   UNL     1     -12.090   7.522  70.793  1.00  0.00    -0.259 OA 
ENDROOT
BRANCH   2   5
HETATM    5  C   UNL     1     -12.105  10.128  70.527  1.00  0.00    -0.291 C  
BRANCH   5   6
HETATM    6  C   UNL     1     -12.409  11.395  71.313  1.00  0.00    -0.239 C  
BRANCH   6   7
HETATM    7  N   UNL     1     -13.835  11.570  71.606  1.00  0.00     0.506 NA 
HETATM    8  H   UNL     1     -14.243  10.701  71.952  1.00  0.00     0.000 HD 
BRANCH   7   9
HETATM    9  C   UNL     1     -14.110  12.674  72.527  1.00  0.00     0.231 C  
BRANCH   9  10
HETATM   10  C   UNL     1     -13.248  13.842  72.207  1.00  0.00    -0.473 A  
HETATM   11  C   UNL     1     -12.702  14.851  72.970  1.00  0.00    -0.561 A  
HETATM   12  C   UNL     1     -11.970  15.671  72.080  1.00  0.00    -0.544 A  
HETATM   13  C   UNL     1     -12.091  15.106  70.826  1.00  0.00    -0.336 A  
HETATM   14  O   UNL     1     -12.867  13.984  70.909  1.00  0.00    -0.331 OA 
BRANCH  13  15
HETATM   15  C   UNL     1     -11.591  15.436  69.498  1.00  0.00    -0.346 A  
HETATM   16  C   UNL     1     -11.416  14.446  68.521  1.00  0.00    -0.326 A  
HETATM   17  C   UNL     1     -10.921  14.763  67.228  1.00  0.00    -0.318 A  
HETATM   18  C   UNL     1     -10.599  16.094  66.922  1.00  0.00    -0.283 A  
HETATM   19  C   UNL     1     -10.774  17.063  67.890  1.00  0.00    -0.348 A  
HETATM   20  N   UNL     1     -10.113  16.487  65.746  1.00  0.00    -0.492 NA 
HETATM   21  C   UNL     1      -9.915  15.531  64.842  1.00  0.00     0.179 A  
HETATM   22  C   UNL     1     -11.262  16.749  69.160  1.00  0.00    -0.040 A  
HETATM   23  N   UNL     1     -10.170  14.237  65.015  1.00  0.00    -0.406 NA 
HETATM   24  C   UNL     1     -10.680  13.839  66.190  1.00  0.00    -0.283 A  
BRANCH  24  25
HETATM   25  N   UNL     1     -10.900  12.451  66.425  1.00  0.00    -0.250 NA 
HETATM   26  H   UNL     1     -11.843  12.194  66.716  1.00  0.00     0.000 HD 
BRANCH  25  27
HETATM   27  C   UNL     1      -9.981  11.382  66.308  1.00  0.00    -0.224 A  
HETATM   28  C   UNL     1      -9.545  10.881  65.082  1.00  0.00    -0.291 A  
HETATM   29  C   UNL     1      -8.563   9.892  64.979  1.00  0.00    -0.161 A  
HETATM   30  C   UNL     1      -7.956   9.390  66.136  1.00  0.00    -0.110 A  
HETATM   31 CL   UNL     1      -8.258   9.372  63.355  1.00  0.00    -0.156 Cl 
HETATM   32  C   UNL     1      -8.434   9.835  67.379  1.00  0.00    -0.121 A  
HETATM   33  C   UNL     1      -9.436  10.814  67.464  1.00  0.00    -0.168 A  
BRANCH  30  34
HETATM   34  O   UNL     1      -6.930   8.484  66.241  1.00  0.00    -0.074 OA 
BRANCH  34  35
HETATM   35  C   UNL     1      -7.174   7.197  65.680  1.00  0.00    -0.070 C  
BRANCH  35  36
HETATM   36  C   UNL     1      -8.209   6.436  66.465  1.00  0.00    -0.113 A  
HETATM   37  C   UNL     1      -9.240   5.754  65.812  1.00  0.00    -0.086 A  
HETATM   38  C   UNL     1     -10.249   5.159  66.560  1.00  0.00    -0.264 A  
HETATM   39  C   UNL     1     -10.252   5.230  67.949  1.00  0.00    -0.203 A  
HETATM   40  F   UNL     1     -11.246   4.525  65.930  1.00  0.00    -0.192 F  
HETATM   41  C   UNL     1      -9.228   5.903  68.605  1.00  0.00    -0.120 A  
HETATM   42  C   UNL     1      -8.210   6.505  67.870  1.00  0.00    -0.116 A  
ENDBRANCH  35  36
ENDBRANCH  34  35
ENDBRANCH  30  34
ENDBRANCH  25  27
ENDBRANCH  24  25
ENDBRANCH  13  15
ENDBRANCH   9  10
ENDBRANCH   7   9
ENDBRANCH   6   7
ENDBRANCH   5   6
ENDBRANCH   2   5
TORSDOF 11
ENDMDL
MODEL      194
REMARK 921   NORMALIZED FREE ENERGY PREDICTED BY IDOCK:   -4.44 KCAL/MOL
REMARK 922        TOTAL FREE ENERGY PREDICTED BY IDOCK:  -10.03 KCAL/MOL
REMARK 923 INTER-LIGAND FREE ENERGY PREDICTED BY IDOCK:   -8.49 KCAL/MOL
REMARK 924 INTRA-LIGAND FREE ENERGY PREDICTED BY IDOCK:   -1.54 KCAL/MOL
REMARK 927      BINDING AFFINITY PREDICTED BY RF-SCORE:    0.00 PKD
ROOT
HETATM    1  C   UNL     1      -8.954   8.196  72.769  1.00  0.00    -0.246 C  
HETATM    2  S   UNL     1     -10.458   7.293  72.506  1.00  0.00    -0.258 S  
HETATM    3  O   UNL     1     -11.499   7.927  73.289  1.00  0.00    -0.290 OA 
HETATM    4  O   UNL     1     -10.156   5.883  72.653  1.00  0.00    -0.175 OA 
ENDROOT
BRANCH   2   5
HETATM    5  C   UNL     1     -10.783   7.612  70.787  1.00  0.00    -0.226 C  
BRANCH   5   6
HETATM    6  C   UNL     1     -11.374   9.000  70.582  1.00  0.00    -0.265 C  
BRANCH   6   7
HETATM    7  N   UNL     1     -12.792   9.088  70.947  1.00  0.00    -0.508 NA 
HETATM    8  H   UNL     1     -13.104   8.228  71.399  1.00  0.00     0.000 HD 
BRANCH   7   9
HETATM    9  C   UNL     1     -13.109  10.253  71.774  1.00  0.00    -0.465 C  
BRANCH   9  10
HETATM   10  C   UNL     1     -12.795  11.509  71.044  1.00  0.00    -0.263 A  
HETATM   11  C   UNL     1     -12.815  12.839  71.400  1.00  0.00    -0.371 A  
HETATM   12  C   UNL     1     -12.408  13.563  70.255  1.00  0.00    -0.370 A  
HETATM   13  C   UNL     1     -12.140  12.634  69.270  1.00  0.00    -0.166 A  
HETATM   14  O   UNL     1     -12.371  11.379  69.758  1.00  0.00    -0.259 OA 
BRANCH  13  15
HETATM   15  C   UNL     1     -11.686  12.704  67.887  1.00  0.00    -0.412 A  
HETATM   16  C   UNL     1     -11.210  11.567  67.220  1.00  0.00    -0.365 A  
HETATM   17  C   UNL     1     -10.758  11.633  65.875  1.00  0.00    -0.328 A  
HETATM   18  C   UNL     1     -10.787  12.864  65.200  1.00  0.00    -0.296 A  
HETATM   19  C   UNL     1     -11.257  13.979  65.865  1.00  0.00    -0.308 A  
HETATM   20  N   UNL     1     -10.370  13.030  63.946  1.00  0.00    -0.346 NA 
HETATM   21  C   UNL     1      -9.885  11.951  63.339  1.00  0.00    -0.348 A  
HETATM   22  C   UNL     1     -11.702  13.911  67.186  1.00  0.00    -0.419 A  
HETATM   23  N   UNL     1      -9.794  10.736  63.875  1.00  0.00    -0.305 NA 
HETATM   24  C   UNL     1     -10.234  10.558  65.129  1.00  0.00    -0.288 A  
BRANCH  24  25
HETATM   25  N   UNL     1     -10.088   9.283  65.749  1.00  0.00    -0.376 NA 
HETATM   26  H   UNL     1     -10.937   8.721  65.812  1.00  0.00     0.000 HD 
BRANCH  25  27
HETATM   27  C   UNL     1      -8.920   8.694  66.288  1.00  0.00    -0.173 A  
HETATM   28  C   UNL     1      -7.964   8.043  65.510  1.00  0.00    -0.117 A  
HETATM   29  C   UNL     1      -6.768   7.553  66.040  1.00  0.00    -0.050 A  
HETATM   30  C   UNL     1      -6.481   7.737  67.397  1.00  0.00    -0.056 A  
HETATM   31 CL   UNL     1      -5.786   6.705  64.891  1.00  0.00    -0.030 Cl 
HETATM   32  C   UNL     1      -7.464   8.329  68.206  1.00  0.00    -0.097 A  
HETATM   33  C   UNL     1      -8.669   8.797  67.660  1.00  0.00    -0.135 A  
BRANCH  30  34
HETATM   34  O   UNL     1      -5.340   7.403  68.084  1.00  0.00    -0.023 OA 
BRANCH  34  35
HETATM   35  C   UNL     1      -5.531   6.883  69.397  1.00  0.00    -0.015 C  
BRANCH  35  36
HETATM   36  C   UNL     1      -5.656   5.382  69.386  1.00  0.00    -0.011 A  
HETATM   37  C   UNL     1      -5.796   4.687  68.181  1.00  0.00    -0.022 A  
HETATM   38  C   UNL     1      -6.028   3.316  68.204  1.00  0.00    -0.027 A  
HETATM   39  C   UNL     1      -6.122   2.623  69.406  1.00  0.00    -0.024 A  
HETATM   40  F   UNL     1      -6.183   2.657  67.049  1.00  0.00    -0.025 F  
HETATM   41  C   UNL     1      -5.980   3.307  70.608  1.00  0.00    -0.018 A  
HETATM   42  C   UNL     1      -5.749   4.680  70.602  1.00  0.00    -0.016 A  
ENDBRANCH  35  36
ENDBRANCH  34  35
ENDBRANCH  30  34
ENDBRANCH  25  27
ENDBRANCH  24  25
ENDBRANCH  13  15
ENDBRANCH   9  10
ENDBRANCH   7   9
ENDBRANCH   6   7
ENDBRANCH   5   6
ENDBRANCH   2   5
TORSDOF 11
ENDMDL
MODEL      195
REMARK 921   NORMALIZED FREE ENERGY PREDICTED BY IDOCK:   -4.41 KCAL/MOL
REMARK 922        TOTAL FREE ENERGY PREDICTED BY IDOCK:   -9.99 KCAL/MOL
REMARK 923 INTER-LIGAND FREE ENERGY PREDICTED BY IDOCK:   -8.11 KCAL/MOL
REMARK 924 INTRA-LIGAND FREE ENERGY PREDICTED BY IDOCK:   -1.88 KCAL/MOL
REMARK 927      BINDING AFFINITY PREDICTED BY RF-SCORE:    0.00 PKD
ROOT
HETATM    1  C   UNL     1     -10.499   6.782  67.920  1.00  0.00    -0.218 C  
HETATM    2  S   UNL     1      -8.870   7.303  67.448  1.00  0.00    -0.120 S  
HETATM    3  O   UNL     1      -8.386   6.383  66.438  1.00  0.00    -0.111 OA 
HETATM    4  O   UNL     1      -8.119   7.555  68.661  1.00  0.00    -0.121 OA 
ENDROOT
BRANCH   2   5
HETATM    5  C   UNL     1      -9.196   8.866  66.665  1.00  0.00    -0.170 C  
BRANCH   5   6
HETATM    6  C   UNL     1      -7.955   9.747  66.646  1.00  0.00    -0.112 C  
BRANCH   6   7
HETATM    7  N   UNL     1      -6.818   9.135  65.951  1.00  0.00    -0.086 NA 
HETATM    8  H   UNL     1      -7.069   8.888  64.993  1.00  0.00     0.000 HD 
BRANCH   7   9
HETATM    9  C   UNL     1      -5.609   9.961  65.972  1.00  0.00    -0.057 C  
BRANCH   9  10
HETATM   10  C   UNL     1      -5.693  10.974  67.056  1.00  0.00    -0.067 A  
HETATM   11  C   UNL     1      -5.267  10.993  68.366  1.00  0.00    -0.039 A  
HETATM   12  C   UNL     1      -5.644  12.254  68.888  1.00  0.00    -0.051 A  
HETATM   13  C   UNL     1      -6.258  12.943  67.861  1.00  0.00    -0.125 A  
HETATM   14  O   UNL     1      -6.279  12.160  66.741  1.00  0.00    -0.164 OA 
BRANCH  13  15
HETATM   15  C   UNL     1      -6.859  14.263  67.725  1.00  0.00    -0.189 A  
HETATM   16  C   UNL     1      -8.243  14.418  67.569  1.00  0.00    -0.201 A  
HETATM   17  C   UNL     1      -8.832  15.703  67.427  1.00  0.00    -0.204 A  
HETATM   18  C   UNL     1      -8.010  16.841  67.442  1.00  0.00    -0.170 A  
HETATM   19  C   UNL     1      -6.647  16.679  67.595  1.00  0.00    -0.171 A  
HETATM   20  N   UNL     1      -8.465  18.085  67.299  1.00  0.00    -0.231 NA 
HETATM   21  C   UNL     1      -9.776  18.214  67.113  1.00  0.00    -0.301 A  
HETATM   22  C   UNL     1      -6.071  15.415  67.736  1.00  0.00    -0.173 A  
HETATM   23  N   UNL     1     -10.654  17.215  67.069  1.00  0.00    -0.274 NA 
HETATM   24  C   UNL     1     -10.204  15.962  67.235  1.00  0.00    -0.278 A  
BRANCH  24  25
HETATM   25  N   UNL     1     -11.113  14.870  67.126  1.00  0.00    -0.324 NA 
HETATM   26  H   UNL     1     -11.530  14.730  66.206  1.00  0.00     0.000 HD 
BRANCH  25  27
HETATM   27  C   UNL     1     -11.513  13.955  68.127  1.00  0.00    -0.312 A  
HETATM   28  C   UNL     1     -11.480  12.572  67.955  1.00  0.00    -0.369 A  
HETATM   29  C   UNL     1     -11.784  11.677  68.983  1.00  0.00    -0.324 A  
HETATM   30  C   UNL     1     -12.106  12.162  70.256  1.00  0.00    -0.302 A  
HETATM   31 CL   UNL     1     -11.759  10.014  68.498  1.00  0.00     0.105 Cl 
HETATM   32  C   UNL     1     -12.211  13.552  70.426  1.00  0.00    -0.426 A  
HETATM   33  C   UNL     1     -11.923  14.436  69.374  1.00  0.00    -0.370 A  
BRANCH  30  34
HETATM   34  O   UNL     1     -12.356  11.453  71.405  1.00  0.00    -0.278 OA 
BRANCH  34  35
HETATM   35  C   UNL     1     -11.442  10.401  71.701  1.00  0.00     0.553 C  
BRANCH  35  36
HETATM   36  C   UNL     1     -12.150   9.082  71.868  1.00  0.00    -0.448 A  
HETATM   37  C   UNL     1     -11.428   7.915  72.131  1.00  0.00    -0.377 A  
HETATM   38  C   UNL     1     -12.090   6.693  72.163  1.00  0.00    -0.259 A  
HETATM   39  C   UNL     1     -13.460   6.611  71.938  1.00  0.00    -0.031 A  
HETATM   40  F   UNL     1     -11.392   5.573  72.393  1.00  0.00    -0.298 F  
HETATM   41  C   UNL     1     -14.185   7.769  71.680  1.00  0.00    -0.572 A  
HETATM   42  C   UNL     1     -13.537   9.000  71.643  1.00  0.00    -0.446 A  
ENDBRANCH  35  36
ENDBRANCH  34  35
ENDBRANCH  30  34
ENDBRANCH  25  27
ENDBRANCH  24  25
ENDBRANCH  13  15
ENDBRANCH   9  10
ENDBRANCH   7   9
ENDBRANCH   6   7
ENDBRANCH   5   6
ENDBRANCH   2   5
TORSDOF 11
ENDMDL
MODEL      196
REMARK 921   NORMALIZED FREE ENERGY PREDICTED BY IDOCK:   -4.40 KCAL/MOL
REMARK 922        TOTAL FREE ENERGY PREDICTED BY IDOCK:   -9.98 KCAL/MOL
REMARK 923 INTER-LIGAND FREE ENERGY PREDICTED BY IDOCK:   -7.93 KCAL/MOL
REMARK 924 INTRA-LIGAND FREE ENERGY PREDICTED BY IDOCK:   -2.05 KCAL/MOL
REMARK 927      BINDING AFFINITY PREDICTED BY RF-SCORE:    0.00 PKD
ROOT
HETATM    1  C   UNL     1     -12.453  15.079  74.078  1.00  0.00    -0.496 C  
HETATM    2  S   UNL     1     -13.245  15.250  72.499  1.00  0.00    -0.482 S  
HETATM    3  O   UNL     1     -12.221  15.552  71.519  1.00  0.00    -0.327 OA 
HETATM    4  O   UNL     1     -14.397  16.109  72.675  1.00  0.00    -0.276 OA 
ENDROOT
BRANCH   2   5
HETATM    5  C   UNL     1     -13.829  13.597  72.200  1.00  0.00    -0.548 C  
BRANCH   5   6
HETATM    6  C   UNL     1     -12.682  12.653  71.866  1.00  0.00    -0.081 C  
BRANCH   6   7
HETATM    7  N   UNL     1     -12.064  12.927  70.565  1.00  0.00    -0.497 NA 
HETATM    8  H   UNL     1     -11.069  13.128  70.672  1.00  0.00     0.000 HD 
BRANCH   7   9
HETATM    9  C   UNL     1     -12.276  11.862  69.584  1.00  0.00    -0.153 C  
BRANCH   9  10
HETATM   10  C   UNL     1     -11.254  10.796  69.748  1.00  0.00    -0.297 A  
HETATM   11  C   UNL     1      -9.954  10.656  69.311  1.00  0.00    -0.215 A  
HETATM   12  C   UNL     1      -9.503   9.407  69.798  1.00  0.00    -0.216 A  
HETATM   13  C   UNL     1     -10.544   8.863  70.524  1.00  0.00    -0.220 A  
HETATM   14  O   UNL     1     -11.609   9.718  70.497  1.00  0.00    -0.268 OA 
BRANCH  13  15
HETATM   15  C   UNL     1     -10.737   7.630  71.276  1.00  0.00    -0.248 A  
HETATM   16  C   UNL     1      -9.694   6.708  71.440  1.00  0.00    -0.181 A  
HETATM   17  C   UNL     1      -9.882   5.500  72.165  1.00  0.00    -0.198 A  
HETATM   18  C   UNL     1     -11.138   5.224  72.727  1.00  0.00    -0.286 A  
HETATM   19  C   UNL     1     -12.161   6.138  72.560  1.00  0.00    -0.108 A  
HETATM   20  N   UNL     1     -11.417   4.114  73.408  1.00  0.00    -0.213 NA 
HETATM   21  C   UNL     1     -10.429   3.231  73.522  1.00  0.00    -0.166 A  
HETATM   22  C   UNL     1     -11.973   7.324  71.848  1.00  0.00    -0.342 A  
HETATM   23  N   UNL     1      -9.202   3.372  73.026  1.00  0.00    -0.097 NA 
HETATM   24  C   UNL     1      -8.910   4.498  72.358  1.00  0.00    -0.117 A  
BRANCH  24  25
HETATM   25  N   UNL     1      -7.625   4.646  71.761  1.00  0.00    -0.088 NA 
HETATM   26  H   UNL     1      -6.831   4.391  72.348  1.00  0.00     0.000 HD 
BRANCH  25  27
HETATM   27  C   UNL     1      -7.306   5.099  70.459  1.00  0.00    -0.066 A  
HETATM   28  C   UNL     1      -6.858   6.391  70.189  1.00  0.00    -0.057 A  
HETATM   29  C   UNL     1      -6.454   6.797  68.915  1.00  0.00    -0.036 A  
HETATM   30  C   UNL     1      -6.459   5.880  67.858  1.00  0.00    -0.047 A  
HETATM   31 CL   UNL     1      -6.025   8.473  68.814  1.00  0.00    -0.043 Cl 
HETATM   32  C   UNL     1      -6.972   4.596  68.100  1.00  0.00    -0.056 A  
HETATM   33  C   UNL     1      -7.395   4.212  69.382  1.00  0.00    -0.054 A  
BRANCH  30  34
HETATM   34  O   UNL     1      -6.030   6.059  66.566  1.00  0.00    -0.023 OA 
BRANCH  34  35
HETATM   35  C   UNL     1      -7.032   5.974  65.557  1.00  0.00    -0.060 C  
BRANCH  35  36
HETATM   36  C   UNL     1      -8.173   6.919  65.827  1.00  0.00    -0.132 A  
HETATM   37  C   UNL     1      -8.014   8.296  65.649  1.00  0.00    -0.113 A  
HETATM   38  C   UNL     1      -9.041   9.158  66.017  1.00  0.00    -0.197 A  
HETATM   39  C   UNL     1     -10.226   8.673  66.559  1.00  0.00    -0.295 A  
HETATM   40  F   UNL     1      -8.878  10.478  65.864  1.00  0.00    -0.146 F  
HETATM   41  C   UNL     1     -10.393   7.304  66.736  1.00  0.00    -0.311 A  
HETATM   42  C   UNL     1      -9.373   6.428  66.374  1.00  0.00    -0.176 A  
ENDBRANCH  35  36
ENDBRANCH  34  35
ENDBRANCH  30  34
ENDBRANCH  25  27
ENDBRANCH  24  25
ENDBRANCH  13  15
ENDBRANCH   9  10
ENDBRANCH   7   9
ENDBRANCH   6   7
ENDBRANCH   5   6
ENDBRANCH   2   5
TORSDOF 11
ENDMDL
MODEL      197
REMARK 921   NORMALIZED FREE ENERGY PREDICTED BY IDOCK:   -4.34 KCAL/MOL
REMARK 922        TOTAL FREE ENERGY PREDICTED BY IDOCK:   -9.88 KCAL/MOL
REMARK 923 INTER-LIGAND FREE ENERGY PREDICTED BY IDOCK:   -8.36 KCAL/MOL
REMARK 924 INTRA-LIGAND FREE ENERGY PREDICTED BY IDOCK:   -1.52 KCAL/MOL
REMARK 927      BINDING AFFINITY PREDICTED BY RF-SCORE:    0.00 PKD
ROOT
HETATM    1  C   UNL     1     -10.615   1.727  74.502  1.00  0.00    -0.128 C  
HETATM    2  S   UNL     1     -10.511   2.949  73.220  1.00  0.00    -0.169 S  
HETATM    3  O   UNL     1     -11.621   3.865  73.389  1.00  0.00    -0.183 OA 
HETATM    4  O   UNL     1     -10.288   2.256  71.968  1.00  0.00    -0.141 OA 
ENDROOT
BRANCH   2   5
HETATM    5  C   UNL     1      -9.013   3.807  73.650  1.00  0.00    -0.088 C  
BRANCH   5   6
HETATM    6  C   UNL     1      -9.035   5.246  73.154  1.00  0.00    -0.118 C  
BRANCH   6   7
HETATM    7  N   UNL     1      -9.996   6.093  73.869  1.00  0.00    -0.202 NA 
HETATM    8  H   UNL     1     -10.184   5.720  74.800  1.00  0.00     0.000 HD 
BRANCH   7   9
HETATM    9  C   UNL     1      -9.592   7.497  73.944  1.00  0.00    -0.207 C  
BRANCH   9  10
HETATM   10  C   UNL     1      -9.882   8.189  72.661  1.00  0.00    -0.294 A  
HETATM   11  C   UNL     1     -11.025   8.736  72.120  1.00  0.00    -0.404 A  
HETATM   12  C   UNL     1     -10.657   9.256  70.856  1.00  0.00    -0.366 A  
HETATM   13  C   UNL     1      -9.305   9.019  70.706  1.00  0.00    -0.249 A  
HETATM   14  O   UNL     1      -8.834   8.373  71.814  1.00  0.00    -0.157 OA 
BRANCH  13  15
HETATM   15  C   UNL     1      -8.323   9.297  69.667  1.00  0.00    -0.140 A  
HETATM   16  C   UNL     1      -8.050  10.609  69.257  1.00  0.00    -0.133 A  
HETATM   17  C   UNL     1      -7.099  10.883  68.238  1.00  0.00    -0.075 A  
HETATM   18  C   UNL     1      -6.420   9.817  67.627  1.00  0.00    -0.067 A  
HETATM   19  C   UNL     1      -6.695   8.527  68.035  1.00  0.00    -0.065 A  
HETATM   20  N   UNL     1      -5.525   9.972  66.652  1.00  0.00    -0.044 NA 
HETATM   21  C   UNL     1      -5.305  11.219  66.247  1.00  0.00    -0.134 A  
HETATM   22  C   UNL     1      -7.629   8.261  69.039  1.00  0.00    -0.089 A  
HETATM   23  N   UNL     1      -5.892  12.308  66.738  1.00  0.00    -0.245 NA 
HETATM   24  C   UNL     1      -6.778  12.160  67.735  1.00  0.00    -0.103 A  
BRANCH  24  25
HETATM   25  N   UNL     1      -7.469  13.302  68.234  1.00  0.00    -0.115 NA 
HETATM   26  H   UNL     1      -8.403  13.129  68.603  1.00  0.00     0.000 HD 
BRANCH  25  27
HETATM   27  C   UNL     1      -7.029  14.646  68.283  1.00  0.00    -0.113 A  
HETATM   28  C   UNL     1      -6.967  15.471  67.161  1.00  0.00    -0.125 A  
HETATM   29  C   UNL     1      -6.625  16.823  67.238  1.00  0.00    -0.172 A  
HETATM   30  C   UNL     1      -6.359  17.404  68.484  1.00  0.00    -0.176 A  
HETATM   31 CL   UNL     1      -6.530  17.613  65.699  1.00  0.00    -0.150 Cl 
HETATM   32  C   UNL     1      -6.350  16.570  69.613  1.00  0.00    -0.216 A  
HETATM   33  C   UNL     1      -6.676  15.208  69.513  1.00  0.00    -0.171 A  
BRANCH  30  34
HETATM   34  O   UNL     1      -6.085  18.717  68.775  1.00  0.00    -0.213 OA 
BRANCH  34  35
HETATM   35  C   UNL     1      -7.169  19.481  69.296  1.00  0.00    -0.310 C  
BRANCH  35  36
HETATM   36  C   UNL     1      -8.357  19.460  68.371  1.00  0.00    -0.385 A  
HETATM   37  C   UNL     1      -9.388  18.534  68.556  1.00  0.00    -0.364 A  
HETATM   38  C   UNL     1     -10.414  18.456  67.622  1.00  0.00    -0.419 A  
HETATM   39  C   UNL     1     -10.434  19.284  66.505  1.00  0.00    -0.552 A  
HETATM   40  F   UNL     1     -11.389  17.553  67.791  1.00  0.00    -0.220 F  
HETATM   41  C   UNL     1      -9.415  20.210  66.316  1.00  0.00    -0.450 A  
HETATM   42  C   UNL     1      -8.379  20.300  67.242  1.00  0.00    -0.404 A  
ENDBRANCH  35  36
ENDBRANCH  34  35
ENDBRANCH  30  34
ENDBRANCH  25  27
ENDBRANCH  24  25
ENDBRANCH  13  15
ENDBRANCH   9  10
ENDBRANCH   7   9
ENDBRANCH   6   7
ENDBRANCH   5   6
ENDBRANCH   2   5
TORSDOF 11
ENDMDL
MODEL      198
REMARK 921   NORMALIZED FREE ENERGY PREDICTED BY IDOCK:   -4.33 KCAL/MOL
REMARK 922        TOTAL FREE ENERGY PREDICTED BY IDOCK:   -9.86 KCAL/MOL
REMARK 923 INTER-LIGAND FREE ENERGY PREDICTED BY IDOCK:   -7.79 KCAL/MOL
REMARK 924 INTRA-LIGAND FREE ENERGY PREDICTED BY IDOCK:   -2.07 KCAL/MOL
REMARK 927      BINDING AFFINITY PREDICTED BY RF-SCORE:    0.00 PKD
ROOT
HETATM    1  C   UNL     1      -8.240   7.356  74.182  1.00  0.00    -0.173 C  
HETATM    2  S   UNL     1      -7.651   7.915  72.605  1.00  0.00    -0.119 S  
HETATM    3  O   UNL     1      -8.479   9.029  72.191  1.00  0.00    -0.365 OA 
HETATM    4  O   UNL     1      -7.478   6.749  71.762  1.00  0.00    -0.085 OA 
ENDROOT
BRANCH   2   5
HETATM    5  C   UNL     1      -6.039   8.544  73.016  1.00  0.00    -0.087 C  
BRANCH   5   6
HETATM    6  C   UNL     1      -5.358   9.163  71.803  1.00  0.00    -0.057 C  
BRANCH   6   7
HETATM    7  N   UNL     1      -6.013  10.387  71.331  1.00  0.00    -0.315 NA 
HETATM    8  H   UNL     1      -6.382  10.926  72.115  1.00  0.00     0.000 HD 
BRANCH   7   9
HETATM    9  C   UNL     1      -5.154  11.219  70.488  1.00  0.00    -0.096 C  
BRANCH   9  10
HETATM   10  C   UNL     1      -5.827  12.506  70.171  1.00  0.00    -0.160 A  
HETATM   11  C   UNL     1      -5.667  13.795  70.630  1.00  0.00    -0.182 A  
HETATM   12  C   UNL     1      -6.615  14.584  69.937  1.00  0.00    -0.151 A  
HETATM   13  C   UNL     1      -7.285  13.738  69.076  1.00  0.00    -0.063 A  
HETATM   14  O   UNL     1      -6.796  12.470  69.217  1.00  0.00    -0.091 OA 
BRANCH  13  15
HETATM   15  C   UNL     1      -8.352  13.902  68.098  1.00  0.00    -0.163 A  
HETATM   16  C   UNL     1      -9.242  12.858  67.811  1.00  0.00    -0.200 A  
HETATM   17  C   UNL     1     -10.278  13.012  66.851  1.00  0.00    -0.244 A  
HETATM   18  C   UNL     1     -10.413  14.235  66.175  1.00  0.00    -0.292 A  
HETATM   19  C   UNL     1      -9.532  15.258  66.463  1.00  0.00    -0.308 A  
HETATM   20  N   UNL     1     -11.340  14.470  65.248  1.00  0.00    -0.339 NA 
HETATM   21  C   UNL     1     -12.152  13.457  64.958  1.00  0.00    -0.401 A  
HETATM   22  C   UNL     1      -8.516  15.105  67.408  1.00  0.00    -0.202 A  
HETATM   23  N   UNL     1     -12.117  12.251  65.520  1.00  0.00    -0.553 NA 
HETATM   24  C   UNL     1     -11.200  12.016  66.470  1.00  0.00    -0.334 A  
BRANCH  24  25
HETATM   25  N   UNL     1     -11.099  10.714  67.040  1.00  0.00    -0.240 NA 
HETATM   26  H   UNL     1     -11.664  10.549  67.873  1.00  0.00     0.000 HD 
BRANCH  25  27
HETATM   27  C   UNL     1     -10.317   9.619  66.602  1.00  0.00    -0.208 A  
HETATM   28  C   UNL     1      -9.164   9.765  65.832  1.00  0.00    -0.236 A  
HETATM   29  C   UNL     1      -8.347   8.685  65.488  1.00  0.00    -0.150 A  
HETATM   30  C   UNL     1      -8.660   7.401  65.949  1.00  0.00    -0.153 A  
HETATM   31 CL   UNL     1      -7.024   9.107  64.452  1.00  0.00    -0.089 Cl 
HETATM   32  C   UNL     1      -9.854   7.229  66.666  1.00  0.00    -0.257 A  
HETATM   33  C   UNL     1     -10.675   8.323  66.984  1.00  0.00    -0.225 A  
BRANCH  30  34
HETATM   34  O   UNL     1      -7.950   6.237  65.788  1.00  0.00    -0.104 OA 
BRANCH  34  35
HETATM   35  C   UNL     1      -8.659   5.030  66.057  1.00  0.00    -0.121 C  
BRANCH  35  36
HETATM   36  C   UNL     1      -8.880   4.226  64.803  1.00  0.00    -0.140 A  
HETATM   37  C   UNL     1     -10.154   3.753  64.475  1.00  0.00    -0.212 A  
HETATM   38  C   UNL     1     -10.311   2.914  63.378  1.00  0.00    -0.190 A  
HETATM   39  C   UNL     1      -9.223   2.536  62.600  1.00  0.00    -0.090 A  
HETATM   40  F   UNL     1     -11.530   2.446  63.078  1.00  0.00    -0.235 F  
HETATM   41  C   UNL     1      -7.953   3.005  62.918  1.00  0.00    -0.072 A  
HETATM   42  C   UNL     1      -7.778   3.845  64.015  1.00  0.00    -0.083 A  
ENDBRANCH  35  36
ENDBRANCH  34  35
ENDBRANCH  30  34
ENDBRANCH  25  27
ENDBRANCH  24  25
ENDBRANCH  13  15
ENDBRANCH   9  10
ENDBRANCH   7   9
ENDBRANCH   6   7
ENDBRANCH   5   6
ENDBRANCH   2   5
TORSDOF 11
ENDMDL
MODEL      199
REMARK 921   NORMALIZED FREE ENERGY PREDICTED BY IDOCK:   -4.30 KCAL/MOL
REMARK 922        TOTAL FREE ENERGY PREDICTED BY IDOCK:   -9.80 KCAL/MOL
REMARK 923 INTER-LIGAND FREE ENERGY PREDICTED BY IDOCK:   -7.91 KCAL/MOL
REMARK 924 INTRA-LIGAND FREE ENERGY PREDICTED BY IDOCK:   -1.90 KCAL/MOL
REMARK 927      BINDING AFFINITY PREDICTED BY RF-SCORE:    0.00 PKD
ROOT
HETATM    1  C   UNL     1      -5.448   7.903  70.216  1.00  0.00    -0.023 C  
HETATM    2  S   UNL     1      -6.882   8.944  70.293  1.00  0.00    -0.051 S  
HETATM    3  O   UNL     1      -6.940   9.713  69.066  1.00  0.00    -0.056 OA 
HETATM    4  O   UNL     1      -6.888   9.592  71.589  1.00  0.00    -0.313 OA 
ENDROOT
BRANCH   2   5
HETATM    5  C   UNL     1      -8.203   7.753  70.265  1.00  0.00    -0.125 C  
BRANCH   5   6
HETATM    6  C   UNL     1      -7.684   6.355  69.962  1.00  0.00    -0.102 C  
BRANCH   6   7
HETATM    7  N   UNL     1      -8.453   5.663  68.922  1.00  0.00    -0.102 NA 
HETATM    8  H   UNL     1      -9.127   6.294  68.489  1.00  0.00     0.000 HD 
BRANCH   7   9
HETATM    9  C   UNL     1      -7.614   5.024  67.906  1.00  0.00    -0.083 C  
BRANCH   9  10
HETATM   10  C   UNL     1      -7.113   6.034  66.938  1.00  0.00    -0.070 A  
HETATM   11  C   UNL     1      -5.884   6.259  66.357  1.00  0.00    -0.021 A  
HETATM   12  C   UNL     1      -6.044   7.383  65.512  1.00  0.00    -0.038 A  
HETATM   13  C   UNL     1      -7.367   7.767  65.605  1.00  0.00    -0.073 A  
HETATM   14  O   UNL     1      -8.019   6.936  66.472  1.00  0.00    -0.104 OA 
BRANCH  13  15
HETATM   15  C   UNL     1      -8.175   8.821  65.006  1.00  0.00    -0.156 A  
HETATM   16  C   UNL     1      -8.538   9.961  65.734  1.00  0.00    -0.151 A  
HETATM   17  C   UNL     1      -9.334  10.986  65.155  1.00  0.00    -0.249 A  
HETATM   18  C   UNL     1      -9.766  10.853  63.827  1.00  0.00    -0.307 A  
HETATM   19  C   UNL     1      -9.404   9.726  63.116  1.00  0.00    -0.125 A  
HETATM   20  N   UNL     1     -10.528  11.750  63.203  1.00  0.00    -0.358 NA 
HETATM   21  C   UNL     1     -10.897  12.808  63.919  1.00  0.00    -0.411 A  
HETATM   22  C   UNL     1      -8.621   8.721  63.687  1.00  0.00    -0.058 A  
HETATM   23  N   UNL     1     -10.563  13.041  65.185  1.00  0.00    -0.302 NA 
HETATM   24  C   UNL     1      -9.777  12.153  65.812  1.00  0.00    -0.229 A  
BRANCH  24  25
HETATM   25  N   UNL     1      -9.459  12.345  67.187  1.00  0.00    -0.193 NA 
HETATM   26  H   UNL     1      -8.559  12.786  67.376  1.00  0.00     0.000 HD 
BRANCH  25  27
HETATM   27  C   UNL     1     -10.227  12.004  68.325  1.00  0.00    -0.206 A  
HETATM   28  C   UNL     1     -10.956  12.937  69.061  1.00  0.00    -0.244 A  
HETATM   29  C   UNL     1     -11.789  12.574  70.122  1.00  0.00    -0.258 A  
HETATM   30  C   UNL     1     -11.938  11.224  70.459  1.00  0.00    -0.371 A  
HETATM   31 CL   UNL     1     -12.517  13.920  70.936  1.00  0.00    -0.426 Cl 
HETATM   32  C   UNL     1     -11.158  10.281  69.772  1.00  0.00    -0.340 A  
HETATM   33  C   UNL     1     -10.310  10.666  68.722  1.00  0.00    -0.210 A  
BRANCH  30  34
HETATM   34  O   UNL     1     -12.759  10.664  71.407  1.00  0.00    -0.372 OA 
BRANCH  34  35
HETATM   35  C   UNL     1     -13.215   9.341  71.136  1.00  0.00    -0.183 C  
BRANCH  35  36
HETATM   36  C   UNL     1     -12.349   8.308  71.807  1.00  0.00    -0.366 A  
HETATM   37  C   UNL     1     -12.714   6.959  71.800  1.00  0.00    -0.369 A  
HETATM   38  C   UNL     1     -11.963   6.042  72.526  1.00  0.00    -0.126 A  
HETATM   39  C   UNL     1     -10.852   6.443  73.260  1.00  0.00    -0.270 A  
HETATM   40  F   UNL     1     -12.328   4.753  72.534  1.00  0.00     0.136 F  
HETATM   41  C   UNL     1     -10.480   7.783  73.268  1.00  0.00    -0.358 A  
HETATM   42  C   UNL     1     -11.223   8.714  72.547  1.00  0.00    -0.244 A  
ENDBRANCH  35  36
ENDBRANCH  34  35
ENDBRANCH  30  34
ENDBRANCH  25  27
ENDBRANCH  24  25
ENDBRANCH  13  15
ENDBRANCH   9  10
ENDBRANCH   7   9
ENDBRANCH   6   7
ENDBRANCH   5   6
ENDBRANCH   2   5
TORSDOF 11
ENDMDL
MODEL      200
REMARK 921   NORMALIZED FREE ENERGY PREDICTED BY IDOCK:   -4.28 KCAL/MOL
REMARK 922        TOTAL FREE ENERGY PREDICTED BY IDOCK:   -9.78 KCAL/MOL
REMARK 923 INTER-LIGAND FREE ENERGY PREDICTED BY IDOCK:   -7.86 KCAL/MOL
REMARK 924 INTRA-LIGAND FREE ENERGY PREDICTED BY IDOCK:   -1.92 KCAL/MOL
REMARK 927      BINDING AFFINITY PREDICTED BY RF-SCORE:    0.00 PKD
ROOT
HETATM    1  C   UNL     1      -9.805   4.473  72.137  1.00  0.00    -0.177 C  
HETATM    2  S   UNL     1     -11.076   5.204  73.135  1.00  0.00    -0.332 S  
HETATM    3  O   UNL     1     -10.434   5.935  74.209  1.00  0.00    -0.275 OA 
HETATM    4  O   UNL     1     -12.066   4.182  73.406  1.00  0.00     0.011 OA 
ENDROOT
BRANCH   2   5
HETATM    5  C   UNL     1     -11.794   6.383  72.012  1.00  0.00    -0.333 C  
BRANCH   5   6
HETATM    6  C   UNL     1     -11.776   7.788  72.596  1.00  0.00    -0.309 C  
BRANCH   6   7
HETATM    7  N   UNL     1     -11.032   8.749  71.775  1.00  0.00    -0.320 NA 
HETATM    8  H   UNL     1     -11.203   9.704  72.092  1.00  0.00     0.000 HD 
BRANCH   7   9
HETATM    9  C   UNL     1      -9.596   8.473  71.713  1.00  0.00    -0.267 C  
BRANCH   9  10
HETATM   10  C   UNL     1      -9.151   8.359  70.300  1.00  0.00    -0.148 A  
HETATM   11  C   UNL     1      -8.648   9.263  69.391  1.00  0.00    -0.142 A  
HETATM   12  C   UNL     1      -8.411   8.539  68.199  1.00  0.00    -0.134 A  
HETATM   13  C   UNL     1      -8.761   7.227  68.452  1.00  0.00    -0.122 A  
HETATM   14  O   UNL     1      -9.207   7.120  69.740  1.00  0.00    -0.145 OA 
BRANCH  13  15
HETATM   15  C   UNL     1      -8.758   5.995  67.676  1.00  0.00    -0.104 A  
HETATM   16  C   UNL     1      -8.070   5.905  66.458  1.00  0.00    -0.102 A  
HETATM   17  C   UNL     1      -8.072   4.707  65.695  1.00  0.00    -0.107 A  
HETATM   18  C   UNL     1      -8.779   3.591  66.168  1.00  0.00    -0.123 A  
HETATM   19  C   UNL     1      -9.455   3.688  67.368  1.00  0.00    -0.238 A  
HETATM   20  N   UNL     1      -8.854   2.431  65.517  1.00  0.00    -0.124 NA 
HETATM   21  C   UNL     1      -8.229   2.374  64.344  1.00  0.00    -0.082 A  
HETATM   22  C   UNL     1      -9.450   4.866  68.118  1.00  0.00    -0.178 A  
HETATM   23  N   UNL     1      -7.537   3.364  63.785  1.00  0.00    -0.066 NA 
HETATM   24  C   UNL     1      -7.439   4.526  64.448  1.00  0.00    -0.071 A  
BRANCH  24  25
HETATM   25  N   UNL     1      -6.761   5.623  63.842  1.00  0.00    -0.036 NA 
HETATM   26  H   UNL     1      -5.842   5.416  63.453  1.00  0.00     0.000 HD 
BRANCH  25  27
HETATM   27  C   UNL     1      -7.196   6.963  63.709  1.00  0.00    -0.066 A  
HETATM   28  C   UNL     1      -6.677   8.012  64.466  1.00  0.00    -0.060 A  
HETATM   29  C   UNL     1      -7.045   9.344  64.258  1.00  0.00    -0.102 A  
HETATM   30  C   UNL     1      -7.943   9.667  63.235  1.00  0.00    -0.143 A  
HETATM   31 CL   UNL     1      -6.332  10.453  65.383  1.00  0.00    -0.124 Cl 
HETATM   32  C   UNL     1      -8.525   8.614  62.511  1.00  0.00    -0.179 A  
HETATM   33  C   UNL     1      -8.161   7.280  62.748  1.00  0.00    -0.073 A  
BRANCH  30  34
HETATM   34  O   UNL     1      -8.364  10.907  62.825  1.00  0.00    -0.169 OA 
BRANCH  34  35
HETATM   35  C   UNL     1      -9.763  11.046  62.589  1.00  0.00    -0.202 C  
BRANCH  35  36
HETATM   36  C   UNL     1     -10.473  11.618  63.788  1.00  0.00    -0.454 A  
HETATM   37  C   UNL     1     -10.365  11.005  65.039  1.00  0.00    -0.360 A  
HETATM   38  C   UNL     1     -11.123  11.482  66.103  1.00  0.00    -0.244 A  
HETATM   39  C   UNL     1     -11.988  12.559  65.943  1.00  0.00    -0.472 A  
HETATM   40  F   UNL     1     -11.033  10.879  67.295  1.00  0.00    -0.275 F  
HETATM   41  C   UNL     1     -12.098  13.175  64.702  1.00  0.00    -0.462 A  
HETATM   42  C   UNL     1     -11.347  12.709  63.627  1.00  0.00    -0.544 A  
ENDBRANCH  35  36
ENDBRANCH  34  35
ENDBRANCH  30  34
ENDBRANCH  25  27
ENDBRANCH  24  25
ENDBRANCH  13  15
ENDBRANCH   9  10
ENDBRANCH   7   9
ENDBRANCH   6   7
ENDBRANCH   5   6
ENDBRANCH   2   5
TORSDOF 11
ENDMDL
MODEL      201
REMARK 921   NORMALIZED FREE ENERGY PREDICTED BY IDOCK:   -4.28 KCAL/MOL
REMARK 922        TOTAL FREE ENERGY PREDICTED BY IDOCK:   -9.78 KCAL/MOL
REMARK 923 INTER-LIGAND FREE ENERGY PREDICTED BY IDOCK:   -7.45 KCAL/MOL
REMARK 924 INTRA-LIGAND FREE ENERGY PREDICTED BY IDOCK:   -2.33 KCAL/MOL
REMARK 927      BINDING AFFINITY PREDICTED BY RF-SCORE:    0.00 PKD
ROOT
HETATM    1  C   UNL     1      -9.611   8.235  72.576  1.00  0.00    -0.295 C  
HETATM    2  S   UNL     1      -8.370   7.013  72.234  1.00  0.00    -0.110 S  
HETATM    3  O   UNL     1      -8.837   5.747  72.761  1.00  0.00    -0.122 OA 
HETATM    4  O   UNL     1      -7.089   7.566  72.622  1.00  0.00    -0.067 OA 
ENDROOT
BRANCH   2   5
HETATM    5  C   UNL     1      -8.419   6.926  70.458  1.00  0.00    -0.137 C  
BRANCH   5   6
HETATM    6  C   UNL     1      -8.616   8.303  69.839  1.00  0.00    -0.125 C  
BRANCH   6   7
HETATM    7  N   UNL     1      -7.584   9.270  70.231  1.00  0.00    -0.105 NA 
HETATM    8  H   UNL     1      -7.375   9.192  71.226  1.00  0.00     0.000 HD 
BRANCH   7   9
HETATM    9  C   UNL     1      -6.360   9.169  69.435  1.00  0.00    -0.044 C  
BRANCH   9  10
HETATM   10  C   UNL     1      -6.099  10.447  68.722  1.00  0.00    -0.040 A  
HETATM   11  C   UNL     1      -5.175  10.829  67.775  1.00  0.00    -0.039 A  
HETATM   12  C   UNL     1      -5.440  12.188  67.486  1.00  0.00    -0.111 A  
HETATM   13  C   UNL     1      -6.526  12.555  68.255  1.00  0.00    -0.067 A  
HETATM   14  O   UNL     1      -6.931  11.486  69.004  1.00  0.00    -0.096 OA 
BRANCH  13  15
HETATM   15  C   UNL     1      -7.294  13.780  68.430  1.00  0.00    -0.117 A  
HETATM   16  C   UNL     1      -8.648  13.845  68.074  1.00  0.00    -0.178 A  
HETATM   17  C   UNL     1      -9.398  15.042  68.235  1.00  0.00    -0.192 A  
HETATM   18  C   UNL     1      -8.770  16.182  68.760  1.00  0.00    -0.240 A  
HETATM   19  C   UNL     1      -7.436  16.109  69.108  1.00  0.00    -0.221 A  
HETATM   20  N   UNL     1      -9.383  17.351  68.932  1.00  0.00    -0.228 NA 
HETATM   21  C   UNL     1     -10.657  17.410  68.554  1.00  0.00    -0.340 A  
HETATM   22  C   UNL     1      -6.702  14.932  68.950  1.00  0.00    -0.100 A  
HETATM   23  N   UNL     1     -11.357  16.405  68.034  1.00  0.00    -0.235 NA 
HETATM   24  C   UNL     1     -10.751  15.218  67.879  1.00  0.00    -0.275 A  
BRANCH  24  25
HETATM   25  N   UNL     1     -11.458  14.144  67.264  1.00  0.00    -0.331 NA 
HETATM   26  H   UNL     1     -12.404  13.981  67.609  1.00  0.00     0.000 HD 
BRANCH  25  27
HETATM   27  C   UNL     1     -11.020  13.275  66.238  1.00  0.00    -0.284 A  
HETATM   28  C   UNL     1     -10.739  11.926  66.448  1.00  0.00    -0.303 A  
HETATM   29  C   UNL     1     -10.402  11.056  65.408  1.00  0.00    -0.268 A  
HETATM   30  C   UNL     1     -10.369  11.526  64.090  1.00  0.00    -0.334 A  
HETATM   31 CL   UNL     1     -10.011   9.452  65.933  1.00  0.00    -0.371 Cl 
HETATM   32  C   UNL     1     -10.581  12.896  63.872  1.00  0.00    -0.367 A  
HETATM   33  C   UNL     1     -10.898  13.761  64.932  1.00  0.00    -0.398 A  
BRANCH  30  34
HETATM   34  O   UNL     1     -10.140  10.821  62.935  1.00  0.00    -0.273 OA 
BRANCH  34  35
HETATM   35  C   UNL     1      -8.802  10.844  62.444  1.00  0.00    -0.313 C  
BRANCH  35  36
HETATM   36  C   UNL     1      -7.979   9.725  63.024  1.00  0.00    -0.138 A  
HETATM   37  C   UNL     1      -8.353   8.392  62.834  1.00  0.00    -0.117 A  
HETATM   38  C   UNL     1      -7.646   7.383  63.478  1.00  0.00    -0.121 A  
HETATM   39  C   UNL     1      -6.570   7.677  64.309  1.00  0.00    -0.052 A  
HETATM   40  F   UNL     1      -8.020   6.108  63.310  1.00  0.00    -0.096 F  
HETATM   41  C   UNL     1      -6.190   9.000  64.500  1.00  0.00    -0.070 A  
HETATM   42  C   UNL     1      -6.889  10.022  63.863  1.00  0.00    -0.126 A  
ENDBRANCH  35  36
ENDBRANCH  34  35
ENDBRANCH  30  34
ENDBRANCH  25  27
ENDBRANCH  24  25
ENDBRANCH  13  15
ENDBRANCH   9  10
ENDBRANCH   7   9
ENDBRANCH   6   7
ENDBRANCH   5   6
ENDBRANCH   2   5
TORSDOF 11
ENDMDL
MODEL      202
REMARK 921   NORMALIZED FREE ENERGY PREDICTED BY IDOCK:   -4.27 KCAL/MOL
REMARK 922        TOTAL FREE ENERGY PREDICTED BY IDOCK:   -9.76 KCAL/MOL
REMARK 923 INTER-LIGAND FREE ENERGY PREDICTED BY IDOCK:   -7.97 KCAL/MOL
REMARK 924 INTRA-LIGAND FREE ENERGY PREDICTED BY IDOCK:   -1.79 KCAL/MOL
REMARK 927      BINDING AFFINITY PREDICTED BY RF-SCORE:    0.00 PKD
ROOT
HETATM    1  C   UNL     1      -9.381  17.140  68.622  1.00  0.00    -0.269 C  
HETATM    2  S   UNL     1      -9.160  18.761  67.937  1.00  0.00    -0.298 S  
HETATM    3  O   UNL     1      -8.173  18.665  66.880  1.00  0.00    -0.247 OA 
HETATM    4  O   UNL     1      -8.996  19.687  69.039  1.00  0.00    -0.310 OA 
ENDROOT
BRANCH   2   5
HETATM    5  C   UNL     1     -10.745  19.065  67.190  1.00  0.00    -0.456 C  
BRANCH   5   6
HETATM    6  C   UNL     1     -10.762  18.641  65.729  1.00  0.00    -0.179 C  
BRANCH   6   7
HETATM    7  N   UNL     1     -10.195  17.307  65.504  1.00  0.00    -0.620 NA 
HETATM    8  H   UNL     1      -9.910  16.882  66.386  1.00  0.00     0.000 HD 
BRANCH   7   9
HETATM    9  C   UNL     1     -11.085  16.414  64.760  1.00  0.00    -0.235 C  
BRANCH   9  10
HETATM   10  C   UNL     1     -10.794  14.996  65.096  1.00  0.00    -0.407 A  
HETATM   11  C   UNL     1     -11.274  13.795  64.622  1.00  0.00    -0.383 A  
HETATM   12  C   UNL     1     -10.601  12.784  65.347  1.00  0.00    -0.309 A  
HETATM   13  C   UNL     1      -9.730  13.422  66.208  1.00  0.00    -0.272 A  
HETATM   14  O   UNL     1      -9.847  14.774  66.046  1.00  0.00    -0.290 OA 
BRANCH  13  15
HETATM   15  C   UNL     1      -8.762  12.982  67.203  1.00  0.00    -0.204 A  
HETATM   16  C   UNL     1      -8.428  11.628  67.342  1.00  0.00    -0.150 A  
HETATM   17  C   UNL     1      -7.491  11.194  68.318  1.00  0.00    -0.094 A  
HETATM   18  C   UNL     1      -6.889  12.140  69.161  1.00  0.00    -0.078 A  
HETATM   19  C   UNL     1      -7.225  13.472  69.019  1.00  0.00    -0.031 A  
HETATM   20  N   UNL     1      -6.014  11.830  70.116  1.00  0.00    -0.153 NA 
HETATM   21  C   UNL     1      -5.736  10.537  70.262  1.00  0.00    -0.079 A  
HETATM   22  C   UNL     1      -8.144  13.896  68.058  1.00  0.00    -0.154 A  
HETATM   23  N   UNL     1      -6.248   9.548  69.534  1.00  0.00    -0.039 NA 
HETATM   24  C   UNL     1      -7.113   9.857  68.557  1.00  0.00    -0.071 A  
BRANCH  24  25
HETATM   25  N   UNL     1      -7.726   8.812  67.807  1.00  0.00    -0.101 NA 
HETATM   26  H   UNL     1      -7.788   8.966  66.801  1.00  0.00     0.000 HD 
BRANCH  25  27
HETATM   27  C   UNL     1      -8.259   7.588  68.275  1.00  0.00    -0.125 A  
HETATM   28  C   UNL     1      -9.533   7.472  68.827  1.00  0.00    -0.148 A  
HETATM   29  C   UNL     1     -10.086   6.242  69.195  1.00  0.00    -0.168 A  
HETATM   30  C   UNL     1      -9.363   5.063  68.982  1.00  0.00    -0.126 A  
HETATM   31 CL   UNL     1     -11.645   6.368  69.941  1.00  0.00    -0.490 Cl 
HETATM   32  C   UNL     1      -8.052   5.171  68.492  1.00  0.00    -0.086 A  
HETATM   33  C   UNL     1      -7.505   6.417  68.147  1.00  0.00    -0.094 A  
BRANCH  30  34
HETATM   34  O   UNL     1      -9.756   3.766  69.201  1.00  0.00    -0.168 OA 
BRANCH  34  35
HETATM   35  C   UNL     1      -8.915   2.992  70.051  1.00  0.00    -0.104 C  
BRANCH  35  36
HETATM   36  C   UNL     1      -9.236   3.219  71.505  1.00  0.00    -0.191 A  
HETATM   37  C   UNL     1     -10.399   2.688  72.069  1.00  0.00    -0.009 A  
HETATM   38  C   UNL     1     -10.734   3.009  73.380  1.00  0.00    -0.196 A  
HETATM   39  C   UNL     1      -9.930   3.852  74.141  1.00  0.00    -0.181 A  
HETATM   40  F   UNL     1     -11.859   2.515  73.911  1.00  0.00    -0.247 F  
HETATM   41  C   UNL     1      -8.770   4.381  73.587  1.00  0.00    -0.102 A  
HETATM   42  C   UNL     1      -8.422   4.070  72.276  1.00  0.00    -0.105 A  
ENDBRANCH  35  36
ENDBRANCH  34  35
ENDBRANCH  30  34
ENDBRANCH  25  27
ENDBRANCH  24  25
ENDBRANCH  13  15
ENDBRANCH   9  10
ENDBRANCH   7   9
ENDBRANCH   6   7
ENDBRANCH   5   6
ENDBRANCH   2   5
TORSDOF 11
ENDMDL
MODEL      203
REMARK 921   NORMALIZED FREE ENERGY PREDICTED BY IDOCK:   -4.26 KCAL/MOL
REMARK 922        TOTAL FREE ENERGY PREDICTED BY IDOCK:   -9.75 KCAL/MOL
REMARK 923 INTER-LIGAND FREE ENERGY PREDICTED BY IDOCK:   -7.61 KCAL/MOL
REMARK 924 INTRA-LIGAND FREE ENERGY PREDICTED BY IDOCK:   -2.14 KCAL/MOL
REMARK 927      BINDING AFFINITY PREDICTED BY RF-SCORE:    0.00 PKD
ROOT
HETATM    1  C   UNL     1      -8.254   7.344  74.185  1.00  0.00    -0.173 C  
HETATM    2  S   UNL     1      -7.730   7.879  72.577  1.00  0.00    -0.120 S  
HETATM    3  O   UNL     1      -8.578   8.984  72.178  1.00  0.00    -0.364 OA 
HETATM    4  O   UNL     1      -7.586   6.701  71.746  1.00  0.00    -0.091 OA 
ENDROOT
BRANCH   2   5
HETATM    5  C   UNL     1      -6.105   8.519  72.914  1.00  0.00    -0.084 C  
BRANCH   5   6
HETATM    6  C   UNL     1      -5.468   9.105  71.662  1.00  0.00    -0.058 C  
BRANCH   6   7
HETATM    7  N   UNL     1      -6.072  10.373  71.241  1.00  0.00    -0.328 NA 
HETATM    8  H   UNL     1      -6.372  10.917  72.050  1.00  0.00     0.000 HD 
BRANCH   7   9
HETATM    9  C   UNL     1      -5.207  11.170  70.370  1.00  0.00    -0.094 C  
BRANCH   9  10
HETATM   10  C   UNL     1      -5.833  12.486  70.081  1.00  0.00    -0.160 A  
HETATM   11  C   UNL     1      -5.633  13.757  70.575  1.00  0.00    -0.150 A  
HETATM   12  C   UNL     1      -6.547  14.596  69.895  1.00  0.00    -0.167 A  
HETATM   13  C   UNL     1      -7.238  13.796  69.006  1.00  0.00    -0.063 A  
HETATM   14  O   UNL     1      -6.794  12.508  69.119  1.00  0.00    -0.103 OA 
BRANCH  13  15
HETATM   15  C   UNL     1      -8.289  14.022  68.024  1.00  0.00    -0.163 A  
HETATM   16  C   UNL     1      -9.264  13.048  67.767  1.00  0.00    -0.200 A  
HETATM   17  C   UNL     1     -10.286  13.262  66.803  1.00  0.00    -0.254 A  
HETATM   18  C   UNL     1     -10.318  14.472  66.092  1.00  0.00    -0.297 A  
HETATM   19  C   UNL     1      -9.354  15.425  66.351  1.00  0.00    -0.331 A  
HETATM   20  N   UNL     1     -11.224  14.758  65.158  1.00  0.00    -0.364 NA 
HETATM   21  C   UNL     1     -12.120  13.809  64.897  1.00  0.00    -0.403 A  
HETATM   22  C   UNL     1      -8.352  15.213  67.300  1.00  0.00    -0.225 A  
HETATM   23  N   UNL     1     -12.186  12.621  65.493  1.00  0.00    -0.564 NA 
HETATM   24  C   UNL     1     -11.290  12.337  66.450  1.00  0.00    -0.354 A  
BRANCH  24  25
HETATM   25  N   UNL     1     -11.297  11.048  67.057  1.00  0.00    -0.396 NA 
HETATM   26  H   UNL     1     -11.929  10.935  67.850  1.00  0.00     0.000 HD 
BRANCH  25  27
HETATM   27  C   UNL     1     -10.544   9.904  66.704  1.00  0.00    -0.115 A  
HETATM   28  C   UNL     1      -9.296   9.973  66.085  1.00  0.00    -0.220 A  
HETATM   29  C   UNL     1      -8.518   8.841  65.830  1.00  0.00    -0.143 A  
HETATM   30  C   UNL     1      -8.973   7.579  66.231  1.00  0.00    -0.167 A  
HETATM   31 CL   UNL     1      -7.051   9.175  64.973  1.00  0.00    -0.090 Cl 
HETATM   32  C   UNL     1     -10.257   7.487  66.792  1.00  0.00    -0.324 A  
HETATM   33  C   UNL     1     -11.034   8.634  67.021  1.00  0.00     0.203 A  
BRANCH  30  34
HETATM   34  O   UNL     1      -8.330   6.369  66.143  1.00  0.00    -0.116 OA 
BRANCH  34  35
HETATM   35  C   UNL     1      -7.632   5.947  67.311  1.00  0.00    -0.096 C  
BRANCH  35  36
HETATM   36  C   UNL     1      -8.317   4.783  67.977  1.00  0.00    -0.102 A  
HETATM   37  C   UNL     1      -8.638   4.828  69.337  1.00  0.00    -0.099 A  
HETATM   38  C   UNL     1      -9.161   3.698  69.955  1.00  0.00    -0.144 A  
HETATM   39  C   UNL     1      -9.373   2.522  69.243  1.00  0.00    -0.183 A  
HETATM   40  F   UNL     1      -9.447   3.737  71.262  1.00  0.00    -0.173 F  
HETATM   41  C   UNL     1      -9.060   2.471  67.889  1.00  0.00    -0.230 A  
HETATM   42  C   UNL     1      -8.534   3.594  67.256  1.00  0.00    -0.105 A  
ENDBRANCH  35  36
ENDBRANCH  34  35
ENDBRANCH  30  34
ENDBRANCH  25  27
ENDBRANCH  24  25
ENDBRANCH  13  15
ENDBRANCH   9  10
ENDBRANCH   7   9
ENDBRANCH   6   7
ENDBRANCH   5   6
ENDBRANCH   2   5
TORSDOF 11
ENDMDL
MODEL      204
REMARK 921   NORMALIZED FREE ENERGY PREDICTED BY IDOCK:   -4.26 KCAL/MOL
REMARK 922        TOTAL FREE ENERGY PREDICTED BY IDOCK:   -9.75 KCAL/MOL
REMARK 923 INTER-LIGAND FREE ENERGY PREDICTED BY IDOCK:   -8.36 KCAL/MOL
REMARK 924 INTRA-LIGAND FREE ENERGY PREDICTED BY IDOCK:   -1.39 KCAL/MOL
REMARK 927      BINDING AFFINITY PREDICTED BY RF-SCORE:    0.00 PKD
ROOT
HETATM    1  C   UNL     1      -7.041  17.098  66.703  1.00  0.00    -0.248 C  
HETATM    2  S   UNL     1      -6.993  15.786  67.897  1.00  0.00    -0.155 S  
HETATM    3  O   UNL     1      -7.730  16.223  69.066  1.00  0.00    -0.205 OA 
HETATM    4  O   UNL     1      -5.622  15.331  67.997  1.00  0.00    -0.120 OA 
ENDROOT
BRANCH   2   5
HETATM    5  C   UNL     1      -7.938  14.516  67.087  1.00  0.00    -0.138 C  
BRANCH   5   6
HETATM    6  C   UNL     1      -8.226  13.353  68.025  1.00  0.00    -0.161 C  
BRANCH   6   7
HETATM    7  N   UNL     1      -7.806  12.054  67.488  1.00  0.00    -0.145 NA 
HETATM    8  H   UNL     1      -7.049  12.169  66.813  1.00  0.00     0.000 HD 
BRANCH   7   9
HETATM    9  C   UNL     1      -7.435  11.088  68.523  1.00  0.00    -0.106 C  
BRANCH   9  10
HETATM   10  C   UNL     1      -7.254   9.737  67.930  1.00  0.00    -0.084 A  
HETATM   11  C   UNL     1      -6.819   9.296  66.700  1.00  0.00    -0.080 A  
HETATM   12  C   UNL     1      -6.868   7.883  66.745  1.00  0.00    -0.072 A  
HETATM   13  C   UNL     1      -7.308   7.539  68.007  1.00  0.00    -0.096 A  
HETATM   14  O   UNL     1      -7.536   8.675  68.731  1.00  0.00    -0.092 OA 
BRANCH  13  15
HETATM   15  C   UNL     1      -7.570   6.283  68.697  1.00  0.00    -0.093 A  
HETATM   16  C   UNL     1      -8.252   6.255  69.921  1.00  0.00    -0.121 A  
HETATM   17  C   UNL     1      -8.501   5.032  70.601  1.00  0.00    -0.111 A  
HETATM   18  C   UNL     1      -8.052   3.828  70.037  1.00  0.00    -0.053 A  
HETATM   19  C   UNL     1      -7.380   3.864  68.831  1.00  0.00    -0.054 A  
HETATM   20  N   UNL     1      -8.222   2.635  70.606  1.00  0.00    -0.048 NA 
HETATM   21  C   UNL     1      -8.836   2.628  71.785  1.00  0.00    -0.075 A  
HETATM   22  C   UNL     1      -7.138   5.067  68.164  1.00  0.00    -0.062 A  
HETATM   23  N   UNL     1      -9.296   3.700  72.426  1.00  0.00    -0.114 NA 
HETATM   24  C   UNL     1      -9.148   4.901  71.847  1.00  0.00    -0.136 A  
BRANCH  24  25
HETATM   25  N   UNL     1      -9.571   6.071  72.541  1.00  0.00    -0.154 NA 
HETATM   26  H   UNL     1      -9.144   6.224  73.454  1.00  0.00     0.000 HD 
BRANCH  25  27
HETATM   27  C   UNL     1     -10.507   7.049  72.130  1.00  0.00    -0.209 A  
HETATM   28  C   UNL     1     -11.854   6.769  71.905  1.00  0.00    -0.366 A  
HETATM   29  C   UNL     1     -12.788   7.761  71.594  1.00  0.00    -0.340 A  
HETATM   30  C   UNL     1     -12.386   9.100  71.531  1.00  0.00    -0.347 A  
HETATM   31 CL   UNL     1     -14.378   7.153  71.272  1.00  0.00    -0.425 Cl 
HETATM   32  C   UNL     1     -11.021   9.388  71.687  1.00  0.00    -0.382 A  
HETATM   33  C   UNL     1     -10.093   8.376  71.978  1.00  0.00    -0.364 A  
BRANCH  30  34
HETATM   34  O   UNL     1     -13.157  10.217  71.321  1.00  0.00    -0.363 OA 
BRANCH  34  35
HETATM   35  C   UNL     1     -12.482  11.468  71.412  1.00  0.00    -0.232 C  
BRANCH  35  36
HETATM   36  C   UNL     1     -12.112  12.000  70.053  1.00  0.00    -0.355 A  
HETATM   37  C   UNL     1     -12.139  13.373  69.793  1.00  0.00    -0.374 A  
HETATM   38  C   UNL     1     -11.909  13.830  68.500  1.00  0.00    -0.370 A  
HETATM   39  C   UNL     1     -11.652  12.945  67.459  1.00  0.00    -0.409 A  
HETATM   40  F   UNL     1     -11.957  15.145  68.251  1.00  0.00    -0.346 F  
HETATM   41  C   UNL     1     -11.620  11.578  67.711  1.00  0.00    -0.338 A  
HETATM   42  C   UNL     1     -11.850  11.104  69.000  1.00  0.00    -0.418 A  
ENDBRANCH  35  36
ENDBRANCH  34  35
ENDBRANCH  30  34
ENDBRANCH  25  27
ENDBRANCH  24  25
ENDBRANCH  13  15
ENDBRANCH   9  10
ENDBRANCH   7   9
ENDBRANCH   6   7
ENDBRANCH   5   6
ENDBRANCH   2   5
TORSDOF 11
ENDMDL
MODEL      205
REMARK 921   NORMALIZED FREE ENERGY PREDICTED BY IDOCK:   -4.23 KCAL/MOL
REMARK 922        TOTAL FREE ENERGY PREDICTED BY IDOCK:   -9.69 KCAL/MOL
REMARK 923 INTER-LIGAND FREE ENERGY PREDICTED BY IDOCK:   -7.74 KCAL/MOL
REMARK 924 INTRA-LIGAND FREE ENERGY PREDICTED BY IDOCK:   -1.96 KCAL/MOL
REMARK 927      BINDING AFFINITY PREDICTED BY RF-SCORE:    0.00 PKD
ROOT
HETATM    1  C   UNL     1     -11.889   5.140  72.830  1.00  0.00    -0.033 C  
HETATM    2  S   UNL     1     -11.299   6.507  71.866  1.00  0.00    -0.300 S  
HETATM    3  O   UNL     1     -12.423   7.052  71.132  1.00  0.00    -0.368 OA 
HETATM    4  O   UNL     1     -10.092   6.080  71.188  1.00  0.00    -0.185 OA 
ENDROOT
BRANCH   2   5
HETATM    5  C   UNL     1     -10.840   7.675  73.127  1.00  0.00    -0.382 C  
BRANCH   5   6
HETATM    6  C   UNL     1      -9.328   7.804  73.240  1.00  0.00    -0.270 C  
BRANCH   6   7
HETATM    7  N   UNL     1      -8.690   6.642  73.868  1.00  0.00    -0.135 NA 
HETATM    8  H   UNL     1      -9.068   5.774  73.488  1.00  0.00     0.000 HD 
BRANCH   7   9
HETATM    9  C   UNL     1      -7.230   6.657  73.772  1.00  0.00    -0.083 C  
BRANCH   9  10
HETATM   10  C   UNL     1      -6.804   6.999  72.390  1.00  0.00    -0.061 A  
HETATM   11  C   UNL     1      -5.998   7.987  71.867  1.00  0.00    -0.037 A  
HETATM   12  C   UNL     1      -5.979   7.783  70.467  1.00  0.00    -0.030 A  
HETATM   13  C   UNL     1      -6.754   6.669  70.215  1.00  0.00    -0.053 A  
HETATM   14  O   UNL     1      -7.251   6.188  71.394  1.00  0.00    -0.076 OA 
BRANCH  13  15
HETATM   15  C   UNL     1      -7.136   5.933  69.018  1.00  0.00    -0.069 A  
HETATM   16  C   UNL     1      -7.275   6.579  67.782  1.00  0.00    -0.090 A  
HETATM   17  C   UNL     1      -7.657   5.866  66.613  1.00  0.00    -0.095 A  
HETATM   18  C   UNL     1      -7.902   4.487  66.699  1.00  0.00    -0.099 A  
HETATM   19  C   UNL     1      -7.764   3.858  67.921  1.00  0.00    -0.067 A  
HETATM   20  N   UNL     1      -8.280   3.736  65.666  1.00  0.00    -0.104 NA 
HETATM   21  C   UNL     1      -8.446   4.370  64.508  1.00  0.00    -0.119 A  
HETATM   22  C   UNL     1      -7.387   4.561  69.067  1.00  0.00    -0.056 A  
HETATM   23  N   UNL     1      -8.256   5.671  64.303  1.00  0.00    -0.130 NA 
HETATM   24  C   UNL     1      -7.853   6.427  65.335  1.00  0.00    -0.105 A  
BRANCH  24  25
HETATM   25  N   UNL     1      -7.707   7.834  65.159  1.00  0.00    -0.094 NA 
HETATM   26  H   UNL     1      -7.191   8.125  64.329  1.00  0.00     0.000 HD 
BRANCH  25  27
HETATM   27  C   UNL     1      -8.184   8.879  65.985  1.00  0.00    -0.117 A  
HETATM   28  C   UNL     1      -7.407   9.978  66.350  1.00  0.00    -0.104 A  
HETATM   29  C   UNL     1      -7.919  11.051  67.084  1.00  0.00    -0.135 A  
HETATM   30  C   UNL     1      -9.269  11.061  67.452  1.00  0.00    -0.151 A  
HETATM   31 CL   UNL     1      -6.738  12.251  67.490  1.00  0.00    -0.123 Cl 
HETATM   32  C   UNL     1     -10.045   9.930  67.151  1.00  0.00    -0.270 A  
HETATM   33  C   UNL     1      -9.508   8.851  66.432  1.00  0.00    -0.283 A  
BRANCH  30  34
HETATM   34  O   UNL     1      -9.973  12.047  68.099  1.00  0.00    -0.191 OA 
BRANCH  34  35
HETATM   35  C   UNL     1     -11.381  11.850  68.193  1.00  0.00    -0.288 C  
BRANCH  35  36
HETATM   36  C   UNL     1     -11.887  12.117  69.586  1.00  0.00    -0.391 A  
HETATM   37  C   UNL     1     -12.405  11.079  70.367  1.00  0.00    -0.442 A  
HETATM   38  C   UNL     1     -12.974  11.369  71.601  1.00  0.00    -0.418 A  
HETATM   39  C   UNL     1     -13.037  12.675  72.075  1.00  0.00    -0.471 A  
HETATM   40  F   UNL     1     -13.488  10.376  72.337  1.00  0.00    -0.493 F  
HETATM   41  C   UNL     1     -12.520  13.712  71.306  1.00  0.00    -0.412 A  
HETATM   42  C   UNL     1     -11.948  13.438  70.066  1.00  0.00    -0.407 A  
ENDBRANCH  35  36
ENDBRANCH  34  35
ENDBRANCH  30  34
ENDBRANCH  25  27
ENDBRANCH  24  25
ENDBRANCH  13  15
ENDBRANCH   9  10
ENDBRANCH   7   9
ENDBRANCH   6   7
ENDBRANCH   5   6
ENDBRANCH   2   5
TORSDOF 11
ENDMDL
MODEL      206
REMARK 921   NORMALIZED FREE ENERGY PREDICTED BY IDOCK:   -4.22 KCAL/MOL
REMARK 922        TOTAL FREE ENERGY PREDICTED BY IDOCK:   -9.68 KCAL/MOL
REMARK 923 INTER-LIGAND FREE ENERGY PREDICTED BY IDOCK:   -8.26 KCAL/MOL
REMARK 924 INTRA-LIGAND FREE ENERGY PREDICTED BY IDOCK:   -1.42 KCAL/MOL
REMARK 927      BINDING AFFINITY PREDICTED BY RF-SCORE:    0.00 PKD
ROOT
HETATM    1  C   UNL     1      -5.633  16.184  68.485  1.00  0.00    -0.106 C  
HETATM    2  S   UNL     1      -6.023  17.892  68.765  1.00  0.00    -0.199 S  
HETATM    3  O   UNL     1      -5.555  18.648  67.621  1.00  0.00    -0.164 OA 
HETATM    4  O   UNL     1      -5.604  18.225  70.111  1.00  0.00    -0.230 OA 
ENDROOT
BRANCH   2   5
HETATM    5  C   UNL     1      -7.801  17.874  68.728  1.00  0.00    -0.253 C  
BRANCH   5   6
HETATM    6  C   UNL     1      -8.333  18.266  67.357  1.00  0.00    -0.244 C  
BRANCH   6   7
HETATM    7  N   UNL     1      -9.402  17.385  66.875  1.00  0.00    -0.255 NA 
HETATM    8  H   UNL     1      -9.124  16.917  66.013  1.00  0.00     0.000 HD 
BRANCH   7   9
HETATM    9  C   UNL     1      -9.850  16.413  67.873  1.00  0.00    -0.238 C  
BRANCH   9  10
HETATM   10  C   UNL     1     -10.681  15.359  67.234  1.00  0.00    -0.307 A  
HETATM   11  C   UNL     1     -12.027  15.070  67.264  1.00  0.00    -0.046 A  
HETATM   12  C   UNL     1     -12.208  13.933  66.441  1.00  0.00    -0.487 A  
HETATM   13  C   UNL     1     -10.965  13.605  65.936  1.00  0.00    -0.282 A  
HETATM   14  O   UNL     1     -10.036  14.483  66.417  1.00  0.00    -0.270 OA 
BRANCH  13  15
HETATM   15  C   UNL     1     -10.460  12.571  65.043  1.00  0.00    -0.323 A  
HETATM   16  C   UNL     1      -9.367  11.770  65.404  1.00  0.00    -0.095 A  
HETATM   17  C   UNL     1      -8.866  10.767  64.532  1.00  0.00    -0.143 A  
HETATM   18  C   UNL     1      -9.476  10.574  63.283  1.00  0.00    -0.325 A  
HETATM   19  C   UNL     1     -10.552  11.367  62.935  1.00  0.00    -0.017 A  
HETATM   20  N   UNL     1      -9.069   9.672  62.391  1.00  0.00    -0.278 NA 
HETATM   21  C   UNL     1      -8.007   8.947  62.731  1.00  0.00    -0.147 A  
HETATM   22  C   UNL     1     -11.044  12.351  63.795  1.00  0.00    -0.506 A  
HETATM   23  N   UNL     1      -7.337   9.044  63.877  1.00  0.00    -0.095 NA 
HETATM   24  C   UNL     1      -7.757   9.935  64.787  1.00  0.00    -0.138 A  
BRANCH  24  25
HETATM   25  N   UNL     1      -7.018  10.105  65.994  1.00  0.00    -0.109 NA 
HETATM   26  H   UNL     1      -6.179  10.679  65.923  1.00  0.00     0.000 HD 
BRANCH  25  27
HETATM   27  C   UNL     1      -7.297   9.581  67.278  1.00  0.00    -0.087 A  
HETATM   28  C   UNL     1      -7.162   8.231  67.598  1.00  0.00    -0.088 A  
HETATM   29  C   UNL     1      -7.346   7.742  68.894  1.00  0.00    -0.086 A  
HETATM   30  C   UNL     1      -7.647   8.627  69.935  1.00  0.00    -0.071 A  
HETATM   31 CL   UNL     1      -7.211   6.019  69.020  1.00  0.00    -0.080 Cl 
HETATM   32  C   UNL     1      -7.854   9.978  69.616  1.00  0.00    -0.171 A  
HETATM   33  C   UNL     1      -7.687  10.448  68.304  1.00  0.00    -0.096 A  
BRANCH  30  34
HETATM   34  O   UNL     1      -7.787   8.358  71.275  1.00  0.00    -0.090 OA 
BRANCH  34  35
HETATM   35  C   UNL     1      -8.908   8.957  71.919  1.00  0.00    -0.052 C  
BRANCH  35  36
HETATM   36  C   UNL     1     -10.173   8.180  71.667  1.00  0.00    -0.266 A  
HETATM   37  C   UNL     1     -10.177   7.089  70.793  1.00  0.00    -0.208 A  
HETATM   38  C   UNL     1     -11.379   6.462  70.486  1.00  0.00    -0.375 A  
HETATM   39  C   UNL     1     -12.580   6.902  71.033  1.00  0.00    -0.319 A  
HETATM   40  F   UNL     1     -11.383   5.431  69.632  1.00  0.00    -0.248 F  
HETATM   41  C   UNL     1     -12.583   7.984  71.905  1.00  0.00    -0.359 A  
HETATM   42  C   UNL     1     -11.387   8.624  72.222  1.00  0.00    -0.411 A  
ENDBRANCH  35  36
ENDBRANCH  34  35
ENDBRANCH  30  34
ENDBRANCH  25  27
ENDBRANCH  24  25
ENDBRANCH  13  15
ENDBRANCH   9  10
ENDBRANCH   7   9
ENDBRANCH   6   7
ENDBRANCH   5   6
ENDBRANCH   2   5
TORSDOF 11
ENDMDL
MODEL      207
REMARK 921   NORMALIZED FREE ENERGY PREDICTED BY IDOCK:   -4.21 KCAL/MOL
REMARK 922        TOTAL FREE ENERGY PREDICTED BY IDOCK:   -9.67 KCAL/MOL
REMARK 923 INTER-LIGAND FREE ENERGY PREDICTED BY IDOCK:   -8.45 KCAL/MOL
REMARK 924 INTRA-LIGAND FREE ENERGY PREDICTED BY IDOCK:   -1.23 KCAL/MOL
REMARK 927      BINDING AFFINITY PREDICTED BY RF-SCORE:    0.00 PKD
ROOT
HETATM    1  C   UNL     1     -14.346   7.569  71.353  1.00  0.00    -0.394 C  
HETATM    2  S   UNL     1     -13.371   9.042  71.518  1.00  0.00    -0.314 S  
HETATM    3  O   UNL     1     -13.571   9.560  72.857  1.00  0.00    -0.175 OA 
HETATM    4  O   UNL     1     -13.612   9.863  70.349  1.00  0.00     0.016 OA 
ENDROOT
BRANCH   2   5
HETATM    5  C   UNL     1     -11.715   8.402  71.411  1.00  0.00    -0.287 C  
BRANCH   5   6
HETATM    6  C   UNL     1     -11.348   7.601  72.652  1.00  0.00    -0.370 C  
BRANCH   6   7
HETATM    7  N   UNL     1     -10.370   6.540  72.391  1.00  0.00    -0.186 NA 
HETATM    8  H   UNL     1      -9.843   6.318  73.237  1.00  0.00     0.000 HD 
BRANCH   7   9
HETATM    9  C   UNL     1     -10.961   5.331  71.816  1.00  0.00    -0.073 C  
BRANCH   9  10
HETATM   10  C   UNL     1     -10.091   4.790  70.740  1.00  0.00    -0.216 A  
HETATM   11  C   UNL     1      -9.575   3.539  70.482  1.00  0.00    -0.246 A  
HETATM   12  C   UNL     1      -8.814   3.660  69.295  1.00  0.00    -0.157 A  
HETATM   13  C   UNL     1      -8.926   4.973  68.882  1.00  0.00    -0.101 A  
HETATM   14  O   UNL     1      -9.713   5.659  69.764  1.00  0.00    -0.151 OA 
BRANCH  13  15
HETATM   15  C   UNL     1      -8.407   5.745  67.761  1.00  0.00    -0.104 A  
HETATM   16  C   UNL     1      -8.956   6.988  67.419  1.00  0.00    -0.117 A  
HETATM   17  C   UNL     1      -8.458   7.739  66.320  1.00  0.00    -0.143 A  
HETATM   18  C   UNL     1      -7.396   7.225  65.561  1.00  0.00    -0.075 A  
HETATM   19  C   UNL     1      -6.861   5.999  65.904  1.00  0.00    -0.057 A  
HETATM   20  N   UNL     1      -6.873   7.846  64.505  1.00  0.00    -0.061 NA 
HETATM   21  C   UNL     1      -7.429   9.006  64.169  1.00  0.00    -0.110 A  
HETATM   22  C   UNL     1      -7.351   5.264  66.985  1.00  0.00    -0.083 A  
HETATM   23  N   UNL     1      -8.445   9.590  64.800  1.00  0.00    -0.147 NA 
HETATM   24  C   UNL     1      -8.960   8.980  65.878  1.00  0.00    -0.190 A  
BRANCH  24  25
HETATM   25  N   UNL     1     -10.090   9.551  66.533  1.00  0.00    -0.255 NA 
HETATM   26  H   UNL     1     -10.525   8.972  67.251  1.00  0.00     0.000 HD 
BRANCH  25  27
HETATM   27  C   UNL     1     -10.686  10.816  66.318  1.00  0.00    -0.138 A  
HETATM   28  C   UNL     1     -11.183  11.611  67.350  1.00  0.00    -0.358 A  
HETATM   29  C   UNL     1     -11.680  12.899  67.135  1.00  0.00    -0.377 A  
HETATM   30  C   UNL     1     -11.660  13.447  65.848  1.00  0.00    -0.342 A  
HETATM   31 CL   UNL     1     -12.322  13.650  68.559  1.00  0.00    -0.154 Cl 
HETATM   32  C   UNL     1     -11.227  12.633  64.790  1.00  0.00    -0.337 A  
HETATM   33  C   UNL     1     -10.751  11.333  65.021  1.00  0.00    -0.322 A  
BRANCH  30  34
HETATM   34  O   UNL     1     -12.026  14.709  65.449  1.00  0.00    -0.341 OA 
BRANCH  34  35
HETATM   35  C   UNL     1     -10.958  15.617  65.193  1.00  0.00    -0.398 C  
BRANCH  35  36
HETATM   36  C   UNL     1     -10.216  15.971  66.454  1.00  0.00    -0.315 A  
HETATM   37  C   UNL     1      -9.184  15.155  66.926  1.00  0.00    -0.259 A  
HETATM   38  C   UNL     1      -8.594  15.437  68.153  1.00  0.00    -0.152 A  
HETATM   39  C   UNL     1      -9.014  16.518  68.921  1.00  0.00    -0.245 A  
HETATM   40  F   UNL     1      -7.620  14.641  68.612  1.00  0.00    -0.104 F  
HETATM   41  C   UNL     1     -10.038  17.336  68.456  1.00  0.00    -0.341 A  
HETATM   42  C   UNL     1     -10.639  17.066  67.230  1.00  0.00    -0.267 A  
ENDBRANCH  35  36
ENDBRANCH  34  35
ENDBRANCH  30  34
ENDBRANCH  25  27
ENDBRANCH  24  25
ENDBRANCH  13  15
ENDBRANCH   9  10
ENDBRANCH   7   9
ENDBRANCH   6   7
ENDBRANCH   5   6
ENDBRANCH   2   5
TORSDOF 11
ENDMDL
MODEL      208
REMARK 921   NORMALIZED FREE ENERGY PREDICTED BY IDOCK:   -4.20 KCAL/MOL
REMARK 922        TOTAL FREE ENERGY PREDICTED BY IDOCK:   -9.65 KCAL/MOL
REMARK 923 INTER-LIGAND FREE ENERGY PREDICTED BY IDOCK:   -8.77 KCAL/MOL
REMARK 924 INTRA-LIGAND FREE ENERGY PREDICTED BY IDOCK:   -0.87 KCAL/MOL
REMARK 927      BINDING AFFINITY PREDICTED BY RF-SCORE:    0.00 PKD
ROOT
HETATM    1  C   UNL     1      -7.732   5.857  74.438  1.00  0.00    -0.097 C  
HETATM    2  S   UNL     1      -7.191   6.602  72.921  1.00  0.00    -0.080 S  
HETATM    3  O   UNL     1      -5.749   6.479  72.856  1.00  0.00    -0.037 OA 
HETATM    4  O   UNL     1      -7.844   7.890  72.806  1.00  0.00    -0.100 OA 
ENDROOT
BRANCH   2   5
HETATM    5  C   UNL     1      -7.898   5.515  71.704  1.00  0.00    -0.112 C  
BRANCH   5   6
HETATM    6  C   UNL     1      -9.330   5.140  72.058  1.00  0.00    -0.137 C  
BRANCH   6   7
HETATM    7  N   UNL     1     -10.091   6.245  72.648  1.00  0.00    -0.176 NA 
HETATM    8  H   UNL     1      -9.493   7.058  72.797  1.00  0.00     0.000 HD 
BRANCH   7   9
HETATM    9  C   UNL     1     -11.280   6.611  71.877  1.00  0.00    -0.264 C  
BRANCH   9  10
HETATM   10  C   UNL     1     -10.970   7.724  70.943  1.00  0.00    -0.250 A  
HETATM   11  C   UNL     1     -11.432   9.017  70.827  1.00  0.00    -0.331 A  
HETATM   12  C   UNL     1     -10.746   9.586  69.728  1.00  0.00    -0.259 A  
HETATM   13  C   UNL     1      -9.887   8.617  69.248  1.00  0.00    -0.188 A  
HETATM   14  O   UNL     1     -10.023   7.483  69.997  1.00  0.00    -0.183 OA 
BRANCH  13  15
HETATM   15  C   UNL     1      -8.916   8.551  68.164  1.00  0.00    -0.142 A  
HETATM   16  C   UNL     1      -9.233   9.006  66.876  1.00  0.00    -0.179 A  
HETATM   17  C   UNL     1      -8.291   8.934  65.815  1.00  0.00    -0.139 A  
HETATM   18  C   UNL     1      -7.018   8.395  66.060  1.00  0.00    -0.065 A  
HETATM   19  C   UNL     1      -6.715   7.949  67.331  1.00  0.00    -0.069 A  
HETATM   20  N   UNL     1      -6.075   8.270  65.128  1.00  0.00    -0.045 NA 
HETATM   21  C   UNL     1      -6.403   8.670  63.902  1.00  0.00    -0.072 A  
HETATM   22  C   UNL     1      -7.642   8.022  68.373  1.00  0.00    -0.108 A  
HETATM   23  N   UNL     1      -7.576   9.185  63.543  1.00  0.00    -0.105 NA 
HETATM   24  C   UNL     1      -8.522   9.334  64.483  1.00  0.00    -0.181 A  
BRANCH  24  25
HETATM   25  N   UNL     1      -9.809   9.821  64.112  1.00  0.00    -0.432 NA 
HETATM   26  H   UNL     1     -10.339   9.230  63.472  1.00  0.00     0.000 HD 
BRANCH  25  27
HETATM   27  C   UNL     1     -10.447  11.017  64.516  1.00  0.00    -0.342 A  
HETATM   28  C   UNL     1     -10.506  11.440  65.842  1.00  0.00    -0.309 A  
HETATM   29  C   UNL     1     -11.053  12.670  66.217  1.00  0.00    -0.293 A  
HETATM   30  C   UNL     1     -11.539  13.543  65.237  1.00  0.00    -0.311 A  
HETATM   31 CL   UNL     1     -11.092  12.930  67.930  1.00  0.00    -0.265 Cl 
HETATM   32  C   UNL     1     -11.550  13.100  63.905  1.00  0.00    -0.488 A  
HETATM   33  C   UNL     1     -11.016  11.852  63.549  1.00  0.00    -0.505 A  
BRANCH  30  34
HETATM   34  O   UNL     1     -12.037  14.813  65.392  1.00  0.00    -0.284 OA 
BRANCH  34  35
HETATM   35  C   UNL     1     -11.204  15.872  64.929  1.00  0.00    -0.337 C  
BRANCH  35  36
HETATM   36  C   UNL     1     -10.405  16.480  66.052  1.00  0.00    -0.358 A  
HETATM   37  C   UNL     1     -10.812  17.677  66.648  1.00  0.00     0.030 A  
HETATM   38  C   UNL     1      -9.996  18.280  67.599  1.00  0.00    -0.338 A  
HETATM   39  C   UNL     1      -8.782  17.712  67.970  1.00  0.00    -0.253 A  
HETATM   40  F   UNL     1     -10.378  19.437  68.153  1.00  0.00    -0.435 F  
HETATM   41  C   UNL     1      -8.373  16.519  67.384  1.00  0.00    -0.188 A  
HETATM   42  C   UNL     1      -9.178  15.904  66.428  1.00  0.00    -0.344 A  
ENDBRANCH  35  36
ENDBRANCH  34  35
ENDBRANCH  30  34
ENDBRANCH  25  27
ENDBRANCH  24  25
ENDBRANCH  13  15
ENDBRANCH   9  10
ENDBRANCH   7   9
ENDBRANCH   6   7
ENDBRANCH   5   6
ENDBRANCH   2   5
TORSDOF 11
ENDMDL
MODEL      209
REMARK 921   NORMALIZED FREE ENERGY PREDICTED BY IDOCK:   -4.20 KCAL/MOL
REMARK 922        TOTAL FREE ENERGY PREDICTED BY IDOCK:   -9.64 KCAL/MOL
REMARK 923 INTER-LIGAND FREE ENERGY PREDICTED BY IDOCK:   -7.65 KCAL/MOL
REMARK 924 INTRA-LIGAND FREE ENERGY PREDICTED BY IDOCK:   -1.99 KCAL/MOL
REMARK 927      BINDING AFFINITY PREDICTED BY RF-SCORE:    0.00 PKD
ROOT
HETATM    1  C   UNL     1     -12.200  16.190  72.745  1.00  0.00    -0.531 C  
HETATM    2  S   UNL     1     -12.920  15.093  71.552  1.00  0.00    -0.422 S  
HETATM    3  O   UNL     1     -14.260  15.565  71.266  1.00  0.00    -0.544 OA 
HETATM    4  O   UNL     1     -12.678  13.736  71.998  1.00  0.00    -0.295 OA 
ENDROOT
BRANCH   2   5
HETATM    5  C   UNL     1     -11.909  15.392  70.119  1.00  0.00    -0.335 C  
BRANCH   5   6
HETATM    6  C   UNL     1     -12.032  14.262  69.107  1.00  0.00    -0.335 C  
BRANCH   6   7
HETATM    7  N   UNL     1     -11.157  13.121  69.399  1.00  0.00    -0.447 NA 
HETATM    8  H   UNL     1     -11.643  12.429  69.970  1.00  0.00     0.000 HD 
BRANCH   7   9
HETATM    9  C   UNL     1     -10.591  12.500  68.201  1.00  0.00    -0.226 C  
BRANCH   9  10
HETATM   10  C   UNL     1      -9.767  11.319  68.569  1.00  0.00    -0.198 A  
HETATM   11  C   UNL     1      -8.578  10.811  68.094  1.00  0.00    -0.129 A  
HETATM   12  C   UNL     1      -8.305   9.654  68.861  1.00  0.00    -0.116 A  
HETATM   13  C   UNL     1      -9.330   9.533  69.778  1.00  0.00    -0.211 A  
HETATM   14  O   UNL     1     -10.218  10.556  69.601  1.00  0.00    -0.226 OA 
BRANCH  13  15
HETATM   15  C   UNL     1      -9.651   8.591  70.842  1.00  0.00    -0.228 A  
HETATM   16  C   UNL     1      -8.834   7.482  71.100  1.00  0.00    -0.142 A  
HETATM   17  C   UNL     1      -9.149   6.556  72.131  1.00  0.00    -0.139 A  
HETATM   18  C   UNL     1     -10.302   6.755  72.905  1.00  0.00    -0.221 A  
HETATM   19  C   UNL     1     -11.102   7.849  72.644  1.00  0.00    -0.447 A  
HETATM   20  N   UNL     1     -10.690   5.934  73.880  1.00  0.00    -0.217 NA 
HETATM   21  C   UNL     1      -9.926   4.865  74.088  1.00  0.00    -0.186 A  
HETATM   22  C   UNL     1     -10.790   8.759  71.631  1.00  0.00    -0.399 A  
HETATM   23  N   UNL     1      -8.818   4.562  73.416  1.00  0.00    -0.102 NA 
HETATM   24  C   UNL     1      -8.412   5.396  72.448  1.00  0.00    -0.119 A  
BRANCH  24  25
HETATM   25  N   UNL     1      -7.266   5.061  71.668  1.00  0.00    -0.068 NA 
HETATM   26  H   UNL     1      -6.365   5.297  72.081  1.00  0.00     0.000 HD 
BRANCH  25  27
HETATM   27  C   UNL     1      -7.217   4.443  70.397  1.00  0.00    -0.048 A  
HETATM   28  C   UNL     1      -6.799   5.103  69.243  1.00  0.00    -0.054 A  
HETATM   29  C   UNL     1      -6.661   4.455  68.013  1.00  0.00    -0.043 A  
HETATM   30  C   UNL     1      -6.916   3.083  67.916  1.00  0.00    -0.049 A  
HETATM   31 CL   UNL     1      -6.215   5.508  66.711  1.00  0.00    -0.033 Cl 
HETATM   32  C   UNL     1      -7.404   2.420  69.054  1.00  0.00    -0.044 A  
HETATM   33  C   UNL     1      -7.557   3.092  70.277  1.00  0.00    -0.043 A  
BRANCH  30  34
HETATM   34  O   UNL     1      -6.765   2.258  66.829  1.00  0.00    -0.038 OA 
BRANCH  34  35
HETATM   35  C   UNL     1      -7.924   1.531  66.430  1.00  0.00    -0.072 C  
BRANCH  35  36
HETATM   36  C   UNL     1      -8.700   2.264  65.369  1.00  0.00    -0.119 A  
HETATM   37  C   UNL     1      -9.652   3.226  65.719  1.00  0.00    -0.033 A  
HETATM   38  C   UNL     1     -10.439   3.803  64.729  1.00  0.00    -0.089 A  
HETATM   39  C   UNL     1     -10.296   3.440  63.394  1.00  0.00    -0.220 A  
HETATM   40  F   UNL     1     -11.365   4.708  65.070  1.00  0.00    -0.307 F  
HETATM   41  C   UNL     1      -9.348   2.487  63.038  1.00  0.00    -0.090 A  
HETATM   42  C   UNL     1      -8.553   1.899  64.018  1.00  0.00    -0.082 A  
ENDBRANCH  35  36
ENDBRANCH  34  35
ENDBRANCH  30  34
ENDBRANCH  25  27
ENDBRANCH  24  25
ENDBRANCH  13  15
ENDBRANCH   9  10
ENDBRANCH   7   9
ENDBRANCH   6   7
ENDBRANCH   5   6
ENDBRANCH   2   5
TORSDOF 11
ENDMDL
MODEL      210
REMARK 921   NORMALIZED FREE ENERGY PREDICTED BY IDOCK:   -4.14 KCAL/MOL
REMARK 922        TOTAL FREE ENERGY PREDICTED BY IDOCK:   -9.56 KCAL/MOL
REMARK 923 INTER-LIGAND FREE ENERGY PREDICTED BY IDOCK:   -7.97 KCAL/MOL
REMARK 924 INTRA-LIGAND FREE ENERGY PREDICTED BY IDOCK:   -1.58 KCAL/MOL
REMARK 927      BINDING AFFINITY PREDICTED BY RF-SCORE:    0.00 PKD
ROOT
HETATM    1  C   UNL     1     -14.282   7.706  71.325  1.00  0.00    -0.300 C  
HETATM    2  S   UNL     1     -13.004   8.902  71.615  1.00  0.00    -0.363 S  
HETATM    3  O   UNL     1     -12.825   9.023  73.048  1.00  0.00    -0.248 OA 
HETATM    4  O   UNL     1     -13.288  10.059  70.791  1.00  0.00    -0.350 OA 
ENDROOT
BRANCH   2   5
HETATM    5  C   UNL     1     -11.575   8.083  70.943  1.00  0.00    -0.269 C  
BRANCH   5   6
HETATM    6  C   UNL     1     -11.790   6.579  70.848  1.00  0.00    -0.331 C  
BRANCH   6   7
HETATM    7  N   UNL     1     -10.955   5.936  69.829  1.00  0.00    -0.378 NA 
HETATM    8  H   UNL     1     -10.791   4.956  70.061  1.00  0.00     0.000 HD 
BRANCH   7   9
HETATM    9  C   UNL     1     -11.488   6.065  68.472  1.00  0.00     0.451 C  
BRANCH   9  10
HETATM   10  C   UNL     1     -10.389   6.320  67.505  1.00  0.00    -0.200 A  
HETATM   11  C   UNL     1      -9.938   5.651  66.388  1.00  0.00    -0.189 A  
HETATM   12  C   UNL     1      -8.848   6.401  65.889  1.00  0.00    -0.142 A  
HETATM   13  C   UNL     1      -8.707   7.499  66.714  1.00  0.00    -0.133 A  
HETATM   14  O   UNL     1      -9.656   7.450  67.696  1.00  0.00    -0.134 OA 
BRANCH  13  15
HETATM   15  C   UNL     1      -7.806   8.642  66.758  1.00  0.00    -0.094 A  
HETATM   16  C   UNL     1      -8.272   9.922  67.087  1.00  0.00    -0.121 A  
HETATM   17  C   UNL     1      -7.397  11.042  67.122  1.00  0.00    -0.116 A  
HETATM   18  C   UNL     1      -6.038  10.862  66.819  1.00  0.00    -0.088 A  
HETATM   19  C   UNL     1      -5.587   9.597  66.495  1.00  0.00    -0.049 A  
HETATM   20  N   UNL     1      -5.145  11.850  66.808  1.00  0.00    -0.274 NA 
HETATM   21  C   UNL     1      -5.609  13.065  67.084  1.00  0.00     0.318 A  
HETATM   22  C   UNL     1      -6.449   8.499  66.463  1.00  0.00    -0.059 A  
HETATM   23  N   UNL     1      -6.873  13.365  67.375  1.00  0.00    -0.152 NA 
HETATM   24  C   UNL     1      -7.772  12.370  67.409  1.00  0.00    -0.170 A  
BRANCH  24  25
HETATM   25  N   UNL     1      -9.143  12.672  67.653  1.00  0.00    -0.183 NA 
HETATM   26  H   UNL     1      -9.754  11.869  67.804  1.00  0.00     0.000 HD 
BRANCH  25  27
HETATM   27  C   UNL     1      -9.768  13.940  67.713  1.00  0.00    -0.225 A  
HETATM   28  C   UNL     1     -10.111  14.565  68.911  1.00  0.00    -0.224 A  
HETATM   29  C   UNL     1     -10.638  15.858  68.961  1.00  0.00    -0.247 A  
HETATM   30  C   UNL     1     -10.808  16.587  67.778  1.00  0.00    -0.304 A  
HETATM   31 CL   UNL     1     -11.067  16.380  70.556  1.00  0.00    -0.307 Cl 
HETATM   32  C   UNL     1     -10.531  15.945  66.561  1.00  0.00    -0.305 A  
HETATM   33  C   UNL     1     -10.023  14.637  66.529  1.00  0.00    -0.292 A  
BRANCH  30  34
HETATM   34  O   UNL     1     -11.231  17.884  67.625  1.00  0.00    -0.074 OA 
BRANCH  34  35
HETATM   35  C   UNL     1     -10.430  18.708  66.783  1.00  0.00    -0.408 C  
BRANCH  35  36
HETATM   36  C   UNL     1      -8.983  18.686  67.200  1.00  0.00    -0.288 A  
HETATM   37  C   UNL     1      -8.610  19.047  68.498  1.00  0.00    -0.393 A  
HETATM   38  C   UNL     1      -7.261  19.133  68.824  1.00  0.00    -0.333 A  
HETATM   39  C   UNL     1      -6.275  18.867  67.880  1.00  0.00    -0.207 A  
HETATM   40  F   UNL     1      -6.907  19.500  70.062  1.00  0.00    -0.313 F  
HETATM   41  C   UNL     1      -6.638  18.503  66.589  1.00  0.00    -0.212 A  
HETATM   42  C   UNL     1      -7.985  18.414  66.246  1.00  0.00    -0.264 A  
ENDBRANCH  35  36
ENDBRANCH  34  35
ENDBRANCH  30  34
ENDBRANCH  25  27
ENDBRANCH  24  25
ENDBRANCH  13  15
ENDBRANCH   9  10
ENDBRANCH   7   9
ENDBRANCH   6   7
ENDBRANCH   5   6
ENDBRANCH   2   5
TORSDOF 11
ENDMDL
MODEL      211
REMARK 921   NORMALIZED FREE ENERGY PREDICTED BY IDOCK:   -4.14 KCAL/MOL
REMARK 922        TOTAL FREE ENERGY PREDICTED BY IDOCK:   -9.55 KCAL/MOL
REMARK 923 INTER-LIGAND FREE ENERGY PREDICTED BY IDOCK:   -8.75 KCAL/MOL
REMARK 924 INTRA-LIGAND FREE ENERGY PREDICTED BY IDOCK:   -0.80 KCAL/MOL
REMARK 927      BINDING AFFINITY PREDICTED BY RF-SCORE:    0.00 PKD
ROOT
HETATM    1  C   UNL     1     -13.632   7.366  71.763  1.00  0.00    -0.314 C  
HETATM    2  S   UNL     1     -12.197   8.364  72.068  1.00  0.00    -0.387 S  
HETATM    3  O   UNL     1     -11.609   7.926  73.319  1.00  0.00    -0.252 OA 
HETATM    4  O   UNL     1     -12.569   9.748  71.854  1.00  0.00    -0.385 OA 
ENDROOT
BRANCH   2   5
HETATM    5  C   UNL     1     -11.117   7.870  70.744  1.00  0.00    -0.256 C  
BRANCH   5   6
HETATM    6  C   UNL     1     -11.829   6.956  69.758  1.00  0.00    -0.012 C  
BRANCH   6   7
HETATM    7  N   UNL     1     -10.923   6.043  69.052  1.00  0.00    -0.344 NA 
HETATM    8  H   UNL     1     -11.279   5.087  69.079  1.00  0.00     0.000 HD 
BRANCH   7   9
HETATM    9  C   UNL     1     -10.641   6.453  67.676  1.00  0.00    -0.274 C  
BRANCH   9  10
HETATM   10  C   UNL     1      -9.253   6.973  67.564  1.00  0.00    -0.124 A  
HETATM   11  C   UNL     1      -8.187   6.654  66.752  1.00  0.00    -0.114 A  
HETATM   12  C   UNL     1      -7.128   7.513  67.131  1.00  0.00    -0.085 A  
HETATM   13  C   UNL     1      -7.613   8.324  68.137  1.00  0.00    -0.098 A  
HETATM   14  O   UNL     1      -8.915   7.996  68.394  1.00  0.00    -0.134 OA 
BRANCH  13  15
HETATM   15  C   UNL     1      -7.059   9.403  68.944  1.00  0.00    -0.068 A  
HETATM   16  C   UNL     1      -7.297  10.747  68.623  1.00  0.00    -0.097 A  
HETATM   17  C   UNL     1      -6.750  11.801  69.402  1.00  0.00    -0.098 A  
HETATM   18  C   UNL     1      -5.955  11.491  70.516  1.00  0.00    -0.093 A  
HETATM   19  C   UNL     1      -5.725  10.166  70.826  1.00  0.00    -0.089 A  
HETATM   20  N   UNL     1      -5.386  12.408  71.297  1.00  0.00    -0.328 NA 
HETATM   21  C   UNL     1      -5.588  13.678  70.957  1.00  0.00    -0.209 A  
HETATM   22  C   UNL     1      -6.265   9.131  70.059  1.00  0.00    -0.038 A  
HETATM   23  N   UNL     1      -6.310  14.097  69.921  1.00  0.00    -0.142 NA 
HETATM   24  C   UNL     1      -6.904  13.179  69.145  1.00  0.00    -0.062 A  
BRANCH  24  25
HETATM   25  N   UNL     1      -7.628  13.598  67.991  1.00  0.00    -0.123 NA 
HETATM   26  H   UNL     1      -7.479  13.044  67.149  1.00  0.00     0.000 HD 
BRANCH  25  27
HETATM   27  C   UNL     1      -8.527  14.683  67.862  1.00  0.00    -0.158 A  
HETATM   28  C   UNL     1      -9.400  15.075  68.876  1.00  0.00    -0.208 A  
HETATM   29  C   UNL     1     -10.213  16.207  68.773  1.00  0.00    -0.238 A  
HETATM   30  C   UNL     1     -10.143  17.013  67.631  1.00  0.00    -0.298 A  
HETATM   31 CL   UNL     1     -11.274  16.434  70.124  1.00  0.00    -0.332 Cl 
HETATM   32  C   UNL     1      -9.320  16.592  66.575  1.00  0.00    -0.295 A  
HETATM   33  C   UNL     1      -8.526  15.439  66.687  1.00  0.00    -0.296 A  
BRANCH  30  34
HETATM   34  O   UNL     1     -10.794  18.195  67.376  1.00  0.00    -0.374 OA 
BRANCH  34  35
HETATM   35  C   UNL     1     -10.177  19.053  66.421  1.00  0.00    -0.437 C  
BRANCH  35  36
HETATM   36  C   UNL     1      -8.804  19.482  66.865  1.00  0.00    -0.362 A  
HETATM   37  C   UNL     1      -8.518  19.664  68.221  1.00  0.00    -0.355 A  
HETATM   38  C   UNL     1      -7.281  20.173  68.598  1.00  0.00    -0.163 A  
HETATM   39  C   UNL     1      -6.320  20.506  67.648  1.00  0.00    -0.307 A  
HETATM   40  F   UNL     1      -7.018  20.366  69.896  1.00  0.00    -0.236 F  
HETATM   41  C   UNL     1      -6.596  20.324  66.298  1.00  0.00    -0.256 A  
HETATM   42  C   UNL     1      -7.832  19.816  65.904  1.00  0.00    -0.309 A  
ENDBRANCH  35  36
ENDBRANCH  34  35
ENDBRANCH  30  34
ENDBRANCH  25  27
ENDBRANCH  24  25
ENDBRANCH  13  15
ENDBRANCH   9  10
ENDBRANCH   7   9
ENDBRANCH   6   7
ENDBRANCH   5   6
ENDBRANCH   2   5
TORSDOF 11
ENDMDL
MODEL      212
REMARK 921   NORMALIZED FREE ENERGY PREDICTED BY IDOCK:   -4.12 KCAL/MOL
REMARK 922        TOTAL FREE ENERGY PREDICTED BY IDOCK:   -9.51 KCAL/MOL
REMARK 923 INTER-LIGAND FREE ENERGY PREDICTED BY IDOCK:   -6.91 KCAL/MOL
REMARK 924 INTRA-LIGAND FREE ENERGY PREDICTED BY IDOCK:   -2.60 KCAL/MOL
REMARK 927      BINDING AFFINITY PREDICTED BY RF-SCORE:    0.00 PKD
ROOT
HETATM    1  C   UNL     1      -6.824   6.827  66.479  1.00  0.00    -0.061 C  
HETATM    2  S   UNL     1      -8.309   6.163  65.771  1.00  0.00    -0.147 S  
HETATM    3  O   UNL     1      -8.296   6.458  64.353  1.00  0.00    -0.072 OA 
HETATM    4  O   UNL     1      -9.417   6.564  66.615  1.00  0.00    -0.153 OA 
ENDROOT
BRANCH   2   5
HETATM    5  C   UNL     1      -8.064   4.413  65.976  1.00  0.00    -0.102 C  
BRANCH   5   6
HETATM    6  C   UNL     1      -9.092   3.816  66.927  1.00  0.00    -0.161 C  
BRANCH   6   7
HETATM    7  N   UNL     1      -8.905   4.232  68.321  1.00  0.00    -0.102 NA 
HETATM    8  H   UNL     1      -9.262   5.177  68.467  1.00  0.00     0.000 HD 
BRANCH   7   9
HETATM    9  C   UNL     1      -9.487   3.303  69.290  1.00  0.00    -0.129 C  
BRANCH   9  10
HETATM   10  C   UNL     1      -9.426   3.875  70.660  1.00  0.00    -0.174 A  
HETATM   11  C   UNL     1     -10.032   3.542  71.851  1.00  0.00    -0.212 A  
HETATM   12  C   UNL     1      -9.567   4.474  72.808  1.00  0.00    -0.168 A  
HETATM   13  C   UNL     1      -8.684   5.311  72.154  1.00  0.00    -0.130 A  
HETATM   14  O   UNL     1      -8.596   4.937  70.842  1.00  0.00    -0.111 OA 
BRANCH  13  15
HETATM   15  C   UNL     1      -7.869   6.452  72.545  1.00  0.00    -0.101 A  
HETATM   16  C   UNL     1      -7.519   7.446  71.621  1.00  0.00    -0.084 A  
HETATM   17  C   UNL     1      -6.715   8.556  71.998  1.00  0.00    -0.087 A  
HETATM   18  C   UNL     1      -6.262   8.659  73.322  1.00  0.00    -0.077 A  
HETATM   19  C   UNL     1      -6.611   7.676  74.226  1.00  0.00    -0.100 A  
HETATM   20  N   UNL     1      -5.492   9.651  73.766  1.00  0.00    -0.311 NA 
HETATM   21  C   UNL     1      -5.136  10.566  72.868  1.00  0.00     0.203 A  
HETATM   22  C   UNL     1      -7.402   6.587  73.854  1.00  0.00    -0.084 A  
HETATM   23  N   UNL     1      -5.490  10.572  71.585  1.00  0.00    -0.296 NA 
HETATM   24  C   UNL     1      -6.284   9.588  71.139  1.00  0.00    -0.068 A  
BRANCH  24  25
HETATM   25  N   UNL     1      -6.624   9.534  69.756  1.00  0.00    -0.048 NA 
HETATM   26  H   UNL     1      -6.097   8.865  69.195  1.00  0.00     0.000 HD 
BRANCH  25  27
HETATM   27  C   UNL     1      -7.598  10.288  69.059  1.00  0.00    -0.102 A  
HETATM   28  C   UNL     1      -7.436  11.636  68.741  1.00  0.00    -0.114 A  
HETATM   29  C   UNL     1      -8.360  12.343  67.968  1.00  0.00    -0.170 A  
HETATM   30  C   UNL     1      -9.485  11.687  67.454  1.00  0.00    -0.167 A  
HETATM   31 CL   UNL     1      -7.983  14.024  67.786  1.00  0.00    -0.155 Cl 
HETATM   32  C   UNL     1      -9.696  10.349  67.824  1.00  0.00    -0.181 A  
HETATM   33  C   UNL     1      -8.767   9.660  68.620  1.00  0.00    -0.124 A  
BRANCH  30  34
HETATM   34  O   UNL     1     -10.457  12.180  66.619  1.00  0.00    -0.215 OA 
BRANCH  34  35
HETATM   35  C   UNL     1     -11.755  12.324  67.188  1.00  0.00    -0.326 C  
BRANCH  35  36
HETATM   36  C   UNL     1     -11.815  13.484  68.147  1.00  0.00    -0.400 A  
HETATM   37  C   UNL     1     -11.461  14.771  67.732  1.00  0.00    -0.363 A  
HETATM   38  C   UNL     1     -11.410  15.801  68.664  1.00  0.00    -0.369 A  
HETATM   39  C   UNL     1     -11.706  15.574  70.004  1.00  0.00    -0.363 A  
HETATM   40  F   UNL     1     -11.051  17.028  68.268  1.00  0.00    -0.363 F  
HETATM   41  C   UNL     1     -12.063  14.297  70.423  1.00  0.00    -0.409 A  
HETATM   42  C   UNL     1     -12.117  13.254  69.502  1.00  0.00    -0.315 A  
ENDBRANCH  35  36
ENDBRANCH  34  35
ENDBRANCH  30  34
ENDBRANCH  25  27
ENDBRANCH  24  25
ENDBRANCH  13  15
ENDBRANCH   9  10
ENDBRANCH   7   9
ENDBRANCH   6   7
ENDBRANCH   5   6
ENDBRANCH   2   5
TORSDOF 11
ENDMDL
MODEL      213
REMARK 921   NORMALIZED FREE ENERGY PREDICTED BY IDOCK:   -4.06 KCAL/MOL
REMARK 922        TOTAL FREE ENERGY PREDICTED BY IDOCK:   -9.42 KCAL/MOL
REMARK 923 INTER-LIGAND FREE ENERGY PREDICTED BY IDOCK:   -7.20 KCAL/MOL
REMARK 924 INTRA-LIGAND FREE ENERGY PREDICTED BY IDOCK:   -2.22 KCAL/MOL
REMARK 927      BINDING AFFINITY PREDICTED BY RF-SCORE:    0.00 PKD
ROOT
HETATM    1  C   UNL     1      -7.979  14.689  69.099  1.00  0.00    -0.097 C  
HETATM    2  S   UNL     1      -7.302  14.935  67.478  1.00  0.00    -0.200 S  
HETATM    3  O   UNL     1      -7.887  13.946  66.596  1.00  0.00     0.352 OA 
HETATM    4  O   UNL     1      -5.865  15.067  67.615  1.00  0.00    -0.265 OA 
ENDROOT
BRANCH   2   5
HETATM    5  C   UNL     1      -7.962  16.528  67.041  1.00  0.00    -0.203 C  
BRANCH   5   6
HETATM    6  C   UNL     1      -8.811  16.451  65.780  1.00  0.00     0.047 C  
BRANCH   6   7
HETATM    7  N   UNL     1     -10.151  15.902  66.013  1.00  0.00    -0.313 NA 
HETATM    8  H   UNL     1     -10.097  15.022  66.525  1.00  0.00     0.000 HD 
BRANCH   7   9
HETATM    9  C   UNL     1     -11.054  16.838  66.684  1.00  0.00     0.287 C  
BRANCH   9  10
HETATM   10  C   UNL     1     -11.067  16.587  68.148  1.00  0.00    -0.303 A  
HETATM   11  C   UNL     1     -10.649  17.321  69.237  1.00  0.00    -0.156 A  
HETATM   12  C   UNL     1     -10.934  16.535  70.379  1.00  0.00    -0.135 A  
HETATM   13  C   UNL     1     -11.530  15.375  69.926  1.00  0.00    -0.312 A  
HETATM   14  O   UNL     1     -11.616  15.414  68.563  1.00  0.00    -0.336 OA 
BRANCH  13  15
HETATM   15  C   UNL     1     -12.060  14.177  70.563  1.00  0.00    -0.420 A  
HETATM   16  C   UNL     1     -11.920  12.916  69.967  1.00  0.00    -0.380 A  
HETATM   17  C   UNL     1     -12.444  11.746  70.581  1.00  0.00    -0.364 A  
HETATM   18  C   UNL     1     -13.117  11.856  71.808  1.00  0.00    -0.360 A  
HETATM   19  C   UNL     1     -13.252  13.102  72.387  1.00  0.00    -0.519 A  
HETATM   20  N   UNL     1     -13.657  10.822  72.451  1.00  0.00     0.055 NA 
HETATM   21  C   UNL     1     -13.550   9.638  71.856  1.00  0.00    -0.364 A  
HETATM   22  C   UNL     1     -12.735  14.250  71.783  1.00  0.00    -0.428 A  
HETATM   23  N   UNL     1     -12.947   9.407  70.691  1.00  0.00     0.061 NA 
HETATM   24  C   UNL     1     -12.382  10.441  70.050  1.00  0.00    -0.159 A  
BRANCH  24  25
HETATM   25  N   UNL     1     -11.789  10.234  68.771  1.00  0.00    -0.644 NA 
HETATM   26  H   UNL     1     -12.335  10.555  67.972  1.00  0.00     0.000 HD 
BRANCH  25  27
HETATM   27  C   UNL     1     -10.541   9.641  68.466  1.00  0.00    -0.220 A  
HETATM   28  C   UNL     1      -9.949   8.657  69.256  1.00  0.00    -0.195 A  
HETATM   29  C   UNL     1      -8.766   8.010  68.892  1.00  0.00    -0.131 A  
HETATM   30  C   UNL     1      -8.147   8.322  67.676  1.00  0.00    -0.126 A  
HETATM   31 CL   UNL     1      -8.182   6.892  70.081  1.00  0.00    -0.131 Cl 
HETATM   32  C   UNL     1      -8.694   9.359  66.904  1.00  0.00    -0.137 A  
HETATM   33  C   UNL     1      -9.873  10.013  67.295  1.00  0.00    -0.225 A  
BRANCH  30  34
HETATM   34  O   UNL     1      -7.036   7.750  67.109  1.00  0.00    -0.073 OA 
BRANCH  34  35
HETATM   35  C   UNL     1      -7.243   7.075  65.872  1.00  0.00    -0.074 C  
BRANCH  35  36
HETATM   36  C   UNL     1      -7.817   5.699  66.080  1.00  0.00    -0.100 A  
HETATM   37  C   UNL     1      -7.266   4.832  67.028  1.00  0.00    -0.077 A  
HETATM   38  C   UNL     1      -7.736   3.527  67.119  1.00  0.00    -0.079 A  
HETATM   39  C   UNL     1      -8.748   3.068  66.283  1.00  0.00    -0.132 A  
HETATM   40  F   UNL     1      -7.192   2.694  68.014  1.00  0.00    -0.047 F  
HETATM   41  C   UNL     1      -9.304   3.925  65.340  1.00  0.00    -0.159 A  
HETATM   42  C   UNL     1      -8.842   5.235  65.235  1.00  0.00    -0.144 A  
ENDBRANCH  35  36
ENDBRANCH  34  35
ENDBRANCH  30  34
ENDBRANCH  25  27
ENDBRANCH  24  25
ENDBRANCH  13  15
ENDBRANCH   9  10
ENDBRANCH   7   9
ENDBRANCH   6   7
ENDBRANCH   5   6
ENDBRANCH   2   5
TORSDOF 11
ENDMDL
MODEL      214
REMARK 921   NORMALIZED FREE ENERGY PREDICTED BY IDOCK:   -4.03 KCAL/MOL
REMARK 922        TOTAL FREE ENERGY PREDICTED BY IDOCK:   -9.37 KCAL/MOL
REMARK 923 INTER-LIGAND FREE ENERGY PREDICTED BY IDOCK:   -8.05 KCAL/MOL
REMARK 924 INTRA-LIGAND FREE ENERGY PREDICTED BY IDOCK:   -1.32 KCAL/MOL
REMARK 927      BINDING AFFINITY PREDICTED BY RF-SCORE:    0.00 PKD
ROOT
HETATM    1  C   UNL     1      -9.550   3.492  67.463  1.00  0.00    -0.127 C  
HETATM    2  S   UNL     1      -9.486   3.903  65.738  1.00  0.00    -0.179 S  
HETATM    3  O   UNL     1     -10.024   5.239  65.579  1.00  0.00    -0.017 OA 
HETATM    4  O   UNL     1     -10.024   2.780  64.998  1.00  0.00     0.061 OA 
ENDROOT
BRANCH   2   5
HETATM    5  C   UNL     1      -7.733   3.971  65.441  1.00  0.00    -0.086 C  
BRANCH   5   6
HETATM    6  C   UNL     1      -7.246   5.408  65.321  1.00  0.00    -0.067 C  
BRANCH   6   7
HETATM    7  N   UNL     1      -7.434   5.977  63.983  1.00  0.00    -0.073 NA 
HETATM    8  H   UNL     1      -8.175   5.486  63.482  1.00  0.00     0.000 HD 
BRANCH   7   9
HETATM    9  C   UNL     1      -7.682   7.419  63.992  1.00  0.00    -0.121 C  
BRANCH   9  10
HETATM   10  C   UNL     1      -7.222   8.015  65.274  1.00  0.00    -0.064 A  
HETATM   11  C   UNL     1      -6.231   8.918  65.594  1.00  0.00    -0.052 A  
HETATM   12  C   UNL     1      -6.290   9.089  66.998  1.00  0.00    -0.060 A  
HETATM   13  C   UNL     1      -7.327   8.300  67.453  1.00  0.00    -0.092 A  
HETATM   14  O   UNL     1      -7.899   7.651  66.396  1.00  0.00    -0.090 OA 
BRANCH  13  15
HETATM   15  C   UNL     1      -7.912   8.026  68.759  1.00  0.00    -0.119 A  
HETATM   16  C   UNL     1      -9.233   8.390  69.054  1.00  0.00    -0.147 A  
HETATM   17  C   UNL     1      -9.803   8.132  70.330  1.00  0.00    -0.184 A  
HETATM   18  C   UNL     1      -9.028   7.500  71.314  1.00  0.00    -0.137 A  
HETATM   19  C   UNL     1      -7.728   7.145  71.016  1.00  0.00    -0.090 A  
HETATM   20  N   UNL     1      -9.468   7.232  72.543  1.00  0.00    -0.145 NA 
HETATM   21  C   UNL     1     -10.710   7.618  72.821  1.00  0.00    -0.345 A  
HETATM   22  C   UNL     1      -7.170   7.398  69.761  1.00  0.00    -0.081 A  
HETATM   23  N   UNL     1     -11.537   8.234  71.979  1.00  0.00    -0.315 NA 
HETATM   24  C   UNL     1     -11.107   8.486  70.734  1.00  0.00    -0.254 A  
BRANCH  24  25
HETATM   25  N   UNL     1     -11.948   9.203  69.834  1.00  0.00    -0.242 NA 
HETATM   26  H   UNL     1     -12.694   8.661  69.398  1.00  0.00     0.000 HD 
BRANCH  25  27
HETATM   27  C   UNL     1     -11.883  10.567  69.465  1.00  0.00    -0.215 A  
HETATM   28  C   UNL     1     -11.671  10.994  68.155  1.00  0.00    -0.277 A  
HETATM   29  C   UNL     1     -11.707  12.342  67.788  1.00  0.00    -0.337 A  
HETATM   30  C   UNL     1     -11.997  13.318  68.748  1.00  0.00    -0.300 A  
HETATM   31 CL   UNL     1     -11.323  12.626  66.122  1.00  0.00    -0.353 Cl 
HETATM   32  C   UNL     1     -12.145  12.908  70.082  1.00  0.00    -0.373 A  
HETATM   33  C   UNL     1     -12.084  11.551  70.437  1.00  0.00    -0.471 A  
BRANCH  30  34
HETATM   34  O   UNL     1     -12.154  14.670  68.574  1.00  0.00    -0.284 OA 
BRANCH  34  35
HETATM   35  C   UNL     1     -11.359  15.505  69.411  1.00  0.00    -0.316 C  
BRANCH  35  36
HETATM   36  C   UNL     1     -10.423  16.368  68.607  1.00  0.00    -0.293 A  
HETATM   37  C   UNL     1     -10.367  17.748  68.819  1.00  0.00    -0.332 A  
HETATM   38  C   UNL     1      -9.584  18.538  67.985  1.00  0.00    -0.312 A  
HETATM   39  C   UNL     1      -8.854  17.978  66.942  1.00  0.00    -0.266 A  
HETATM   40  F   UNL     1      -9.550  19.863  68.177  1.00  0.00    -0.407 F  
HETATM   41  C   UNL     1      -8.901  16.606  66.728  1.00  0.00    -0.259 A  
HETATM   42  C   UNL     1      -9.682  15.801  67.553  1.00  0.00    -0.226 A  
ENDBRANCH  35  36
ENDBRANCH  34  35
ENDBRANCH  30  34
ENDBRANCH  25  27
ENDBRANCH  24  25
ENDBRANCH  13  15
ENDBRANCH   9  10
ENDBRANCH   7   9
ENDBRANCH   6   7
ENDBRANCH   5   6
ENDBRANCH   2   5
TORSDOF 11
ENDMDL
MODEL      215
REMARK 921   NORMALIZED FREE ENERGY PREDICTED BY IDOCK:   -4.02 KCAL/MOL
REMARK 922        TOTAL FREE ENERGY PREDICTED BY IDOCK:   -9.35 KCAL/MOL
REMARK 923 INTER-LIGAND FREE ENERGY PREDICTED BY IDOCK:   -7.33 KCAL/MOL
REMARK 924 INTRA-LIGAND FREE ENERGY PREDICTED BY IDOCK:   -2.02 KCAL/MOL
REMARK 927      BINDING AFFINITY PREDICTED BY RF-SCORE:    0.00 PKD
ROOT
HETATM    1  C   UNL     1      -6.260   7.530  64.538  1.00  0.00    -0.041 C  
HETATM    2  S   UNL     1      -7.953   7.532  64.008  1.00  0.00    -0.044 S  
HETATM    3  O   UNL     1      -7.983   7.942  62.619  1.00  0.00    -0.139 OA 
HETATM    4  O   UNL     1      -8.729   8.226  65.016  1.00  0.00    -0.128 OA 
ENDROOT
BRANCH   2   5
HETATM    5  C   UNL     1      -8.366   5.804  64.087  1.00  0.00    -0.047 C  
BRANCH   5   6
HETATM    6  C   UNL     1      -9.478   5.544  65.093  1.00  0.00     0.280 C  
BRANCH   6   7
HETATM    7  N   UNL     1      -9.047   5.687  66.487  1.00  0.00    -0.133 NA 
HETATM    8  H   UNL     1      -9.075   6.665  66.776  1.00  0.00     0.000 HD 
BRANCH   7   9
HETATM    9  C   UNL     1      -9.803   4.850  67.419  1.00  0.00    -0.178 C  
BRANCH   9  10
HETATM   10  C   UNL     1      -9.533   5.261  68.822  1.00  0.00    -0.128 A  
HETATM   11  C   UNL     1      -9.915   4.755  70.045  1.00  0.00    -0.314 A  
HETATM   12  C   UNL     1      -9.331   5.595  71.022  1.00  0.00    -0.181 A  
HETATM   13  C   UNL     1      -8.605   6.554  70.342  1.00  0.00    -0.146 A  
HETATM   14  O   UNL     1      -8.726   6.342  68.998  1.00  0.00    -0.124 OA 
BRANCH  13  15
HETATM   15  C   UNL     1      -7.780   7.688  70.735  1.00  0.00    -0.085 A  
HETATM   16  C   UNL     1      -7.688   8.832  69.930  1.00  0.00    -0.081 A  
HETATM   17  C   UNL     1      -6.877   9.937  70.306  1.00  0.00    -0.138 A  
HETATM   18  C   UNL     1      -6.152   9.880  71.507  1.00  0.00     0.155 A  
HETATM   19  C   UNL     1      -6.248   8.749  72.293  1.00  0.00    -0.063 A  
HETATM   20  N   UNL     1      -5.353  10.856  71.935  1.00  0.00    -0.324 NA 
HETATM   21  C   UNL     1      -5.245  11.919  71.143  1.00  0.00    -0.102 A  
HETATM   22  C   UNL     1      -7.047   7.666  71.922  1.00  0.00    -0.064 A  
HETATM   23  N   UNL     1      -5.870  12.084  69.980  1.00  0.00    -0.137 NA 
HETATM   24  C   UNL     1      -6.693  11.115  69.554  1.00  0.00    -0.132 A  
BRANCH  24  25
HETATM   25  N   UNL     1      -7.323  11.238  68.282  1.00  0.00    -0.089 NA 
HETATM   26  H   UNL     1      -7.113  10.500  67.610  1.00  0.00     0.000 HD 
BRANCH  25  27
HETATM   27  C   UNL     1      -8.201  12.250  67.829  1.00  0.00    -0.161 A  
HETATM   28  C   UNL     1      -9.588  12.109  67.819  1.00  0.00    -0.195 A  
HETATM   29  C   UNL     1     -10.449  13.150  67.462  1.00  0.00    -0.228 A  
HETATM   30  C   UNL     1      -9.923  14.403  67.127  1.00  0.00    -0.253 A  
HETATM   31 CL   UNL     1     -12.122  12.702  67.441  1.00  0.00    -0.296 Cl 
HETATM   32  C   UNL     1      -8.528  14.539  67.066  1.00  0.00    -0.222 A  
HETATM   33  C   UNL     1      -7.678  13.476  67.407  1.00  0.00    -0.149 A  
BRANCH  30  34
HETATM   34  O   UNL     1     -10.597  15.562  66.827  1.00  0.00    -0.299 OA 
BRANCH  34  35
HETATM   35  C   UNL     1     -10.805  16.462  67.912  1.00  0.00    -0.328 C  
BRANCH  35  36
HETATM   36  C   UNL     1     -10.073  17.761  67.703  1.00  0.00    -0.342 A  
HETATM   37  C   UNL     1      -8.987  18.105  68.515  1.00  0.00    -0.309 A  
HETATM   38  C   UNL     1      -8.403  19.359  68.382  1.00  0.00    -0.350 A  
HETATM   39  C   UNL     1      -8.879  20.279  67.454  1.00  0.00    -0.442 A  
HETATM   40  F   UNL     1      -7.378  19.694  69.175  1.00  0.00    -0.372 F  
HETATM   41  C   UNL     1      -9.956  19.942  66.641  1.00  0.00    -0.578 A  
HETATM   42  C   UNL     1     -10.553  18.691  66.763  1.00  0.00    -0.422 A  
ENDBRANCH  35  36
ENDBRANCH  34  35
ENDBRANCH  30  34
ENDBRANCH  25  27
ENDBRANCH  24  25
ENDBRANCH  13  15
ENDBRANCH   9  10
ENDBRANCH   7   9
ENDBRANCH   6   7
ENDBRANCH   5   6
ENDBRANCH   2   5
TORSDOF 11
ENDMDL
MODEL      216
REMARK 921   NORMALIZED FREE ENERGY PREDICTED BY IDOCK:   -4.02 KCAL/MOL
REMARK 922        TOTAL FREE ENERGY PREDICTED BY IDOCK:   -9.35 KCAL/MOL
REMARK 923 INTER-LIGAND FREE ENERGY PREDICTED BY IDOCK:   -6.66 KCAL/MOL
REMARK 924 INTRA-LIGAND FREE ENERGY PREDICTED BY IDOCK:   -2.69 KCAL/MOL
REMARK 927      BINDING AFFINITY PREDICTED BY RF-SCORE:    0.00 PKD
ROOT
HETATM    1  C   UNL     1      -6.160  11.275  70.122  1.00  0.00    -0.149 C  
HETATM    2  S   UNL     1      -6.795  11.077  68.478  1.00  0.00    -0.068 S  
HETATM    3  O   UNL     1      -8.173  10.642  68.583  1.00  0.00    -0.119 OA 
HETATM    4  O   UNL     1      -5.822  10.319  67.718  1.00  0.00    -0.045 OA 
ENDROOT
BRANCH   2   5
HETATM    5  C   UNL     1      -6.785  12.750  67.875  1.00  0.00    -0.116 C  
BRANCH   5   6
HETATM    6  C   UNL     1      -7.837  13.599  68.574  1.00  0.00    -0.131 C  
BRANCH   6   7
HETATM    7  N   UNL     1      -9.210  13.262  68.185  1.00  0.00    -0.208 NA 
HETATM    8  H   UNL     1      -9.876  13.591  68.884  1.00  0.00     0.000 HD 
BRANCH   7   9
HETATM    9  C   UNL     1      -9.574  13.749  66.853  1.00  0.00    -0.262 C  
BRANCH   9  10
HETATM   10  C   UNL     1     -10.018  12.621  65.992  1.00  0.00    -0.258 A  
HETATM   11  C   UNL     1     -11.251  12.206  65.540  1.00  0.00    -0.381 A  
HETATM   12  C   UNL     1     -11.018  11.057  64.748  1.00  0.00    -0.142 A  
HETATM   13  C   UNL     1      -9.653  10.848  64.742  1.00  0.00    -0.252 A  
HETATM   14  O   UNL     1      -9.045  11.810  65.498  1.00  0.00    -0.124 OA 
BRANCH  13  15
HETATM   15  C   UNL     1      -8.768   9.866  64.130  1.00  0.00    -0.224 A  
HETATM   16  C   UNL     1      -8.890   8.499  64.418  1.00  0.00     0.163 A  
HETATM   17  C   UNL     1      -8.022   7.540  63.830  1.00  0.00    -0.089 A  
HETATM   18  C   UNL     1      -7.021   7.969  62.945  1.00  0.00    -0.086 A  
HETATM   19  C   UNL     1      -6.907   9.317  62.668  1.00  0.00    -0.091 A  
HETATM   20  N   UNL     1      -6.151   7.149  62.359  1.00  0.00    -0.048 NA 
HETATM   21  C   UNL     1      -6.254   5.861  62.671  1.00  0.00    -0.025 A  
HETATM   22  C   UNL     1      -7.762  10.258  63.245  1.00  0.00    -0.133 A  
HETATM   23  N   UNL     1      -7.150   5.334  63.502  1.00  0.00    -0.046 NA 
HETATM   24  C   UNL     1      -8.043   6.152  64.078  1.00  0.00    -0.074 A  
BRANCH  24  25
HETATM   25  N   UNL     1      -8.971   5.624  65.022  1.00  0.00    -0.355 NA 
HETATM   26  H   UNL     1      -9.902   5.416  64.660  1.00  0.00     0.000 HD 
BRANCH  25  27
HETATM   27  C   UNL     1      -8.770   5.350  66.395  1.00  0.00    -0.121 A  
HETATM   28  C   UNL     1      -7.907   6.089  67.203  1.00  0.00    -0.102 A  
HETATM   29  C   UNL     1      -7.790   5.871  68.578  1.00  0.00    -0.102 A  
HETATM   30  C   UNL     1      -8.584   4.900  69.198  1.00  0.00    -0.080 A  
HETATM   31 CL   UNL     1      -6.588   6.854  69.345  1.00  0.00    -0.047 Cl 
HETATM   32  C   UNL     1      -9.407   4.102  68.387  1.00  0.00    -0.213 A  
HETATM   33  C   UNL     1      -9.495   4.321  67.003  1.00  0.00    -0.205 A  
BRANCH  30  34
HETATM   34  O   UNL     1      -8.674   4.592  70.533  1.00  0.00    -0.089 OA 
BRANCH  34  35
HETATM   35  C   UNL     1      -9.990   4.398  71.043  1.00  0.00    -0.172 C  
BRANCH  35  36
HETATM   36  C   UNL     1     -10.525   5.649  71.689  1.00  0.00    -0.286 A  
HETATM   37  C   UNL     1     -11.501   6.419  71.050  1.00  0.00    -0.394 A  
HETATM   38  C   UNL     1     -11.892   7.630  71.609  1.00  0.00    -0.291 A  
HETATM   39  C   UNL     1     -11.329   8.089  72.795  1.00  0.00    -0.439 A  
HETATM   40  F   UNL     1     -12.811   8.376  70.984  1.00  0.00    -0.262 F  
HETATM   41  C   UNL     1     -10.361   7.326  73.438  1.00  0.00    -0.410 A  
HETATM   42  C   UNL     1      -9.957   6.112  72.890  1.00  0.00    -0.184 A  
ENDBRANCH  35  36
ENDBRANCH  34  35
ENDBRANCH  30  34
ENDBRANCH  25  27
ENDBRANCH  24  25
ENDBRANCH  13  15
ENDBRANCH   9  10
ENDBRANCH   7   9
ENDBRANCH   6   7
ENDBRANCH   5   6
ENDBRANCH   2   5
TORSDOF 11
ENDMDL
MODEL      217
REMARK 921   NORMALIZED FREE ENERGY PREDICTED BY IDOCK:   -4.02 KCAL/MOL
REMARK 922        TOTAL FREE ENERGY PREDICTED BY IDOCK:   -9.34 KCAL/MOL
REMARK 923 INTER-LIGAND FREE ENERGY PREDICTED BY IDOCK:   -8.42 KCAL/MOL
REMARK 924 INTRA-LIGAND FREE ENERGY PREDICTED BY IDOCK:   -0.93 KCAL/MOL
REMARK 927      BINDING AFFINITY PREDICTED BY RF-SCORE:    0.00 PKD
ROOT
HETATM    1  C   UNL     1      -5.929   8.517  71.642  1.00  0.00    -0.048 C  
HETATM    2  S   UNL     1      -6.723   6.995  72.086  1.00  0.00    -0.057 S  
HETATM    3  O   UNL     1      -7.976   7.320  72.736  1.00  0.00    -0.099 OA 
HETATM    4  O   UNL     1      -5.735   6.154  72.732  1.00  0.00    -0.035 OA 
ENDROOT
BRANCH   2   5
HETATM    5  C   UNL     1      -7.089   6.292  70.494  1.00  0.00    -0.069 C  
BRANCH   5   6
HETATM    6  C   UNL     1      -5.944   6.508  69.515  1.00  0.00    -0.022 C  
BRANCH   6   7
HETATM    7  N   UNL     1      -6.385   6.987  68.201  1.00  0.00    -0.038 NA 
HETATM    8  H   UNL     1      -7.404   7.003  68.145  1.00  0.00     0.000 HD 
BRANCH   7   9
HETATM    9  C   UNL     1      -5.825   8.290  67.838  1.00  0.00    -0.042 C  
BRANCH   9  10
HETATM   10  C   UNL     1      -6.183   8.636  66.438  1.00  0.00    -0.060 A  
HETATM   11  C   UNL     1      -5.630   8.322  65.216  1.00  0.00    -0.043 A  
HETATM   12  C   UNL     1      -6.433   8.958  64.241  1.00  0.00    -0.071 A  
HETATM   13  C   UNL     1      -7.446   9.607  64.919  1.00  0.00    -0.118 A  
HETATM   14  O   UNL     1      -7.293   9.402  66.262  1.00  0.00    -0.094 OA 
BRANCH  13  15
HETATM   15  C   UNL     1      -8.586  10.425  64.527  1.00  0.00    -0.187 A  
HETATM   16  C   UNL     1      -9.378  11.073  65.484  1.00  0.00    -0.242 A  
HETATM   17  C   UNL     1     -10.496  11.864  65.105  1.00  0.00    -0.330 A  
HETATM   18  C   UNL     1     -10.814  11.997  63.745  1.00  0.00    -0.420 A  
HETATM   19  C   UNL     1     -10.029  11.355  62.808  1.00  0.00    -0.164 A  
HETATM   20  N   UNL     1     -11.851  12.702  63.293  1.00  0.00    -0.489 NA 
HETATM   21  C   UNL     1     -12.616  13.279  64.215  1.00  0.00    -0.182 A  
HETATM   22  C   UNL     1      -8.930  10.579  63.183  1.00  0.00    -0.240 A  
HETATM   23  N   UNL     1     -12.425  13.218  65.530  1.00  0.00    -0.476 NA 
HETATM   24  C   UNL     1     -11.370  12.528  65.990  1.00  0.00    -0.344 A  
BRANCH  24  25
HETATM   25  N   UNL     1     -11.180  12.391  67.395  1.00  0.00    -0.278 NA 
HETATM   26  H   UNL     1     -11.081  13.262  67.916  1.00  0.00     0.000 HD 
BRANCH  25  27
HETATM   27  C   UNL     1     -11.112  11.205  68.163  1.00  0.00    -0.264 A  
HETATM   28  C   UNL     1     -10.664   9.989  67.650  1.00  0.00    -0.340 A  
HETATM   29  C   UNL     1     -10.508   8.849  68.442  1.00  0.00    -0.187 A  
HETATM   30  C   UNL     1     -10.775   8.913  69.815  1.00  0.00    -0.225 A  
HETATM   31 CL   UNL     1     -10.025   7.439  67.558  1.00  0.00    -0.204 Cl 
HETATM   32  C   UNL     1     -11.292  10.111  70.331  1.00  0.00    -0.401 A  
HETATM   33  C   UNL     1     -11.463  11.241  69.516  1.00  0.00    -0.376 A  
BRANCH  30  34
HETATM   34  O   UNL     1     -10.610   7.937  70.766  1.00  0.00    -0.209 OA 
BRANCH  34  35
HETATM   35  C   UNL     1     -11.347   6.735  70.561  1.00  0.00    -0.343 C  
BRANCH  35  36
HETATM   36  C   UNL     1     -10.890   5.639  71.488  1.00  0.00    -0.297 A  
HETATM   37  C   UNL     1     -10.206   4.526  70.993  1.00  0.00    -0.167 A  
HETATM   38  C   UNL     1      -9.899   3.473  71.848  1.00  0.00    -0.167 A  
HETATM   39  C   UNL     1     -10.261   3.509  73.190  1.00  0.00    -0.230 A  
HETATM   40  F   UNL     1      -9.263   2.399  71.366  1.00  0.00    -0.127 F  
HETATM   41  C   UNL     1     -10.938   4.615  73.691  1.00  0.00    -0.392 A  
HETATM   42  C   UNL     1     -11.254   5.677  72.847  1.00  0.00    -0.338 A  
ENDBRANCH  35  36
ENDBRANCH  34  35
ENDBRANCH  30  34
ENDBRANCH  25  27
ENDBRANCH  24  25
ENDBRANCH  13  15
ENDBRANCH   9  10
ENDBRANCH   7   9
ENDBRANCH   6   7
ENDBRANCH   5   6
ENDBRANCH   2   5
TORSDOF 11
ENDMDL
MODEL      218
REMARK 921   NORMALIZED FREE ENERGY PREDICTED BY IDOCK:   -3.94 KCAL/MOL
REMARK 922        TOTAL FREE ENERGY PREDICTED BY IDOCK:   -9.21 KCAL/MOL
REMARK 923 INTER-LIGAND FREE ENERGY PREDICTED BY IDOCK:   -6.58 KCAL/MOL
REMARK 924 INTRA-LIGAND FREE ENERGY PREDICTED BY IDOCK:   -2.63 KCAL/MOL
REMARK 927      BINDING AFFINITY PREDICTED BY RF-SCORE:    0.00 PKD
ROOT
HETATM    1  C   UNL     1      -8.925   8.099  73.502  1.00  0.00    -0.225 C  
HETATM    2  S   UNL     1      -9.301   8.196  71.771  1.00  0.00    -0.202 S  
HETATM    3  O   UNL     1      -8.050   8.315  71.050  1.00  0.00    -0.095 OA 
HETATM    4  O   UNL     1     -10.363   9.167  71.604  1.00  0.00    -0.334 OA 
ENDROOT
BRANCH   2   5
HETATM    5  C   UNL     1      -9.975   6.581  71.450  1.00  0.00    -0.183 C  
BRANCH   5   6
HETATM    6  C   UNL     1      -9.175   5.495  72.155  1.00  0.00    -0.143 C  
BRANCH   6   7
HETATM    7  N   UNL     1      -7.814   5.342  71.631  1.00  0.00    -0.109 NA 
HETATM    8  H   UNL     1      -7.178   6.003  72.078  1.00  0.00     0.000 HD 
BRANCH   7   9
HETATM    9  C   UNL     1      -7.300   3.976  71.735  1.00  0.00    -0.059 C  
BRANCH   9  10
HETATM   10  C   UNL     1      -7.747   3.163  70.574  1.00  0.00    -0.043 A  
HETATM   11  C   UNL     1      -8.165   1.858  70.439  1.00  0.00    -0.059 A  
HETATM   12  C   UNL     1      -8.459   1.675  69.067  1.00  0.00    -0.081 A  
HETATM   13  C   UNL     1      -8.226   2.884  68.444  1.00  0.00    -0.064 A  
HETATM   14  O   UNL     1      -7.797   3.794  69.370  1.00  0.00    -0.052 OA 
BRANCH  13  15
HETATM   15  C   UNL     1      -8.333   3.373  67.076  1.00  0.00    -0.096 A  
HETATM   16  C   UNL     1      -8.005   4.696  66.750  1.00  0.00    -0.103 A  
HETATM   17  C   UNL     1      -8.118   5.178  65.418  1.00  0.00    -0.118 A  
HETATM   18  C   UNL     1      -8.568   4.312  64.409  1.00  0.00    -0.120 A  
HETATM   19  C   UNL     1      -8.889   3.011  64.739  1.00  0.00    -0.113 A  
HETATM   20  N   UNL     1      -8.722   4.675  63.136  1.00  0.00    -0.119 NA 
HETATM   21  C   UNL     1      -8.445   5.944  62.849  1.00  0.00     0.040 A  
HETATM   22  C   UNL     1      -8.776   2.539  66.048  1.00  0.00    -0.128 A  
HETATM   23  N   UNL     1      -8.023   6.861  63.716  1.00  0.00    -0.101 NA 
HETATM   24  C   UNL     1      -7.844   6.495  64.994  1.00  0.00    -0.113 A  
BRANCH  24  25
HETATM   25  N   UNL     1      -7.457   7.472  65.956  1.00  0.00    -0.081 NA 
HETATM   26  H   UNL     1      -6.453   7.581  66.098  1.00  0.00     0.000 HD 
BRANCH  25  27
HETATM   27  C   UNL     1      -8.283   8.312  66.740  1.00  0.00    -0.103 A  
HETATM   28  C   UNL     1      -7.783   9.304  67.581  1.00  0.00    -0.092 A  
HETATM   29  C   UNL     1      -8.610  10.191  68.275  1.00  0.00    -0.116 A  
HETATM   30  C   UNL     1      -9.998  10.121  68.110  1.00  0.00    -0.147 A  
HETATM   31 CL   UNL     1      -7.757  11.273  69.325  1.00  0.00    -0.048 Cl 
HETATM   32  C   UNL     1     -10.518   9.083  67.320  1.00  0.00    -0.343 A  
HETATM   33  C   UNL     1      -9.672   8.188  66.648  1.00  0.00    -0.318 A  
BRANCH  30  34
HETATM   34  O   UNL     1     -10.966  10.942  68.635  1.00  0.00    -0.193 OA 
BRANCH  34  35
HETATM   35  C   UNL     1     -11.396  12.014  67.801  1.00  0.00    -0.303 C  
BRANCH  35  36
HETATM   36  C   UNL     1     -11.172  13.351  68.457  1.00  0.00    -0.316 A  
HETATM   37  C   UNL     1     -12.173  13.939  69.235  1.00  0.00    -0.319 A  
HETATM   38  C   UNL     1     -11.989  15.225  69.731  1.00  0.00    -0.347 A  
HETATM   39  C   UNL     1     -10.824  15.937  69.466  1.00  0.00    -0.305 A  
HETATM   40  F   UNL     1     -12.958  15.794  70.458  1.00  0.00    -0.483 F  
HETATM   41  C   UNL     1      -9.822  15.357  68.696  1.00  0.00    -0.208 A  
HETATM   42  C   UNL     1      -9.993  14.070  68.190  1.00  0.00    -0.242 A  
ENDBRANCH  35  36
ENDBRANCH  34  35
ENDBRANCH  30  34
ENDBRANCH  25  27
ENDBRANCH  24  25
ENDBRANCH  13  15
ENDBRANCH   9  10
ENDBRANCH   7   9
ENDBRANCH   6   7
ENDBRANCH   5   6
ENDBRANCH   2   5
TORSDOF 11
ENDMDL
MODEL      219
REMARK 921   NORMALIZED FREE ENERGY PREDICTED BY IDOCK:   -3.93 KCAL/MOL
REMARK 922        TOTAL FREE ENERGY PREDICTED BY IDOCK:   -9.20 KCAL/MOL
REMARK 923 INTER-LIGAND FREE ENERGY PREDICTED BY IDOCK:   -7.69 KCAL/MOL
REMARK 924 INTRA-LIGAND FREE ENERGY PREDICTED BY IDOCK:   -1.51 KCAL/MOL
REMARK 927      BINDING AFFINITY PREDICTED BY RF-SCORE:    0.00 PKD
ROOT
HETATM    1  C   UNL     1      -6.805  10.795  69.365  1.00  0.00    -0.109 C  
HETATM    2  S   UNL     1      -6.689   9.156  68.696  1.00  0.00    -0.058 S  
HETATM    3  O   UNL     1      -7.346   8.252  69.619  1.00  0.00    -0.069 OA 
HETATM    4  O   UNL     1      -5.317   8.945  68.281  1.00  0.00    -0.034 OA 
ENDROOT
BRANCH   2   5
HETATM    5  C   UNL     1      -7.694   9.283  67.234  1.00  0.00    -0.095 C  
BRANCH   5   6
HETATM    6  C   UNL     1      -7.614   8.018  66.392  1.00  0.00    -0.091 C  
BRANCH   6   7
HETATM    7  N   UNL     1      -8.447   6.925  66.905  1.00  0.00    -0.114 NA 
HETATM    8  H   UNL     1      -8.211   6.715  67.876  1.00  0.00     0.000 HD 
BRANCH   7   9
HETATM    9  C   UNL     1      -9.882   7.169  66.761  1.00  0.00    -0.205 C  
BRANCH   9  10
HETATM   10  C   UNL     1     -10.561   7.062  68.079  1.00  0.00    -0.207 A  
HETATM   11  C   UNL     1     -10.825   6.005  68.923  1.00  0.00    -0.400 A  
HETATM   12  C   UNL     1     -11.508   6.548  70.037  1.00  0.00    -0.476 A  
HETATM   13  C   UNL     1     -11.603   7.908  69.823  1.00  0.00     0.357 A  
HETATM   14  O   UNL     1     -11.017   8.220  68.628  1.00  0.00     0.014 OA 
BRANCH  13  15
HETATM   15  C   UNL     1     -12.169   9.027  70.564  1.00  0.00     0.098 A  
HETATM   16  C   UNL     1     -12.036  10.345  70.103  1.00  0.00    -0.357 A  
HETATM   17  C   UNL     1     -12.579  11.440  70.828  1.00  0.00    -0.409 A  
HETATM   18  C   UNL     1     -13.261  11.197  72.031  1.00  0.00    -0.323 A  
HETATM   19  C   UNL     1     -13.387   9.897  72.477  1.00  0.00    -0.172 A  
HETATM   20  N   UNL     1     -13.789  12.157  72.788  1.00  0.00     0.282 NA 
HETATM   21  C   UNL     1     -13.621  13.405  72.359  1.00  0.00    -0.606 A  
HETATM   22  C   UNL     1     -12.854   8.823  71.763  1.00  0.00    -0.406 A  
HETATM   23  N   UNL     1     -12.986  13.762  71.246  1.00  0.00    -0.343 NA 
HETATM   24  C   UNL     1     -12.472  12.798  70.467  1.00  0.00    -0.202 A  
BRANCH  24  25
HETATM   25  N   UNL     1     -11.730  13.157  69.305  1.00  0.00    -0.305 NA 
HETATM   26  H   UNL     1     -12.014  12.698  68.439  1.00  0.00     0.000 HD 
BRANCH  25  27
HETATM   27  C   UNL     1     -10.652  14.066  69.194  1.00  0.00    -0.128 A  
HETATM   28  C   UNL     1      -9.420  13.725  68.638  1.00  0.00    -0.099 A  
HETATM   29  C   UNL     1      -8.397  14.657  68.444  1.00  0.00    -0.157 A  
HETATM   30  C   UNL     1      -8.605  15.998  68.785  1.00  0.00    -0.223 A  
HETATM   31 CL   UNL     1      -6.932  13.973  67.821  1.00  0.00    -0.170 Cl 
HETATM   32  C   UNL     1      -9.814  16.342  69.408  1.00  0.00    -0.186 A  
HETATM   33  C   UNL     1     -10.823  15.388  69.615  1.00  0.00    -0.288 A  
BRANCH  30  34
HETATM   34  O   UNL     1      -7.764  17.068  68.602  1.00  0.00    -0.229 OA 
BRANCH  34  35
HETATM   35  C   UNL     1      -6.919  17.010  67.456  1.00  0.00    -0.146 C  
BRANCH  35  36
HETATM   36  C   UNL     1      -6.852  18.338  66.748  1.00  0.00    -0.220 A  
HETATM   37  C   UNL     1      -6.561  18.404  65.383  1.00  0.00    -0.220 A  
HETATM   38  C   UNL     1      -6.388  19.643  64.778  1.00  0.00    -0.243 A  
HETATM   39  C   UNL     1      -6.499  20.821  65.509  1.00  0.00    -0.232 A  
HETATM   40  F   UNL     1      -6.089  19.703  63.475  1.00  0.00    -0.311 F  
HETATM   41  C   UNL     1      -6.792  20.764  66.867  1.00  0.00    -0.368 A  
HETATM   42  C   UNL     1      -6.967  19.530  67.488  1.00  0.00    -0.242 A  
ENDBRANCH  35  36
ENDBRANCH  34  35
ENDBRANCH  30  34
ENDBRANCH  25  27
ENDBRANCH  24  25
ENDBRANCH  13  15
ENDBRANCH   9  10
ENDBRANCH   7   9
ENDBRANCH   6   7
ENDBRANCH   5   6
ENDBRANCH   2   5
TORSDOF 11
ENDMDL
MODEL      220
REMARK 921   NORMALIZED FREE ENERGY PREDICTED BY IDOCK:   -3.92 KCAL/MOL
REMARK 922        TOTAL FREE ENERGY PREDICTED BY IDOCK:   -9.19 KCAL/MOL
REMARK 923 INTER-LIGAND FREE ENERGY PREDICTED BY IDOCK:   -6.46 KCAL/MOL
REMARK 924 INTRA-LIGAND FREE ENERGY PREDICTED BY IDOCK:   -2.73 KCAL/MOL
REMARK 927      BINDING AFFINITY PREDICTED BY RF-SCORE:    0.00 PKD
ROOT
HETATM    1  C   UNL     1      -5.440   9.929  71.151  1.00  0.00    -0.073 C  
HETATM    2  S   UNL     1      -6.697   9.739  69.913  1.00  0.00    -0.093 S  
HETATM    3  O   UNL     1      -7.980   9.975  70.542  1.00  0.00    -0.224 OA 
HETATM    4  O   UNL     1      -6.424   8.512  69.193  1.00  0.00    -0.042 OA 
ENDROOT
BRANCH   2   5
HETATM    5  C   UNL     1      -6.352  11.105  68.826  1.00  0.00    -0.046 C  
BRANCH   5   6
HETATM    6  C   UNL     1      -7.333  12.248  69.043  1.00  0.00     0.017 C  
BRANCH   6   7
HETATM    7  N   UNL     1      -8.663  11.988  68.482  1.00  0.00    -0.311 NA 
HETATM    8  H   UNL     1      -9.263  12.808  68.579  1.00  0.00     0.000 HD 
BRANCH   7   9
HETATM    9  C   UNL     1      -8.629  11.532  67.092  1.00  0.00    -0.155 C  
BRANCH   9  10
HETATM   10  C   UNL     1      -9.314  10.220  66.960  1.00  0.00    -0.154 A  
HETATM   11  C   UNL     1     -10.582   9.780  67.272  1.00  0.00    -0.320 A  
HETATM   12  C   UNL     1     -10.630   8.414  66.906  1.00  0.00    -0.285 A  
HETATM   13  C   UNL     1      -9.397   8.101  66.370  1.00  0.00    -0.210 A  
HETATM   14  O   UNL     1      -8.598   9.209  66.398  1.00  0.00    -0.120 OA 
BRANCH  13  15
HETATM   15  C   UNL     1      -8.796   6.899  65.808  1.00  0.00    -0.088 A  
HETATM   16  C   UNL     1      -9.119   5.627  66.302  1.00  0.00    -0.153 A  
HETATM   17  C   UNL     1      -8.528   4.453  65.763  1.00  0.00    -0.114 A  
HETATM   18  C   UNL     1      -7.600   4.569  64.716  1.00  0.00    -0.073 A  
HETATM   19  C   UNL     1      -7.287   5.825  64.236  1.00  0.00    -0.066 A  
HETATM   20  N   UNL     1      -6.981   3.530  64.158  1.00  0.00    -0.048 NA 
HETATM   21  C   UNL     1      -7.268   2.333  64.662  1.00  0.00    -0.054 A  
HETATM   22  C   UNL     1      -7.870   6.977  64.767  1.00  0.00    -0.126 A  
HETATM   23  N   UNL     1      -8.119   2.096  65.658  1.00  0.00    -0.082 NA 
HETATM   24  C   UNL     1      -8.762   3.136  66.209  1.00  0.00    -0.131 A  
BRANCH  24  25
HETATM   25  N   UNL     1      -9.627   2.917  67.319  1.00  0.00    -0.391 NA 
HETATM   26  H   UNL     1     -10.574   2.616  67.091  1.00  0.00     0.000 HD 
BRANCH  25  27
HETATM   27  C   UNL     1      -9.344   3.062  68.698  1.00  0.00    -0.173 A  
HETATM   28  C   UNL     1      -8.694   4.174  69.231  1.00  0.00    -0.124 A  
HETATM   29  C   UNL     1      -8.508   4.352  70.604  1.00  0.00    -0.082 A  
HETATM   30  C   UNL     1      -9.013   3.406  71.503  1.00  0.00    -0.100 A  
HETATM   31 CL   UNL     1      -7.593   5.766  71.012  1.00  0.00    -0.093 Cl 
HETATM   32  C   UNL     1      -9.609   2.248  70.978  1.00  0.00    -0.201 A  
HETATM   33  C   UNL     1      -9.768   2.076  69.594  1.00  0.00     0.066 A  
BRANCH  30  34
HETATM   34  O   UNL     1      -9.003   3.437  72.875  1.00  0.00    -0.087 OA 
BRANCH  34  35
HETATM   35  C   UNL     1     -10.206   3.876  73.499  1.00  0.00    -0.143 C  
BRANCH  35  36
HETATM   36  C   UNL     1     -10.450   5.343  73.265  1.00  0.00    -0.260 A  
HETATM   37  C   UNL     1     -11.472   5.768  72.411  1.00  0.00    -0.343 A  
HETATM   38  C   UNL     1     -11.602   7.121  72.118  1.00  0.00    -0.279 A  
HETATM   39  C   UNL     1     -10.731   8.061  72.660  1.00  0.00    -0.426 A  
HETATM   40  F   UNL     1     -12.569   7.523  71.284  1.00  0.00    -0.331 F  
HETATM   41  C   UNL     1      -9.715   7.646  73.512  1.00  0.00    -0.358 A  
HETATM   42  C   UNL     1      -9.570   6.294  73.814  1.00  0.00    -0.177 A  
ENDBRANCH  35  36
ENDBRANCH  34  35
ENDBRANCH  30  34
ENDBRANCH  25  27
ENDBRANCH  24  25
ENDBRANCH  13  15
ENDBRANCH   9  10
ENDBRANCH   7   9
ENDBRANCH   6   7
ENDBRANCH   5   6
ENDBRANCH   2   5
TORSDOF 11
ENDMDL
MODEL      221
REMARK 921   NORMALIZED FREE ENERGY PREDICTED BY IDOCK:   -3.91 KCAL/MOL
REMARK 922        TOTAL FREE ENERGY PREDICTED BY IDOCK:   -9.17 KCAL/MOL
REMARK 923 INTER-LIGAND FREE ENERGY PREDICTED BY IDOCK:   -7.05 KCAL/MOL
REMARK 924 INTRA-LIGAND FREE ENERGY PREDICTED BY IDOCK:   -2.12 KCAL/MOL
REMARK 927      BINDING AFFINITY PREDICTED BY RF-SCORE:    0.00 PKD
ROOT
HETATM    1  C   UNL     1     -11.796   5.976  72.190  1.00  0.00    -0.247 C  
HETATM    2  S   UNL     1     -10.990   7.230  71.228  1.00  0.00    -0.247 S  
HETATM    3  O   UNL     1     -11.959   7.763  70.292  1.00  0.00     0.013 OA 
HETATM    4  O   UNL     1      -9.722   6.693  70.777  1.00  0.00    -0.178 OA 
ENDROOT
BRANCH   2   5
HETATM    5  C   UNL     1     -10.657   8.477  72.453  1.00  0.00    -0.298 C  
BRANCH   5   6
HETATM    6  C   UNL     1      -9.170   8.568  72.762  1.00  0.00    -0.160 C  
BRANCH   6   7
HETATM    7  N   UNL     1      -8.641   7.377  73.434  1.00  0.00    -0.138 NA 
HETATM    8  H   UNL     1      -8.814   6.540  72.876  1.00  0.00     0.000 HD 
BRANCH   7   9
HETATM    9  C   UNL     1      -7.223   7.485  73.781  1.00  0.00    -0.096 C  
BRANCH   9  10
HETATM   10  C   UNL     1      -6.496   8.273  72.752  1.00  0.00    -0.087 A  
HETATM   11  C   UNL     1      -5.616   9.330  72.818  1.00  0.00    -0.017 A  
HETATM   12  C   UNL     1      -5.267   9.641  71.483  1.00  0.00    -0.069 A  
HETATM   13  C   UNL     1      -5.934   8.741  70.676  1.00  0.00    -0.033 A  
HETATM   14  O   UNL     1      -6.679   7.902  71.456  1.00  0.00    -0.044 OA 
BRANCH  13  15
HETATM   15  C   UNL     1      -6.010   8.509  69.240  1.00  0.00    -0.041 A  
HETATM   16  C   UNL     1      -6.040   9.576  68.332  1.00  0.00    -0.044 A  
HETATM   17  C   UNL     1      -6.123   9.353  66.931  1.00  0.00    -0.064 A  
HETATM   18  C   UNL     1      -6.177   8.037  66.447  1.00  0.00    -0.046 A  
HETATM   19  C   UNL     1      -6.147   6.991  67.348  1.00  0.00    -0.040 A  
HETATM   20  N   UNL     1      -6.272   7.727  65.155  1.00  0.00    -0.038 NA 
HETATM   21  C   UNL     1      -6.340   8.751  64.308  1.00  0.00    -0.071 A  
HETATM   22  C   UNL     1      -6.064   7.213  68.724  1.00  0.00    -0.030 A  
HETATM   23  N   UNL     1      -6.310  10.038  64.644  1.00  0.00    -0.118 NA 
HETATM   24  C   UNL     1      -6.191  10.355  65.942  1.00  0.00    -0.118 A  
BRANCH  24  25
HETATM   25  N   UNL     1      -6.224  11.725  66.335  1.00  0.00    -0.455 NA 
HETATM   26  H   UNL     1      -5.447  12.299  66.006  1.00  0.00     0.000 HD 
BRANCH  25  27
HETATM   27  C   UNL     1      -7.192  12.393  67.121  1.00  0.00    -0.080 A  
HETATM   28  C   UNL     1      -6.864  13.289  68.137  1.00  0.00    -0.114 A  
HETATM   29  C   UNL     1      -7.828  14.016  68.840  1.00  0.00    -0.045 A  
HETATM   30  C   UNL     1      -9.181  13.880  68.509  1.00  0.00    -0.154 A  
HETATM   31 CL   UNL     1      -7.178  14.996  70.113  1.00  0.00    -0.023 Cl 
HETATM   32  C   UNL     1      -9.530  12.930  67.536  1.00  0.00    -0.198 A  
HETATM   33  C   UNL     1      -8.549  12.193  66.855  1.00  0.00    -0.191 A  
BRANCH  30  34
HETATM   34  O   UNL     1     -10.260  14.556  69.022  1.00  0.00    -0.234 OA 
BRANCH  34  35
HETATM   35  C   UNL     1     -11.537  13.975  68.772  1.00  0.00    -0.331 C  
BRANCH  35  36
HETATM   36  C   UNL     1     -12.197  13.517  70.046  1.00  0.00    -0.381 A  
HETATM   37  C   UNL     1     -12.153  12.173  70.429  1.00  0.00    -0.395 A  
HETATM   38  C   UNL     1     -12.869  11.755  71.544  1.00  0.00    -0.345 A  
HETATM   39  C   UNL     1     -13.629  12.651  72.289  1.00  0.00    -0.508 A  
HETATM   40  F   UNL     1     -12.842  10.463  71.895  1.00  0.00    -0.463 F  
HETATM   41  C   UNL     1     -13.674  13.990  71.917  1.00  0.00    -0.532 A  
HETATM   42  C   UNL     1     -12.964  14.424  70.801  1.00  0.00    -0.388 A  
ENDBRANCH  35  36
ENDBRANCH  34  35
ENDBRANCH  30  34
ENDBRANCH  25  27
ENDBRANCH  24  25
ENDBRANCH  13  15
ENDBRANCH   9  10
ENDBRANCH   7   9
ENDBRANCH   6   7
ENDBRANCH   5   6
ENDBRANCH   2   5
TORSDOF 11
ENDMDL
MODEL      222
REMARK 921   NORMALIZED FREE ENERGY PREDICTED BY IDOCK:   -3.86 KCAL/MOL
REMARK 922        TOTAL FREE ENERGY PREDICTED BY IDOCK:   -9.09 KCAL/MOL
REMARK 923 INTER-LIGAND FREE ENERGY PREDICTED BY IDOCK:   -7.41 KCAL/MOL
REMARK 924 INTRA-LIGAND FREE ENERGY PREDICTED BY IDOCK:   -1.68 KCAL/MOL
REMARK 927      BINDING AFFINITY PREDICTED BY RF-SCORE:    0.00 PKD
ROOT
HETATM    1  C   UNL     1      -8.410  19.602  68.802  1.00  0.00    -0.245 C  
HETATM    2  S   UNL     1      -9.516  19.737  67.421  1.00  0.00    -0.364 S  
HETATM    3  O   UNL     1      -8.714  19.832  66.218  1.00  0.00    -0.353 OA 
HETATM    4  O   UNL     1     -10.508  20.740  67.747  1.00  0.00    -0.011 OA 
ENDROOT
BRANCH   2   5
HETATM    5  C   UNL     1     -10.314  18.147  67.432  1.00  0.00    -0.389 C  
BRANCH   5   6
HETATM    6  C   UNL     1      -9.305  17.018  67.281  1.00  0.00    -0.237 C  
BRANCH   6   7
HETATM    7  N   UNL     1      -9.154  16.554  65.897  1.00  0.00    -0.496 NA 
HETATM    8  H   UNL     1      -8.384  15.889  65.821  1.00  0.00     0.000 HD 
BRANCH   7   9
HETATM    9  C   UNL     1     -10.382  15.993  65.333  1.00  0.00    -0.359 C  
BRANCH   9  10
HETATM   10  C   UNL     1     -10.218  14.538  65.078  1.00  0.00    -0.365 A  
HETATM   11  C   UNL     1     -10.670  13.696  64.086  1.00  0.00    -0.141 A  
HETATM   12  C   UNL     1     -10.174  12.409  64.402  1.00  0.00    -0.342 A  
HETATM   13  C   UNL     1      -9.427  12.541  65.555  1.00  0.00     0.056 A  
HETATM   14  O   UNL     1      -9.451  13.845  65.962  1.00  0.00    -0.228 OA 
BRANCH  13  15
HETATM   15  C   UNL     1      -8.658  11.629  66.391  1.00  0.00    -0.143 A  
HETATM   16  C   UNL     1      -9.292  10.726  67.255  1.00  0.00    -0.165 A  
HETATM   17  C   UNL     1      -8.544   9.841  68.078  1.00  0.00    -0.122 A  
HETATM   18  C   UNL     1      -7.142   9.873  68.026  1.00  0.00    -0.082 A  
HETATM   19  C   UNL     1      -6.525  10.766  67.172  1.00  0.00    -0.074 A  
HETATM   20  N   UNL     1      -6.356   9.096  68.770  1.00  0.00    -0.048 NA 
HETATM   21  C   UNL     1      -6.971   8.272  69.613  1.00  0.00    -0.045 A  
HETATM   22  C   UNL     1      -7.262  11.633  66.363  1.00  0.00     0.132 A  
HETATM   23  N   UNL     1      -8.288   8.158  69.763  1.00  0.00    -0.122 NA 
HETATM   24  C   UNL     1      -9.085   8.922  69.000  1.00  0.00    -0.137 A  
BRANCH  24  25
HETATM   25  N   UNL     1     -10.497   8.867  69.187  1.00  0.00    -0.227 NA 
HETATM   26  H   UNL     1     -10.989   8.160  68.642  1.00  0.00     0.000 HD 
BRANCH  25  27
HETATM   27  C   UNL     1     -11.305   9.665  70.031  1.00  0.00    -0.195 A  
HETATM   28  C   UNL     1     -12.164   9.132  70.991  1.00  0.00    -0.302 A  
HETATM   29  C   UNL     1     -12.883   9.931  71.884  1.00  0.00    -0.429 A  
HETATM   30  C   UNL     1     -12.727  11.322  71.855  1.00  0.00    -0.173 A  
HETATM   31 CL   UNL     1     -13.950   9.042  72.920  1.00  0.00    -0.261 Cl 
HETATM   32  C   UNL     1     -11.918  11.875  70.850  1.00  0.00    -0.070 A  
HETATM   33  C   UNL     1     -11.220  11.058  69.946  1.00  0.00    -0.327 A  
BRANCH  30  34
HETATM   34  O   UNL     1     -13.277  12.263  72.690  1.00  0.00    -0.195 OA 
BRANCH  34  35
HETATM   35  C   UNL     1     -14.063  13.272  72.062  1.00  0.00    -0.147 C  
BRANCH  35  36
HETATM   36  C   UNL     1     -13.403  14.623  72.147  1.00  0.00    -0.469 A  
HETATM   37  C   UNL     1     -12.946  15.266  70.993  1.00  0.00    -0.526 A  
HETATM   38  C   UNL     1     -12.235  16.455  71.108  1.00  0.00     0.325 A  
HETATM   39  C   UNL     1     -11.970  17.017  72.352  1.00  0.00     0.661 A  
HETATM   40  F   UNL     1     -11.780  17.058  70.002  1.00  0.00     0.346 F  
HETATM   41  C   UNL     1     -12.425  16.384  73.504  1.00  0.00    -0.558 A  
HETATM   42  C   UNL     1     -13.137  15.192  73.406  1.00  0.00    -0.588 A  
ENDBRANCH  35  36
ENDBRANCH  34  35
ENDBRANCH  30  34
ENDBRANCH  25  27
ENDBRANCH  24  25
ENDBRANCH  13  15
ENDBRANCH   9  10
ENDBRANCH   7   9
ENDBRANCH   6   7
ENDBRANCH   5   6
ENDBRANCH   2   5
TORSDOF 11
ENDMDL
MODEL      223
REMARK 921   NORMALIZED FREE ENERGY PREDICTED BY IDOCK:   -3.84 KCAL/MOL
REMARK 922        TOTAL FREE ENERGY PREDICTED BY IDOCK:   -9.05 KCAL/MOL
REMARK 923 INTER-LIGAND FREE ENERGY PREDICTED BY IDOCK:   -9.38 KCAL/MOL
REMARK 924 INTRA-LIGAND FREE ENERGY PREDICTED BY IDOCK:    0.33 KCAL/MOL
REMARK 927      BINDING AFFINITY PREDICTED BY RF-SCORE:    0.00 PKD
ROOT
HETATM    1  C   UNL     1     -12.152  15.311  66.258  1.00  0.00     0.445 C  
HETATM    2  S   UNL     1     -10.846  16.211  65.463  1.00  0.00    -0.215 S  
HETATM    3  O   UNL     1     -10.410  17.255  66.368  1.00  0.00    -0.331 OA 
HETATM    4  O   UNL     1     -11.278  16.514  64.114  1.00  0.00    -1.004 OA 
ENDROOT
BRANCH   2   5
HETATM    5  C   UNL     1      -9.560  14.985  65.368  1.00  0.00    -0.077 C  
BRANCH   5   6
HETATM    6  C   UNL     1      -9.635  14.010  66.533  1.00  0.00    -0.293 C  
BRANCH   6   7
HETATM    7  N   UNL     1      -8.412  13.973  67.341  1.00  0.00    -0.189 NA 
HETATM    8  H   UNL     1      -8.584  14.348  68.275  1.00  0.00     0.000 HD 
BRANCH   7   9
HETATM    9  C   UNL     1      -7.805  12.643  67.420  1.00  0.00    -0.175 C  
BRANCH   9  10
HETATM   10  C   UNL     1      -8.858  11.594  67.445  1.00  0.00    -0.160 A  
HETATM   11  C   UNL     1     -10.219  11.626  67.654  1.00  0.00    -0.206 A  
HETATM   12  C   UNL     1     -10.668  10.288  67.550  1.00  0.00    -0.348 A  
HETATM   13  C   UNL     1      -9.560   9.517  67.259  1.00  0.00    -0.150 A  
HETATM   14  O   UNL     1      -8.457  10.320  67.189  1.00  0.00    -0.125 OA 
BRANCH  13  15
HETATM   15  C   UNL     1      -9.329   8.098  67.025  1.00  0.00    -0.197 A  
HETATM   16  C   UNL     1      -9.727   7.133  67.960  1.00  0.00    -0.152 A  
HETATM   17  C   UNL     1      -9.495   5.748  67.738  1.00  0.00    -0.116 A  
HETATM   18  C   UNL     1      -8.853   5.339  66.559  1.00  0.00    -0.116 A  
HETATM   19  C   UNL     1      -8.464   6.296  65.643  1.00  0.00    -0.148 A  
HETATM   20  N   UNL     1      -8.576   4.069  66.270  1.00  0.00    -0.109 NA 
HETATM   21  C   UNL     1      -8.924   3.168  67.184  1.00  0.00    -0.159 A  
HETATM   22  C   UNL     1      -8.694   7.656  65.863  1.00  0.00    -0.176 A  
HETATM   23  N   UNL     1      -9.526   3.431  68.342  1.00  0.00    -0.170 NA 
HETATM   24  C   UNL     1      -9.826   4.707  68.628  1.00  0.00    -0.120 A  
BRANCH  24  25
HETATM   25  N   UNL     1     -10.410   5.023  69.889  1.00  0.00    -0.273 NA 
HETATM   26  H   UNL     1     -10.683   4.226  70.464  1.00  0.00     0.000 HD 
BRANCH  25  27
HETATM   27  C   UNL     1     -10.661   6.298  70.448  1.00  0.00    -0.271 A  
HETATM   28  C   UNL     1      -9.655   7.225  70.717  1.00  0.00    -0.171 A  
HETATM   29  C   UNL     1      -9.924   8.517  71.177  1.00  0.00    -0.207 A  
HETATM   30  C   UNL     1     -11.250   8.931  71.352  1.00  0.00    -0.312 A  
HETATM   31 CL   UNL     1      -8.506   9.449  71.523  1.00  0.00     0.231 Cl 
HETATM   32  C   UNL     1     -12.269   7.987  71.151  1.00  0.00    -0.262 A  
HETATM   33  C   UNL     1     -11.978   6.686  70.710  1.00  0.00    -0.412 A  
BRANCH  30  34
HETATM   34  O   UNL     1     -11.719  10.169  71.716  1.00  0.00    -0.226 OA 
BRANCH  34  35
HETATM   35  C   UNL     1     -12.379  10.912  70.695  1.00  0.00    -0.376 C  
BRANCH  35  36
HETATM   36  C   UNL     1     -12.535  12.360  71.076  1.00  0.00    -0.353 A  
HETATM   37  C   UNL     1     -11.808  13.354  70.414  1.00  0.00    -0.283 A  
HETATM   38  C   UNL     1     -11.879  14.668  70.861  1.00  0.00    -0.313 A  
HETATM   39  C   UNL     1     -12.663  15.013  71.958  1.00  0.00    -0.406 A  
HETATM   40  F   UNL     1     -11.165  15.614  70.238  1.00  0.00    -0.237 F  
HETATM   41  C   UNL     1     -13.392  14.031  72.618  1.00  0.00    -0.643 A  
HETATM   42  C   UNL     1     -13.330  12.709  72.184  1.00  0.00    -0.570 A  
ENDBRANCH  35  36
ENDBRANCH  34  35
ENDBRANCH  30  34
ENDBRANCH  25  27
ENDBRANCH  24  25
ENDBRANCH  13  15
ENDBRANCH   9  10
ENDBRANCH   7   9
ENDBRANCH   6   7
ENDBRANCH   5   6
ENDBRANCH   2   5
TORSDOF 11
ENDMDL
MODEL      224
REMARK 921   NORMALIZED FREE ENERGY PREDICTED BY IDOCK:   -3.80 KCAL/MOL
REMARK 922        TOTAL FREE ENERGY PREDICTED BY IDOCK:   -8.99 KCAL/MOL
REMARK 923 INTER-LIGAND FREE ENERGY PREDICTED BY IDOCK:   -7.32 KCAL/MOL
REMARK 924 INTRA-LIGAND FREE ENERGY PREDICTED BY IDOCK:   -1.67 KCAL/MOL
REMARK 927      BINDING AFFINITY PREDICTED BY RF-SCORE:    0.00 PKD
ROOT
HETATM    1  C   UNL     1     -11.526   4.871  73.091  1.00  0.00    -0.278 C  
HETATM    2  S   UNL     1     -11.395   6.297  72.044  1.00  0.00    -0.312 S  
HETATM    3  O   UNL     1     -12.702   6.548  71.470  1.00  0.00    -0.257 OA 
HETATM    4  O   UNL     1     -10.225   6.123  71.207  1.00  0.00    -0.198 OA 
ENDROOT
BRANCH   2   5
HETATM    5  C   UNL     1     -11.047   7.586  73.219  1.00  0.00    -0.241 C  
BRANCH   5   6
HETATM    6  C   UNL     1      -9.549   7.766  73.418  1.00  0.00    -0.290 C  
BRANCH   6   7
HETATM    7  N   UNL     1      -8.893   6.587  73.994  1.00  0.00    -0.138 NA 
HETATM    8  H   UNL     1      -9.230   5.732  73.550  1.00  0.00     0.000 HD 
BRANCH   7   9
HETATM    9  C   UNL     1      -7.432   6.653  73.948  1.00  0.00    -0.082 C  
BRANCH   9  10
HETATM   10  C   UNL     1      -6.986   7.492  72.805  1.00  0.00    -0.071 A  
HETATM   11  C   UNL     1      -6.195   8.616  72.710  1.00  0.00    -0.076 A  
HETATM   12  C   UNL     1      -6.142   8.950  71.336  1.00  0.00    -0.061 A  
HETATM   13  C   UNL     1      -6.885   7.998  70.665  1.00  0.00    -0.037 A  
HETATM   14  O   UNL     1      -7.393   7.105  71.566  1.00  0.00    -0.076 OA 
BRANCH  13  15
HETATM   15  C   UNL     1      -7.225   7.756  69.270  1.00  0.00    -0.081 A  
HETATM   16  C   UNL     1      -7.330   8.812  68.354  1.00  0.00    -0.086 A  
HETATM   17  C   UNL     1      -7.671   8.581  66.994  1.00  0.00    -0.092 A  
HETATM   18  C   UNL     1      -7.909   7.268  66.559  1.00  0.00    -0.109 A  
HETATM   19  C   UNL     1      -7.805   6.234  67.468  1.00  0.00    -0.105 A  
HETATM   20  N   UNL     1      -8.250   6.953  65.311  1.00  0.00    -0.137 NA 
HETATM   21  C   UNL     1      -8.384   7.969  64.463  1.00  0.00    -0.040 A  
HETATM   22  C   UNL     1      -7.468   6.463  68.803  1.00  0.00    -0.088 A  
HETATM   23  N   UNL     1      -8.197   9.253  64.757  1.00  0.00    -0.139 NA 
HETATM   24  C   UNL     1      -7.831   9.574  66.007  1.00  0.00    -0.100 A  
BRANCH  24  25
HETATM   25  N   UNL     1      -7.689  10.946  66.365  1.00  0.00    -0.151 NA 
HETATM   26  H   UNL     1      -6.737  11.313  66.346  1.00  0.00     0.000 HD 
BRANCH  25  27
HETATM   27  C   UNL     1      -8.695  11.866  66.743  1.00  0.00    -0.193 A  
HETATM   28  C   UNL     1      -9.259  12.786  65.861  1.00  0.00     0.102 A  
HETATM   29  C   UNL     1     -10.319  13.622  66.220  1.00  0.00    -0.293 A  
HETATM   30  C   UNL     1     -10.875  13.529  67.501  1.00  0.00    -0.264 A  
HETATM   31 CL   UNL     1     -10.785  14.738  64.979  1.00  0.00    -0.423 Cl 
HETATM   32  C   UNL     1     -10.273  12.657  68.421  1.00  0.00    -0.233 A  
HETATM   33  C   UNL     1      -9.194  11.840  68.049  1.00  0.00    -0.181 A  
BRANCH  30  34
HETATM   34  O   UNL     1     -11.958  14.199  68.015  1.00  0.00    -0.355 OA 
BRANCH  34  35
HETATM   35  C   UNL     1     -11.688  15.085  69.098  1.00  0.00    -0.319 C  
BRANCH  35  36
HETATM   36  C   UNL     1     -10.697  16.150  68.710  1.00  0.00    -0.294 A  
HETATM   37  C   UNL     1     -11.031  17.122  67.762  1.00  0.00    -0.180 A  
HETATM   38  C   UNL     1     -10.061  18.022  67.334  1.00  0.00    -0.349 A  
HETATM   39  C   UNL     1      -8.764  17.972  67.833  1.00  0.00    -0.258 A  
HETATM   40  F   UNL     1     -10.378  18.938  66.410  1.00  0.00    -0.367 F  
HETATM   41  C   UNL     1      -8.427  17.011  68.778  1.00  0.00    -0.237 A  
HETATM   42  C   UNL     1      -9.386  16.102  69.217  1.00  0.00    -0.227 A  
ENDBRANCH  35  36
ENDBRANCH  34  35
ENDBRANCH  30  34
ENDBRANCH  25  27
ENDBRANCH  24  25
ENDBRANCH  13  15
ENDBRANCH   9  10
ENDBRANCH   7   9
ENDBRANCH   6   7
ENDBRANCH   5   6
ENDBRANCH   2   5
TORSDOF 11
ENDMDL
MODEL      225
REMARK 921   NORMALIZED FREE ENERGY PREDICTED BY IDOCK:   -3.80 KCAL/MOL
REMARK 922        TOTAL FREE ENERGY PREDICTED BY IDOCK:   -8.99 KCAL/MOL
REMARK 923 INTER-LIGAND FREE ENERGY PREDICTED BY IDOCK:   -6.29 KCAL/MOL
REMARK 924 INTRA-LIGAND FREE ENERGY PREDICTED BY IDOCK:   -2.70 KCAL/MOL
REMARK 927      BINDING AFFINITY PREDICTED BY RF-SCORE:    0.00 PKD
ROOT
HETATM    1  C   UNL     1     -12.086   5.027  72.849  1.00  0.00     0.160 C  
HETATM    2  S   UNL     1     -11.587   6.504  72.003  1.00  0.00    -0.321 S  
HETATM    3  O   UNL     1     -12.784   7.172  71.532  1.00  0.00    -0.362 OA 
HETATM    4  O   UNL     1     -10.514   6.151  71.096  1.00  0.00    -0.214 OA 
ENDROOT
BRANCH   2   5
HETATM    5  C   UNL     1     -10.896   7.471  73.327  1.00  0.00    -0.355 C  
BRANCH   5   6
HETATM    6  C   UNL     1      -9.378   7.366  73.357  1.00  0.00    -0.212 C  
BRANCH   6   7
HETATM    7  N   UNL     1      -8.894   6.031  73.723  1.00  0.00    -0.124 NA 
HETATM    8  H   UNL     1      -9.426   5.308  73.239  1.00  0.00     0.000 HD 
BRANCH   7   9
HETATM    9  C   UNL     1      -7.458   5.853  73.505  1.00  0.00    -0.093 C  
BRANCH   9  10
HETATM   10  C   UNL     1      -7.109   6.138  72.089  1.00  0.00    -0.083 A  
HETATM   11  C   UNL     1      -6.221   7.004  71.490  1.00  0.00    -0.037 A  
HETATM   12  C   UNL     1      -6.352   6.805  70.095  1.00  0.00    -0.039 A  
HETATM   13  C   UNL     1      -7.296   5.813  69.920  1.00  0.00    -0.070 A  
HETATM   14  O   UNL     1      -7.752   5.403  71.141  1.00  0.00    -0.097 OA 
BRANCH  13  15
HETATM   15  C   UNL     1      -7.882   5.144  68.766  1.00  0.00    -0.079 A  
HETATM   16  C   UNL     1      -7.681   5.629  67.466  1.00  0.00    -0.097 A  
HETATM   17  C   UNL     1      -8.258   4.985  66.339  1.00  0.00    -0.108 A  
HETATM   18  C   UNL     1      -9.047   3.840  66.531  1.00  0.00    -0.155 A  
HETATM   19  C   UNL     1      -9.240   3.369  67.815  1.00  0.00    -0.235 A  
HETATM   20  N   UNL     1      -9.643   3.177  65.541  1.00  0.00    -0.075 NA 
HETATM   21  C   UNL     1      -9.475   3.672  64.318  1.00  0.00    -0.152 A  
HETATM   22  C   UNL     1      -8.671   4.003  68.920  1.00  0.00    -0.129 A  
HETATM   23  N   UNL     1      -8.763   4.752  64.010  1.00  0.00    -0.144 NA 
HETATM   24  C   UNL     1      -8.142   5.410  65.000  1.00  0.00    -0.120 A  
BRANCH  24  25
HETATM   25  N   UNL     1      -7.428   6.608  64.706  1.00  0.00    -0.088 NA 
HETATM   26  H   UNL     1      -6.619   6.503  64.094  1.00  0.00     0.000 HD 
BRANCH  25  27
HETATM   27  C   UNL     1      -7.693   7.924  65.153  1.00  0.00    -0.103 A  
HETATM   28  C   UNL     1      -6.699   8.884  65.332  1.00  0.00    -0.072 A  
HETATM   29  C   UNL     1      -6.984  10.207  65.679  1.00  0.00    -0.125 A  
HETATM   30  C   UNL     1      -8.314  10.617  65.827  1.00  0.00    -0.162 A  
HETATM   31 CL   UNL     1      -5.577  11.186  65.932  1.00  0.00    -0.129 Cl 
HETATM   32  C   UNL     1      -9.321   9.645  65.717  1.00  0.00    -0.286 A  
HETATM   33  C   UNL     1      -9.015   8.315  65.389  1.00  0.00    -0.062 A  
BRANCH  30  34
HETATM   34  O   UNL     1      -8.799  11.876  66.084  1.00  0.00    -0.166 OA 
BRANCH  34  35
HETATM   35  C   UNL     1      -8.643  12.345  67.420  1.00  0.00    -0.181 C  
BRANCH  35  36
HETATM   36  C   UNL     1      -9.170  11.351  68.422  1.00  0.00    -0.183 A  
HETATM   37  C   UNL     1     -10.530  11.317  68.743  1.00  0.00    -0.232 A  
HETATM   38  C   UNL     1     -10.974  10.474  69.755  1.00  0.00    -0.294 A  
HETATM   39  C   UNL     1     -10.088   9.663  70.455  1.00  0.00    -0.338 A  
HETATM   40  F   UNL     1     -12.274  10.459  70.074  1.00  0.00    -0.313 F  
HETATM   41  C   UNL     1      -8.734   9.689  70.139  1.00  0.00    -0.263 A  
HETATM   42  C   UNL     1      -8.274  10.529  69.128  1.00  0.00    -0.152 A  
ENDBRANCH  35  36
ENDBRANCH  34  35
ENDBRANCH  30  34
ENDBRANCH  25  27
ENDBRANCH  24  25
ENDBRANCH  13  15
ENDBRANCH   9  10
ENDBRANCH   7   9
ENDBRANCH   6   7
ENDBRANCH   5   6
ENDBRANCH   2   5
TORSDOF 11
ENDMDL
MODEL      226
REMARK 921   NORMALIZED FREE ENERGY PREDICTED BY IDOCK:   -3.77 KCAL/MOL
REMARK 922        TOTAL FREE ENERGY PREDICTED BY IDOCK:   -8.93 KCAL/MOL
REMARK 923 INTER-LIGAND FREE ENERGY PREDICTED BY IDOCK:   -8.19 KCAL/MOL
REMARK 924 INTRA-LIGAND FREE ENERGY PREDICTED BY IDOCK:   -0.74 KCAL/MOL
REMARK 927      BINDING AFFINITY PREDICTED BY RF-SCORE:    0.00 PKD
ROOT
HETATM    1  C   UNL     1      -6.887  17.491  65.970  1.00  0.00    -0.246 C  
HETATM    2  S   UNL     1      -8.560  17.298  66.528  1.00  0.00    -0.266 S  
HETATM    3  O   UNL     1      -9.261  16.483  65.556  1.00  0.00    -0.430 OA 
HETATM    4  O   UNL     1      -9.051  18.606  66.909  1.00  0.00    -0.277 OA 
ENDROOT
BRANCH   2   5
HETATM    5  C   UNL     1      -8.346  16.336  68.008  1.00  0.00    -0.165 C  
BRANCH   5   6
HETATM    6  C   UNL     1      -7.978  14.895  67.686  1.00  0.00    -0.169 C  
BRANCH   6   7
HETATM    7  N   UNL     1      -8.783  14.316  66.606  1.00  0.00    -0.439 NA 
HETATM    8  H   UNL     1      -8.212  14.151  65.777  1.00  0.00     0.000 HD 
BRANCH   7   9
HETATM    9  C   UNL     1      -9.494  13.098  66.997  1.00  0.00    -0.242 C  
BRANCH   9  10
HETATM   10  C   UNL     1      -9.561  12.148  65.856  1.00  0.00    -0.214 A  
HETATM   11  C   UNL     1     -10.346  12.083  64.725  1.00  0.00    -0.318 A  
HETATM   12  C   UNL     1      -9.927  10.933  64.016  1.00  0.00    -0.403 A  
HETATM   13  C   UNL     1      -8.895  10.371  64.741  1.00  0.00    -0.193 A  
HETATM   14  O   UNL     1      -8.670  11.121  65.861  1.00  0.00    -0.183 OA 
BRANCH  13  15
HETATM   15  C   UNL     1      -8.038   9.205  64.574  1.00  0.00    -0.139 A  
HETATM   16  C   UNL     1      -7.784   8.331  65.640  1.00  0.00    -0.092 A  
HETATM   17  C   UNL     1      -6.942   7.198  65.483  1.00  0.00    -0.056 A  
HETATM   18  C   UNL     1      -6.349   6.950  64.235  1.00  0.00    -0.036 A  
HETATM   19  C   UNL     1      -6.604   7.816  63.190  1.00  0.00    -0.071 A  
HETATM   20  N   UNL     1      -5.533   5.925  63.994  1.00  0.00    -0.017 NA 
HETATM   21  C   UNL     1      -5.271   5.127  65.025  1.00  0.00    -0.012 A  
HETATM   22  C   UNL     1      -7.434   8.927  63.347  1.00  0.00    -0.105 A  
HETATM   23  N   UNL     1      -5.760   5.264  66.255  1.00  0.00    -0.017 NA 
HETATM   24  C   UNL     1      -6.600   6.281  66.498  1.00  0.00    -0.048 A  
BRANCH  24  25
HETATM   25  N   UNL     1      -7.086   6.488  67.821  1.00  0.00    -0.085 NA 
HETATM   26  H   UNL     1      -6.736   5.843  68.528  1.00  0.00     0.000 HD 
BRANCH  25  27
HETATM   27  C   UNL     1      -7.990   7.474  68.282  1.00  0.00    -0.123 A  
HETATM   28  C   UNL     1      -7.596   8.760  68.648  1.00  0.00    -0.097 A  
HETATM   29  C   UNL     1      -8.510   9.754  69.008  1.00  0.00    -0.137 A  
HETATM   30  C   UNL     1      -9.882   9.482  68.978  1.00  0.00    -0.176 A  
HETATM   31 CL   UNL     1      -7.771  11.240  69.508  1.00  0.00     0.077 Cl 
HETATM   32  C   UNL     1     -10.289   8.172  68.679  1.00  0.00    -0.224 A  
HETATM   33  C   UNL     1      -9.356   7.180  68.340  1.00  0.00    -0.135 A  
BRANCH  30  34
HETATM   34  O   UNL     1     -10.930  10.336  69.218  1.00  0.00    -0.217 OA 
BRANCH  34  35
HETATM   35  C   UNL     1     -11.362  10.430  70.572  1.00  0.00    -0.341 C  
BRANCH  35  36
HETATM   36  C   UNL     1     -12.201  11.659  70.802  1.00  0.00    -0.443 A  
HETATM   37  C   UNL     1     -11.985  12.820  70.055  1.00  0.00    -0.371 A  
HETATM   38  C   UNL     1     -12.690  13.977  70.366  1.00  0.00    -0.253 A  
HETATM   39  C   UNL     1     -13.610  13.999  71.409  1.00  0.00    -0.327 A  
HETATM   40  F   UNL     1     -12.465  15.093  69.662  1.00  0.00    -0.321 F  
HETATM   41  C   UNL     1     -13.834  12.847  72.154  1.00  0.00    -0.390 A  
HETATM   42  C   UNL     1     -13.133  11.681  71.856  1.00  0.00    -0.490 A  
ENDBRANCH  35  36
ENDBRANCH  34  35
ENDBRANCH  30  34
ENDBRANCH  25  27
ENDBRANCH  24  25
ENDBRANCH  13  15
ENDBRANCH   9  10
ENDBRANCH   7   9
ENDBRANCH   6   7
ENDBRANCH   5   6
ENDBRANCH   2   5
TORSDOF 11
ENDMDL
MODEL      227
REMARK 921   NORMALIZED FREE ENERGY PREDICTED BY IDOCK:   -3.74 KCAL/MOL
REMARK 922        TOTAL FREE ENERGY PREDICTED BY IDOCK:   -8.89 KCAL/MOL
REMARK 923 INTER-LIGAND FREE ENERGY PREDICTED BY IDOCK:   -7.75 KCAL/MOL
REMARK 924 INTRA-LIGAND FREE ENERGY PREDICTED BY IDOCK:   -1.15 KCAL/MOL
REMARK 927      BINDING AFFINITY PREDICTED BY RF-SCORE:    0.00 PKD
ROOT
HETATM    1  C   UNL     1     -10.998  15.385  71.397  1.00  0.00    -0.140 C  
HETATM    2  S   UNL     1     -10.857  15.570  69.638  1.00  0.00    -0.310 S  
HETATM    3  O   UNL     1     -10.787  16.987  69.345  1.00  0.00    -0.275 OA 
HETATM    4  O   UNL     1     -11.859  14.722  69.025  1.00  0.00    -0.298 OA 
ENDROOT
BRANCH   2   5
HETATM    5  C   UNL     1      -9.259  14.857  69.319  1.00  0.00    -0.098 C  
BRANCH   5   6
HETATM    6  C   UNL     1      -8.144  15.705  69.914  1.00  0.00     0.230 C  
BRANCH   6   7
HETATM    7  N   UNL     1      -7.088  16.035  68.951  1.00  0.00    -0.145 NA 
HETATM    8  H   UNL     1      -7.122  15.408  68.147  1.00  0.00     0.000 HD 
BRANCH   7   9
HETATM    9  C   UNL     1      -7.111  17.434  68.519  1.00  0.00    -0.219 C  
BRANCH   9  10
HETATM   10  C   UNL     1      -8.221  17.661  67.557  1.00  0.00    -0.216 A  
HETATM   11  C   UNL     1      -8.844  18.795  67.083  1.00  0.00    -0.288 A  
HETATM   12  C   UNL     1      -9.837  18.354  66.178  1.00  0.00    -0.279 A  
HETATM   13  C   UNL     1      -9.751  16.976  66.131  1.00  0.00    -0.261 A  
HETATM   14  O   UNL     1      -8.757  16.557  66.970  1.00  0.00    -0.182 OA 
BRANCH  13  15
HETATM   15  C   UNL     1     -10.460  15.927  65.412  1.00  0.00    -0.429 A  
HETATM   16  C   UNL     1     -10.002  14.602  65.422  1.00  0.00    -0.365 A  
HETATM   17  C   UNL     1     -10.687  13.577  64.715  1.00  0.00    -0.412 A  
HETATM   18  C   UNL     1     -11.845  13.898  63.990  1.00  0.00    -0.337 A  
HETATM   19  C   UNL     1     -12.289  15.206  63.985  1.00  0.00     0.001 A  
HETATM   20  N   UNL     1     -12.545  13.012  63.283  1.00  0.00    -0.669 NA 
HETATM   21  C   UNL     1     -12.076  11.768  63.270  1.00  0.00    -0.264 A  
HETATM   22  C   UNL     1     -11.615  16.210  64.682  1.00  0.00    -0.133 A  
HETATM   23  N   UNL     1     -10.986  11.344  63.905  1.00  0.00    -0.386 NA 
HETATM   24  C   UNL     1     -10.290  12.227  64.637  1.00  0.00    -0.301 A  
BRANCH  24  25
HETATM   25  N   UNL     1      -9.084  11.814  65.273  1.00  0.00    -0.416 NA 
HETATM   26  H   UNL     1      -8.249  12.344  65.026  1.00  0.00     0.000 HD 
BRANCH  25  27
HETATM   27  C   UNL     1      -8.893  10.765  66.203  1.00  0.00    -0.177 A  
HETATM   28  C   UNL     1      -9.862   9.800  66.475  1.00  0.00    -0.286 A  
HETATM   29  C   UNL     1      -9.626   8.714  67.321  1.00  0.00    -0.167 A  
HETATM   30  C   UNL     1      -8.366   8.548  67.907  1.00  0.00    -0.126 A  
HETATM   31 CL   UNL     1     -11.012   7.703  67.570  1.00  0.00    -0.180 Cl 
HETATM   32  C   UNL     1      -7.404   9.549  67.698  1.00  0.00    -0.083 A  
HETATM   33  C   UNL     1      -7.665  10.645  66.861  1.00  0.00    -0.122 A  
BRANCH  30  34
HETATM   34  O   UNL     1      -7.917   7.518  68.696  1.00  0.00    -0.119 OA 
BRANCH  34  35
HETATM   35  C   UNL     1      -6.559   7.131  68.505  1.00  0.00    -0.048 C  
BRANCH  35  36
HETATM   36  C   UNL     1      -6.438   5.659  68.213  1.00  0.00    -0.043 A  
HETATM   37  C   UNL     1      -6.351   5.198  66.896  1.00  0.00    -0.040 A  
HETATM   38  C   UNL     1      -6.360   3.830  66.647  1.00  0.00    -0.036 A  
HETATM   39  C   UNL     1      -6.453   2.911  67.686  1.00  0.00    -0.036 A  
HETATM   40  F   UNL     1      -6.298   3.393  65.383  1.00  0.00    -0.028 F  
HETATM   41  C   UNL     1      -6.536   3.362  68.998  1.00  0.00    -0.030 A  
HETATM   42  C   UNL     1      -6.530   4.728  69.265  1.00  0.00    -0.036 A  
ENDBRANCH  35  36
ENDBRANCH  34  35
ENDBRANCH  30  34
ENDBRANCH  25  27
ENDBRANCH  24  25
ENDBRANCH  13  15
ENDBRANCH   9  10
ENDBRANCH   7   9
ENDBRANCH   6   7
ENDBRANCH   5   6
ENDBRANCH   2   5
TORSDOF 11
ENDMDL
MODEL      228
REMARK 921   NORMALIZED FREE ENERGY PREDICTED BY IDOCK:   -3.74 KCAL/MOL
REMARK 922        TOTAL FREE ENERGY PREDICTED BY IDOCK:   -8.89 KCAL/MOL
REMARK 923 INTER-LIGAND FREE ENERGY PREDICTED BY IDOCK:   -7.00 KCAL/MOL
REMARK 924 INTRA-LIGAND FREE ENERGY PREDICTED BY IDOCK:   -1.89 KCAL/MOL
REMARK 927      BINDING AFFINITY PREDICTED BY RF-SCORE:    0.00 PKD
ROOT
HETATM    1  C   UNL     1      -6.436   6.865  65.275  1.00  0.00    -0.043 C  
HETATM    2  S   UNL     1      -8.123   6.736  64.741  1.00  0.00    -0.058 S  
HETATM    3  O   UNL     1      -8.237   7.410  63.463  1.00  0.00    -0.060 OA 
HETATM    4  O   UNL     1      -8.969   7.096  65.861  1.00  0.00    -0.146 OA 
ENDROOT
BRANCH   2   5
HETATM    5  C   UNL     1      -8.289   4.987  64.464  1.00  0.00    -0.135 C  
BRANCH   5   6
HETATM    6  C   UNL     1      -9.457   4.408  65.248  1.00  0.00    -0.171 C  
BRANCH   6   7
HETATM    7  N   UNL     1      -9.143   4.155  66.658  1.00  0.00    -0.126 NA 
HETATM    8  H   UNL     1      -9.773   4.677  67.268  1.00  0.00     0.000 HD 
BRANCH   7   9
HETATM    9  C   UNL     1      -9.140   2.734  67.008  1.00  0.00    -0.159 C  
BRANCH   9  10
HETATM   10  C   UNL     1      -9.322   2.560  68.473  1.00  0.00    -0.193 A  
HETATM   11  C   UNL     1      -9.634   1.477  69.265  1.00  0.00    -0.095 A  
HETATM   12  C   UNL     1      -9.661   1.954  70.597  1.00  0.00    -0.141 A  
HETATM   13  C   UNL     1      -9.341   3.296  70.547  1.00  0.00    -0.158 A  
HETATM   14  O   UNL     1      -9.128   3.661  69.248  1.00  0.00    -0.105 OA 
BRANCH  13  15
HETATM   15  C   UNL     1      -9.191   4.353  71.538  1.00  0.00    -0.190 A  
HETATM   16  C   UNL     1      -8.562   5.564  71.217  1.00  0.00    -0.127 A  
HETATM   17  C   UNL     1      -8.406   6.595  72.184  1.00  0.00    -0.105 A  
HETATM   18  C   UNL     1      -8.890   6.395  73.486  1.00  0.00    -0.124 A  
HETATM   19  C   UNL     1      -9.508   5.199  73.793  1.00  0.00    -0.132 A  
HETATM   20  N   UNL     1      -8.777   7.292  74.463  1.00  0.00    -0.199 NA 
HETATM   21  C   UNL     1      -8.143   8.421  74.155  1.00  0.00    -0.139 A  
HETATM   22  C   UNL     1      -9.661   4.189  72.841  1.00  0.00    -0.176 A  
HETATM   23  N   UNL     1      -7.632   8.722  72.964  1.00  0.00    -0.367 NA 
HETATM   24  C   UNL     1      -7.763   7.831  71.970  1.00  0.00    -0.089 A  
BRANCH  24  25
HETATM   25  N   UNL     1      -7.167   8.100  70.704  1.00  0.00    -0.051 NA 
HETATM   26  H   UNL     1      -6.394   7.491  70.440  1.00  0.00     0.000 HD 
BRANCH  25  27
HETATM   27  C   UNL     1      -7.509   9.102  69.766  1.00  0.00    -0.069 A  
HETATM   28  C   UNL     1      -8.684   9.079  69.017  1.00  0.00    -0.138 A  
HETATM   29  C   UNL     1      -9.057  10.123  68.167  1.00  0.00    -0.128 A  
HETATM   30  C   UNL     1      -8.250  11.262  68.069  1.00  0.00    -0.134 A  
HETATM   31 CL   UNL     1     -10.513   9.820  67.279  1.00  0.00    -0.314 Cl 
HETATM   32  C   UNL     1      -7.030  11.269  68.763  1.00  0.00    -0.091 A  
HETATM   33  C   UNL     1      -6.661  10.202  69.597  1.00  0.00    -0.076 A  
BRANCH  30  34
HETATM   34  O   UNL     1      -8.478  12.415  67.358  1.00  0.00    -0.161 OA 
BRANCH  34  35
HETATM   35  C   UNL     1      -8.869  12.243  65.999  1.00  0.00     0.154 C  
BRANCH  35  36
HETATM   36  C   UNL     1     -10.281  12.711  65.765  1.00  0.00    -0.288 A  
HETATM   37  C   UNL     1     -10.755  12.926  64.467  1.00  0.00    -0.392 A  
HETATM   38  C   UNL     1     -12.020  13.470  64.282  1.00  0.00    -0.432 A  
HETATM   39  C   UNL     1     -12.826  13.804  65.365  1.00  0.00    -0.455 A  
HETATM   40  F   UNL     1     -12.462  13.695  63.038  1.00  0.00    -0.530 F  
HETATM   41  C   UNL     1     -12.363  13.589  66.658  1.00  0.00    -0.351 A  
HETATM   42  C   UNL     1     -11.097  13.046  66.861  1.00  0.00    -0.306 A  
ENDBRANCH  35  36
ENDBRANCH  34  35
ENDBRANCH  30  34
ENDBRANCH  25  27
ENDBRANCH  24  25
ENDBRANCH  13  15
ENDBRANCH   9  10
ENDBRANCH   7   9
ENDBRANCH   6   7
ENDBRANCH   5   6
ENDBRANCH   2   5
TORSDOF 11
ENDMDL
MODEL      229
REMARK 921   NORMALIZED FREE ENERGY PREDICTED BY IDOCK:   -3.72 KCAL/MOL
REMARK 922        TOTAL FREE ENERGY PREDICTED BY IDOCK:   -8.86 KCAL/MOL
REMARK 923 INTER-LIGAND FREE ENERGY PREDICTED BY IDOCK:   -6.68 KCAL/MOL
REMARK 924 INTRA-LIGAND FREE ENERGY PREDICTED BY IDOCK:   -2.18 KCAL/MOL
REMARK 927      BINDING AFFINITY PREDICTED BY RF-SCORE:    0.00 PKD
ROOT
HETATM    1  C   UNL     1      -6.146  13.899  68.763  1.00  0.00    -0.086 C  
HETATM    2  S   UNL     1      -6.606  15.430  69.532  1.00  0.00    -0.177 S  
HETATM    3  O   UNL     1      -6.032  16.509  68.753  1.00  0.00    -0.127 OA 
HETATM    4  O   UNL     1      -6.347  15.306  70.952  1.00  0.00     0.158 OA 
ENDROOT
BRANCH   2   5
HETATM    5  C   UNL     1      -8.368  15.449  69.292  1.00  0.00    -0.254 C  
BRANCH   5   6
HETATM    6  C   UNL     1      -8.753  14.829  67.956  1.00  0.00    -0.168 C  
BRANCH   6   7
HETATM    7  N   UNL     1     -10.096  15.208  67.505  1.00  0.00    -0.231 NA 
HETATM    8  H   UNL     1     -10.196  15.057  66.501  1.00  0.00     0.000 HD 
BRANCH   7   9
HETATM    9  C   UNL     1     -11.169  14.536  68.239  1.00  0.00    -0.277 C  
BRANCH   9  10
HETATM   10  C   UNL     1     -11.047  13.061  68.101  1.00  0.00    -0.256 A  
HETATM   11  C   UNL     1     -11.481  12.001  68.866  1.00  0.00    -0.356 A  
HETATM   12  C   UNL     1     -11.050  10.828  68.201  1.00  0.00    -0.337 A  
HETATM   13  C   UNL     1     -10.398  11.237  67.055  1.00  0.00    -0.227 A  
HETATM   14  O   UNL     1     -10.404  12.602  66.993  1.00  0.00    -0.230 OA 
BRANCH  13  15
HETATM   15  C   UNL     1      -9.736  10.554  65.951  1.00  0.00    -0.270 A  
HETATM   16  C   UNL     1      -8.524   9.875  66.140  1.00  0.00    -0.130 A  
HETATM   17  C   UNL     1      -7.871   9.216  65.064  1.00  0.00    -0.112 A  
HETATM   18  C   UNL     1      -8.450   9.247  63.786  1.00  0.00    -0.191 A  
HETATM   19  C   UNL     1      -9.643   9.918  63.608  1.00  0.00    -0.030 A  
HETATM   20  N   UNL     1      -7.906   8.674  62.713  1.00  0.00    -0.131 NA 
HETATM   21  C   UNL     1      -6.737   8.067  62.898  1.00  0.00    -0.085 A  
HETATM   22  C   UNL     1     -10.284  10.564  64.668  1.00  0.00    -0.364 A  
HETATM   23  N   UNL     1      -6.085   7.980  64.055  1.00  0.00    -0.061 NA 
HETATM   24  C   UNL     1      -6.639   8.535  65.143  1.00  0.00    -0.064 A  
BRANCH  24  25
HETATM   25  N   UNL     1      -5.930   8.514  66.379  1.00  0.00    -0.048 NA 
HETATM   26  H   UNL     1      -4.990   8.908  66.358  1.00  0.00     0.000 HD 
BRANCH  25  27
HETATM   27  C   UNL     1      -6.360   8.018  67.632  1.00  0.00    -0.052 A  
HETATM   28  C   UNL     1      -7.089   6.838  67.777  1.00  0.00    -0.085 A  
HETATM   29  C   UNL     1      -7.424   6.308  69.025  1.00  0.00    -0.091 A  
HETATM   30  C   UNL     1      -6.995   6.951  70.192  1.00  0.00    -0.066 A  
HETATM   31 CL   UNL     1      -8.408   4.885  68.943  1.00  0.00    -0.083 Cl 
HETATM   32  C   UNL     1      -6.320   8.175  70.062  1.00  0.00    -0.032 A  
HETATM   33  C   UNL     1      -6.011   8.704  68.799  1.00  0.00    -0.044 A  
BRANCH  30  34
HETATM   34  O   UNL     1      -7.151   6.552  71.497  1.00  0.00    -0.074 OA 
BRANCH  34  35
HETATM   35  C   UNL     1      -7.935   7.409  72.322  1.00  0.00    -0.100 C  
BRANCH  35  36
HETATM   36  C   UNL     1      -9.397   7.333  71.970  1.00  0.00    -0.150 A  
HETATM   37  C   UNL     1     -10.129   8.496  71.712  1.00  0.00    -0.351 A  
HETATM   38  C   UNL     1     -11.501   8.410  71.507  1.00  0.00    -0.278 A  
HETATM   39  C   UNL     1     -12.160   7.186  71.552  1.00  0.00    -0.377 A  
HETATM   40  F   UNL     1     -12.203   9.528  71.281  1.00  0.00    -0.326 F  
HETATM   41  C   UNL     1     -11.438   6.025  71.804  1.00  0.00    -0.314 A  
HETATM   42  C   UNL     1     -10.063   6.095  72.014  1.00  0.00    -0.206 A  
ENDBRANCH  35  36
ENDBRANCH  34  35
ENDBRANCH  30  34
ENDBRANCH  25  27
ENDBRANCH  24  25
ENDBRANCH  13  15
ENDBRANCH   9  10
ENDBRANCH   7   9
ENDBRANCH   6   7
ENDBRANCH   5   6
ENDBRANCH   2   5
TORSDOF 11
ENDMDL
MODEL      230
REMARK 921   NORMALIZED FREE ENERGY PREDICTED BY IDOCK:   -3.72 KCAL/MOL
REMARK 922        TOTAL FREE ENERGY PREDICTED BY IDOCK:   -8.86 KCAL/MOL
REMARK 923 INTER-LIGAND FREE ENERGY PREDICTED BY IDOCK:   -6.79 KCAL/MOL
REMARK 924 INTRA-LIGAND FREE ENERGY PREDICTED BY IDOCK:   -2.06 KCAL/MOL
REMARK 927      BINDING AFFINITY PREDICTED BY RF-SCORE:    0.00 PKD
ROOT
HETATM    1  C   UNL     1     -12.312   8.208  72.952  1.00  0.00     0.143 C  
HETATM    2  S   UNL     1     -12.277   8.492  71.201  1.00  0.00    -0.178 S  
HETATM    3  O   UNL     1     -13.220   7.580  70.585  1.00  0.00     0.107 OA 
HETATM    4  O   UNL     1     -10.889   8.535  70.789  1.00  0.00    -0.220 OA 
ENDROOT
BRANCH   2   5
HETATM    5  C   UNL     1     -12.939  10.139  71.082  1.00  0.00    -0.395 C  
BRANCH   5   6
HETATM    6  C   UNL     1     -12.138  10.991  70.108  1.00  0.00    -0.356 C  
BRANCH   6   7
HETATM    7  N   UNL     1     -12.284  10.569  68.711  1.00  0.00    -0.780 NA 
HETATM    8  H   UNL     1     -13.187  10.861  68.337  1.00  0.00     0.000 HD 
BRANCH   7   9
HETATM    9  C   UNL     1     -11.193  11.024  67.848  1.00  0.00    -0.310 C  
BRANCH   9  10
HETATM   10  C   UNL     1     -11.383  12.451  67.481  1.00  0.00    -0.315 A  
HETATM   11  C   UNL     1     -12.403  13.139  66.860  1.00  0.00    -0.149 A  
HETATM   12  C   UNL     1     -11.989  14.491  66.797  1.00  0.00    -0.364 A  
HETATM   13  C   UNL     1     -10.751  14.558  67.404  1.00  0.00    -0.282 A  
HETATM   14  O   UNL     1     -10.387  13.310  67.827  1.00  0.00    -0.226 OA 
BRANCH  13  15
HETATM   15  C   UNL     1      -9.796  15.624  67.676  1.00  0.00    -0.227 A  
HETATM   16  C   UNL     1      -8.643  15.390  68.437  1.00  0.00    -0.162 A  
HETATM   17  C   UNL     1      -7.714  16.430  68.711  1.00  0.00    -0.214 A  
HETATM   18  C   UNL     1      -7.957  17.718  68.211  1.00  0.00    -0.282 A  
HETATM   19  C   UNL     1      -9.096  17.941  67.462  1.00  0.00    -0.245 A  
HETATM   20  N   UNL     1      -7.156  18.760  68.428  1.00  0.00    -0.256 NA 
HETATM   21  C   UNL     1      -6.086  18.532  69.184  1.00  0.00    -0.240 A  
HETATM   22  C   UNL     1     -10.006  16.917  67.193  1.00  0.00    -0.276 A  
HETATM   23  N   UNL     1      -5.754  17.361  69.723  1.00  0.00    -0.220 NA 
HETATM   24  C   UNL     1      -6.545  16.304  69.489  1.00  0.00    -0.202 A  
BRANCH  24  25
HETATM   25  N   UNL     1      -6.248  15.055  70.108  1.00  0.00    -0.157 NA 
HETATM   26  H   UNL     1      -6.250  15.055  71.128  1.00  0.00     0.000 HD 
BRANCH  25  27
HETATM   27  C   UNL     1      -5.952  13.816  69.494  1.00  0.00    -0.107 A  
HETATM   28  C   UNL     1      -6.244  12.585  70.079  1.00  0.00    -0.066 A  
HETATM   29  C   UNL     1      -6.036  11.370  69.420  1.00  0.00    -0.078 A  
HETATM   30  C   UNL     1      -5.546  11.364  68.109  1.00  0.00    -0.042 A  
HETATM   31 CL   UNL     1      -6.391   9.977  70.388  1.00  0.00    -0.102 Cl 
HETATM   32  C   UNL     1      -5.184  12.592  67.534  1.00  0.00    -0.103 A  
HETATM   33  C   UNL     1      -5.379  13.802  68.219  1.00  0.00    -0.109 A  
BRANCH  30  34
HETATM   34  O   UNL     1      -5.350  10.293  67.274  1.00  0.00    -0.041 OA 
BRANCH  34  35
HETATM   35  C   UNL     1      -6.458   9.926  66.457  1.00  0.00    -0.071 C  
BRANCH  35  36
HETATM   36  C   UNL     1      -6.409   8.470  66.075  1.00  0.00    -0.053 A  
HETATM   37  C   UNL     1      -6.264   7.482  67.053  1.00  0.00    -0.052 A  
HETATM   38  C   UNL     1      -6.101   6.156  66.669  1.00  0.00    -0.032 A  
HETATM   39  C   UNL     1      -6.081   5.794  65.326  1.00  0.00    -0.029 A  
HETATM   40  F   UNL     1      -5.941   5.215  67.607  1.00  0.00    -0.019 F  
HETATM   41  C   UNL     1      -6.229   6.771  64.348  1.00  0.00    -0.035 A  
HETATM   42  C   UNL     1      -6.391   8.104  64.717  1.00  0.00    -0.049 A  
ENDBRANCH  35  36
ENDBRANCH  34  35
ENDBRANCH  30  34
ENDBRANCH  25  27
ENDBRANCH  24  25
ENDBRANCH  13  15
ENDBRANCH   9  10
ENDBRANCH   7   9
ENDBRANCH   6   7
ENDBRANCH   5   6
ENDBRANCH   2   5
TORSDOF 11
ENDMDL
MODEL      231
REMARK 921   NORMALIZED FREE ENERGY PREDICTED BY IDOCK:   -3.71 KCAL/MOL
REMARK 922        TOTAL FREE ENERGY PREDICTED BY IDOCK:   -8.85 KCAL/MOL
REMARK 923 INTER-LIGAND FREE ENERGY PREDICTED BY IDOCK:   -7.77 KCAL/MOL
REMARK 924 INTRA-LIGAND FREE ENERGY PREDICTED BY IDOCK:   -1.08 KCAL/MOL
REMARK 927      BINDING AFFINITY PREDICTED BY RF-SCORE:    0.00 PKD
ROOT
HETATM    1  C   UNL     1      -7.460  15.745  67.079  1.00  0.00    -0.207 C  
HETATM    2  S   UNL     1      -9.228  15.773  66.933  1.00  0.00    -0.246 S  
HETATM    3  O   UNL     1      -9.556  16.188  65.584  1.00  0.00    -0.424 OA 
HETATM    4  O   UNL     1      -9.753  16.475  68.086  1.00  0.00    -0.227 OA 
ENDROOT
BRANCH   2   5
HETATM    5  C   UNL     1      -9.639  14.051  67.101  1.00  0.00    -0.245 C  
BRANCH   5   6
HETATM    6  C   UNL     1      -9.554  13.327  65.765  1.00  0.00    -0.049 C  
BRANCH   6   7
HETATM    7  N   UNL     1     -10.062  11.952  65.815  1.00  0.00    -0.233 NA 
HETATM    8  H   UNL     1     -10.090  11.542  64.881  1.00  0.00     0.000 HD 
BRANCH   7   9
HETATM    9  C   UNL     1      -9.319  11.090  66.736  1.00  0.00    -0.181 C  
BRANCH   9  10
HETATM   10  C   UNL     1      -8.615  10.017  65.988  1.00  0.00    -0.138 A  
HETATM   11  C   UNL     1      -7.838  10.011  64.850  1.00  0.00    -0.141 A  
HETATM   12  C   UNL     1      -7.451   8.666  64.640  1.00  0.00    -0.102 A  
HETATM   13  C   UNL     1      -7.993   7.929  65.674  1.00  0.00    -0.116 A  
HETATM   14  O   UNL     1      -8.698   8.759  66.499  1.00  0.00    -0.113 OA 
BRANCH  13  15
HETATM   15  C   UNL     1      -7.976   6.522  66.052  1.00  0.00    -0.112 A  
HETATM   16  C   UNL     1      -8.148   6.126  67.386  1.00  0.00    -0.109 A  
HETATM   17  C   UNL     1      -8.122   4.756  67.759  1.00  0.00    -0.093 A  
HETATM   18  C   UNL     1      -7.918   3.778  66.773  1.00  0.00    -0.095 A  
HETATM   19  C   UNL     1      -7.749   4.176  65.462  1.00  0.00    -0.086 A  
HETATM   20  N   UNL     1      -7.861   2.472  67.027  1.00  0.00    -0.070 NA 
HETATM   21  C   UNL     1      -7.987   2.114  68.301  1.00  0.00    -0.057 A  
HETATM   22  C   UNL     1      -7.776   5.524  65.097  1.00  0.00    -0.091 A  
HETATM   23  N   UNL     1      -8.172   2.944  69.325  1.00  0.00    -0.054 NA 
HETATM   24  C   UNL     1      -8.253   4.259  69.072  1.00  0.00    -0.071 A  
BRANCH  24  25
HETATM   25  N   UNL     1      -8.384   5.174  70.156  1.00  0.00    -0.091 NA 
HETATM   26  H   UNL     1      -7.857   4.943  70.998  1.00  0.00     0.000 HD 
BRANCH  25  27
HETATM   27  C   UNL     1      -9.151   6.362  70.218  1.00  0.00    -0.155 A  
HETATM   28  C   UNL     1      -8.629   7.623  69.933  1.00  0.00    -0.138 A  
HETATM   29  C   UNL     1      -9.419   8.775  69.901  1.00  0.00    -0.169 A  
HETATM   30  C   UNL     1     -10.796   8.681  70.131  1.00  0.00    -0.233 A  
HETATM   31 CL   UNL     1      -8.525  10.231  69.612  1.00  0.00    -0.166 Cl 
HETATM   32  C   UNL     1     -11.323   7.430  70.487  1.00  0.00    -0.295 A  
HETATM   33  C   UNL     1     -10.510   6.286  70.535  1.00  0.00    -0.274 A  
BRANCH  30  34
HETATM   34  O   UNL     1     -11.744   9.672  70.068  1.00  0.00    -0.160 OA 
BRANCH  34  35
HETATM   35  C   UNL     1     -12.009  10.362  71.286  1.00  0.00    -0.330 C  
BRANCH  35  36
HETATM   36  C   UNL     1     -12.233  11.833  71.054  1.00  0.00    -0.303 A  
HETATM   37  C   UNL     1     -13.140  12.549  71.841  1.00  0.00    -0.473 A  
HETATM   38  C   UNL     1     -13.417  13.875  71.532  1.00  0.00    -0.309 A  
HETATM   39  C   UNL     1     -12.807  14.504  70.452  1.00  0.00    -0.315 A  
HETATM   40  F   UNL     1     -14.302  14.552  72.275  1.00  0.00    -0.500 F  
HETATM   41  C   UNL     1     -11.902  13.800  69.667  1.00  0.00    -0.393 A  
HETATM   42  C   UNL     1     -11.614  12.470  69.962  1.00  0.00    -0.207 A  
ENDBRANCH  35  36
ENDBRANCH  34  35
ENDBRANCH  30  34
ENDBRANCH  25  27
ENDBRANCH  24  25
ENDBRANCH  13  15
ENDBRANCH   9  10
ENDBRANCH   7   9
ENDBRANCH   6   7
ENDBRANCH   5   6
ENDBRANCH   2   5
TORSDOF 11
ENDMDL
MODEL      232
REMARK 921   NORMALIZED FREE ENERGY PREDICTED BY IDOCK:   -3.69 KCAL/MOL
REMARK 922        TOTAL FREE ENERGY PREDICTED BY IDOCK:   -8.81 KCAL/MOL
REMARK 923 INTER-LIGAND FREE ENERGY PREDICTED BY IDOCK:   -7.79 KCAL/MOL
REMARK 924 INTRA-LIGAND FREE ENERGY PREDICTED BY IDOCK:   -1.02 KCAL/MOL
REMARK 927      BINDING AFFINITY PREDICTED BY RF-SCORE:    0.00 PKD
ROOT
HETATM    1  C   UNL     1     -12.108  15.069  74.056  1.00  0.00    -0.436 C  
HETATM    2  S   UNL     1     -13.202  15.521  72.734  1.00  0.00    -0.560 S  
HETATM    3  O   UNL     1     -12.398  16.067  71.659  1.00  0.00    -0.455 OA 
HETATM    4  O   UNL     1     -14.301  16.271  73.309  1.00  0.00    -0.147 OA 
ENDROOT
BRANCH   2   5
HETATM    5  C   UNL     1     -13.825  13.939  72.214  1.00  0.00    -0.571 C  
BRANCH   5   6
HETATM    6  C   UNL     1     -12.715  13.062  71.653  1.00  0.00    -0.207 C  
BRANCH   6   7
HETATM    7  N   UNL     1     -13.172  12.149  70.600  1.00  0.00     0.398 NA 
HETATM    8  H   UNL     1     -13.574  12.668  69.819  1.00  0.00     0.000 HD 
BRANCH   7   9
HETATM    9  C   UNL     1     -12.130  11.233  70.131  1.00  0.00    -0.366 C  
BRANCH   9  10
HETATM   10  C   UNL     1     -12.159   9.971  70.914  1.00  0.00    -0.355 A  
HETATM   11  C   UNL     1     -13.068   9.423  71.792  1.00  0.00    -0.488 A  
HETATM   12  C   UNL     1     -12.521   8.188  72.212  1.00  0.00    -0.345 A  
HETATM   13  C   UNL     1     -11.319   8.038  71.550  1.00  0.00    -0.259 A  
HETATM   14  O   UNL     1     -11.104   9.127  70.752  1.00  0.00    -0.242 OA 
BRANCH  13  15
HETATM   15  C   UNL     1     -10.280   7.017  71.524  1.00  0.00    -0.211 A  
HETATM   16  C   UNL     1      -9.572   6.732  70.349  1.00  0.00    -0.174 A  
HETATM   17  C   UNL     1      -8.565   5.730  70.318  1.00  0.00    -0.133 A  
HETATM   18  C   UNL     1      -8.275   5.010  71.487  1.00  0.00    -0.114 A  
HETATM   19  C   UNL     1      -8.978   5.296  72.640  1.00  0.00    -0.135 A  
HETATM   20  N   UNL     1      -7.362   4.042  71.553  1.00  0.00    -0.052 NA 
HETATM   21  C   UNL     1      -6.725   3.755  70.421  1.00  0.00    -0.033 A  
HETATM   22  C   UNL     1      -9.966   6.282  72.668  1.00  0.00    -0.183 A  
HETATM   23  N   UNL     1      -6.918   4.357  69.250  1.00  0.00    -0.049 NA 
HETATM   24  C   UNL     1      -7.820   5.348  69.183  1.00  0.00    -0.090 A  
BRANCH  24  25
HETATM   25  N   UNL     1      -8.094   5.963  67.927  1.00  0.00    -0.105 NA 
HETATM   26  H   UNL     1      -8.470   5.350  67.205  1.00  0.00     0.000 HD 
BRANCH  25  27
HETATM   27  C   UNL     1      -7.911   7.315  67.551  1.00  0.00    -0.113 A  
HETATM   28  C   UNL     1      -7.856   7.737  66.224  1.00  0.00    -0.091 A  
HETATM   29  C   UNL     1      -7.774   9.085  65.865  1.00  0.00    -0.094 A  
HETATM   30  C   UNL     1      -7.778  10.071  66.858  1.00  0.00    -0.096 A  
HETATM   31 CL   UNL     1      -7.628   9.350  64.159  1.00  0.00    -0.110 Cl 
HETATM   32  C   UNL     1      -7.763   9.658  68.199  1.00  0.00    -0.086 A  
HETATM   33  C   UNL     1      -7.824   8.298  68.542  1.00  0.00    -0.121 A  
BRANCH  30  34
HETATM   34  O   UNL     1      -7.783  11.436  66.710  1.00  0.00    -0.149 OA 
BRANCH  34  35
HETATM   35  C   UNL     1      -9.064  12.060  66.712  1.00  0.00    -0.197 C  
BRANCH  35  36
HETATM   36  C   UNL     1      -9.001  13.454  67.279  1.00  0.00    -0.221 A  
HETATM   37  C   UNL     1      -8.060  13.782  68.259  1.00  0.00    -0.150 A  
HETATM   38  C   UNL     1      -8.099  15.039  68.852  1.00  0.00    -0.176 A  
HETATM   39  C   UNL     1      -9.058  15.977  68.486  1.00  0.00    -0.203 A  
HETATM   40  F   UNL     1      -7.210  15.343  69.806  1.00  0.00    -0.180 F  
HETATM   41  C   UNL     1      -9.994  15.659  67.508  1.00  0.00    -0.231 A  
HETATM   42  C   UNL     1      -9.970  14.404  66.906  1.00  0.00    -0.261 A  
ENDBRANCH  35  36
ENDBRANCH  34  35
ENDBRANCH  30  34
ENDBRANCH  25  27
ENDBRANCH  24  25
ENDBRANCH  13  15
ENDBRANCH   9  10
ENDBRANCH   7   9
ENDBRANCH   6   7
ENDBRANCH   5   6
ENDBRANCH   2   5
TORSDOF 11
ENDMDL
MODEL      233
REMARK 921   NORMALIZED FREE ENERGY PREDICTED BY IDOCK:   -3.66 KCAL/MOL
REMARK 922        TOTAL FREE ENERGY PREDICTED BY IDOCK:   -8.76 KCAL/MOL
REMARK 923 INTER-LIGAND FREE ENERGY PREDICTED BY IDOCK:   -6.62 KCAL/MOL
REMARK 924 INTRA-LIGAND FREE ENERGY PREDICTED BY IDOCK:   -2.14 KCAL/MOL
REMARK 927      BINDING AFFINITY PREDICTED BY RF-SCORE:    0.00 PKD
ROOT
HETATM    1  C   UNL     1      -6.314   5.929  64.616  1.00  0.00    -0.033 C  
HETATM    2  S   UNL     1      -8.017   6.144  64.166  1.00  0.00    -0.088 S  
HETATM    3  O   UNL     1      -8.062   6.527  62.769  1.00  0.00    -0.108 OA 
HETATM    4  O   UNL     1      -8.644   6.954  65.191  1.00  0.00    -0.072 OA 
ENDROOT
BRANCH   2   5
HETATM    5  C   UNL     1      -8.648   4.487  64.309  1.00  0.00    -0.131 C  
BRANCH   5   6
HETATM    6  C   UNL     1      -9.787   4.411  65.315  1.00  0.00    -0.199 C  
BRANCH   6   7
HETATM    7  N   UNL     1      -9.373   4.724  66.687  1.00  0.00    -0.134 NA 
HETATM    8  H   UNL     1     -10.078   5.293  67.156  1.00  0.00     0.000 HD 
BRANCH   7   9
HETATM    9  C   UNL     1      -9.051   3.538  67.482  1.00  0.00    -0.167 C  
BRANCH   9  10
HETATM   10  C   UNL     1      -8.108   3.887  68.575  1.00  0.00    -0.075 A  
HETATM   11  C   UNL     1      -7.345   3.135  69.442  1.00  0.00    -0.045 A  
HETATM   12  C   UNL     1      -6.648   4.057  70.259  1.00  0.00    -0.032 A  
HETATM   13  C   UNL     1      -7.005   5.320  69.831  1.00  0.00    -0.057 A  
HETATM   14  O   UNL     1      -7.892   5.212  68.797  1.00  0.00    -0.078 OA 
BRANCH  13  15
HETATM   15  C   UNL     1      -6.655   6.676  70.229  1.00  0.00    -0.045 A  
HETATM   16  C   UNL     1      -6.749   7.745  69.327  1.00  0.00    -0.044 A  
HETATM   17  C   UNL     1      -6.399   9.068  69.710  1.00  0.00    -0.038 A  
HETATM   18  C   UNL     1      -5.950   9.310  71.017  1.00  0.00    -0.064 A  
HETATM   19  C   UNL     1      -5.861   8.252  71.899  1.00  0.00    -0.041 A  
HETATM   20  N   UNL     1      -5.584  10.510  71.464  1.00  0.00    -0.305 NA 
HETATM   21  C   UNL     1      -5.641  11.507  70.585  1.00  0.00    -0.137 A  
HETATM   22  C   UNL     1      -6.206   6.953  71.522  1.00  0.00    -0.038 A  
HETATM   23  N   UNL     1      -6.037  11.403  69.319  1.00  0.00    -0.058 NA 
HETATM   24  C   UNL     1      -6.428  10.201  68.871  1.00  0.00    -0.048 A  
BRANCH  24  25
HETATM   25  N   UNL     1      -6.794  10.048  67.502  1.00  0.00    -0.080 NA 
HETATM   26  H   UNL     1      -6.076   9.657  66.892  1.00  0.00     0.000 HD 
BRANCH  25  27
HETATM   27  C   UNL     1      -8.023  10.368  66.878  1.00  0.00    -0.114 A  
HETATM   28  C   UNL     1      -9.218  10.523  67.580  1.00  0.00    -0.152 A  
HETATM   29  C   UNL     1     -10.403  10.935  66.966  1.00  0.00    -0.231 A  
HETATM   30  C   UNL     1     -10.411  11.240  65.601  1.00  0.00    -0.256 A  
HETATM   31 CL   UNL     1     -11.771  10.965  68.030  1.00  0.00    -0.299 Cl 
HETATM   32  C   UNL     1      -9.233  11.023  64.869  1.00  0.00    -0.210 A  
HETATM   33  C   UNL     1      -8.056  10.588  65.498  1.00  0.00    -0.155 A  
BRANCH  30  34
HETATM   34  O   UNL     1     -11.442  11.730  64.838  1.00  0.00    -0.287 OA 
BRANCH  34  35
HETATM   35  C   UNL     1     -12.296  12.676  65.476  1.00  0.00    -0.391 C  
BRANCH  35  36
HETATM   36  C   UNL     1     -11.541  13.908  65.900  1.00  0.00    -0.348 A  
HETATM   37  C   UNL     1     -11.674  14.414  67.196  1.00  0.00    -0.424 A  
HETATM   38  C   UNL     1     -11.061  15.617  67.528  1.00  0.00    -0.289 A  
HETATM   39  C   UNL     1     -10.318  16.327  66.591  1.00  0.00    -0.302 A  
HETATM   40  F   UNL     1     -11.207  16.110  68.764  1.00  0.00    -0.289 F  
HETATM   41  C   UNL     1     -10.179  15.828  65.301  1.00  0.00    -0.323 A  
HETATM   42  C   UNL     1     -10.787  14.625  64.953  1.00  0.00    -0.436 A  
ENDBRANCH  35  36
ENDBRANCH  34  35
ENDBRANCH  30  34
ENDBRANCH  25  27
ENDBRANCH  24  25
ENDBRANCH  13  15
ENDBRANCH   9  10
ENDBRANCH   7   9
ENDBRANCH   6   7
ENDBRANCH   5   6
ENDBRANCH   2   5
TORSDOF 11
ENDMDL
MODEL      234
REMARK 921   NORMALIZED FREE ENERGY PREDICTED BY IDOCK:   -3.65 KCAL/MOL
REMARK 922        TOTAL FREE ENERGY PREDICTED BY IDOCK:   -8.74 KCAL/MOL
REMARK 923 INTER-LIGAND FREE ENERGY PREDICTED BY IDOCK:   -7.67 KCAL/MOL
REMARK 924 INTRA-LIGAND FREE ENERGY PREDICTED BY IDOCK:   -1.08 KCAL/MOL
REMARK 927      BINDING AFFINITY PREDICTED BY RF-SCORE:    0.00 PKD
ROOT
HETATM    1  C   UNL     1      -8.401  17.500  66.872  1.00  0.00    -0.232 C  
HETATM    2  S   UNL     1      -8.404  15.834  67.482  1.00  0.00    -0.176 S  
HETATM    3  O   UNL     1      -9.149  15.817  68.725  1.00  0.00    -0.188 OA 
HETATM    4  O   UNL     1      -7.045  15.337  67.412  1.00  0.00    -0.183 OA 
ENDROOT
BRANCH   2   5
HETATM    5  C   UNL     1      -9.365  14.991  66.246  1.00  0.00    -0.307 C  
BRANCH   5   6
HETATM    6  C   UNL     1      -9.780  13.604  66.716  1.00  0.00    -0.275 C  
BRANCH   6   7
HETATM    7  N   UNL     1      -8.815  12.557  66.365  1.00  0.00    -0.415 NA 
HETATM    8  H   UNL     1      -7.931  12.968  66.061  1.00  0.00     0.000 HD 
BRANCH   7   9
HETATM    9  C   UNL     1      -8.594  11.586  67.436  1.00  0.00    -0.145 C  
BRANCH   9  10
HETATM   10  C   UNL     1      -7.574  10.585  67.027  1.00  0.00    -0.107 A  
HETATM   11  C   UNL     1      -6.652  10.539  66.004  1.00  0.00    -0.127 A  
HETATM   12  C   UNL     1      -5.962   9.312  66.146  1.00  0.00    -0.059 A  
HETATM   13  C   UNL     1      -6.485   8.686  67.260  1.00  0.00    -0.058 A  
HETATM   14  O   UNL     1      -7.466   9.471  67.800  1.00  0.00    -0.083 OA 
BRANCH  13  15
HETATM   15  C   UNL     1      -6.227   7.429  67.948  1.00  0.00    -0.043 A  
HETATM   16  C   UNL     1      -6.748   7.180  69.226  1.00  0.00    -0.049 A  
HETATM   17  C   UNL     1      -6.490   5.958  69.903  1.00  0.00    -0.038 A  
HETATM   18  C   UNL     1      -5.697   4.981  69.282  1.00  0.00    -0.016 A  
HETATM   19  C   UNL     1      -5.188   5.234  68.023  1.00  0.00    -0.004 A  
HETATM   20  N   UNL     1      -5.387   3.813  69.842  1.00  0.00    -0.008 NA 
HETATM   21  C   UNL     1      -5.855   3.607  71.070  1.00  0.00    -0.014 A  
HETATM   22  C   UNL     1      -5.444   6.435  67.359  1.00  0.00    -0.005 A  
HETATM   23  N   UNL     1      -6.605   4.457  71.766  1.00  0.00    -0.025 NA 
HETATM   24  C   UNL     1      -6.939   5.625  71.198  1.00  0.00    -0.066 A  
BRANCH  24  25
HETATM   25  N   UNL     1      -7.686   6.581  71.946  1.00  0.00    -0.097 NA 
HETATM   26  H   UNL     1      -7.242   6.920  72.799  1.00  0.00     0.000 HD 
BRANCH  25  27
HETATM   27  C   UNL     1      -8.962   7.121  71.660  1.00  0.00    -0.133 A  
HETATM   28  C   UNL     1      -9.679   6.815  70.504  1.00  0.00    -0.184 A  
HETATM   29  C   UNL     1     -10.978   7.276  70.280  1.00  0.00    -0.260 A  
HETATM   30  C   UNL     1     -11.619   8.052  71.253  1.00  0.00    -0.276 A  
HETATM   31 CL   UNL     1     -11.622   6.837  68.733  1.00  0.00     0.024 Cl 
HETATM   32  C   UNL     1     -10.885   8.424  72.390  1.00  0.00    -0.416 A  
HETATM   33  C   UNL     1      -9.572   7.969  72.589  1.00  0.00    -0.327 A  
BRANCH  30  34
HETATM   34  O   UNL     1     -12.906   8.530  71.255  1.00  0.00    -0.280 OA 
BRANCH  34  35
HETATM   35  C   UNL     1     -13.180   9.581  72.177  1.00  0.00    -0.451 C  
BRANCH  35  36
HETATM   36  C   UNL     1     -12.869  10.932  71.588  1.00  0.00    -0.554 A  
HETATM   37  C   UNL     1     -13.286  12.102  72.229  1.00  0.00    -0.286 A  
HETATM   38  C   UNL     1     -13.092  13.330  71.607  1.00  0.00    -0.363 A  
HETATM   39  C   UNL     1     -12.489  13.415  70.357  1.00  0.00    -0.322 A  
HETATM   40  F   UNL     1     -13.511  14.447  72.214  1.00  0.00    -0.373 F  
HETATM   41  C   UNL     1     -12.069  12.256  69.715  1.00  0.00    -0.298 A  
HETATM   42  C   UNL     1     -12.257  11.018  70.324  1.00  0.00    -0.447 A  
ENDBRANCH  35  36
ENDBRANCH  34  35
ENDBRANCH  30  34
ENDBRANCH  25  27
ENDBRANCH  24  25
ENDBRANCH  13  15
ENDBRANCH   9  10
ENDBRANCH   7   9
ENDBRANCH   6   7
ENDBRANCH   5   6
ENDBRANCH   2   5
TORSDOF 11
ENDMDL
MODEL      235
REMARK 921   NORMALIZED FREE ENERGY PREDICTED BY IDOCK:   -3.55 KCAL/MOL
REMARK 922        TOTAL FREE ENERGY PREDICTED BY IDOCK:   -8.58 KCAL/MOL
REMARK 923 INTER-LIGAND FREE ENERGY PREDICTED BY IDOCK:   -7.40 KCAL/MOL
REMARK 924 INTRA-LIGAND FREE ENERGY PREDICTED BY IDOCK:   -1.18 KCAL/MOL
REMARK 927      BINDING AFFINITY PREDICTED BY RF-SCORE:    0.00 PKD
ROOT
HETATM    1  C   UNL     1     -12.541  14.397  64.796  1.00  0.00    -0.265 C  
HETATM    2  S   UNL     1     -12.249  12.702  64.359  1.00  0.00    -0.457 S  
HETATM    3  O   UNL     1     -11.334  12.685  63.236  1.00  0.00    -0.460 OA 
HETATM    4  O   UNL     1     -13.533  12.036  64.296  1.00  0.00    -0.654 OA 
ENDROOT
BRANCH   2   5
HETATM    5  C   UNL     1     -11.383  12.097  65.790  1.00  0.00    -0.354 C  
BRANCH   5   6
HETATM    6  C   UNL     1     -10.722  13.231  66.561  1.00  0.00    -0.285 C  
BRANCH   6   7
HETATM    7  N   UNL     1      -9.317  13.441  66.196  1.00  0.00    -0.470 NA 
HETATM    8  H   UNL     1      -9.201  14.322  65.694  1.00  0.00     0.000 HD 
BRANCH   7   9
HETATM    9  C   UNL     1      -8.403  13.370  67.337  1.00  0.00    -0.190 C  
BRANCH   9  10
HETATM   10  C   UNL     1      -7.949  11.972  67.552  1.00  0.00    -0.159 A  
HETATM   11  C   UNL     1      -7.672  10.926  66.698  1.00  0.00    -0.146 A  
HETATM   12  C   UNL     1      -7.278   9.840  67.515  1.00  0.00    -0.089 A  
HETATM   13  C   UNL     1      -7.314  10.289  68.820  1.00  0.00    -0.086 A  
HETATM   14  O   UNL     1      -7.717  11.594  68.838  1.00  0.00    -0.125 OA 
BRANCH  13  15
HETATM   15  C   UNL     1      -7.027   9.695  70.119  1.00  0.00    -0.105 A  
HETATM   16  C   UNL     1      -7.920   8.797  70.720  1.00  0.00    -0.142 A  
HETATM   17  C   UNL     1      -7.648   8.223  71.991  1.00  0.00    -0.145 A  
HETATM   18  C   UNL     1      -6.461   8.562  72.658  1.00  0.00    -0.082 A  
HETATM   19  C   UNL     1      -5.587   9.447  72.060  1.00  0.00    -0.053 A  
HETATM   20  N   UNL     1      -6.126   8.090  73.858  1.00  0.00    -0.084 NA 
HETATM   21  C   UNL     1      -7.001   7.270  74.433  1.00  0.00    -0.092 A  
HETATM   22  C   UNL     1      -5.856  10.009  70.810  1.00  0.00    -0.091 A  
HETATM   23  N   UNL     1      -8.162   6.884  73.908  1.00  0.00    -0.123 NA 
HETATM   24  C   UNL     1      -8.493   7.338  72.691  1.00  0.00    -0.107 A  
BRANCH  24  25
HETATM   25  N   UNL     1      -9.759   6.993  72.134  1.00  0.00    -0.148 NA 
HETATM   26  H   UNL     1     -10.545   6.997  72.784  1.00  0.00     0.000 HD 
BRANCH  25  27
HETATM   27  C   UNL     1     -10.068   6.645  70.798  1.00  0.00    -0.184 A  
HETATM   28  C   UNL     1     -10.304   7.588  69.799  1.00  0.00    -0.221 A  
HETATM   29  C   UNL     1     -10.511   7.234  68.464  1.00  0.00    -0.188 A  
HETATM   30  C   UNL     1     -10.453   5.889  68.083  1.00  0.00    -0.233 A  
HETATM   31 CL   UNL     1     -10.873   8.577  67.429  1.00  0.00    -0.198 Cl 
HETATM   32  C   UNL     1     -10.285   4.924  69.089  1.00  0.00    -0.186 A  
HETATM   33  C   UNL     1     -10.100   5.297  70.430  1.00  0.00    -0.324 A  
BRANCH  30  34
HETATM   34  O   UNL     1     -10.551   5.350  66.824  1.00  0.00    -0.270 OA 
BRANCH  34  35
HETATM   35  C   UNL     1      -9.393   5.470  66.002  1.00  0.00    -0.148 C  
BRANCH  35  36
HETATM   36  C   UNL     1      -8.628   4.175  65.929  1.00  0.00    -0.114 A  
HETATM   37  C   UNL     1      -7.432   4.014  66.634  1.00  0.00    -0.084 A  
HETATM   38  C   UNL     1      -6.683   2.855  66.458  1.00  0.00    -0.044 A  
HETATM   39  C   UNL     1      -7.105   1.852  65.592  1.00  0.00    -0.051 A  
HETATM   40  F   UNL     1      -5.528   2.713  67.119  1.00  0.00    -0.014 F  
HETATM   41  C   UNL     1      -8.295   2.004  64.890  1.00  0.00    -0.086 A  
HETATM   42  C   UNL     1      -9.055   3.159  65.054  1.00  0.00    -0.145 A  
ENDBRANCH  35  36
ENDBRANCH  34  35
ENDBRANCH  30  34
ENDBRANCH  25  27
ENDBRANCH  24  25
ENDBRANCH  13  15
ENDBRANCH   9  10
ENDBRANCH   7   9
ENDBRANCH   6   7
ENDBRANCH   5   6
ENDBRANCH   2   5
TORSDOF 11
ENDMDL
MODEL      236
REMARK 921   NORMALIZED FREE ENERGY PREDICTED BY IDOCK:   -3.54 KCAL/MOL
REMARK 922        TOTAL FREE ENERGY PREDICTED BY IDOCK:   -8.57 KCAL/MOL
REMARK 923 INTER-LIGAND FREE ENERGY PREDICTED BY IDOCK:   -7.07 KCAL/MOL
REMARK 924 INTRA-LIGAND FREE ENERGY PREDICTED BY IDOCK:   -1.50 KCAL/MOL
REMARK 927      BINDING AFFINITY PREDICTED BY RF-SCORE:    0.00 PKD
ROOT
HETATM    1  C   UNL     1     -10.712   4.429  71.871  1.00  0.00     0.154 C  
HETATM    2  S   UNL     1     -10.712   6.187  72.112  1.00  0.00    -0.248 S  
HETATM    3  O   UNL     1     -12.022   6.685  71.745  1.00  0.00    -0.318 OA 
HETATM    4  O   UNL     1      -9.507   6.715  71.506  1.00  0.00    -0.158 OA 
ENDROOT
BRANCH   2   5
HETATM    5  C   UNL     1     -10.544   6.316  73.878  1.00  0.00    -0.215 C  
BRANCH   5   6
HETATM    6  C   UNL     1      -9.097   6.132  74.314  1.00  0.00    -0.143 C  
BRANCH   6   7
HETATM    7  N   UNL     1      -8.586   4.778  74.075  1.00  0.00    -0.105 NA 
HETATM    8  H   UNL     1      -8.901   4.427  73.170  1.00  0.00     0.000 HD 
BRANCH   7   9
HETATM    9  C   UNL     1      -7.130   4.677  74.192  1.00  0.00    -0.076 C  
BRANCH   9  10
HETATM   10  C   UNL     1      -6.477   5.115  72.931  1.00  0.00    -0.056 A  
HETATM   11  C   UNL     1      -5.326   5.821  72.658  1.00  0.00    -0.026 A  
HETATM   12  C   UNL     1      -5.243   5.917  71.249  1.00  0.00    -0.013 A  
HETATM   13  C   UNL     1      -6.335   5.245  70.738  1.00  0.00    -0.023 A  
HETATM   14  O   UNL     1      -7.084   4.750  71.769  1.00  0.00    -0.056 OA 
BRANCH  13  15
HETATM   15  C   UNL     1      -6.836   4.966  69.399  1.00  0.00    -0.053 A  
HETATM   16  C   UNL     1      -7.078   6.000  68.484  1.00  0.00    -0.082 A  
HETATM   17  C   UNL     1      -7.575   5.732  67.180  1.00  0.00    -0.099 A  
HETATM   18  C   UNL     1      -7.829   4.405  66.800  1.00  0.00    -0.098 A  
HETATM   19  C   UNL     1      -7.587   3.392  67.707  1.00  0.00    -0.065 A  
HETATM   20  N   UNL     1      -8.310   4.056  65.608  1.00  0.00    -0.108 NA 
HETATM   21  C   UNL     1      -8.572   5.050  64.765  1.00  0.00    -0.150 A  
HETATM   22  C   UNL     1      -7.098   3.658  68.988  1.00  0.00    -0.050 A  
HETATM   23  N   UNL     1      -8.385   6.344  65.011  1.00  0.00    -0.122 NA 
HETATM   24  C   UNL     1      -7.880   6.700  66.202  1.00  0.00    -0.102 A  
BRANCH  24  25
HETATM   25  N   UNL     1      -7.732   8.083  66.516  1.00  0.00    -0.092 NA 
HETATM   26  H   UNL     1      -6.778   8.399  66.687  1.00  0.00     0.000 HD 
BRANCH  25  27
HETATM   27  C   UNL     1      -8.736   9.074  66.621  1.00  0.00    -0.128 A  
HETATM   28  C   UNL     1      -9.263   9.747  65.520  1.00  0.00    -0.270 A  
HETATM   29  C   UNL     1     -10.322  10.652  65.626  1.00  0.00    -0.216 A  
HETATM   30  C   UNL     1     -10.915  10.885  66.872  1.00  0.00    -0.223 A  
HETATM   31 CL   UNL     1     -10.737  11.427  64.133  1.00  0.00    -0.412 Cl 
HETATM   32  C   UNL     1     -10.351  10.267  67.999  1.00  0.00    -0.215 A  
HETATM   33  C   UNL     1      -9.273   9.377  67.876  1.00  0.00    -0.139 A  
BRANCH  30  34
HETATM   34  O   UNL     1     -12.004  11.668  67.169  1.00  0.00    -0.614 OA 
BRANCH  34  35
HETATM   35  C   UNL     1     -12.239  12.768  66.295  1.00  0.00    -0.219 C  
BRANCH  35  36
HETATM   36  C   UNL     1     -11.719  14.058  66.873  1.00  0.00    -0.435 A  
HETATM   37  C   UNL     1     -11.057  14.986  66.065  1.00  0.00    -0.329 A  
HETATM   38  C   UNL     1     -10.483  16.112  66.643  1.00  0.00    -0.300 A  
HETATM   39  C   UNL     1     -10.557  16.333  68.015  1.00  0.00    -0.308 A  
HETATM   40  F   UNL     1      -9.831  16.988  65.869  1.00  0.00    -0.291 F  
HETATM   41  C   UNL     1     -11.217  15.416  68.824  1.00  0.00    -0.305 A  
HETATM   42  C   UNL     1     -11.796  14.282  68.260  1.00  0.00    -0.370 A  
ENDBRANCH  35  36
ENDBRANCH  34  35
ENDBRANCH  30  34
ENDBRANCH  25  27
ENDBRANCH  24  25
ENDBRANCH  13  15
ENDBRANCH   9  10
ENDBRANCH   7   9
ENDBRANCH   6   7
ENDBRANCH   5   6
ENDBRANCH   2   5
TORSDOF 11
ENDMDL
MODEL      237
REMARK 921   NORMALIZED FREE ENERGY PREDICTED BY IDOCK:   -3.53 KCAL/MOL
REMARK 922        TOTAL FREE ENERGY PREDICTED BY IDOCK:   -8.55 KCAL/MOL
REMARK 923 INTER-LIGAND FREE ENERGY PREDICTED BY IDOCK:   -6.62 KCAL/MOL
REMARK 924 INTRA-LIGAND FREE ENERGY PREDICTED BY IDOCK:   -1.92 KCAL/MOL
REMARK 927      BINDING AFFINITY PREDICTED BY RF-SCORE:    0.00 PKD
ROOT
HETATM    1  C   UNL     1      -6.273  11.127  67.843  1.00  0.00    -0.053 C  
HETATM    2  S   UNL     1      -7.406  11.510  69.153  1.00  0.00    -0.005 S  
HETATM    3  O   UNL     1      -7.500  12.953  69.251  1.00  0.00     0.115 OA 
HETATM    4  O   UNL     1      -7.046  10.699  70.298  1.00  0.00    -0.230 OA 
ENDROOT
BRANCH   2   5
HETATM    5  C   UNL     1      -8.943  10.896  68.502  1.00  0.00    -0.157 C  
BRANCH   5   6
HETATM    6  C   UNL     1      -9.658  10.008  69.510  1.00  0.00    -0.230 C  
BRANCH   6   7
HETATM    7  N   UNL     1     -10.879  10.611  70.055  1.00  0.00    -0.429 NA 
HETATM    8  H   UNL     1     -10.698  11.032  70.967  1.00  0.00     0.000 HD 
BRANCH   7   9
HETATM    9  C   UNL     1     -11.502  11.580  69.152  1.00  0.00    -0.297 C  
BRANCH   9  10
HETATM   10  C   UNL     1     -11.700  12.881  69.843  1.00  0.00    -0.254 A  
HETATM   11  C   UNL     1     -12.379  13.252  70.983  1.00  0.00    -0.379 A  
HETATM   12  C   UNL     1     -12.191  14.648  71.121  1.00  0.00    -0.405 A  
HETATM   13  C   UNL     1     -11.388  15.047  70.070  1.00  0.00    -0.273 A  
HETATM   14  O   UNL     1     -11.085  13.963  69.296  1.00  0.00    -0.249 OA 
BRANCH  13  15
HETATM   15  C   UNL     1     -10.825  16.318  69.634  1.00  0.00    -0.345 A  
HETATM   16  C   UNL     1     -10.199  16.444  68.386  1.00  0.00    -0.259 A  
HETATM   17  C   UNL     1      -9.640  17.680  67.961  1.00  0.00    -0.289 A  
HETATM   18  C   UNL     1      -9.717  18.796  68.808  1.00  0.00    -0.384 A  
HETATM   19  C   UNL     1     -10.336  18.663  70.035  1.00  0.00     1.171 A  
HETATM   20  N   UNL     1      -9.210  19.990  68.506  1.00  0.00    -0.163 NA 
HETATM   21  C   UNL     1      -8.584  20.085  67.336  1.00  0.00    -0.341 A  
HETATM   22  C   UNL     1     -10.885  17.449  70.450  1.00  0.00     1.023 A  
HETATM   23  N   UNL     1      -8.436  19.099  66.455  1.00  0.00    -0.313 NA 
HETATM   24  C   UNL     1      -8.964  17.900  66.744  1.00  0.00    -0.261 A  
BRANCH  24  25
HETATM   25  N   UNL     1      -8.763  16.811  65.848  1.00  0.00    -0.512 NA 
HETATM   26  H   UNL     1      -7.931  16.867  65.261  1.00  0.00     0.000 HD 
BRANCH  25  27
HETATM   27  C   UNL     1      -9.567  15.661  65.666  1.00  0.00    -0.284 A  
HETATM   28  C   UNL     1     -10.697  15.640  64.849  1.00  0.00    -0.406 A  
HETATM   29  C   UNL     1     -11.425  14.475  64.600  1.00  0.00    -0.387 A  
HETATM   30  C   UNL     1     -11.006  13.260  65.156  1.00  0.00    -0.299 A  
HETATM   31 CL   UNL     1     -12.837  14.723  63.627  1.00  0.00     0.777 Cl 
HETATM   32  C   UNL     1      -9.912  13.278  66.034  1.00  0.00    -0.297 A  
HETATM   33  C   UNL     1      -9.204  14.464  66.290  1.00  0.00    -0.202 A  
BRANCH  30  34
HETATM   34  O   UNL     1     -11.534  12.006  64.970  1.00  0.00    -0.320 OA 
BRANCH  34  35
HETATM   35  C   UNL     1     -11.161  11.344  63.765  1.00  0.00    -0.334 C  
BRANCH  35  36
HETATM   36  C   UNL     1      -9.907  10.530  63.944  1.00  0.00    -0.373 A  
HETATM   37  C   UNL     1      -9.741   9.714  65.067  1.00  0.00    -0.234 A  
HETATM   38  C   UNL     1      -8.528   9.066  65.270  1.00  0.00    -0.166 A  
HETATM   39  C   UNL     1      -7.475   9.214  64.374  1.00  0.00    -0.101 A  
HETATM   40  F   UNL     1      -8.366   8.302  66.358  1.00  0.00    -0.104 F  
HETATM   41  C   UNL     1      -7.634  10.020  63.253  1.00  0.00    -0.140 A  
HETATM   42  C   UNL     1      -8.842  10.678  63.036  1.00  0.00    -0.236 A  
ENDBRANCH  35  36
ENDBRANCH  34  35
ENDBRANCH  30  34
ENDBRANCH  25  27
ENDBRANCH  24  25
ENDBRANCH  13  15
ENDBRANCH   9  10
ENDBRANCH   7   9
ENDBRANCH   6   7
ENDBRANCH   5   6
ENDBRANCH   2   5
TORSDOF 11
ENDMDL
MODEL      238
REMARK 921   NORMALIZED FREE ENERGY PREDICTED BY IDOCK:   -3.46 KCAL/MOL
REMARK 922        TOTAL FREE ENERGY PREDICTED BY IDOCK:   -8.43 KCAL/MOL
REMARK 923 INTER-LIGAND FREE ENERGY PREDICTED BY IDOCK:   -7.92 KCAL/MOL
REMARK 924 INTRA-LIGAND FREE ENERGY PREDICTED BY IDOCK:   -0.51 KCAL/MOL
REMARK 927      BINDING AFFINITY PREDICTED BY RF-SCORE:    0.00 PKD
ROOT
HETATM    1  C   UNL     1     -11.135   4.666  73.412  1.00  0.00    -0.337 C  
HETATM    2  S   UNL     1     -10.577   5.870  72.235  1.00  0.00    -0.228 S  
HETATM    3  O   UNL     1     -10.030   6.991  72.972  1.00  0.00    -0.170 OA 
HETATM    4  O   UNL     1     -11.631   6.052  71.257  1.00  0.00    -0.256 OA 
ENDROOT
BRANCH   2   5
HETATM    5  C   UNL     1      -9.233   5.015  71.443  1.00  0.00    -0.146 C  
BRANCH   5   6
HETATM    6  C   UNL     1      -9.710   3.744  70.756  1.00  0.00    -0.165 C  
BRANCH   6   7
HETATM    7  N   UNL     1      -9.642   3.813  69.293  1.00  0.00    -0.178 NA 
HETATM    8  H   UNL     1     -10.303   3.162  68.869  1.00  0.00     0.000 HD 
BRANCH   7   9
HETATM    9  C   UNL     1      -9.834   5.164  68.764  1.00  0.00    -0.168 C  
BRANCH   9  10
HETATM   10  C   UNL     1      -8.523   5.839  68.578  1.00  0.00    -0.110 A  
HETATM   11  C   UNL     1      -7.466   5.631  67.719  1.00  0.00    -0.077 A  
HETATM   12  C   UNL     1      -6.498   6.613  68.035  1.00  0.00    -0.056 A  
HETATM   13  C   UNL     1      -7.026   7.381  69.054  1.00  0.00    -0.077 A  
HETATM   14  O   UNL     1      -8.267   6.909  69.378  1.00  0.00    -0.127 OA 
BRANCH  13  15
HETATM   15  C   UNL     1      -6.563   8.530  69.820  1.00  0.00    -0.039 A  
HETATM   16  C   UNL     1      -6.766   9.838  69.360  1.00  0.00    -0.055 A  
HETATM   17  C   UNL     1      -6.308  10.961  70.101  1.00  0.00    -0.149 A  
HETATM   18  C   UNL     1      -5.637  10.756  71.316  1.00  0.00     0.049 A  
HETATM   19  C   UNL     1      -5.440   9.464  71.761  1.00  0.00    -0.073 A  
HETATM   20  N   UNL     1      -5.156  11.742  72.072  1.00  0.00    -0.349 NA 
HETATM   21  C   UNL     1      -5.322  12.976  71.604  1.00  0.00    -0.077 A  
HETATM   22  C   UNL     1      -5.893   8.362  71.033  1.00  0.00    -0.033 A  
HETATM   23  N   UNL     1      -5.929  13.298  70.464  1.00  0.00    -0.150 NA 
HETATM   24  C   UNL     1      -6.435  12.310  69.711  1.00  0.00    -0.038 A  
BRANCH  24  25
HETATM   25  N   UNL     1      -7.031  12.622  68.454  1.00  0.00    -0.086 NA 
HETATM   26  H   UNL     1      -6.466  12.415  67.632  1.00  0.00     0.000 HD 
BRANCH  25  27
HETATM   27  C   UNL     1      -8.305  13.181  68.199  1.00  0.00    -0.161 A  
HETATM   28  C   UNL     1      -9.345  12.471  67.602  1.00  0.00    -0.189 A  
HETATM   29  C   UNL     1     -10.628  13.002  67.444  1.00  0.00    -0.234 A  
HETATM   30  C   UNL     1     -10.913  14.285  67.926  1.00  0.00    -0.267 A  
HETATM   31 CL   UNL     1     -11.720  11.961  66.594  1.00  0.00    -0.347 Cl 
HETATM   32  C   UNL     1      -9.859  15.037  68.467  1.00  0.00    -0.217 A  
HETATM   33  C   UNL     1      -8.571  14.495  68.597  1.00  0.00    -0.168 A  
BRANCH  30  34
HETATM   34  O   UNL     1     -12.116  14.947  67.938  1.00  0.00    -0.257 OA 
BRANCH  34  35
HETATM   35  C   UNL     1     -12.283  15.921  68.964  1.00  0.00     0.055 C  
BRANCH  35  36
HETATM   36  C   UNL     1     -12.468  15.279  70.314  1.00  0.00    -0.405 A  
HETATM   37  C   UNL     1     -12.701  13.905  70.423  1.00  0.00    -0.286 A  
HETATM   38  C   UNL     1     -12.987  13.356  71.668  1.00  0.00    -0.355 A  
HETATM   39  C   UNL     1     -13.045  14.150  72.808  1.00  0.00    -0.573 A  
HETATM   40  F   UNL     1     -13.230  12.043  71.766  1.00  0.00    -0.502 F  
HETATM   41  C   UNL     1     -12.810  15.517  72.707  1.00  0.00    -0.539 A  
HETATM   42  C   UNL     1     -12.524  16.083  71.467  1.00  0.00    -0.380 A  
ENDBRANCH  35  36
ENDBRANCH  34  35
ENDBRANCH  30  34
ENDBRANCH  25  27
ENDBRANCH  24  25
ENDBRANCH  13  15
ENDBRANCH   9  10
ENDBRANCH   7   9
ENDBRANCH   6   7
ENDBRANCH   5   6
ENDBRANCH   2   5
TORSDOF 11
ENDMDL
MODEL      239
REMARK 921   NORMALIZED FREE ENERGY PREDICTED BY IDOCK:   -3.44 KCAL/MOL
REMARK 922        TOTAL FREE ENERGY PREDICTED BY IDOCK:   -8.40 KCAL/MOL
REMARK 923 INTER-LIGAND FREE ENERGY PREDICTED BY IDOCK:   -6.66 KCAL/MOL
REMARK 924 INTRA-LIGAND FREE ENERGY PREDICTED BY IDOCK:   -1.74 KCAL/MOL
REMARK 927      BINDING AFFINITY PREDICTED BY RF-SCORE:    0.00 PKD
ROOT
HETATM    1  C   UNL     1      -5.224  16.005  68.588  1.00  0.00    -0.098 C  
HETATM    2  S   UNL     1      -5.763  17.651  68.974  1.00  0.00    -0.191 S  
HETATM    3  O   UNL     1      -5.301  18.528  67.917  1.00  0.00    -0.163 OA 
HETATM    4  O   UNL     1      -5.437  17.906  70.362  1.00  0.00    -0.245 OA 
ENDROOT
BRANCH   2   5
HETATM    5  C   UNL     1      -7.530  17.501  68.839  1.00  0.00    -0.234 C  
BRANCH   5   6
HETATM    6  C   UNL     1      -8.000  17.733  67.411  1.00  0.00    -0.211 C  
BRANCH   6   7
HETATM    7  N   UNL     1      -8.806  16.630  66.877  1.00  0.00    -0.199 NA 
HETATM    8  H   UNL     1      -8.427  16.302  65.988  1.00  0.00     0.000 HD 
BRANCH   7   9
HETATM    9  C   UNL     1      -8.964  15.518  67.815  1.00  0.00    -0.173 C  
BRANCH   9  10
HETATM   10  C   UNL     1      -9.877  14.490  67.251  1.00  0.00    -0.236 A  
HETATM   11  C   UNL     1     -11.227  14.248  67.387  1.00  0.00    -0.330 A  
HETATM   12  C   UNL     1     -11.509  13.113  66.591  1.00  0.00    -0.389 A  
HETATM   13  C   UNL     1     -10.321  12.738  65.995  1.00  0.00    -0.276 A  
HETATM   14  O   UNL     1      -9.328  13.586  66.396  1.00  0.00    -0.248 OA 
BRANCH  13  15
HETATM   15  C   UNL     1      -9.922  11.681  65.076  1.00  0.00    -0.297 A  
HETATM   16  C   UNL     1      -9.024  10.678  65.469  1.00  0.00    -0.209 A  
HETATM   17  C   UNL     1      -8.626   9.650  64.572  1.00  0.00    -0.205 A  
HETATM   18  C   UNL     1      -9.139   9.640  63.266  1.00  0.00    -0.191 A  
HETATM   19  C   UNL     1     -10.022  10.632  62.887  1.00  0.00    -0.185 A  
HETATM   20  N   UNL     1      -8.813   8.730  62.349  1.00  0.00    -0.150 NA 
HETATM   21  C   UNL     1      -7.931   7.808  62.724  1.00  0.00    -0.130 A  
HETATM   22  C   UNL     1     -10.414  11.640  63.771  1.00  0.00    -0.454 A  
HETATM   23  N   UNL     1      -7.366   7.719  63.925  1.00  0.00    -0.089 NA 
HETATM   24  C   UNL     1      -7.708   8.619  64.859  1.00  0.00    -0.106 A  
BRANCH  24  25
HETATM   25  N   UNL     1      -7.069   8.586  66.132  1.00  0.00    -0.076 NA 
HETATM   26  H   UNL     1      -6.149   9.024  66.178  1.00  0.00     0.000 HD 
BRANCH  25  27
HETATM   27  C   UNL     1      -7.544   8.026  67.341  1.00  0.00    -0.097 A  
HETATM   28  C   UNL     1      -6.776   7.955  68.503  1.00  0.00    -0.062 A  
HETATM   29  C   UNL     1      -7.288   7.490  69.717  1.00  0.00    -0.082 A  
HETATM   30  C   UNL     1      -8.631   7.103  69.803  1.00  0.00    -0.141 A  
HETATM   31 CL   UNL     1      -6.116   7.413  70.991  1.00  0.00    -0.035 Cl 
HETATM   32  C   UNL     1      -9.395   7.103  68.626  1.00  0.00    -0.134 A  
HETATM   33  C   UNL     1      -8.858   7.554  67.410  1.00  0.00    -0.127 A  
BRANCH  30  34
HETATM   34  O   UNL     1      -9.335   6.696  70.909  1.00  0.00    -0.157 OA 
BRANCH  34  35
HETATM   35  C   UNL     1      -9.965   5.421  70.816  1.00  0.00    -0.204 C  
BRANCH  35  36
HETATM   36  C   UNL     1      -8.954   4.308  70.734  1.00  0.00    -0.154 A  
HETATM   37  C   UNL     1      -8.713   3.651  69.524  1.00  0.00    -0.127 A  
HETATM   38  C   UNL     1      -7.865   2.550  69.499  1.00  0.00    -0.042 A  
HETATM   39  C   UNL     1      -7.250   2.090  70.659  1.00  0.00    -0.033 A  
HETATM   40  F   UNL     1      -7.653   1.910  68.342  1.00  0.00    -0.046 F  
HETATM   41  C   UNL     1      -7.481   2.741  71.865  1.00  0.00    -0.044 A  
HETATM   42  C   UNL     1      -8.330   3.844  71.907  1.00  0.00    -0.094 A  
ENDBRANCH  35  36
ENDBRANCH  34  35
ENDBRANCH  30  34
ENDBRANCH  25  27
ENDBRANCH  24  25
ENDBRANCH  13  15
ENDBRANCH   9  10
ENDBRANCH   7   9
ENDBRANCH   6   7
ENDBRANCH   5   6
ENDBRANCH   2   5
TORSDOF 11
ENDMDL
MODEL      240
REMARK 921   NORMALIZED FREE ENERGY PREDICTED BY IDOCK:   -3.42 KCAL/MOL
REMARK 922        TOTAL FREE ENERGY PREDICTED BY IDOCK:   -8.37 KCAL/MOL
REMARK 923 INTER-LIGAND FREE ENERGY PREDICTED BY IDOCK:   -6.58 KCAL/MOL
REMARK 924 INTRA-LIGAND FREE ENERGY PREDICTED BY IDOCK:   -1.78 KCAL/MOL
REMARK 927      BINDING AFFINITY PREDICTED BY RF-SCORE:    0.00 PKD
ROOT
HETATM    1  C   UNL     1     -12.048  14.429  64.689  1.00  0.00    -0.471 C  
HETATM    2  S   UNL     1     -11.444  12.762  64.634  1.00  0.00    -0.344 S  
HETATM    3  O   UNL     1     -10.380  12.707  63.651  1.00  0.00    -0.399 OA 
HETATM    4  O   UNL     1     -12.590  11.880  64.553  1.00  0.00    -0.293 OA 
ENDROOT
BRANCH   2   5
HETATM    5  C   UNL     1     -10.719  12.579  66.248  1.00  0.00    -0.260 C  
BRANCH   5   6
HETATM    6  C   UNL     1      -9.888  13.797  66.625  1.00  0.00    -0.284 C  
BRANCH   6   7
HETATM    7  N   UNL     1      -8.445  13.535  66.638  1.00  0.00    -0.432 NA 
HETATM    8  H   UNL     1      -7.949  14.215  66.062  1.00  0.00     0.000 HD 
BRANCH   7   9
HETATM    9  C   UNL     1      -7.875  13.482  67.985  1.00  0.00    -0.147 C  
BRANCH   9  10
HETATM   10  C   UNL     1      -7.455  12.096  68.317  1.00  0.00    -0.107 A  
HETATM   11  C   UNL     1      -6.388  11.314  67.933  1.00  0.00    -0.054 A  
HETATM   12  C   UNL     1      -6.545  10.074  68.597  1.00  0.00    -0.049 A  
HETATM   13  C   UNL     1      -7.686  10.175  69.367  1.00  0.00    -0.138 A  
HETATM   14  O   UNL     1      -8.236  11.415  69.198  1.00  0.00    -0.043 OA 
BRANCH  13  15
HETATM   15  C   UNL     1      -8.395   9.284  70.275  1.00  0.00    -0.204 A  
HETATM   16  C   UNL     1      -9.418   8.443  69.816  1.00  0.00    -0.162 A  
HETATM   17  C   UNL     1     -10.118   7.579  70.702  1.00  0.00    -0.187 A  
HETATM   18  C   UNL     1      -9.778   7.568  72.063  1.00  0.00    -0.159 A  
HETATM   19  C   UNL     1      -8.769   8.400  72.507  1.00  0.00    -0.277 A  
HETATM   20  N   UNL     1     -10.386   6.807  72.972  1.00  0.00    -0.209 NA 
HETATM   21  C   UNL     1     -11.381   6.044  72.529  1.00  0.00    -0.300 A  
HETATM   22  C   UNL     1      -8.082   9.247  71.635  1.00  0.00     0.345 A  
HETATM   23  N   UNL     1     -11.802   5.975  71.269  1.00  0.00    -0.066 NA 
HETATM   24  C   UNL     1     -11.179   6.722  70.346  1.00  0.00    -0.328 A  
BRANCH  24  25
HETATM   25  N   UNL     1     -11.653   6.717  69.002  1.00  0.00    -0.603 NA 
HETATM   26  H   UNL     1     -12.657   6.852  68.886  1.00  0.00     0.000 HD 
BRANCH  25  27
HETATM   27  C   UNL     1     -10.914   6.549  67.808  1.00  0.00    -0.316 A  
HETATM   28  C   UNL     1     -10.322   7.608  67.121  1.00  0.00    -0.385 A  
HETATM   29  C   UNL     1      -9.512   7.418  65.998  1.00  0.00     0.076 A  
HETATM   30  C   UNL     1      -9.244   6.122  65.544  1.00  0.00     0.154 A  
HETATM   31 CL   UNL     1      -8.968   8.893  65.268  1.00  0.00    -0.235 Cl 
HETATM   32  C   UNL     1      -9.888   5.052  66.184  1.00  0.00    -0.214 A  
HETATM   33  C   UNL     1     -10.716   5.262  67.298  1.00  0.00    -0.111 A  
BRANCH  30  34
HETATM   34  O   UNL     1      -8.420   5.727  64.519  1.00  0.00    -0.124 OA 
BRANCH  34  35
HETATM   35  C   UNL     1      -7.329   4.887  64.883  1.00  0.00    -0.068 C  
BRANCH  35  36
HETATM   36  C   UNL     1      -6.545   5.463  66.033  1.00  0.00    -0.048 A  
HETATM   37  C   UNL     1      -6.628   4.896  67.308  1.00  0.00    -0.050 A  
HETATM   38  C   UNL     1      -5.990   5.515  68.376  1.00  0.00    -0.017 A  
HETATM   39  C   UNL     1      -5.268   6.691  68.199  1.00  0.00    -0.008 A  
HETATM   40  F   UNL     1      -6.090   4.981  69.600  1.00  0.00    -0.018 F  
HETATM   41  C   UNL     1      -5.177   7.258  66.933  1.00  0.00    -0.022 A  
HETATM   42  C   UNL     1      -5.812   6.651  65.853  1.00  0.00    -0.026 A  
ENDBRANCH  35  36
ENDBRANCH  34  35
ENDBRANCH  30  34
ENDBRANCH  25  27
ENDBRANCH  24  25
ENDBRANCH  13  15
ENDBRANCH   9  10
ENDBRANCH   7   9
ENDBRANCH   6   7
ENDBRANCH   5   6
ENDBRANCH   2   5
TORSDOF 11
ENDMDL
MODEL      241
REMARK 921   NORMALIZED FREE ENERGY PREDICTED BY IDOCK:   -3.41 KCAL/MOL
REMARK 922        TOTAL FREE ENERGY PREDICTED BY IDOCK:   -8.34 KCAL/MOL
REMARK 923 INTER-LIGAND FREE ENERGY PREDICTED BY IDOCK:   -6.27 KCAL/MOL
REMARK 924 INTRA-LIGAND FREE ENERGY PREDICTED BY IDOCK:   -2.07 KCAL/MOL
REMARK 927      BINDING AFFINITY PREDICTED BY RF-SCORE:    0.00 PKD
ROOT
HETATM    1  C   UNL     1      -6.235   6.872  65.081  1.00  0.00    -0.036 C  
HETATM    2  S   UNL     1      -7.968   6.938  64.707  1.00  0.00    -0.097 S  
HETATM    3  O   UNL     1      -8.121   7.594  63.425  1.00  0.00    -0.125 OA 
HETATM    4  O   UNL     1      -8.655   7.420  65.888  1.00  0.00    -0.147 OA 
ENDROOT
BRANCH   2   5
HETATM    5  C   UNL     1      -8.365   5.216  64.501  1.00  0.00    -0.137 C  
BRANCH   5   6
HETATM    6  C   UNL     1      -9.519   4.801  65.403  1.00  0.00    -0.151 C  
BRANCH   6   7
HETATM    7  N   UNL     1      -9.125   4.611  66.802  1.00  0.00    -0.116 NA 
HETATM    8  H   UNL     1      -9.652   5.234  67.415  1.00  0.00     0.000 HD 
BRANCH   7   9
HETATM    9  C   UNL     1      -9.234   3.224  67.255  1.00  0.00    -0.192 C  
BRANCH   9  10
HETATM   10  C   UNL     1      -9.095   3.148  68.733  1.00  0.00    -0.150 A  
HETATM   11  C   UNL     1      -9.324   2.149  69.654  1.00  0.00    -0.158 A  
HETATM   12  C   UNL     1      -9.003   2.694  70.919  1.00  0.00    -0.159 A  
HETATM   13  C   UNL     1      -8.573   3.987  70.699  1.00  0.00    -0.071 A  
HETATM   14  O   UNL     1      -8.625   4.259  69.361  1.00  0.00    -0.077 OA 
BRANCH  13  15
HETATM   15  C   UNL     1      -8.101   5.072  71.550  1.00  0.00    -0.113 A  
HETATM   16  C   UNL     1      -7.639   6.276  71.001  1.00  0.00    -0.090 A  
HETATM   17  C   UNL     1      -7.170   7.332  71.828  1.00  0.00    -0.072 A  
HETATM   18  C   UNL     1      -7.167   7.166  73.221  1.00  0.00    -0.072 A  
HETATM   19  C   UNL     1      -7.623   5.976  73.753  1.00  0.00    -0.095 A  
HETATM   20  N   UNL     1      -6.731   8.090  74.076  1.00  0.00    -0.112 NA 
HETATM   21  C   UNL     1      -6.260   9.212  73.540  1.00  0.00     0.203 A  
HETATM   22  C   UNL     1      -8.086   4.940  72.939  1.00  0.00    -0.101 A  
HETATM   23  N   UNL     1      -6.199   9.483  72.239  1.00  0.00    -0.285 NA 
HETATM   24  C   UNL     1      -6.657   8.565  71.375  1.00  0.00    -0.066 A  
BRANCH  24  25
HETATM   25  N   UNL     1      -6.543   8.802  69.974  1.00  0.00    -0.038 NA 
HETATM   26  H   UNL     1      -5.780   8.318  69.503  1.00  0.00     0.000 HD 
BRANCH  25  27
HETATM   27  C   UNL     1      -7.351   9.623  69.152  1.00  0.00    -0.077 A  
HETATM   28  C   UNL     1      -8.660   9.297  68.799  1.00  0.00    -0.131 A  
HETATM   29  C   UNL     1      -9.480  10.160  68.068  1.00  0.00    -0.145 A  
HETATM   30  C   UNL     1      -9.002  11.420  67.690  1.00  0.00    -0.140 A  
HETATM   31 CL   UNL     1     -11.031   9.494  67.678  1.00  0.00    -0.248 Cl 
HETATM   32  C   UNL     1      -7.665  11.734  67.979  1.00  0.00    -0.123 A  
HETATM   33  C   UNL     1      -6.848  10.845  68.695  1.00  0.00    -0.062 A  
BRANCH  30  34
HETATM   34  O   UNL     1      -9.671  12.431  67.045  1.00  0.00    -0.203 OA 
BRANCH  34  35
HETATM   35  C   UNL     1     -11.090  12.424  67.173  1.00  0.00    -0.280 C  
BRANCH  35  36
HETATM   36  C   UNL     1     -11.545  13.244  68.351  1.00  0.00    -0.372 A  
HETATM   37  C   UNL     1     -12.032  12.625  69.505  1.00  0.00    -0.332 A  
HETATM   38  C   UNL     1     -12.556  13.403  70.531  1.00  0.00    -0.211 A  
HETATM   39  C   UNL     1     -12.604  14.790  70.429  1.00  0.00    -0.399 A  
HETATM   40  F   UNL     1     -13.041  12.806  71.627  1.00  0.00    -0.453 F  
HETATM   41  C   UNL     1     -12.118  15.413  69.285  1.00  0.00    -0.283 A  
HETATM   42  C   UNL     1     -11.591  14.647  68.248  1.00  0.00    -0.353 A  
ENDBRANCH  35  36
ENDBRANCH  34  35
ENDBRANCH  30  34
ENDBRANCH  25  27
ENDBRANCH  24  25
ENDBRANCH  13  15
ENDBRANCH   9  10
ENDBRANCH   7   9
ENDBRANCH   6   7
ENDBRANCH   5   6
ENDBRANCH   2   5
TORSDOF 11
ENDMDL
MODEL      242
REMARK 921   NORMALIZED FREE ENERGY PREDICTED BY IDOCK:   -3.37 KCAL/MOL
REMARK 922        TOTAL FREE ENERGY PREDICTED BY IDOCK:   -8.28 KCAL/MOL
REMARK 923 INTER-LIGAND FREE ENERGY PREDICTED BY IDOCK:   -6.11 KCAL/MOL
REMARK 924 INTRA-LIGAND FREE ENERGY PREDICTED BY IDOCK:   -2.17 KCAL/MOL
REMARK 927      BINDING AFFINITY PREDICTED BY RF-SCORE:    0.00 PKD
ROOT
HETATM    1  C   UNL     1      -5.803   7.003  65.150  1.00  0.00    -0.036 C  
HETATM    2  S   UNL     1      -7.450   6.879  64.503  1.00  0.00    -0.107 S  
HETATM    3  O   UNL     1      -7.480   7.566  63.228  1.00  0.00    -0.090 OA 
HETATM    4  O   UNL     1      -8.369   7.226  65.568  1.00  0.00    -0.134 OA 
ENDROOT
BRANCH   2   5
HETATM    5  C   UNL     1      -7.595   5.132  64.197  1.00  0.00    -0.069 C  
BRANCH   5   6
HETATM    6  C   UNL     1      -8.856   4.560  64.828  1.00  0.00    -0.149 C  
BRANCH   6   7
HETATM    7  N   UNL     1      -8.713   4.279  66.260  1.00  0.00    -0.113 NA 
HETATM    8  H   UNL     1      -9.415   4.786  66.800  1.00  0.00     0.000 HD 
BRANCH   7   9
HETATM    9  C   UNL     1      -8.744   2.851  66.579  1.00  0.00    -0.131 C  
BRANCH   9  10
HETATM   10  C   UNL     1      -9.131   2.645  68.000  1.00  0.00    -0.183 A  
HETATM   11  C   UNL     1      -9.523   1.540  68.722  1.00  0.00    -0.209 A  
HETATM   12  C   UNL     1      -9.756   1.990  70.043  1.00  0.00     0.036 A  
HETATM   13  C   UNL     1      -9.472   3.341  70.060  1.00  0.00    -0.161 A  
HETATM   14  O   UNL     1      -9.083   3.736  68.811  1.00  0.00    -0.117 OA 
BRANCH  13  15
HETATM   15  C   UNL     1      -9.498   4.383  71.077  1.00  0.00    -0.232 A  
HETATM   16  C   UNL     1      -8.899   5.631  70.854  1.00  0.00    -0.147 A  
HETATM   17  C   UNL     1      -8.915   6.647  71.847  1.00  0.00    -0.136 A  
HETATM   18  C   UNL     1      -9.541   6.396  73.077  1.00  0.00    -0.152 A  
HETATM   19  C   UNL     1     -10.129   5.164  73.289  1.00  0.00    -0.198 A  
HETATM   20  N   UNL     1      -9.594   7.277  74.075  1.00  0.00    -0.271 NA 
HETATM   21  C   UNL     1      -8.987   8.441  73.863  1.00  0.00     0.230 A  
HETATM   22  C   UNL     1     -10.113   4.168  72.311  1.00  0.00    -0.247 A  
HETATM   23  N   UNL     1      -8.352   8.793  72.748  1.00  0.00    -0.390 NA 
HETATM   24  C   UNL     1      -8.316   7.918  71.732  1.00  0.00    -0.118 A  
BRANCH  24  25
HETATM   25  N   UNL     1      -7.586   8.243  70.552  1.00  0.00    -0.073 NA 
HETATM   26  H   UNL     1      -6.760   7.673  70.371  1.00  0.00     0.000 HD 
BRANCH  25  27
HETATM   27  C   UNL     1      -7.857   9.253  69.600  1.00  0.00    -0.090 A  
HETATM   28  C   UNL     1      -8.950   9.213  68.736  1.00  0.00    -0.136 A  
HETATM   29  C   UNL     1      -9.263  10.263  67.868  1.00  0.00    -0.138 A  
HETATM   30  C   UNL     1      -8.481  11.423  67.869  1.00  0.00    -0.139 A  
HETATM   31 CL   UNL     1     -10.614   9.939  66.832  1.00  0.00    -0.277 Cl 
HETATM   32  C   UNL     1      -7.338  11.449  68.683  1.00  0.00    -0.104 A  
HETATM   33  C   UNL     1      -7.027  10.376  69.534  1.00  0.00    -0.102 A  
BRANCH  30  34
HETATM   34  O   UNL     1      -8.667  12.582  67.156  1.00  0.00    -0.187 OA 
BRANCH  34  35
HETATM   35  C   UNL     1      -9.756  13.402  67.570  1.00  0.00    -0.224 C  
BRANCH  35  36
HETATM   36  C   UNL     1      -9.282  14.732  68.093  1.00  0.00    -0.195 A  
HETATM   37  C   UNL     1     -10.182  15.782  68.290  1.00  0.00    -0.225 A  
HETATM   38  C   UNL     1      -9.705  17.034  68.660  1.00  0.00    -0.282 A  
HETATM   39  C   UNL     1      -8.344  17.260  68.839  1.00  0.00    -0.174 A  
HETATM   40  F   UNL     1     -10.568  18.044  68.827  1.00  0.00    -0.333 F  
HETATM   41  C   UNL     1      -7.443  16.219  68.649  1.00  0.00    -0.185 A  
HETATM   42  C   UNL     1      -7.905  14.960  68.277  1.00  0.00    -0.122 A  
ENDBRANCH  35  36
ENDBRANCH  34  35
ENDBRANCH  30  34
ENDBRANCH  25  27
ENDBRANCH  24  25
ENDBRANCH  13  15
ENDBRANCH   9  10
ENDBRANCH   7   9
ENDBRANCH   6   7
ENDBRANCH   5   6
ENDBRANCH   2   5
TORSDOF 11
ENDMDL
MODEL      243
REMARK 921   NORMALIZED FREE ENERGY PREDICTED BY IDOCK:   -3.25 KCAL/MOL
REMARK 922        TOTAL FREE ENERGY PREDICTED BY IDOCK:   -8.09 KCAL/MOL
REMARK 923 INTER-LIGAND FREE ENERGY PREDICTED BY IDOCK:   -8.19 KCAL/MOL
REMARK 924 INTRA-LIGAND FREE ENERGY PREDICTED BY IDOCK:    0.10 KCAL/MOL
REMARK 927      BINDING AFFINITY PREDICTED BY RF-SCORE:    0.00 PKD
ROOT
HETATM    1  C   UNL     1     -10.745   3.402  73.167  1.00  0.00    -0.169 C  
HETATM    2  S   UNL     1     -10.010   4.590  72.074  1.00  0.00    -0.195 S  
HETATM    3  O   UNL     1     -10.754   4.571  70.831  1.00  0.00     0.139 OA 
HETATM    4  O   UNL     1      -8.576   4.382  72.098  1.00  0.00    -0.109 OA 
ENDROOT
BRANCH   2   5
HETATM    5  C   UNL     1     -10.359   6.122  72.907  1.00  0.00    -0.198 C  
BRANCH   5   6
HETATM    6  C   UNL     1     -11.659   6.740  72.413  1.00  0.00    -0.245 C  
BRANCH   6   7
HETATM    7  N   UNL     1     -11.457   7.861  71.489  1.00  0.00    -0.258 NA 
HETATM    8  H   UNL     1     -11.141   8.691  71.992  1.00  0.00     0.000 HD 
BRANCH   7   9
HETATM    9  C   UNL     1     -10.550   7.548  70.384  1.00  0.00    -0.229 C  
BRANCH   9  10
HETATM   10  C   UNL     1      -9.967   8.795  69.823  1.00  0.00    -0.190 A  
HETATM   11  C   UNL     1      -8.737   9.404  69.950  1.00  0.00    -0.209 A  
HETATM   12  C   UNL     1      -8.793  10.579  69.164  1.00  0.00    -0.161 A  
HETATM   13  C   UNL     1     -10.044  10.611  68.582  1.00  0.00    -0.183 A  
HETATM   14  O   UNL     1     -10.756   9.515  68.982  1.00  0.00    -0.222 OA 
BRANCH  13  15
HETATM   15  C   UNL     1     -10.734  11.521  67.677  1.00  0.00    -0.255 A  
HETATM   16  C   UNL     1     -10.725  11.312  66.291  1.00  0.00    -0.312 A  
HETATM   17  C   UNL     1     -11.388  12.203  65.405  1.00  0.00    -0.388 A  
HETATM   18  C   UNL     1     -12.065  13.315  65.928  1.00  0.00    -0.441 A  
HETATM   19  C   UNL     1     -12.068  13.514  67.295  1.00  0.00    -0.367 A  
HETATM   20  N   UNL     1     -12.701  14.214  65.179  1.00  0.00    -0.672 NA 
HETATM   21  C   UNL     1     -12.651  14.025  63.863  1.00  0.00     0.047 A  
HETATM   22  C   UNL     1     -11.417  12.637  68.163  1.00  0.00    -0.359 A  
HETATM   23  N   UNL     1     -12.034  13.019  63.248  1.00  0.00    -0.535 NA 
HETATM   24  C   UNL     1     -11.412  12.098  63.999  1.00  0.00    -0.411 A  
BRANCH  24  25
HETATM   25  N   UNL     1     -10.688  11.048  63.364  1.00  0.00    -0.694 NA 
HETATM   26  H   UNL     1     -11.097  10.685  62.504  1.00  0.00     0.000 HD 
BRANCH  25  27
HETATM   27  C   UNL     1      -9.476  10.442  63.771  1.00  0.00    -0.305 A  
HETATM   28  C   UNL     1      -8.688  10.935  64.810  1.00  0.00    -0.055 A  
HETATM   29  C   UNL     1      -7.545  10.274  65.267  1.00  0.00    -0.143 A  
HETATM   30  C   UNL     1      -7.173   9.051  64.696  1.00  0.00    -0.097 A  
HETATM   31 CL   UNL     1      -6.687  11.129  66.506  1.00  0.00    -0.138 Cl 
HETATM   32  C   UNL     1      -7.917   8.579  63.604  1.00  0.00    -0.161 A  
HETATM   33  C   UNL     1      -9.051   9.267  63.144  1.00  0.00     0.035 A  
BRANCH  30  34
HETATM   34  O   UNL     1      -6.142   8.218  65.053  1.00  0.00    -0.045 OA 
BRANCH  34  35
HETATM   35  C   UNL     1      -5.978   7.989  66.449  1.00  0.00    -0.041 C  
BRANCH  35  36
HETATM   36  C   UNL     1      -6.835   6.847  66.928  1.00  0.00    -0.065 A  
HETATM   37  C   UNL     1      -8.226   6.975  66.985  1.00  0.00    -0.117 A  
HETATM   38  C   UNL     1      -8.986   5.952  67.541  1.00  0.00    -0.107 A  
HETATM   39  C   UNL     1      -8.387   4.802  68.042  1.00  0.00    -0.102 A  
HETATM   40  F   UNL     1     -10.316   6.087  67.613  1.00  0.00    -0.139 F  
HETATM   41  C   UNL     1      -7.004   4.666  67.986  1.00  0.00    -0.057 A  
HETATM   42  C   UNL     1      -6.229   5.682  67.433  1.00  0.00    -0.030 A  
ENDBRANCH  35  36
ENDBRANCH  34  35
ENDBRANCH  30  34
ENDBRANCH  25  27
ENDBRANCH  24  25
ENDBRANCH  13  15
ENDBRANCH   9  10
ENDBRANCH   7   9
ENDBRANCH   6   7
ENDBRANCH   5   6
ENDBRANCH   2   5
TORSDOF 11
ENDMDL
MODEL      244
REMARK 921   NORMALIZED FREE ENERGY PREDICTED BY IDOCK:   -3.03 KCAL/MOL
REMARK 922        TOTAL FREE ENERGY PREDICTED BY IDOCK:   -7.72 KCAL/MOL
REMARK 923 INTER-LIGAND FREE ENERGY PREDICTED BY IDOCK:   -7.18 KCAL/MOL
REMARK 924 INTRA-LIGAND FREE ENERGY PREDICTED BY IDOCK:   -0.55 KCAL/MOL
REMARK 927      BINDING AFFINITY PREDICTED BY RF-SCORE:    0.00 PKD
ROOT
HETATM    1  C   UNL     1     -10.777  12.097  65.127  1.00  0.00    -0.292 C  
HETATM    2  S   UNL     1     -12.266  12.857  64.534  1.00  0.00    -0.435 S  
HETATM    3  O   UNL     1     -13.388  12.141  65.106  1.00  0.00     0.207 OA 
HETATM    4  O   UNL     1     -12.132  13.028  63.101  1.00  0.00    -0.548 OA 
ENDROOT
BRANCH   2   5
HETATM    5  C   UNL     1     -12.187  14.464  65.292  1.00  0.00    -0.377 C  
BRANCH   5   6
HETATM    6  C   UNL     1     -11.824  14.365  66.767  1.00  0.00    -0.410 C  
BRANCH   6   7
HETATM    7  N   UNL     1     -12.129  13.056  67.354  1.00  0.00    -0.301 NA 
HETATM    8  H   UNL     1     -11.748  12.304  66.779  1.00  0.00     0.000 HD 
BRANCH   7   9
HETATM    9  C   UNL     1     -11.685  12.923  68.742  1.00  0.00    -0.323 C  
BRANCH   9  10
HETATM   10  C   UNL     1     -11.499  14.263  69.358  1.00  0.00    -0.292 A  
HETATM   11  C   UNL     1     -12.047  14.881  70.460  1.00  0.00    -0.378 A  
HETATM   12  C   UNL     1     -11.462  16.168  70.527  1.00  0.00    -0.363 A  
HETATM   13  C   UNL     1     -10.572  16.256  69.475  1.00  0.00    -0.314 A  
HETATM   14  O   UNL     1     -10.592  15.087  68.767  1.00  0.00    -0.226 OA 
BRANCH  13  15
HETATM   15  C   UNL     1      -9.660  17.281  68.984  1.00  0.00    -0.171 A  
HETATM   16  C   UNL     1      -8.271  17.126  69.085  1.00  0.00    -0.010 A  
HETATM   17  C   UNL     1      -7.380  18.128  68.614  1.00  0.00    -0.295 A  
HETATM   18  C   UNL     1      -7.901  19.296  68.039  1.00  0.00    -0.298 A  
HETATM   19  C   UNL     1      -9.271  19.441  67.943  1.00  0.00    -0.383 A  
HETATM   20  N   UNL     1      -7.148  20.298  67.585  1.00  0.00    -0.276 NA 
HETATM   21  C   UNL     1      -5.833  20.154  67.723  1.00  0.00    -0.196 A  
HETATM   22  C   UNL     1     -10.144  18.455  68.405  1.00  0.00    -0.418 A  
HETATM   23  N   UNL     1      -5.221  19.102  68.261  1.00  0.00    -0.180 NA 
HETATM   24  C   UNL     1      -5.973  18.081  68.698  1.00  0.00    -0.189 A  
BRANCH  24  25
HETATM   25  N   UNL     1      -5.347  16.972  69.338  1.00  0.00    -0.140 NA 
HETATM   26  H   UNL     1      -4.790  17.193  70.163  1.00  0.00     0.000 HD 
BRANCH  25  27
HETATM   27  C   UNL     1      -5.396  15.605  68.977  1.00  0.00    -0.103 A  
HETATM   28  C   UNL     1      -5.477  14.572  69.910  1.00  0.00    -0.098 A  
HETATM   29  C   UNL     1      -5.624  13.233  69.539  1.00  0.00    -0.087 A  
HETATM   30  C   UNL     1      -5.728  12.893  68.186  1.00  0.00    -0.088 A  
HETATM   31 CL   UNL     1      -5.611  12.129  70.875  1.00  0.00    -0.133 Cl 
HETATM   32  C   UNL     1      -5.578  13.914  67.235  1.00  0.00     0.532 A  
HETATM   33  C   UNL     1      -5.409  15.252  67.625  1.00  0.00    -0.027 A  
BRANCH  30  34
HETATM   34  O   UNL     1      -5.952  11.658  67.628  1.00  0.00    -0.051 OA 
BRANCH  34  35
HETATM   35  C   UNL     1      -5.966  11.609  66.204  1.00  0.00     0.336 C  
BRANCH  35  36
HETATM   36  C   UNL     1      -6.952  10.592  65.694  1.00  0.00    -0.113 A  
HETATM   37  C   UNL     1      -6.970  10.232  64.343  1.00  0.00    -0.060 A  
HETATM   38  C   UNL     1      -7.964   9.382  63.874  1.00  0.00    -0.142 A  
HETATM   39  C   UNL     1      -8.943   8.880  64.726  1.00  0.00    -0.088 A  
HETATM   40  F   UNL     1      -7.992   9.056  62.576  1.00  0.00    -0.115 F  
HETATM   41  C   UNL     1      -8.928   9.230  66.071  1.00  0.00    -0.215 A  
HETATM   42  C   UNL     1      -7.940  10.083  66.557  1.00  0.00    -0.115 A  
ENDBRANCH  35  36
ENDBRANCH  34  35
ENDBRANCH  30  34
ENDBRANCH  25  27
ENDBRANCH  24  25
ENDBRANCH  13  15
ENDBRANCH   9  10
ENDBRANCH   7   9
ENDBRANCH   6   7
ENDBRANCH   5   6
ENDBRANCH   2   5
TORSDOF 11
ENDMDL
MODEL      245
REMARK 921   NORMALIZED FREE ENERGY PREDICTED BY IDOCK:   -2.98 KCAL/MOL
REMARK 922        TOTAL FREE ENERGY PREDICTED BY IDOCK:   -7.64 KCAL/MOL
REMARK 923 INTER-LIGAND FREE ENERGY PREDICTED BY IDOCK:   -6.49 KCAL/MOL
REMARK 924 INTRA-LIGAND FREE ENERGY PREDICTED BY IDOCK:   -1.15 KCAL/MOL
REMARK 927      BINDING AFFINITY PREDICTED BY RF-SCORE:    0.00 PKD
ROOT
HETATM    1  C   UNL     1     -12.046  14.252  64.856  1.00  0.00    -0.435 C  
HETATM    2  S   UNL     1     -11.319  12.667  64.533  1.00  0.00    -0.355 S  
HETATM    3  O   UNL     1     -10.267  12.851  63.554  1.00  0.00    -0.306 OA 
HETATM    4  O   UNL     1     -12.397  11.724  64.313  1.00  0.00    -0.227 OA 
ENDROOT
BRANCH   2   5
HETATM    5  C   UNL     1     -10.562  12.284  66.096  1.00  0.00    -0.249 C  
BRANCH   5   6
HETATM    6  C   UNL     1      -9.536  13.337  66.490  1.00  0.00    -0.264 C  
BRANCH   6   7
HETATM    7  N   UNL     1      -8.291  12.769  67.018  1.00  0.00    -0.322 NA 
HETATM    8  H   UNL     1      -7.481  13.180  66.554  1.00  0.00     0.000 HD 
BRANCH   7   9
HETATM    9  C   UNL     1      -8.170  12.881  68.472  1.00  0.00    -0.065 C  
BRANCH   9  10
HETATM   10  C   UNL     1      -7.581  11.641  69.041  1.00  0.00    -0.027 A  
HETATM   11  C   UNL     1      -6.318  11.092  69.004  1.00  0.00    -0.054 A  
HETATM   12  C   UNL     1      -6.387   9.887  69.743  1.00  0.00    -0.054 A  
HETATM   13  C   UNL     1      -7.682   9.779  70.209  1.00  0.00    -0.172 A  
HETATM   14  O   UNL     1      -8.407  10.856  69.783  1.00  0.00     0.170 OA 
BRANCH  13  15
HETATM   15  C   UNL     1      -8.405   8.806  71.017  1.00  0.00    -0.208 A  
HETATM   16  C   UNL     1      -9.411   8.004  70.461  1.00  0.00    -0.155 A  
HETATM   17  C   UNL     1     -10.124   7.061  71.249  1.00  0.00    -0.199 A  
HETATM   18  C   UNL     1      -9.816   6.931  72.612  1.00  0.00    -0.165 A  
HETATM   19  C   UNL     1      -8.824   7.725  73.152  1.00  0.00    -0.260 A  
HETATM   20  N   UNL     1     -10.439   6.088  73.435  1.00  0.00    -0.233 NA 
HETATM   21  C   UNL     1     -11.417   5.362  72.902  1.00  0.00    -0.275 A  
HETATM   22  C   UNL     1      -8.123   8.650  72.375  1.00  0.00    -0.063 A  
HETATM   23  N   UNL     1     -11.809   5.403  71.631  1.00  0.00     0.500 NA 
HETATM   24  C   UNL     1     -11.170   6.233  70.794  1.00  0.00    -0.324 A  
BRANCH  24  25
HETATM   25  N   UNL     1     -11.613   6.345  69.444  1.00  0.00    -0.618 NA 
HETATM   26  H   UNL     1     -12.617   6.467  69.315  1.00  0.00     0.000 HD 
BRANCH  25  27
HETATM   27  C   UNL     1     -10.842   6.308  68.258  1.00  0.00    -0.319 A  
HETATM   28  C   UNL     1     -10.396   7.454  67.602  1.00  0.00    -0.297 A  
HETATM   29  C   UNL     1      -9.554   7.405  66.488  1.00  0.00    -0.164 A  
HETATM   30  C   UNL     1      -9.100   6.169  66.013  1.00  0.00    -0.121 A  
HETATM   31 CL   UNL     1      -9.212   8.956  65.797  1.00  0.00    -0.278 Cl 
HETATM   32  C   UNL     1      -9.596   5.005  66.621  1.00  0.00    -0.166 A  
HETATM   33  C   UNL     1     -10.459   5.073  67.726  1.00  0.00    -0.053 A  
BRANCH  30  34
HETATM   34  O   UNL     1      -8.216   5.916  64.993  1.00  0.00    -0.130 OA 
BRANCH  34  35
HETATM   35  C   UNL     1      -8.793   5.647  63.719  1.00  0.00     0.306 C  
BRANCH  35  36
HETATM   36  C   UNL     1      -9.137   4.189  63.562  1.00  0.00    -0.132 A  
HETATM   37  C   UNL     1     -10.444   3.792  63.267  1.00  0.00    -0.227 A  
HETATM   38  C   UNL     1     -10.761   2.439  63.245  1.00  0.00    -0.222 A  
HETATM   39  C   UNL     1      -9.798   1.471  63.510  1.00  0.00    -0.121 A  
HETATM   40  F   UNL     1     -12.019   2.063  62.983  1.00  0.00    -0.038 F  
HETATM   41  C   UNL     1      -8.495   1.858  63.800  1.00  0.00    -0.081 A  
HETATM   42  C   UNL     1      -8.162   3.209  63.828  1.00  0.00    -0.086 A  
ENDBRANCH  35  36
ENDBRANCH  34  35
ENDBRANCH  30  34
ENDBRANCH  25  27
ENDBRANCH  24  25
ENDBRANCH  13  15
ENDBRANCH   9  10
ENDBRANCH   7   9
ENDBRANCH   6   7
ENDBRANCH   5   6
ENDBRANCH   2   5
TORSDOF 11
ENDMDL
MODEL      246
REMARK 921   NORMALIZED FREE ENERGY PREDICTED BY IDOCK:   -2.89 KCAL/MOL
REMARK 922        TOTAL FREE ENERGY PREDICTED BY IDOCK:   -7.50 KCAL/MOL
REMARK 923 INTER-LIGAND FREE ENERGY PREDICTED BY IDOCK:   -6.95 KCAL/MOL
REMARK 924 INTRA-LIGAND FREE ENERGY PREDICTED BY IDOCK:   -0.54 KCAL/MOL
REMARK 927      BINDING AFFINITY PREDICTED BY RF-SCORE:    0.00 PKD
ROOT
HETATM    1  C   UNL     1      -6.371  15.530  68.761  1.00  0.00    -0.103 C  
HETATM    2  S   UNL     1      -7.814  16.257  68.027  1.00  0.00    -0.152 S  
HETATM    3  O   UNL     1      -7.474  16.653  66.676  1.00  0.00    -0.227 OA 
HETATM    4  O   UNL     1      -8.360  17.206  68.976  1.00  0.00    -0.220 OA 
ENDROOT
BRANCH   2   5
HETATM    5  C   UNL     1      -8.921  14.867  67.937  1.00  0.00    -0.177 C  
BRANCH   5   6
HETATM    6  C   UNL     1      -8.821  14.164  66.591  1.00  0.00    -0.114 C  
BRANCH   6   7
HETATM    7  N   UNL     1      -9.637  12.948  66.508  1.00  0.00    -0.256 NA 
HETATM    8  H   UNL     1      -9.777  12.672  65.536  1.00  0.00     0.000 HD 
BRANCH   7   9
HETATM    9  C   UNL     1      -9.103  11.834  67.293  1.00  0.00    -0.171 C  
BRANCH   9  10
HETATM   10  C   UNL     1      -8.146  11.039  66.480  1.00  0.00    -0.161 A  
HETATM   11  C   UNL     1      -6.912  11.317  65.933  1.00  0.00     0.220 A  
HETATM   12  C   UNL     1      -6.501  10.141  65.263  1.00  0.00    -0.119 A  
HETATM   13  C   UNL     1      -7.495   9.203  65.456  1.00  0.00    -0.089 A  
HETATM   14  O   UNL     1      -8.496   9.754  66.206  1.00  0.00    -0.122 OA 
BRANCH  13  15
HETATM   15  C   UNL     1      -7.695   7.818  65.049  1.00  0.00    -0.107 A  
HETATM   16  C   UNL     1      -7.885   6.803  65.997  1.00  0.00    -0.104 A  
HETATM   17  C   UNL     1      -8.071   5.450  65.604  1.00  0.00    -0.115 A  
HETATM   18  C   UNL     1      -8.062   5.124  64.239  1.00  0.00    -0.125 A  
HETATM   19  C   UNL     1      -7.873   6.130  63.312  1.00  0.00    -0.100 A  
HETATM   20  N   UNL     1      -8.211   3.884  63.773  1.00  0.00    -0.089 NA 
HETATM   21  C   UNL     1      -8.351   2.926  64.685  1.00  0.00    -0.087 A  
HETATM   22  C   UNL     1      -7.693   7.458  63.701  1.00  0.00    -0.125 A  
HETATM   23  N   UNL     1      -8.364   3.107  66.003  1.00  0.00    -0.098 NA 
HETATM   24  C   UNL     1      -8.237   4.356  66.477  1.00  0.00    -0.102 A  
BRANCH  24  25
HETATM   25  N   UNL     1      -8.182   4.570  67.885  1.00  0.00    -0.095 NA 
HETATM   26  H   UNL     1      -7.496   4.010  68.391  1.00  0.00     0.000 HD 
BRANCH  25  27
HETATM   27  C   UNL     1      -8.953   5.457  68.671  1.00  0.00    -0.107 A  
HETATM   28  C   UNL     1      -8.459   6.659  69.173  1.00  0.00    -0.124 A  
HETATM   29  C   UNL     1      -9.258   7.572  69.866  1.00  0.00    -0.147 A  
HETATM   30  C   UNL     1     -10.620   7.307  70.048  1.00  0.00    -0.233 A  
HETATM   31 CL   UNL     1      -8.394   8.949  70.467  1.00  0.00    -0.151 Cl 
HETATM   32  C   UNL     1     -11.116   6.069  69.609  1.00  0.00    -0.474 A  
HETATM   33  C   UNL     1     -10.293   5.154  68.934  1.00  0.00    -0.186 A  
BRANCH  30  34
HETATM   34  O   UNL     1     -11.578   8.103  70.625  1.00  0.00    -0.272 OA 
BRANCH  34  35
HETATM   35  C   UNL     1     -11.378   8.426  71.998  1.00  0.00    -0.342 C  
BRANCH  35  36
HETATM   36  C   UNL     1     -10.952   7.221  72.795  1.00  0.00    -0.366 A  
HETATM   37  C   UNL     1     -11.653   6.016  72.694  1.00  0.00    -0.266 A  
HETATM   38  C   UNL     1     -11.315   4.956  73.527  1.00  0.00    -0.222 A  
HETATM   39  C   UNL     1     -10.289   5.072  74.459  1.00  0.00    -0.315 A  
HETATM   40  F   UNL     1     -12.001   3.809  73.443  1.00  0.00    -0.260 F  
HETATM   41  C   UNL     1      -9.585   6.266  74.562  1.00  0.00    -0.277 A  
HETATM   42  C   UNL     1      -9.913   7.339  73.737  1.00  0.00    -0.368 A  
ENDBRANCH  35  36
ENDBRANCH  34  35
ENDBRANCH  30  34
ENDBRANCH  25  27
ENDBRANCH  24  25
ENDBRANCH  13  15
ENDBRANCH   9  10
ENDBRANCH   7   9
ENDBRANCH   6   7
ENDBRANCH   5   6
ENDBRANCH   2   5
TORSDOF 11
ENDMDL
MODEL      247
REMARK 921   NORMALIZED FREE ENERGY PREDICTED BY IDOCK:   -2.89 KCAL/MOL
REMARK 922        TOTAL FREE ENERGY PREDICTED BY IDOCK:   -7.49 KCAL/MOL
REMARK 923 INTER-LIGAND FREE ENERGY PREDICTED BY IDOCK:   -5.53 KCAL/MOL
REMARK 924 INTRA-LIGAND FREE ENERGY PREDICTED BY IDOCK:   -1.96 KCAL/MOL
REMARK 927      BINDING AFFINITY PREDICTED BY RF-SCORE:    0.00 PKD
ROOT
HETATM    1  C   UNL     1     -11.741   7.835  73.056  1.00  0.00    -0.034 C  
HETATM    2  S   UNL     1     -10.141   7.406  72.421  1.00  0.00    -0.199 S  
HETATM    3  O   UNL     1     -10.009   5.965  72.486  1.00  0.00    -0.175 OA 
HETATM    4  O   UNL     1      -9.170   8.281  73.046  1.00  0.00    -0.260 OA 
ENDROOT
BRANCH   2   5
HETATM    5  C   UNL     1     -10.286   7.874  70.711  1.00  0.00    -0.194 C  
BRANCH   5   6
HETATM    6  C   UNL     1     -10.582   9.360  70.564  1.00  0.00    -0.271 C  
BRANCH   6   7
HETATM    7  N   UNL     1      -9.411  10.211  70.797  1.00  0.00    -0.143 NA 
HETATM    8  H   UNL     1      -9.392  10.544  71.762  1.00  0.00     0.000 HD 
BRANCH   7   9
HETATM    9  C   UNL     1      -8.144   9.569  70.445  1.00  0.00    -0.183 C  
BRANCH   9  10
HETATM   10  C   UNL     1      -7.297  10.496  69.650  1.00  0.00    -0.149 A  
HETATM   11  C   UNL     1      -6.364  10.304  68.654  1.00  0.00    -0.051 A  
HETATM   12  C   UNL     1      -5.898  11.591  68.293  1.00  0.00    -0.045 A  
HETATM   13  C   UNL     1      -6.589  12.498  69.072  1.00  0.00    -0.100 A  
HETATM   14  O   UNL     1      -7.448  11.825  69.895  1.00  0.00     0.462 OA 
BRANCH  13  15
HETATM   15  C   UNL     1      -6.595  13.949  69.197  1.00  0.00    -0.111 A  
HETATM   16  C   UNL     1      -7.710  14.707  68.811  1.00  0.00    -0.137 A  
HETATM   17  C   UNL     1      -7.716  16.123  68.924  1.00  0.00    -0.207 A  
HETATM   18  C   UNL     1      -6.581  16.777  69.429  1.00  0.00    -0.228 A  
HETATM   19  C   UNL     1      -5.487  16.024  69.805  1.00  0.00    -0.137 A  
HETATM   20  N   UNL     1      -6.485  18.100  69.556  1.00  0.00    -0.228 NA 
HETATM   21  C   UNL     1      -7.535  18.808  69.150  1.00  0.00    -0.172 A  
HETATM   22  C   UNL     1      -5.485  14.632  69.696  1.00  0.00    -0.093 A  
HETATM   23  N   UNL     1      -8.660  18.306  68.645  1.00  0.00    -0.311 NA 
HETATM   24  C   UNL     1      -8.771  16.974  68.536  1.00  0.00    -0.253 A  
BRANCH  24  25
HETATM   25  N   UNL     1      -9.937  16.414  67.937  1.00  0.00    -0.239 NA 
HETATM   26  H   UNL     1     -10.805  16.924  68.098  1.00  0.00     0.000 HD 
BRANCH  25  27
HETATM   27  C   UNL     1     -10.047  15.244  67.149  1.00  0.00    -0.240 A  
HETATM   28  C   UNL     1     -10.586  14.051  67.626  1.00  0.00    -0.249 A  
HETATM   29  C   UNL     1     -10.779  12.933  66.811  1.00  0.00    -0.261 A  
HETATM   30  C   UNL     1     -10.456  12.999  65.451  1.00  0.00    -0.296 A  
HETATM   31 CL   UNL     1     -11.378  11.543  67.655  1.00  0.00    -0.346 Cl 
HETATM   32  C   UNL     1      -9.849  14.171  64.972  1.00  0.00    -0.064 A  
HETATM   33  C   UNL     1      -9.643  15.277  65.811  1.00  0.00    -0.359 A  
BRANCH  30  34
HETATM   34  O   UNL     1     -10.643  12.047  64.479  1.00  0.00    -0.280 OA 
BRANCH  34  35
HETATM   35  C   UNL     1      -9.515  11.766  63.655  1.00  0.00    -0.086 C  
BRANCH  35  36
HETATM   36  C   UNL     1      -8.602  10.752  64.292  1.00  0.00    -0.034 A  
HETATM   37  C   UNL     1      -7.268  11.067  64.568  1.00  0.00     0.733 A  
HETATM   38  C   UNL     1      -6.415  10.079  65.044  1.00  0.00    -0.117 A  
HETATM   39  C   UNL     1      -6.865   8.779  65.253  1.00  0.00    -0.072 A  
HETATM   40  F   UNL     1      -5.133  10.379  65.288  1.00  0.00    -0.046 F  
HETATM   41  C   UNL     1      -8.191   8.459  64.984  1.00  0.00    -0.155 A  
HETATM   42  C   UNL     1      -9.058   9.438  64.504  1.00  0.00    -0.205 A  
ENDBRANCH  35  36
ENDBRANCH  34  35
ENDBRANCH  30  34
ENDBRANCH  25  27
ENDBRANCH  24  25
ENDBRANCH  13  15
ENDBRANCH   9  10
ENDBRANCH   7   9
ENDBRANCH   6   7
ENDBRANCH   5   6
ENDBRANCH   2   5
TORSDOF 11
ENDMDL
MODEL      248
REMARK 921   NORMALIZED FREE ENERGY PREDICTED BY IDOCK:   -2.87 KCAL/MOL
REMARK 922        TOTAL FREE ENERGY PREDICTED BY IDOCK:   -7.46 KCAL/MOL
REMARK 923 INTER-LIGAND FREE ENERGY PREDICTED BY IDOCK:   -5.73 KCAL/MOL
REMARK 924 INTRA-LIGAND FREE ENERGY PREDICTED BY IDOCK:   -1.73 KCAL/MOL
REMARK 927      BINDING AFFINITY PREDICTED BY RF-SCORE:    0.00 PKD
ROOT
HETATM    1  C   UNL     1      -8.632  16.584  68.483  1.00  0.00    -0.223 C  
HETATM    2  S   UNL     1      -7.667  15.796  67.220  1.00  0.00    -0.220 S  
HETATM    3  O   UNL     1      -6.828  14.802  67.858  1.00  0.00    -0.127 OA 
HETATM    4  O   UNL     1      -7.101  16.836  66.384  1.00  0.00    -0.236 OA 
ENDROOT
BRANCH   2   5
HETATM    5  C   UNL     1      -8.915  14.948  66.278  1.00  0.00    -0.158 C  
BRANCH   5   6
HETATM    6  C   UNL     1     -10.311  15.260  66.797  1.00  0.00    -0.279 C  
BRANCH   6   7
HETATM    7  N   UNL     1     -11.039  14.073  67.257  1.00  0.00    -0.295 NA 
HETATM    8  H   UNL     1     -11.331  14.181  68.228  1.00  0.00     0.000 HD 
BRANCH   7   9
HETATM    9  C   UNL     1     -12.179  13.724  66.408  1.00  0.00    -0.436 C  
BRANCH   9  10
HETATM   10  C   UNL     1     -11.714  13.057  65.164  1.00  0.00    -0.343 A  
HETATM   11  C   UNL     1     -11.946  13.286  63.825  1.00  0.00    -0.551 A  
HETATM   12  C   UNL     1     -11.213  12.302  63.121  1.00  0.00    -0.236 A  
HETATM   13  C   UNL     1     -10.556  11.541  64.067  1.00  0.00    -0.379 A  
HETATM   14  O   UNL     1     -10.859  12.010  65.314  1.00  0.00    -0.277 OA 
BRANCH  13  15
HETATM   15  C   UNL     1      -9.652  10.399  64.020  1.00  0.00    -0.376 A  
HETATM   16  C   UNL     1      -8.845  10.066  65.116  1.00  0.00    -0.207 A  
HETATM   17  C   UNL     1      -7.956   8.959  65.070  1.00  0.00    -0.125 A  
HETATM   18  C   UNL     1      -7.883   8.183  63.903  1.00  0.00    -0.147 A  
HETATM   19  C   UNL     1      -8.682   8.518  62.827  1.00  0.00     0.044 A  
HETATM   20  N   UNL     1      -7.070   7.138  63.758  1.00  0.00    -0.064 NA 
HETATM   21  C   UNL     1      -6.282   6.858  64.792  1.00  0.00    -0.036 A  
HETATM   22  C   UNL     1      -9.556   9.606  62.875  1.00  0.00     0.376 A  
HETATM   23  N   UNL     1      -6.250   7.523  65.944  1.00  0.00    -0.041 NA 
HETATM   24  C   UNL     1      -7.082   8.562  66.104  1.00  0.00    -0.077 A  
BRANCH  24  25
HETATM   25  N   UNL     1      -7.022   9.332  67.302  1.00  0.00    -0.081 NA 
HETATM   26  H   UNL     1      -6.804  10.321  67.183  1.00  0.00     0.000 HD 
BRANCH  25  27
HETATM   27  C   UNL     1      -7.224   8.903  68.634  1.00  0.00    -0.072 A  
HETATM   28  C   UNL     1      -8.289   8.091  69.022  1.00  0.00    -0.129 A  
HETATM   29  C   UNL     1      -8.423   7.594  70.321  1.00  0.00    -0.134 A  
HETATM   30  C   UNL     1      -7.447   7.883  71.281  1.00  0.00    -0.073 A  
HETATM   31 CL   UNL     1      -9.875   6.684  70.578  1.00  0.00    -0.187 Cl 
HETATM   32  C   UNL     1      -6.407   8.755  70.924  1.00  0.00    -0.049 A  
HETATM   33  C   UNL     1      -6.299   9.263  69.619  1.00  0.00    -0.039 A  
BRANCH  30  34
HETATM   34  O   UNL     1      -7.358   7.431  72.574  1.00  0.00    -0.070 OA 
BRANCH  34  35
HETATM   35  C   UNL     1      -6.504   6.310  72.787  1.00  0.00    -0.063 C  
BRANCH  35  36
HETATM   36  C   UNL     1      -6.943   5.117  71.980  1.00  0.00    -0.073 A  
HETATM   37  C   UNL     1      -6.123   4.597  70.974  1.00  0.00    -0.018 A  
HETATM   38  C   UNL     1      -6.599   3.572  70.164  1.00  0.00    -0.033 A  
HETATM   39  C   UNL     1      -7.878   3.054  70.337  1.00  0.00    -0.046 A  
HETATM   40  F   UNL     1      -5.819   3.090  69.188  1.00  0.00    -0.020 F  
HETATM   41  C   UNL     1      -8.697   3.564  71.337  1.00  0.00    -0.125 A  
HETATM   42  C   UNL     1      -8.236   4.592  72.156  1.00  0.00    -0.105 A  
ENDBRANCH  35  36
ENDBRANCH  34  35
ENDBRANCH  30  34
ENDBRANCH  25  27
ENDBRANCH  24  25
ENDBRANCH  13  15
ENDBRANCH   9  10
ENDBRANCH   7   9
ENDBRANCH   6   7
ENDBRANCH   5   6
ENDBRANCH   2   5
TORSDOF 11
ENDMDL
MODEL      249
REMARK 921   NORMALIZED FREE ENERGY PREDICTED BY IDOCK:   -2.81 KCAL/MOL
REMARK 922        TOTAL FREE ENERGY PREDICTED BY IDOCK:   -7.37 KCAL/MOL
REMARK 923 INTER-LIGAND FREE ENERGY PREDICTED BY IDOCK:   -5.48 KCAL/MOL
REMARK 924 INTRA-LIGAND FREE ENERGY PREDICTED BY IDOCK:   -1.89 KCAL/MOL
REMARK 927      BINDING AFFINITY PREDICTED BY RF-SCORE:    0.00 PKD
ROOT
HETATM    1  C   UNL     1      -9.522   3.627  69.989  1.00  0.00    -0.190 C  
HETATM    2  S   UNL     1      -8.085   3.833  71.008  1.00  0.00    -0.067 S  
HETATM    3  O   UNL     1      -8.513   4.396  72.273  1.00  0.00    -0.106 OA 
HETATM    4  O   UNL     1      -7.063   4.474  70.205  1.00  0.00    -0.046 OA 
ENDROOT
BRANCH   2   5
HETATM    5  C   UNL     1      -7.589   2.148  71.290  1.00  0.00    -0.036 C  
BRANCH   5   6
HETATM    6  C   UNL     1      -6.316   1.809  70.527  1.00  0.00    -0.024 C  
BRANCH   6   7
HETATM    7  N   UNL     1      -6.554   1.472  69.120  1.00  0.00    -0.029 NA 
HETATM    8  H   UNL     1      -7.522   1.663  68.861  1.00  0.00     0.000 HD 
BRANCH   7   9
HETATM    9  C   UNL     1      -5.630   2.136  68.199  1.00  0.00    -0.018 C  
BRANCH   9  10
HETATM   10  C   UNL     1      -6.380   2.785  67.092  1.00  0.00    -0.032 A  
HETATM   11  C   UNL     1      -7.517   2.445  66.393  1.00  0.00    -0.070 A  
HETATM   12  C   UNL     1      -7.729   3.480  65.451  1.00  0.00    -0.081 A  
HETATM   13  C   UNL     1      -6.724   4.406  65.643  1.00  0.00    -0.052 A  
HETATM   14  O   UNL     1      -5.904   3.981  66.651  1.00  0.00    -0.021 OA 
BRANCH  13  15
HETATM   15  C   UNL     1      -6.367   5.677  65.027  1.00  0.00    -0.041 A  
HETATM   16  C   UNL     1      -6.356   6.866  65.770  1.00  0.00    -0.046 A  
HETATM   17  C   UNL     1      -6.018   8.109  65.170  1.00  0.00    -0.045 A  
HETATM   18  C   UNL     1      -5.689   8.147  63.806  1.00  0.00    -0.061 A  
HETATM   19  C   UNL     1      -5.702   6.972  63.082  1.00  0.00    -0.040 A  
HETATM   20  N   UNL     1      -5.375   9.264  63.152  1.00  0.00    -0.068 NA 
HETATM   21  C   UNL     1      -5.407  10.390  63.860  1.00  0.00    -0.151 A  
HETATM   22  C   UNL     1      -6.034   5.751  63.674  1.00  0.00    -0.024 A  
HETATM   23  N   UNL     1      -5.714  10.484  65.151  1.00  0.00    -0.139 NA 
HETATM   24  C   UNL     1      -6.009   9.359  65.821  1.00  0.00    -0.055 A  
BRANCH  24  25
HETATM   25  N   UNL     1      -6.405   9.440  67.187  1.00  0.00    -0.065 NA 
HETATM   26  H   UNL     1      -5.647   9.433  67.869  1.00  0.00     0.000 HD 
BRANCH  25  27
HETATM   27  C   UNL     1      -7.711   9.530  67.721  1.00  0.00    -0.088 A  
HETATM   28  C   UNL     1      -8.045   9.090  69.001  1.00  0.00    -0.107 A  
HETATM   29  C   UNL     1      -9.315   9.273  69.554  1.00  0.00    -0.173 A  
HETATM   30  C   UNL     1     -10.300   9.949  68.825  1.00  0.00    -0.203 A  
HETATM   31 CL   UNL     1      -9.509   8.560  71.121  1.00  0.00    -0.225 Cl 
HETATM   32  C   UNL     1     -10.000  10.336  67.510  1.00  0.00    -0.226 A  
HETATM   33  C   UNL     1      -8.724  10.125  66.963  1.00  0.00    -0.137 A  
BRANCH  30  34
HETATM   34  O   UNL     1     -11.570  10.295  69.217  1.00  0.00    -0.206 OA 
BRANCH  34  35
HETATM   35  C   UNL     1     -11.676  10.968  70.468  1.00  0.00    -0.318 C  
BRANCH  35  36
HETATM   36  C   UNL     1     -11.967  12.434  70.287  1.00  0.00    -0.371 A  
HETATM   37  C   UNL     1     -11.722  13.063  69.063  1.00  0.00    -0.376 A  
HETATM   38  C   UNL     1     -11.886  14.439  68.955  1.00  0.00    -0.320 A  
HETATM   39  C   UNL     1     -12.291  15.202  70.045  1.00  0.00    -0.356 A  
HETATM   40  F   UNL     1     -11.630  15.041  67.787  1.00  0.00    -0.311 F  
HETATM   41  C   UNL     1     -12.540  14.583  71.264  1.00  0.00    -0.415 A  
HETATM   42  C   UNL     1     -12.379  13.206  71.389  1.00  0.00    -0.143 A  
ENDBRANCH  35  36
ENDBRANCH  34  35
ENDBRANCH  30  34
ENDBRANCH  25  27
ENDBRANCH  24  25
ENDBRANCH  13  15
ENDBRANCH   9  10
ENDBRANCH   7   9
ENDBRANCH   6   7
ENDBRANCH   5   6
ENDBRANCH   2   5
TORSDOF 11
ENDMDL
MODEL      250
REMARK 921   NORMALIZED FREE ENERGY PREDICTED BY IDOCK:   -2.78 KCAL/MOL
REMARK 922        TOTAL FREE ENERGY PREDICTED BY IDOCK:   -7.32 KCAL/MOL
REMARK 923 INTER-LIGAND FREE ENERGY PREDICTED BY IDOCK:   -5.14 KCAL/MOL
REMARK 924 INTRA-LIGAND FREE ENERGY PREDICTED BY IDOCK:   -2.18 KCAL/MOL
REMARK 927      BINDING AFFINITY PREDICTED BY RF-SCORE:    0.00 PKD
ROOT
HETATM    1  C   UNL     1     -11.729  14.869  74.026  1.00  0.00     0.182 C  
HETATM    2  S   UNL     1     -12.684  15.973  73.018  1.00  0.00    -0.487 S  
HETATM    3  O   UNL     1     -11.832  16.446  71.946  1.00  0.00    -0.497 OA 
HETATM    4  O   UNL     1     -13.367  16.897  73.902  1.00  0.00    -0.137 OA 
ENDROOT
BRANCH   2   5
HETATM    5  C   UNL     1     -13.899  14.877  72.320  1.00  0.00    -0.483 C  
BRANCH   5   6
HETATM    6  C   UNL     1     -13.244  13.757  71.524  1.00  0.00    -0.341 C  
BRANCH   6   7
HETATM    7  N   UNL     1     -13.647  12.418  71.964  1.00  0.00    -0.359 NA 
HETATM    8  H   UNL     1     -14.412  12.063  71.388  1.00  0.00     0.000 HD 
BRANCH   7   9
HETATM    9  C   UNL     1     -12.541  11.460  72.004  1.00  0.00     0.171 C  
BRANCH   9  10
HETATM   10  C   UNL     1     -12.185  11.021  70.630  1.00  0.00    -0.385 A  
HETATM   11  C   UNL     1     -12.881  10.372  69.635  1.00  0.00     0.437 A  
HETATM   12  C   UNL     1     -11.987  10.238  68.546  1.00  0.00     0.449 A  
HETATM   13  C   UNL     1     -10.801  10.833  68.928  1.00  0.00    -0.227 A  
HETATM   14  O   UNL     1     -10.928  11.317  70.200  1.00  0.00    -0.079 OA 
BRANCH  13  15
HETATM   15  C   UNL     1      -9.507  11.043  68.295  1.00  0.00    -0.172 A  
HETATM   16  C   UNL     1      -8.831   9.993  67.658  1.00  0.00    -0.121 A  
HETATM   17  C   UNL     1      -7.564  10.193  67.047  1.00  0.00    -0.092 A  
HETATM   18  C   UNL     1      -6.976  11.467  67.083  1.00  0.00    -0.128 A  
HETATM   19  C   UNL     1      -7.648  12.495  67.713  1.00  0.00    -0.138 A  
HETATM   20  N   UNL     1      -5.786  11.748  66.554  1.00  0.00    -0.222 NA 
HETATM   21  C   UNL     1      -5.139  10.734  65.988  1.00  0.00    -0.102 A  
HETATM   22  C   UNL     1      -8.894  12.297  68.311  1.00  0.00    -0.178 A  
HETATM   23  N   UNL     1      -5.584   9.483  65.901  1.00  0.00    -0.044 NA 
HETATM   24  C   UNL     1      -6.792   9.199  66.411  1.00  0.00    -0.079 A  
BRANCH  24  25
HETATM   25  N   UNL     1      -7.264   7.854  66.390  1.00  0.00    -0.080 NA 
HETATM   26  H   UNL     1      -7.521   7.489  65.474  1.00  0.00     0.000 HD 
BRANCH  25  27
HETATM   27  C   UNL     1      -7.421   6.959  67.474  1.00  0.00    -0.097 A  
HETATM   28  C   UNL     1      -8.410   5.978  67.517  1.00  0.00    -0.108 A  
HETATM   29  C   UNL     1      -8.495   5.037  68.546  1.00  0.00    -0.091 A  
HETATM   30  C   UNL     1      -7.542   5.040  69.571  1.00  0.00    -0.057 A  
HETATM   31 CL   UNL     1      -9.862   3.980  68.422  1.00  0.00    -0.123 Cl 
HETATM   32  C   UNL     1      -6.583   6.065  69.579  1.00  0.00    -0.044 A  
HETATM   33  C   UNL     1      -6.526   7.015  68.547  1.00  0.00    -0.036 A  
BRANCH  30  34
HETATM   34  O   UNL     1      -7.408   4.162  70.618  1.00  0.00    -0.040 OA 
BRANCH  34  35
HETATM   35  C   UNL     1      -8.546   4.017  71.462  1.00  0.00    -0.104 C  
BRANCH  35  36
HETATM   36  C   UNL     1      -8.796   5.259  72.276  1.00  0.00    -0.132 A  
HETATM   37  C   UNL     1      -9.649   6.261  71.803  1.00  0.00    -0.165 A  
HETATM   38  C   UNL     1      -9.771   7.449  72.515  1.00  0.00    -0.160 A  
HETATM   39  C   UNL     1      -9.058   7.658  73.691  1.00  0.00    -0.327 A  
HETATM   40  F   UNL     1     -10.572   8.414  72.049  1.00  0.00    -0.286 F  
HETATM   41  C   UNL     1      -8.211   6.665  74.169  1.00  0.00    -0.141 A  
HETATM   42  C   UNL     1      -8.077   5.470  73.467  1.00  0.00    -0.113 A  
ENDBRANCH  35  36
ENDBRANCH  34  35
ENDBRANCH  30  34
ENDBRANCH  25  27
ENDBRANCH  24  25
ENDBRANCH  13  15
ENDBRANCH   9  10
ENDBRANCH   7   9
ENDBRANCH   6   7
ENDBRANCH   5   6
ENDBRANCH   2   5
TORSDOF 11
ENDMDL
MODEL      251
REMARK 921   NORMALIZED FREE ENERGY PREDICTED BY IDOCK:   -2.75 KCAL/MOL
REMARK 922        TOTAL FREE ENERGY PREDICTED BY IDOCK:   -7.27 KCAL/MOL
REMARK 923 INTER-LIGAND FREE ENERGY PREDICTED BY IDOCK:   -6.38 KCAL/MOL
REMARK 924 INTRA-LIGAND FREE ENERGY PREDICTED BY IDOCK:   -0.89 KCAL/MOL
REMARK 927      BINDING AFFINITY PREDICTED BY RF-SCORE:    0.00 PKD
ROOT
HETATM    1  C   UNL     1      -6.734  14.559  69.109  1.00  0.00    -0.115 C  
HETATM    2  S   UNL     1      -8.078  15.351  68.265  1.00  0.00    -0.141 S  
HETATM    3  O   UNL     1      -7.575  15.855  67.002  1.00  0.00    -0.197 OA 
HETATM    4  O   UNL     1      -8.742  16.223  69.213  1.00  0.00    -0.236 OA 
ENDROOT
BRANCH   2   5
HETATM    5  C   UNL     1      -9.159  13.980  67.924  1.00  0.00    -0.188 C  
BRANCH   5   6
HETATM    6  C   UNL     1      -8.873  13.373  66.558  1.00  0.00     0.024 C  
BRANCH   6   7
HETATM    7  N   UNL     1      -9.699  12.199  66.259  1.00  0.00    -0.234 NA 
HETATM    8  H   UNL     1      -9.789  12.067  65.252  1.00  0.00     0.000 HD 
BRANCH   7   9
HETATM    9  C   UNL     1      -9.223  10.973  66.902  1.00  0.00    -0.155 C  
BRANCH   9  10
HETATM   10  C   UNL     1      -8.071  10.408  66.153  1.00  0.00    -0.139 A  
HETATM   11  C   UNL     1      -6.819  10.889  65.841  1.00  0.00    -0.032 A  
HETATM   12  C   UNL     1      -6.175   9.870  65.100  1.00  0.00    -0.100 A  
HETATM   13  C   UNL     1      -7.061   8.815  65.019  1.00  0.00    -0.080 A  
HETATM   14  O   UNL     1      -8.216   9.144  65.670  1.00  0.00    -0.112 OA 
BRANCH  13  15
HETATM   15  C   UNL     1      -7.027   7.489  64.417  1.00  0.00    -0.056 A  
HETATM   16  C   UNL     1      -7.271   6.338  65.179  1.00  0.00    -0.070 A  
HETATM   17  C   UNL     1      -7.230   5.043  64.596  1.00  0.00    -0.062 A  
HETATM   18  C   UNL     1      -6.938   4.913  63.229  1.00  0.00    -0.042 A  
HETATM   19  C   UNL     1      -6.698   6.052  62.486  1.00  0.00    -0.040 A  
HETATM   20  N   UNL     1      -6.860   3.743  62.597  1.00  0.00    -0.034 NA 
HETATM   21  C   UNL     1      -7.055   2.658  63.341  1.00  0.00    -0.040 A  
HETATM   22  C   UNL     1      -6.741   7.323  63.061  1.00  0.00    -0.053 A  
HETATM   23  N   UNL     1      -7.327   2.651  64.644  1.00  0.00    -0.064 NA 
HETATM   24  C   UNL     1      -7.429   3.827  65.281  1.00  0.00    -0.077 A  
BRANCH  24  25
HETATM   25  N   UNL     1      -7.654   3.845  66.688  1.00  0.00    -0.087 NA 
HETATM   26  H   UNL     1      -7.193   3.107  67.220  1.00  0.00     0.000 HD 
BRANCH  25  27
HETATM   27  C   UNL     1      -8.432   4.753  67.443  1.00  0.00    -0.104 A  
HETATM   28  C   UNL     1      -7.909   5.532  68.475  1.00  0.00    -0.088 A  
HETATM   29  C   UNL     1      -8.664   6.496  69.148  1.00  0.00    -0.129 A  
HETATM   30  C   UNL     1      -9.991   6.730  68.769  1.00  0.00    -0.147 A  
HETATM   31 CL   UNL     1      -7.819   7.269  70.448  1.00  0.00    -0.098 Cl 
HETATM   32  C   UNL     1     -10.551   5.906  67.780  1.00  0.00    -0.331 A  
HETATM   33  C   UNL     1      -9.783   4.927  67.129  1.00  0.00    -0.194 A  
BRANCH  30  34
HETATM   34  O   UNL     1     -10.865   7.675  69.248  1.00  0.00    -0.198 OA 
BRANCH  34  35
HETATM   35  C   UNL     1     -11.008   7.733  70.664  1.00  0.00    -0.249 C  
BRANCH  35  36
HETATM   36  C   UNL     1     -11.945   8.835  71.082  1.00  0.00    -0.331 A  
HETATM   37  C   UNL     1     -11.703  10.158  70.703  1.00  0.00    -0.425 A  
HETATM   38  C   UNL     1     -12.514  11.172  71.199  1.00  0.00    -0.393 A  
HETATM   39  C   UNL     1     -13.565  10.893  72.067  1.00  0.00    -0.152 A  
HETATM   40  F   UNL     1     -12.267  12.441  70.852  1.00  0.00    -0.446 F  
HETATM   41  C   UNL     1     -13.814   9.578  72.445  1.00  0.00    -0.355 A  
HETATM   42  C   UNL     1     -13.010   8.551  71.958  1.00  0.00    -0.406 A  
ENDBRANCH  35  36
ENDBRANCH  34  35
ENDBRANCH  30  34
ENDBRANCH  25  27
ENDBRANCH  24  25
ENDBRANCH  13  15
ENDBRANCH   9  10
ENDBRANCH   7   9
ENDBRANCH   6   7
ENDBRANCH   5   6
ENDBRANCH   2   5
TORSDOF 11
ENDMDL
MODEL      252
REMARK 921   NORMALIZED FREE ENERGY PREDICTED BY IDOCK:   -2.73 KCAL/MOL
REMARK 922        TOTAL FREE ENERGY PREDICTED BY IDOCK:   -7.23 KCAL/MOL
REMARK 923 INTER-LIGAND FREE ENERGY PREDICTED BY IDOCK:   -6.16 KCAL/MOL
REMARK 924 INTRA-LIGAND FREE ENERGY PREDICTED BY IDOCK:   -1.07 KCAL/MOL
REMARK 927      BINDING AFFINITY PREDICTED BY RF-SCORE:    0.00 PKD
ROOT
HETATM    1  C   UNL     1     -12.981  15.548  73.876  1.00  0.00    -0.351 C  
HETATM    2  S   UNL     1     -12.751  15.770  72.131  1.00  0.00    -0.445 S  
HETATM    3  O   UNL     1     -11.816  16.860  71.941  1.00  0.00    -0.051 OA 
HETATM    4  O   UNL     1     -14.061  15.785  71.512  1.00  0.00    -0.478 OA 
ENDROOT
BRANCH   2   5
HETATM    5  C   UNL     1     -11.940  14.256  71.670  1.00  0.00    -0.085 C  
BRANCH   5   6
HETATM    6  C   UNL     1     -10.911  14.488  70.573  1.00  0.00     0.149 C  
BRANCH   6   7
HETATM    7  N   UNL     1     -11.405  15.336  69.483  1.00  0.00    -0.267 NA 
HETATM    8  H   UNL     1     -12.073  16.023  69.833  1.00  0.00     0.000 HD 
BRANCH   7   9
HETATM    9  C   UNL     1     -10.338  15.990  68.724  1.00  0.00    -0.237 C  
BRANCH   9  10
HETATM   10  C   UNL     1      -9.075  15.214  68.832  1.00  0.00    -0.206 A  
HETATM   11  C   UNL     1      -7.791  15.546  69.207  1.00  0.00    -0.227 A  
HETATM   12  C   UNL     1      -7.028  14.359  69.103  1.00  0.00    -0.123 A  
HETATM   13  C   UNL     1      -7.892  13.363  68.692  1.00  0.00    -0.073 A  
HETATM   14  O   UNL     1      -9.144  13.889  68.535  1.00  0.00    -0.189 OA 
BRANCH  13  15
HETATM   15  C   UNL     1      -7.759  11.941  68.405  1.00  0.00    -0.131 A  
HETATM   16  C   UNL     1      -8.644  11.291  67.534  1.00  0.00    -0.134 A  
HETATM   17  C   UNL     1      -8.523   9.902  67.259  1.00  0.00    -0.121 A  
HETATM   18  C   UNL     1      -7.497   9.167  67.872  1.00  0.00    -0.084 A  
HETATM   19  C   UNL     1      -6.630   9.815  68.729  1.00  0.00    -0.046 A  
HETATM   20  N   UNL     1      -7.312   7.860  67.691  1.00  0.00    -0.094 NA 
HETATM   21  C   UNL     1      -8.183   7.248  66.893  1.00  0.00    -0.117 A  
HETATM   22  C   UNL     1      -6.750  11.180  68.997  1.00  0.00    -0.085 A  
HETATM   23  N   UNL     1      -9.201   7.831  66.265  1.00  0.00    -0.180 NA 
HETATM   24  C   UNL     1      -9.378   9.151  66.426  1.00  0.00    -0.204 A  
BRANCH  24  25
HETATM   25  N   UNL     1     -10.498   9.788  65.818  1.00  0.00    -0.034 NA 
HETATM   26  H   UNL     1     -11.241   9.168  65.499  1.00  0.00     0.000 HD 
BRANCH  25  27
HETATM   27  C   UNL     1     -10.714  11.169  65.600  1.00  0.00    -0.185 A  
HETATM   28  C   UNL     1     -11.567  11.942  66.387  1.00  0.00    -0.315 A  
HETATM   29  C   UNL     1     -11.697  13.323  66.223  1.00  0.00    -0.369 A  
HETATM   30  C   UNL     1     -10.928  13.986  65.259  1.00  0.00    -0.334 A  
HETATM   31 CL   UNL     1     -12.884  14.045  67.259  1.00  0.00     0.555 Cl 
HETATM   32  C   UNL     1     -10.118  13.211  64.414  1.00  0.00    -0.224 A  
HETATM   33  C   UNL     1     -10.016  11.821  64.579  1.00  0.00    -0.273 A  
BRANCH  30  34
HETATM   34  O   UNL     1     -10.854  15.332  64.999  1.00  0.00    -0.390 OA 
BRANCH  34  35
HETATM   35  C   UNL     1      -9.548  15.901  65.018  1.00  0.00     0.750 C  
BRANCH  35  36
HETATM   36  C   UNL     1      -9.525  17.212  65.759  1.00  0.00     0.036 A  
HETATM   37  C   UNL     1     -10.643  18.052  65.756  1.00  0.00    -0.174 A  
HETATM   38  C   UNL     1     -10.557  19.308  66.346  1.00  0.00    -0.450 A  
HETATM   39  C   UNL     1      -9.378  19.744  66.940  1.00  0.00    -0.469 A  
HETATM   40  F   UNL     1     -11.623  20.118  66.322  1.00  0.00     0.057 F  
HETATM   41  C   UNL     1      -8.264  18.912  66.951  1.00  0.00    -0.276 A  
HETATM   42  C   UNL     1      -8.333  17.652  66.363  1.00  0.00    -0.288 A  
ENDBRANCH  35  36
ENDBRANCH  34  35
ENDBRANCH  30  34
ENDBRANCH  25  27
ENDBRANCH  24  25
ENDBRANCH  13  15
ENDBRANCH   9  10
ENDBRANCH   7   9
ENDBRANCH   6   7
ENDBRANCH   5   6
ENDBRANCH   2   5
TORSDOF 11
ENDMDL
MODEL      253
REMARK 921   NORMALIZED FREE ENERGY PREDICTED BY IDOCK:   -2.72 KCAL/MOL
REMARK 922        TOTAL FREE ENERGY PREDICTED BY IDOCK:   -7.21 KCAL/MOL
REMARK 923 INTER-LIGAND FREE ENERGY PREDICTED BY IDOCK:   -5.81 KCAL/MOL
REMARK 924 INTRA-LIGAND FREE ENERGY PREDICTED BY IDOCK:   -1.41 KCAL/MOL
REMARK 927      BINDING AFFINITY PREDICTED BY RF-SCORE:    0.00 PKD
ROOT
HETATM    1  C   UNL     1     -11.061  18.778  65.304  1.00  0.00     0.920 C  
HETATM    2  S   UNL     1     -10.047  17.879  66.448  1.00  0.00    -0.365 S  
HETATM    3  O   UNL     1     -10.618  18.039  67.770  1.00  0.00    -0.401 OA 
HETATM    4  O   UNL     1      -8.666  18.223  66.177  1.00  0.00    -0.461 OA 
ENDROOT
BRANCH   2   5
HETATM    5  C   UNL     1     -10.309  16.198  65.930  1.00  0.00    -0.367 C  
BRANCH   5   6
HETATM    6  C   UNL     1     -11.184  16.130  64.687  1.00  0.00    -0.298 C  
BRANCH   6   7
HETATM    7  N   UNL     1     -11.076  14.856  63.968  1.00  0.00    -0.243 NA 
HETATM    8  H   UNL     1     -10.117  14.509  63.988  1.00  0.00     0.000 HD 
BRANCH   7   9
HETATM    9  C   UNL     1     -12.006  13.834  64.451  1.00  0.00    -0.445 C  
BRANCH   9  10
HETATM   10  C   UNL     1     -11.267  12.609  64.853  1.00  0.00    -0.297 A  
HETATM   11  C   UNL     1     -11.409  11.274  64.541  1.00  0.00    -0.091 A  
HETATM   12  C   UNL     1     -10.390  10.591  65.245  1.00  0.00    -0.300 A  
HETATM   13  C   UNL     1      -9.667  11.548  65.929  1.00  0.00    -0.232 A  
HETATM   14  O   UNL     1     -10.202  12.781  65.681  1.00  0.00    -0.273 OA 
BRANCH  13  15
HETATM   15  C   UNL     1      -8.512  11.524  66.817  1.00  0.00    -0.168 A  
HETATM   16  C   UNL     1      -8.557  10.856  68.048  1.00  0.00    -0.131 A  
HETATM   17  C   UNL     1      -7.435  10.838  68.921  1.00  0.00    -0.116 A  
HETATM   18  C   UNL     1      -6.259  11.504  68.542  1.00  0.00    -0.050 A  
HETATM   19  C   UNL     1      -6.224  12.159  67.327  1.00  0.00    -0.152 A  
HETATM   20  N   UNL     1      -5.163  11.557  69.297  1.00  0.00    -0.047 NA 
HETATM   21  C   UNL     1      -5.234  10.953  70.480  1.00  0.00    -0.083 A  
HETATM   22  C   UNL     1      -7.327  12.174  66.471  1.00  0.00     0.341 A  
HETATM   23  N   UNL     1      -6.292  10.301  70.955  1.00  0.00    -0.320 NA 
HETATM   24  C   UNL     1      -7.390  10.224  70.189  1.00  0.00    -0.103 A  
BRANCH  24  25
HETATM   25  N   UNL     1      -8.559   9.589  70.700  1.00  0.00    -0.253 NA 
HETATM   26  H   UNL     1      -9.132  10.154  71.327  1.00  0.00     0.000 HD 
BRANCH  25  27
HETATM   27  C   UNL     1      -9.028   8.278  70.453  1.00  0.00    -0.146 A  
HETATM   28  C   UNL     1     -10.350   7.888  70.660  1.00  0.00    -0.205 A  
HETATM   29  C   UNL     1     -10.824   6.618  70.320  1.00  0.00    -0.271 A  
HETATM   30  C   UNL     1      -9.963   5.693  69.718  1.00  0.00    -0.200 A  
HETATM   31 CL   UNL     1     -12.478   6.345  70.757  1.00  0.00    -0.007 Cl 
HETATM   32  C   UNL     1      -8.613   6.047  69.567  1.00  0.00    -0.119 A  
HETATM   33  C   UNL     1      -8.150   7.321  69.934  1.00  0.00    -0.127 A  
BRANCH  30  34
HETATM   34  O   UNL     1     -10.252   4.438  69.243  1.00  0.00    -0.073 OA 
BRANCH  34  35
HETATM   35  C   UNL     1      -9.211   3.472  69.357  1.00  0.00    -0.157 C  
BRANCH  35  36
HETATM   36  C   UNL     1      -8.476   3.293  68.055  1.00  0.00    -0.104 A  
HETATM   37  C   UNL     1      -7.101   3.531  67.974  1.00  0.00    -0.051 A  
HETATM   38  C   UNL     1      -6.467   3.474  66.738  1.00  0.00    -0.040 A  
HETATM   39  C   UNL     1      -7.178   3.185  65.578  1.00  0.00    -0.070 A  
HETATM   40  F   UNL     1      -5.154   3.723  66.661  1.00  0.00    -0.006 F  
HETATM   41  C   UNL     1      -8.545   2.943  65.651  1.00  0.00    -0.116 A  
HETATM   42  C   UNL     1      -9.195   2.997  66.882  1.00  0.00    -0.177 A  
ENDBRANCH  35  36
ENDBRANCH  34  35
ENDBRANCH  30  34
ENDBRANCH  25  27
ENDBRANCH  24  25
ENDBRANCH  13  15
ENDBRANCH   9  10
ENDBRANCH   7   9
ENDBRANCH   6   7
ENDBRANCH   5   6
ENDBRANCH   2   5
TORSDOF 11
ENDMDL
MODEL      254
REMARK 921   NORMALIZED FREE ENERGY PREDICTED BY IDOCK:   -2.64 KCAL/MOL
REMARK 922        TOTAL FREE ENERGY PREDICTED BY IDOCK:   -7.08 KCAL/MOL
REMARK 923 INTER-LIGAND FREE ENERGY PREDICTED BY IDOCK:   -5.53 KCAL/MOL
REMARK 924 INTRA-LIGAND FREE ENERGY PREDICTED BY IDOCK:   -1.55 KCAL/MOL
REMARK 927      BINDING AFFINITY PREDICTED BY RF-SCORE:    0.00 PKD
ROOT
HETATM    1  C   UNL     1     -10.831  17.509  67.087  1.00  0.00    -0.092 C  
HETATM    2  S   UNL     1     -10.318  16.430  68.399  1.00  0.00    -0.299 S  
HETATM    3  O   UNL     1     -10.841  16.962  69.641  1.00  0.00    -0.302 OA 
HETATM    4  O   UNL     1      -8.903  16.169  68.227  1.00  0.00    -0.181 OA 
ENDROOT
BRANCH   2   5
HETATM    5  C   UNL     1     -11.206  14.937  68.016  1.00  0.00    -0.308 C  
BRANCH   5   6
HETATM    6  C   UNL     1     -11.900  15.034  66.665  1.00  0.00    -0.063 C  
BRANCH   6   7
HETATM    7  N   UNL     1     -11.389  14.076  65.679  1.00  0.00    -0.309 NA 
HETATM    8  H   UNL     1     -10.369  14.081  65.664  1.00  0.00     0.000 HD 
BRANCH   7   9
HETATM    9  C   UNL     1     -11.900  12.718  65.868  1.00  0.00    -0.437 C  
BRANCH   9  10
HETATM   10  C   UNL     1     -10.776  11.765  66.066  1.00  0.00    -0.279 A  
HETATM   11  C   UNL     1     -10.341  10.660  65.369  1.00  0.00    -0.303 A  
HETATM   12  C   UNL     1      -9.209  10.172  66.064  1.00  0.00    -0.198 A  
HETATM   13  C   UNL     1      -9.002  11.020  67.134  1.00  0.00    -0.143 A  
HETATM   14  O   UNL     1      -9.958  11.996  67.128  1.00  0.00    -0.194 OA 
BRANCH  13  15
HETATM   15  C   UNL     1      -8.029  11.090  68.216  1.00  0.00    -0.124 A  
HETATM   16  C   UNL     1      -8.027  10.147  69.253  1.00  0.00    -0.138 A  
HETATM   17  C   UNL     1      -7.085  10.218  70.314  1.00  0.00    -0.114 A  
HETATM   18  C   UNL     1      -6.138  11.254  70.325  1.00  0.00    -0.146 A  
HETATM   19  C   UNL     1      -6.148  12.179  69.300  1.00  0.00    -0.090 A  
HETATM   20  N   UNL     1      -5.227  11.415  71.284  1.00  0.00    -0.256 NA 
HETATM   21  C   UNL     1      -5.262  10.536  72.282  1.00  0.00     0.175 A  
HETATM   22  C   UNL     1      -7.073  12.107  68.258  1.00  0.00    -0.084 A  
HETATM   23  N   UNL     1      -6.116   9.520  72.390  1.00  0.00    -0.290 NA 
HETATM   24  C   UNL     1      -7.020   9.341  71.416  1.00  0.00     0.043 A  
BRANCH  24  25
HETATM   25  N   UNL     1      -7.987   8.301  71.540  1.00  0.00    -0.112 NA 
HETATM   26  H   UNL     1      -8.416   8.202  72.460  1.00  0.00     0.000 HD 
BRANCH  25  27
HETATM   27  C   UNL     1      -8.431   7.390  70.554  1.00  0.00    -0.137 A  
HETATM   28  C   UNL     1      -9.772   7.230  70.209  1.00  0.00    -0.175 A  
HETATM   29  C   UNL     1     -10.189   6.399  69.167  1.00  0.00    -0.182 A  
HETATM   30  C   UNL     1      -9.238   5.712  68.402  1.00  0.00    -0.118 A  
HETATM   31 CL   UNL     1     -11.910   6.299  68.992  1.00  0.00     0.300 Cl 
HETATM   32  C   UNL     1      -7.890   5.809  68.781  1.00  0.00    -0.097 A  
HETATM   33  C   UNL     1      -7.492   6.633  69.846  1.00  0.00    -0.095 A  
BRANCH  30  34
HETATM   34  O   UNL     1      -9.438   4.918  67.300  1.00  0.00    -0.128 OA 
BRANCH  34  35
HETATM   35  C   UNL     1      -8.455   3.913  67.068  1.00  0.00    -0.101 C  
BRANCH  35  36
HETATM   36  C   UNL     1      -8.069   3.839  65.614  1.00  0.00    -0.093 A  
HETATM   37  C   UNL     1      -8.113   4.979  64.807  1.00  0.00    -0.113 A  
HETATM   38  C   UNL     1      -7.867   4.862  63.443  1.00  0.00    -0.077 A  
HETATM   39  C   UNL     1      -7.577   3.630  62.868  1.00  0.00    -0.058 A  
HETATM   40  F   UNL     1      -7.930   5.953  62.669  1.00  0.00    -0.073 F  
HETATM   41  C   UNL     1      -7.528   2.493  63.666  1.00  0.00    -0.061 A  
HETATM   42  C   UNL     1      -7.774   2.592  65.033  1.00  0.00    -0.077 A  
ENDBRANCH  35  36
ENDBRANCH  34  35
ENDBRANCH  30  34
ENDBRANCH  25  27
ENDBRANCH  24  25
ENDBRANCH  13  15
ENDBRANCH   9  10
ENDBRANCH   7   9
ENDBRANCH   6   7
ENDBRANCH   5   6
ENDBRANCH   2   5
TORSDOF 11
ENDMDL
MODEL      255
REMARK 921   NORMALIZED FREE ENERGY PREDICTED BY IDOCK:   -2.62 KCAL/MOL
REMARK 922        TOTAL FREE ENERGY PREDICTED BY IDOCK:   -7.06 KCAL/MOL
REMARK 923 INTER-LIGAND FREE ENERGY PREDICTED BY IDOCK:   -5.41 KCAL/MOL
REMARK 924 INTRA-LIGAND FREE ENERGY PREDICTED BY IDOCK:   -1.65 KCAL/MOL
REMARK 927      BINDING AFFINITY PREDICTED BY RF-SCORE:    0.00 PKD
ROOT
HETATM    1  C   UNL     1     -10.913  12.455  69.661  1.00  0.00     0.178 C  
HETATM    2  S   UNL     1     -11.233  11.411  68.263  1.00  0.00    -0.292 S  
HETATM    3  O   UNL     1     -12.643  11.078  68.270  1.00  0.00     0.074 OA 
HETATM    4  O   UNL     1     -10.215  10.380  68.241  1.00  0.00    -0.151 OA 
ENDROOT
BRANCH   2   5
HETATM    5  C   UNL     1     -10.929  12.515  66.902  1.00  0.00    -0.257 C  
BRANCH   5   6
HETATM    6  C   UNL     1      -9.656  12.142  66.157  1.00  0.00    -0.240 C  
BRANCH   6   7
HETATM    7  N   UNL     1      -9.745  12.358  64.709  1.00  0.00    -0.472 NA 
HETATM    8  H   UNL     1      -8.833  12.606  64.323  1.00  0.00     0.000 HD 
BRANCH   7   9
HETATM    9  C   UNL     1     -10.322  11.225  63.985  1.00  0.00    -0.371 C  
BRANCH   9  10
HETATM   10  C   UNL     1      -9.439  10.035  64.095  1.00  0.00    -0.252 A  
HETATM   11  C   UNL     1      -8.581   9.410  63.216  1.00  0.00    -0.218 A  
HETATM   12  C   UNL     1      -8.021   8.316  63.918  1.00  0.00    -0.146 A  
HETATM   13  C   UNL     1      -8.550   8.347  65.193  1.00  0.00    -0.132 A  
HETATM   14  O   UNL     1      -9.411   9.403  65.299  1.00  0.00    -0.265 OA 
BRANCH  13  15
HETATM   15  C   UNL     1      -8.394   7.532  66.390  1.00  0.00    -0.126 A  
HETATM   16  C   UNL     1      -7.534   7.920  67.426  1.00  0.00    -0.093 A  
HETATM   17  C   UNL     1      -7.373   7.123  68.591  1.00  0.00    -0.097 A  
HETATM   18  C   UNL     1      -8.087   5.920  68.705  1.00  0.00    -0.103 A  
HETATM   19  C   UNL     1      -8.932   5.545  67.680  1.00  0.00    -0.108 A  
HETATM   20  N   UNL     1      -7.990   5.098  69.749  1.00  0.00    -0.077 NA 
HETATM   21  C   UNL     1      -7.141   5.461  70.706  1.00  0.00    -0.064 A  
HETATM   22  C   UNL     1      -9.090   6.331  66.537  1.00  0.00    -0.162 A  
HETATM   23  N   UNL     1      -6.401   6.567  70.708  1.00  0.00    -0.042 NA 
HETATM   24  C   UNL     1      -6.512   7.409  69.670  1.00  0.00    -0.036 A  
BRANCH  24  25
HETATM   25  N   UNL     1      -5.683   8.567  69.616  1.00  0.00    -0.029 NA 
HETATM   26  H   UNL     1      -4.694   8.396  69.436  1.00  0.00     0.000 HD 
BRANCH  25  27
HETATM   27  C   UNL     1      -6.052   9.923  69.778  1.00  0.00    -0.045 A  
HETATM   28  C   UNL     1      -5.581  10.723  70.817  1.00  0.00    -0.110 A  
HETATM   29  C   UNL     1      -5.875  12.086  70.911  1.00  0.00     0.100 A  
HETATM   30  C   UNL     1      -6.645  12.702  69.918  1.00  0.00     0.133 A  
HETATM   31 CL   UNL     1      -5.249  12.843  72.339  1.00  0.00     0.063 Cl 
HETATM   32  C   UNL     1      -7.183  11.895  68.904  1.00  0.00    -0.098 A  
HETATM   33  C   UNL     1      -6.895  10.523  68.837  1.00  0.00    -0.063 A  
BRANCH  30  34
HETATM   34  O   UNL     1      -6.974  14.029  69.790  1.00  0.00    -0.042 OA 
BRANCH  34  35
HETATM   35  C   UNL     1      -6.808  14.591  68.491  1.00  0.00    -0.096 C  
BRANCH  35  36
HETATM   36  C   UNL     1      -7.967  15.476  68.117  1.00  0.00    -0.132 A  
HETATM   37  C   UNL     1      -8.497  15.449  66.824  1.00  0.00    -0.307 A  
HETATM   38  C   UNL     1      -9.486  16.358  66.469  1.00  0.00    -0.272 A  
HETATM   39  C   UNL     1      -9.960  17.297  67.380  1.00  0.00    -0.278 A  
HETATM   40  F   UNL     1      -9.977  16.343  65.223  1.00  0.00    -0.281 F  
HETATM   41  C   UNL     1      -9.441  17.328  68.669  1.00  0.00    -0.278 A  
HETATM   42  C   UNL     1      -8.448  16.424  69.039  1.00  0.00    -0.225 A  
ENDBRANCH  35  36
ENDBRANCH  34  35
ENDBRANCH  30  34
ENDBRANCH  25  27
ENDBRANCH  24  25
ENDBRANCH  13  15
ENDBRANCH   9  10
ENDBRANCH   7   9
ENDBRANCH   6   7
ENDBRANCH   5   6
ENDBRANCH   2   5
TORSDOF 11
ENDMDL
MODEL      256
REMARK 921   NORMALIZED FREE ENERGY PREDICTED BY IDOCK:   -2.48 KCAL/MOL
REMARK 922        TOTAL FREE ENERGY PREDICTED BY IDOCK:   -6.82 KCAL/MOL
REMARK 923 INTER-LIGAND FREE ENERGY PREDICTED BY IDOCK:   -4.83 KCAL/MOL
REMARK 924 INTRA-LIGAND FREE ENERGY PREDICTED BY IDOCK:   -1.99 KCAL/MOL
REMARK 927      BINDING AFFINITY PREDICTED BY RF-SCORE:    0.00 PKD
ROOT
HETATM    1  C   UNL     1     -12.189   2.071  72.930  1.00  0.00     0.734 C  
HETATM    2  S   UNL     1     -11.036   3.411  72.778  1.00  0.00     0.216 S  
HETATM    3  O   UNL     1     -11.795   4.634  72.612  1.00  0.00     0.139 OA 
HETATM    4  O   UNL     1     -10.024   3.015  71.819  1.00  0.00    -0.171 OA 
ENDROOT
BRANCH   2   5
HETATM    5  C   UNL     1     -10.287   3.436  74.391  1.00  0.00    -0.193 C  
BRANCH   5   6
HETATM    6  C   UNL     1      -9.345   4.622  74.547  1.00  0.00    -0.119 C  
BRANCH   6   7
HETATM    7  N   UNL     1      -9.983   5.912  74.266  1.00  0.00    -0.227 NA 
HETATM    8  H   UNL     1     -10.542   6.221  75.063  1.00  0.00     0.000 HD 
BRANCH   7   9
HETATM    9  C   UNL     1      -9.038   6.954  73.863  1.00  0.00    -0.182 C  
BRANCH   9  10
HETATM   10  C   UNL     1      -9.434   7.534  72.553  1.00  0.00    -0.159 A  
HETATM   11  C   UNL     1     -10.603   8.089  72.080  1.00  0.00    -0.310 A  
HETATM   12  C   UNL     1     -10.350   8.463  70.738  1.00  0.00    -0.228 A  
HETATM   13  C   UNL     1      -9.035   8.136  70.474  1.00  0.00    -0.145 A  
HETATM   14  O   UNL     1      -8.476   7.575  71.588  1.00  0.00    -0.109 OA 
BRANCH  13  15
HETATM   15  C   UNL     1      -8.160   8.257  69.316  1.00  0.00    -0.116 A  
HETATM   16  C   UNL     1      -7.655   9.501  68.912  1.00  0.00    -0.075 A  
HETATM   17  C   UNL     1      -6.809   9.622  67.778  1.00  0.00    -0.078 A  
HETATM   18  C   UNL     1      -6.472   8.474  67.045  1.00  0.00    -0.057 A  
HETATM   19  C   UNL     1      -6.973   7.252  67.449  1.00  0.00    -0.079 A  
HETATM   20  N   UNL     1      -5.700   8.489  65.959  1.00  0.00    -0.042 NA 
HETATM   21  C   UNL     1      -5.261   9.681  65.566  1.00  0.00    -0.043 A  
HETATM   22  C   UNL     1      -7.803   7.135  68.565  1.00  0.00    -0.122 A  
HETATM   23  N   UNL     1      -5.520  10.839  66.167  1.00  0.00    -0.097 NA 
HETATM   24  C   UNL     1      -6.278  10.827  67.274  1.00  0.00    -0.061 A  
BRANCH  24  25
HETATM   25  N   UNL     1      -6.625  12.060  67.899  1.00  0.00    -0.069 NA 
HETATM   26  H   UNL     1      -5.917  12.458  68.516  1.00  0.00     0.000 HD 
BRANCH  25  27
HETATM   27  C   UNL     1      -7.822  12.803  67.776  1.00  0.00    -0.156 A  
HETATM   28  C   UNL     1      -8.274  13.690  68.752  1.00  0.00     0.021 A  
HETATM   29  C   UNL     1      -9.405  14.491  68.577  1.00  0.00    -0.203 A  
HETATM   30  C   UNL     1     -10.111  14.442  67.370  1.00  0.00    -0.243 A  
HETATM   31 CL   UNL     1      -9.814  15.442  69.966  1.00  0.00    -0.215 Cl 
HETATM   32  C   UNL     1      -9.709  13.505  66.406  1.00  0.00    -0.296 A  
HETATM   33  C   UNL     1      -8.582  12.693  66.608  1.00  0.00    -0.035 A  
BRANCH  30  34
HETATM   34  O   UNL     1     -11.189  15.198  66.977  1.00  0.00    -0.335 OA 
BRANCH  34  35
HETATM   35  C   UNL     1     -10.899  16.310  66.135  1.00  0.00    -0.105 C  
BRANCH  35  36
HETATM   36  C   UNL     1     -10.327  17.463  66.917  1.00  0.00    -0.317 A  
HETATM   37  C   UNL     1      -9.111  18.043  66.544  1.00  0.00    -0.283 A  
HETATM   38  C   UNL     1      -8.545  19.026  67.349  1.00  0.00    -0.278 A  
HETATM   39  C   UNL     1      -9.169  19.443  68.520  1.00  0.00    -0.429 A  
HETATM   40  F   UNL     1      -7.370  19.564  67.000  1.00  0.00    -0.218 F  
HETATM   41  C   UNL     1     -10.381  18.873  68.895  1.00  0.00    -0.130 A  
HETATM   42  C   UNL     1     -10.959  17.887  68.100  1.00  0.00    -0.014 A  
ENDBRANCH  35  36
ENDBRANCH  34  35
ENDBRANCH  30  34
ENDBRANCH  25  27
ENDBRANCH  24  25
ENDBRANCH  13  15
ENDBRANCH   9  10
ENDBRANCH   7   9
ENDBRANCH   6   7
ENDBRANCH   5   6
ENDBRANCH   2   5
TORSDOF 11
ENDMDL
MODEL      257
REMARK 921   NORMALIZED FREE ENERGY PREDICTED BY IDOCK:   -2.46 KCAL/MOL
REMARK 922        TOTAL FREE ENERGY PREDICTED BY IDOCK:   -6.79 KCAL/MOL
REMARK 923 INTER-LIGAND FREE ENERGY PREDICTED BY IDOCK:   -4.81 KCAL/MOL
REMARK 924 INTRA-LIGAND FREE ENERGY PREDICTED BY IDOCK:   -1.98 KCAL/MOL
REMARK 927      BINDING AFFINITY PREDICTED BY RF-SCORE:    0.00 PKD
ROOT
HETATM    1  C   UNL     1      -9.674   3.756  69.263  1.00  0.00    -0.050 C  
HETATM    2  S   UNL     1      -8.609   4.427  70.513  1.00  0.00    -0.083 S  
HETATM    3  O   UNL     1      -9.441   5.089  71.497  1.00  0.00    -0.144 OA 
HETATM    4  O   UNL     1      -7.531   5.127  69.844  1.00  0.00    -0.058 OA 
ENDROOT
BRANCH   2   5
HETATM    5  C   UNL     1      -7.937   2.956  71.253  1.00  0.00    -0.054 C  
BRANCH   5   6
HETATM    6  C   UNL     1      -6.593   2.590  70.640  1.00  0.00    -0.032 C  
BRANCH   6   7
HETATM    7  N   UNL     1      -6.697   2.092  69.264  1.00  0.00    -0.033 NA 
HETATM    8  H   UNL     1      -7.667   2.102  68.948  1.00  0.00     0.000 HD 
BRANCH   7   9
HETATM    9  C   UNL     1      -5.836   2.806  68.320  1.00  0.00    -0.023 C  
BRANCH   9  10
HETATM   10  C   UNL     1      -6.655   3.464  67.268  1.00  0.00    -0.038 A  
HETATM   11  C   UNL     1      -7.927   3.247  66.787  1.00  0.00    -0.080 A  
HETATM   12  C   UNL     1      -8.140   4.214  65.775  1.00  0.00    -0.101 A  
HETATM   13  C   UNL     1      -6.994   4.981  65.710  1.00  0.00    -0.066 A  
HETATM   14  O   UNL     1      -6.091   4.524  66.629  1.00  0.00    -0.029 OA 
BRANCH  13  15
HETATM   15  C   UNL     1      -6.564   6.119  64.909  1.00  0.00    -0.039 A  
HETATM   16  C   UNL     1      -6.285   7.359  65.499  1.00  0.00    -0.038 A  
HETATM   17  C   UNL     1      -5.874   8.473  64.718  1.00  0.00    -0.055 A  
HETATM   18  C   UNL     1      -5.746   8.329  63.328  1.00  0.00    -0.068 A  
HETATM   19  C   UNL     1      -6.023   7.104  62.755  1.00  0.00    -0.045 A  
HETATM   20  N   UNL     1      -5.384   9.318  62.512  1.00  0.00    -0.084 NA 
HETATM   21  C   UNL     1      -5.161  10.499  63.081  1.00  0.00    -0.157 A  
HETATM   22  C   UNL     1      -6.425   6.011  63.524  1.00  0.00    -0.029 A  
HETATM   23  N   UNL     1      -5.260  10.763  64.381  1.00  0.00    -0.141 NA 
HETATM   24  C   UNL     1      -5.602   9.766  65.211  1.00  0.00    -0.059 A  
BRANCH  24  25
HETATM   25  N   UNL     1      -5.779  10.038  66.598  1.00  0.00    -0.049 NA 
HETATM   26  H   UNL     1      -4.925  10.076  67.155  1.00  0.00     0.000 HD 
BRANCH  25  27
HETATM   27  C   UNL     1      -6.984  10.261  67.305  1.00  0.00    -0.086 A  
HETATM   28  C   UNL     1      -7.189   9.839  68.617  1.00  0.00    -0.073 A  
HETATM   29  C   UNL     1      -8.345  10.151  69.337  1.00  0.00    -0.168 A  
HETATM   30  C   UNL     1      -9.337  10.944  68.750  1.00  0.00    -0.185 A  
HETATM   31 CL   UNL     1      -8.404   9.436  70.915  1.00  0.00    -0.188 Cl 
HETATM   32  C   UNL     1      -9.176  11.318  67.407  1.00  0.00    -0.164 A  
HETATM   33  C   UNL     1      -8.017  10.977  66.692  1.00  0.00    -0.156 A  
BRANCH  30  34
HETATM   34  O   UNL     1     -10.496  11.420  69.312  1.00  0.00    -0.174 OA 
BRANCH  34  35
HETATM   35  C   UNL     1     -11.673  10.657  69.059  1.00  0.00    -0.234 C  
BRANCH  35  36
HETATM   36  C   UNL     1     -11.997   9.739  70.208  1.00  0.00    -0.156 A  
HETATM   37  C   UNL     1     -11.751   8.366  70.114  1.00  0.00     0.202 A  
HETATM   38  C   UNL     1     -12.168   7.525  71.139  1.00  0.00    -0.301 A  
HETATM   39  C   UNL     1     -12.824   8.025  72.258  1.00  0.00    -0.213 A  
HETATM   40  F   UNL     1     -11.950   6.208  71.036  1.00  0.00    -0.366 F  
HETATM   41  C   UNL     1     -13.068   9.390  72.360  1.00  0.00    -0.458 A  
HETATM   42  C   UNL     1     -12.659  10.246  71.341  1.00  0.00    -0.539 A  
ENDBRANCH  35  36
ENDBRANCH  34  35
ENDBRANCH  30  34
ENDBRANCH  25  27
ENDBRANCH  24  25
ENDBRANCH  13  15
ENDBRANCH   9  10
ENDBRANCH   7   9
ENDBRANCH   6   7
ENDBRANCH   5   6
ENDBRANCH   2   5
TORSDOF 11
ENDMDL
MODEL      258
REMARK 921   NORMALIZED FREE ENERGY PREDICTED BY IDOCK:   -2.42 KCAL/MOL
REMARK 922        TOTAL FREE ENERGY PREDICTED BY IDOCK:   -6.73 KCAL/MOL
REMARK 923 INTER-LIGAND FREE ENERGY PREDICTED BY IDOCK:   -6.13 KCAL/MOL
REMARK 924 INTRA-LIGAND FREE ENERGY PREDICTED BY IDOCK:   -0.60 KCAL/MOL
REMARK 927      BINDING AFFINITY PREDICTED BY RF-SCORE:    0.00 PKD
ROOT
HETATM    1  C   UNL     1      -6.526  14.278  69.907  1.00  0.00    -0.137 C  
HETATM    2  S   UNL     1      -7.578  14.815  68.584  1.00  0.00    -0.134 S  
HETATM    3  O   UNL     1      -6.734  15.168  67.460  1.00  0.00    -0.168 OA 
HETATM    4  O   UNL     1      -8.533  15.755  69.134  1.00  0.00    -0.220 OA 
ENDROOT
BRANCH   2   5
HETATM    5  C   UNL     1      -8.449  13.318  68.176  1.00  0.00    -0.173 C  
BRANCH   5   6
HETATM    6  C   UNL     1      -7.657  12.465  67.195  1.00  0.00    -0.104 C  
BRANCH   6   7
HETATM    7  N   UNL     1      -8.504  11.640  66.327  1.00  0.00    -0.343 NA 
HETATM    8  H   UNL     1      -8.047  11.471  65.430  1.00  0.00     0.000 HD 
BRANCH   7   9
HETATM    9  C   UNL     1      -8.916  10.378  66.944  1.00  0.00    -0.139 C  
BRANCH   9  10
HETATM   10  C   UNL     1      -7.794   9.403  66.928  1.00  0.00    -0.105 A  
HETATM   11  C   UNL     1      -6.541   9.394  67.500  1.00  0.00    -0.064 A  
HETATM   12  C   UNL     1      -5.937   8.174  67.114  1.00  0.00    -0.050 A  
HETATM   13  C   UNL     1      -6.863   7.495  66.347  1.00  0.00    -0.061 A  
HETATM   14  O   UNL     1      -8.000   8.247  66.242  1.00  0.00    -0.095 OA 
BRANCH  13  15
HETATM   15  C   UNL     1      -6.884   6.211  65.660  1.00  0.00    -0.053 A  
HETATM   16  C   UNL     1      -7.488   5.087  66.239  1.00  0.00    -0.086 A  
HETATM   17  C   UNL     1      -7.502   3.831  65.574  1.00  0.00    -0.077 A  
HETATM   18  C   UNL     1      -6.897   3.713  64.314  1.00  0.00    -0.045 A  
HETATM   19  C   UNL     1      -6.304   4.825  63.751  1.00  0.00    -0.026 A  
HETATM   20  N   UNL     1      -6.845   2.576  63.621  1.00  0.00    -0.031 NA 
HETATM   21  C   UNL     1      -7.388   1.509  64.200  1.00  0.00    -0.052 A  
HETATM   22  C   UNL     1      -6.292   6.059  64.404  1.00  0.00    -0.030 A  
HETATM   23  N   UNL     1      -7.978   1.491  65.393  1.00  0.00    -0.071 NA 
HETATM   24  C   UNL     1      -8.054   2.638  66.084  1.00  0.00    -0.084 A  
BRANCH  24  25
HETATM   25  N   UNL     1      -8.623   2.633  67.391  1.00  0.00    -0.096 NA 
HETATM   26  H   UNL     1      -8.537   1.758  67.908  1.00  0.00     0.000 HD 
BRANCH  25  27
HETATM   27  C   UNL     1      -9.289   3.682  68.065  1.00  0.00    -0.183 A  
HETATM   28  C   UNL     1      -9.925   4.733  67.404  1.00  0.00    -0.204 A  
HETATM   29  C   UNL     1     -10.663   5.709  68.077  1.00  0.00    -0.154 A  
HETATM   30  C   UNL     1     -10.812   5.635  69.466  1.00  0.00    -0.274 A  
HETATM   31 CL   UNL     1     -11.280   6.958  67.046  1.00  0.00    -0.352 Cl 
HETATM   32  C   UNL     1     -10.121   4.623  70.152  1.00  0.00    -0.283 A  
HETATM   33  C   UNL     1      -9.366   3.663  69.461  1.00  0.00    -0.247 A  
BRANCH  30  34
HETATM   34  O   UNL     1     -11.554   6.443  70.293  1.00  0.00    -0.399 OA 
BRANCH  34  35
HETATM   35  C   UNL     1     -11.159   7.811  70.348  1.00  0.00    -0.251 C  
BRANCH  35  36
HETATM   36  C   UNL     1      -9.874   7.987  71.114  1.00  0.00    -0.198 A  
HETATM   37  C   UNL     1      -9.829   7.755  72.492  1.00  0.00    -0.271 A  
HETATM   38  C   UNL     1      -8.665   8.039  73.196  1.00  0.00    -0.237 A  
HETATM   39  C   UNL     1      -7.542   8.550  72.553  1.00  0.00    -0.081 A  
HETATM   40  F   UNL     1      -8.631   7.836  74.519  1.00  0.00    -0.253 F  
HETATM   41  C   UNL     1      -7.579   8.779  71.183  1.00  0.00    -0.134 A  
HETATM   42  C   UNL     1      -8.738   8.502  70.463  1.00  0.00    -0.163 A  
ENDBRANCH  35  36
ENDBRANCH  34  35
ENDBRANCH  30  34
ENDBRANCH  25  27
ENDBRANCH  24  25
ENDBRANCH  13  15
ENDBRANCH   9  10
ENDBRANCH   7   9
ENDBRANCH   6   7
ENDBRANCH   5   6
ENDBRANCH   2   5
TORSDOF 11
ENDMDL
MODEL      259
REMARK 921   NORMALIZED FREE ENERGY PREDICTED BY IDOCK:   -2.41 KCAL/MOL
REMARK 922        TOTAL FREE ENERGY PREDICTED BY IDOCK:   -6.70 KCAL/MOL
REMARK 923 INTER-LIGAND FREE ENERGY PREDICTED BY IDOCK:   -4.99 KCAL/MOL
REMARK 924 INTRA-LIGAND FREE ENERGY PREDICTED BY IDOCK:   -1.72 KCAL/MOL
REMARK 927      BINDING AFFINITY PREDICTED BY RF-SCORE:    0.00 PKD
ROOT
HETATM    1  C   UNL     1     -12.191   2.071  72.930  1.00  0.00     0.734 C  
HETATM    2  S   UNL     1     -11.080   3.447  72.784  1.00  0.00     0.323 S  
HETATM    3  O   UNL     1     -11.878   4.650  72.651  1.00  0.00     0.139 OA 
HETATM    4  O   UNL     1     -10.073   3.098  71.803  1.00  0.00    -0.151 OA 
ENDROOT
BRANCH   2   5
HETATM    5  C   UNL     1     -10.307   3.467  74.386  1.00  0.00    -0.194 C  
BRANCH   5   6
HETATM    6  C   UNL     1      -9.431   4.699  74.564  1.00  0.00    -0.124 C  
BRANCH   6   7
HETATM    7  N   UNL     1     -10.151   5.960  74.357  1.00  0.00    -0.269 NA 
HETATM    8  H   UNL     1     -10.700   6.203  75.183  1.00  0.00     0.000 HD 
BRANCH   7   9
HETATM    9  C   UNL     1      -9.282   7.070  73.967  1.00  0.00    -0.226 C  
BRANCH   9  10
HETATM   10  C   UNL     1      -9.761   7.685  72.702  1.00  0.00    -0.196 A  
HETATM   11  C   UNL     1     -10.980   8.179  72.294  1.00  0.00    -0.399 A  
HETATM   12  C   UNL     1     -10.801   8.635  70.966  1.00  0.00    -0.302 A  
HETATM   13  C   UNL     1      -9.476   8.415  70.645  1.00  0.00    -0.167 A  
HETATM   14  O   UNL     1      -8.842   7.840  71.711  1.00  0.00    -0.113 OA 
BRANCH  13  15
HETATM   15  C   UNL     1      -8.651   8.652  69.468  1.00  0.00    -0.131 A  
HETATM   16  C   UNL     1      -8.257   9.948  69.107  1.00  0.00    -0.128 A  
HETATM   17  C   UNL     1      -7.460  10.184  67.954  1.00  0.00    -0.088 A  
HETATM   18  C   UNL     1      -7.061   9.097  67.160  1.00  0.00    -0.082 A  
HETATM   19  C   UNL     1      -7.454   7.824  67.522  1.00  0.00    -0.097 A  
HETATM   20  N   UNL     1      -6.329   9.219  66.054  1.00  0.00    -0.067 NA 
HETATM   21  C   UNL     1      -5.996  10.457  65.702  1.00  0.00    -0.118 A  
HETATM   22  C   UNL     1      -8.236   7.595  68.656  1.00  0.00    -0.128 A  
HETATM   23  N   UNL     1      -6.322  11.565  66.363  1.00  0.00    -0.057 NA 
HETATM   24  C   UNL     1      -7.040  11.447  67.490  1.00  0.00    -0.106 A  
BRANCH  24  25
HETATM   25  N   UNL     1      -7.458  12.621  68.181  1.00  0.00    -0.111 NA 
HETATM   26  H   UNL     1      -6.762  13.048  68.791  1.00  0.00     0.000 HD 
BRANCH  25  27
HETATM   27  C   UNL     1      -8.713  13.271  68.132  1.00  0.00    -0.179 A  
HETATM   28  C   UNL     1      -9.888  12.701  68.620  1.00  0.00    -0.077 A  
HETATM   29  C   UNL     1     -11.102  13.391  68.655  1.00  0.00    -0.263 A  
HETATM   30  C   UNL     1     -11.161  14.719  68.217  1.00  0.00    -0.274 A  
HETATM   31 CL   UNL     1     -12.435  12.440  69.221  1.00  0.00     0.131 Cl 
HETATM   32  C   UNL     1     -10.002  15.282  67.659  1.00  0.00    -0.222 A  
HETATM   33  C   UNL     1      -8.796  14.566  67.613  1.00  0.00    -0.189 A  
BRANCH  30  34
HETATM   34  O   UNL     1     -12.227  15.584  68.243  1.00  0.00    -0.040 OA 
BRANCH  34  35
HETATM   35  C   UNL     1     -12.258  16.506  69.328  1.00  0.00     0.927 C  
BRANCH  35  36
HETATM   36  C   UNL     1     -12.643  15.832  70.619  1.00  0.00    -0.371 A  
HETATM   37  C   UNL     1     -11.833  15.946  71.752  1.00  0.00    -0.579 A  
HETATM   38  C   UNL     1     -12.147  15.219  72.895  1.00  0.00    -0.414 A  
HETATM   39  C   UNL     1     -13.255  14.379  72.931  1.00  0.00    -0.613 A  
HETATM   40  F   UNL     1     -11.357  15.315  73.971  1.00  0.00    -0.181 F  
HETATM   41  C   UNL     1     -14.067  14.264  71.809  1.00  0.00    -0.535 A  
HETATM   42  C   UNL     1     -13.765  14.984  70.656  1.00  0.00    -0.048 A  
ENDBRANCH  35  36
ENDBRANCH  34  35
ENDBRANCH  30  34
ENDBRANCH  25  27
ENDBRANCH  24  25
ENDBRANCH  13  15
ENDBRANCH   9  10
ENDBRANCH   7   9
ENDBRANCH   6   7
ENDBRANCH   5   6
ENDBRANCH   2   5
TORSDOF 11
ENDMDL
MODEL      260
REMARK 921   NORMALIZED FREE ENERGY PREDICTED BY IDOCK:   -2.36 KCAL/MOL
REMARK 922        TOTAL FREE ENERGY PREDICTED BY IDOCK:   -6.62 KCAL/MOL
REMARK 923 INTER-LIGAND FREE ENERGY PREDICTED BY IDOCK:   -5.47 KCAL/MOL
REMARK 924 INTRA-LIGAND FREE ENERGY PREDICTED BY IDOCK:   -1.15 KCAL/MOL
REMARK 927      BINDING AFFINITY PREDICTED BY RF-SCORE:    0.00 PKD
ROOT
HETATM    1  C   UNL     1      -7.574  17.624  66.311  1.00  0.00    -0.298 C  
HETATM    2  S   UNL     1      -7.940  19.358  66.397  1.00  0.00    -0.318 S  
HETATM    3  O   UNL     1      -7.652  19.938  65.101  1.00  0.00    -0.291 OA 
HETATM    4  O   UNL     1      -7.334  19.876  67.607  1.00  0.00    -0.263 OA 
ENDROOT
BRANCH   2   5
HETATM    5  C   UNL     1      -9.704  19.350  66.623  1.00  0.00    -0.359 C  
BRANCH   5   6
HETATM    6  C   UNL     1     -10.416  18.754  65.417  1.00  0.00     0.303 C  
BRANCH   6   7
HETATM    7  N   UNL     1     -10.545  17.294  65.481  1.00  0.00    -0.589 NA 
HETATM    8  H   UNL     1      -9.632  16.856  65.606  1.00  0.00     0.000 HD 
BRANCH   7   9
HETATM    9  C   UNL     1     -11.485  16.837  66.506  1.00  0.00     0.954 C  
BRANCH   9  10
HETATM   10  C   UNL     1     -10.755  16.429  67.734  1.00  0.00    -0.328 A  
HETATM   11  C   UNL     1     -10.840  16.811  69.055  1.00  0.00    -0.291 A  
HETATM   12  C   UNL     1      -9.869  16.053  69.751  1.00  0.00    -0.126 A  
HETATM   13  C   UNL     1      -9.261  15.233  68.821  1.00  0.00    -0.203 A  
HETATM   14  O   UNL     1      -9.810  15.461  67.591  1.00  0.00    -0.219 OA 
BRANCH  13  15
HETATM   15  C   UNL     1      -8.209  14.227  68.871  1.00  0.00    -0.053 A  
HETATM   16  C   UNL     1      -8.431  12.921  68.414  1.00  0.00    -0.115 A  
HETATM   17  C   UNL     1      -7.410  11.935  68.470  1.00  0.00    -0.111 A  
HETATM   18  C   UNL     1      -6.154  12.275  68.995  1.00  0.00    -0.076 A  
HETATM   19  C   UNL     1      -5.943  13.563  69.444  1.00  0.00    -0.097 A  
HETATM   20  N   UNL     1      -5.140  11.417  69.104  1.00  0.00    -0.044 NA 
HETATM   21  C   UNL     1      -5.378  10.171  68.703  1.00  0.00    -0.038 A  
HETATM   22  C   UNL     1      -6.948  14.531  69.386  1.00  0.00    -0.151 A  
HETATM   23  N   UNL     1      -6.526   9.725  68.200  1.00  0.00    -0.056 NA 
HETATM   24  C   UNL     1      -7.543  10.590  68.066  1.00  0.00    -0.091 A  
BRANCH  24  25
HETATM   25  N   UNL     1      -8.803  10.123  67.592  1.00  0.00    -0.125 NA 
HETATM   26  H   UNL     1      -9.481  10.846  67.351  1.00  0.00     0.000 HD 
BRANCH  25  27
HETATM   27  C   UNL     1      -9.236   8.789  67.412  1.00  0.00    -0.136 A  
HETATM   28  C   UNL     1     -10.023   8.110  68.341  1.00  0.00    -0.210 A  
HETATM   29  C   UNL     1     -10.526   6.827  68.108  1.00  0.00    -0.211 A  
HETATM   30  C   UNL     1     -10.271   6.191  66.888  1.00  0.00    -0.208 A  
HETATM   31 CL   UNL     1     -11.399   6.161  69.448  1.00  0.00    -0.482 Cl 
HETATM   32  C   UNL     1      -9.424   6.834  65.972  1.00  0.00     0.024 A  
HETATM   33  C   UNL     1      -8.909   8.114  66.232  1.00  0.00    -0.193 A  
BRANCH  30  34
HETATM   34  O   UNL     1     -10.735   4.979  66.441  1.00  0.00    -0.300 OA 
BRANCH  34  35
HETATM   35  C   UNL     1      -9.751   4.082  65.933  1.00  0.00    -0.188 C  
BRANCH  35  36
HETATM   36  C   UNL     1      -8.950   3.451  67.041  1.00  0.00    -0.174 A  
HETATM   37  C   UNL     1      -7.761   4.038  67.483  1.00  0.00    -0.075 A  
HETATM   38  C   UNL     1      -6.979   3.376  68.423  1.00  0.00    -0.050 A  
HETATM   39  C   UNL     1      -7.359   2.139  68.932  1.00  0.00    -0.043 A  
HETATM   40  F   UNL     1      -5.830   3.930  68.829  1.00  0.00    -0.019 F  
HETATM   41  C   UNL     1      -8.543   1.552  68.500  1.00  0.00    -0.090 A  
HETATM   42  C   UNL     1      -9.336   2.201  67.558  1.00  0.00    -0.132 A  
ENDBRANCH  35  36
ENDBRANCH  34  35
ENDBRANCH  30  34
ENDBRANCH  25  27
ENDBRANCH  24  25
ENDBRANCH  13  15
ENDBRANCH   9  10
ENDBRANCH   7   9
ENDBRANCH   6   7
ENDBRANCH   5   6
ENDBRANCH   2   5
TORSDOF 11
ENDMDL
MODEL      261
REMARK 921   NORMALIZED FREE ENERGY PREDICTED BY IDOCK:   -2.13 KCAL/MOL
REMARK 922        TOTAL FREE ENERGY PREDICTED BY IDOCK:   -6.25 KCAL/MOL
REMARK 923 INTER-LIGAND FREE ENERGY PREDICTED BY IDOCK:   -5.65 KCAL/MOL
REMARK 924 INTRA-LIGAND FREE ENERGY PREDICTED BY IDOCK:   -0.60 KCAL/MOL
REMARK 927      BINDING AFFINITY PREDICTED BY RF-SCORE:    0.00 PKD
ROOT
HETATM    1  C   UNL     1     -12.947  14.629  64.697  1.00  0.00     0.455 C  
HETATM    2  S   UNL     1     -12.543  12.925  64.412  1.00  0.00    -0.270 S  
HETATM    3  O   UNL     1     -11.587  12.871  63.325  1.00  0.00    -0.488 OA 
HETATM    4  O   UNL     1     -13.785  12.181  64.362  1.00  0.00    -0.267 OA 
ENDROOT
BRANCH   2   5
HETATM    5  C   UNL     1     -11.699  12.491  65.917  1.00  0.00    -0.426 C  
BRANCH   5   6
HETATM    6  C   UNL     1     -11.498  13.705  66.811  1.00  0.00    -0.346 C  
BRANCH   6   7
HETATM    7  N   UNL     1     -10.190  14.345  66.637  1.00  0.00    -0.272 NA 
HETATM    8  H   UNL     1     -10.294  15.282  66.246  1.00  0.00     0.000 HD 
BRANCH   7   9
HETATM    9  C   UNL     1      -9.391  14.382  67.863  1.00  0.00    -0.203 C  
BRANCH   9  10
HETATM   10  C   UNL     1      -8.589  13.138  67.997  1.00  0.00    -0.182 A  
HETATM   11  C   UNL     1      -7.337  12.769  67.556  1.00  0.00    -0.153 A  
HETATM   12  C   UNL     1      -7.131  11.444  68.007  1.00  0.00    -0.074 A  
HETATM   13  C   UNL     1      -8.259  11.085  68.718  1.00  0.00    -0.146 A  
HETATM   14  O   UNL     1      -9.145  12.126  68.715  1.00  0.00    -0.048 OA 
BRANCH  13  15
HETATM   15  C   UNL     1      -8.685   9.890  69.434  1.00  0.00    -0.186 A  
HETATM   16  C   UNL     1      -9.335   8.839  68.772  1.00  0.00    -0.141 A  
HETATM   17  C   UNL     1      -9.759   7.677  69.470  1.00  0.00    -0.168 A  
HETATM   18  C   UNL     1      -9.524   7.579  70.850  1.00  0.00    -0.165 A  
HETATM   19  C   UNL     1      -8.884   8.618  71.494  1.00  0.00    -0.285 A  
HETATM   20  N   UNL     1      -9.899   6.538  71.592  1.00  0.00    -0.168 NA 
HETATM   21  C   UNL     1     -10.549   5.566  70.958  1.00  0.00    -0.230 A  
HETATM   22  C   UNL     1      -8.467   9.759  70.807  1.00  0.00     0.269 A  
HETATM   23  N   UNL     1     -10.841   5.548  69.660  1.00  0.00    -0.292 NA 
HETATM   24  C   UNL     1     -10.446   6.583  68.903  1.00  0.00    -0.215 A  
BRANCH  24  25
HETATM   25  N   UNL     1     -10.803   6.620  67.524  1.00  0.00    -0.351 NA 
HETATM   26  H   UNL     1     -11.583   7.231  67.284  1.00  0.00     0.000 HD 
BRANCH  25  27
HETATM   27  C   UNL     1     -10.216   5.920  66.444  1.00  0.00    -0.107 A  
HETATM   28  C   UNL     1      -8.986   6.268  65.886  1.00  0.00    -0.122 A  
HETATM   29  C   UNL     1      -8.372   5.511  64.886  1.00  0.00    -0.142 A  
HETATM   30  C   UNL     1      -8.979   4.335  64.431  1.00  0.00    -0.148 A  
HETATM   31 CL   UNL     1      -6.895   6.197  64.294  1.00  0.00    -0.041 Cl 
HETATM   32  C   UNL     1     -10.248   4.010  64.933  1.00  0.00    -0.211 A  
HETATM   33  C   UNL     1     -10.861   4.794  65.923  1.00  0.00    -0.107 A  
BRANCH  30  34
HETATM   34  O   UNL     1      -8.504   3.422  63.522  1.00  0.00    -0.089 OA 
BRANCH  34  35
HETATM   35  C   UNL     1      -7.126   3.080  63.642  1.00  0.00    -0.048 C  
BRANCH  35  36
HETATM   36  C   UNL     1      -6.823   2.457  64.979  1.00  0.00    -0.043 A  
HETATM   37  C   UNL     1      -7.839   2.256  65.918  1.00  0.00    -0.080 A  
HETATM   38  C   UNL     1      -7.517   1.790  67.187  1.00  0.00    -0.059 A  
HETATM   39  C   UNL     1      -6.199   1.519  67.540  1.00  0.00    -0.024 A  
HETATM   40  F   UNL     1      -8.490   1.619  68.091  1.00  0.00    -0.063 F  
HETATM   41  C   UNL     1      -5.184   1.712  66.610  1.00  0.00    -0.005 A  
HETATM   42  C   UNL     1      -5.490   2.181  65.335  1.00  0.00    -0.008 A  
ENDBRANCH  35  36
ENDBRANCH  34  35
ENDBRANCH  30  34
ENDBRANCH  25  27
ENDBRANCH  24  25
ENDBRANCH  13  15
ENDBRANCH   9  10
ENDBRANCH   7   9
ENDBRANCH   6   7
ENDBRANCH   5   6
ENDBRANCH   2   5
TORSDOF 11
ENDMDL
MODEL      262
REMARK 921   NORMALIZED FREE ENERGY PREDICTED BY IDOCK:   -2.11 KCAL/MOL
REMARK 922        TOTAL FREE ENERGY PREDICTED BY IDOCK:   -6.21 KCAL/MOL
REMARK 923 INTER-LIGAND FREE ENERGY PREDICTED BY IDOCK:   -4.73 KCAL/MOL
REMARK 924 INTRA-LIGAND FREE ENERGY PREDICTED BY IDOCK:   -1.48 KCAL/MOL
REMARK 927      BINDING AFFINITY PREDICTED BY RF-SCORE:    0.00 PKD
ROOT
HETATM    1  C   UNL     1     -12.072  14.817  74.440  1.00  0.00     0.260 C  
HETATM    2  S   UNL     1     -12.993  15.501  73.088  1.00  0.00    -0.575 S  
HETATM    3  O   UNL     1     -12.058  15.809  72.024  1.00  0.00    -0.381 OA 
HETATM    4  O   UNL     1     -13.882  16.511  73.626  1.00  0.00    -0.369 OA 
ENDROOT
BRANCH   2   5
HETATM    5  C   UNL     1     -13.980  14.113  72.574  1.00  0.00    -0.433 C  
BRANCH   5   6
HETATM    6  C   UNL     1     -13.140  13.071  71.850  1.00  0.00    -0.384 C  
BRANCH   6   7
HETATM    7  N   UNL     1     -13.500  11.692  72.194  1.00  0.00    -0.518 NA 
HETATM    8  H   UNL     1     -14.310  11.384  71.654  1.00  0.00     0.000 HD 
BRANCH   7   9
HETATM    9  C   UNL     1     -12.392  10.747  72.051  1.00  0.00     0.332 C  
BRANCH   9  10
HETATM   10  C   UNL     1     -12.036  10.579  70.618  1.00  0.00    -0.357 A  
HETATM   11  C   UNL     1     -12.733  10.134  69.517  1.00  0.00     0.718 A  
HETATM   12  C   UNL     1     -11.839  10.209  68.423  1.00  0.00     0.471 A  
HETATM   13  C   UNL     1     -10.652  10.717  68.913  1.00  0.00    -0.212 A  
HETATM   14  O   UNL     1     -10.778  10.948  70.254  1.00  0.00    -0.052 OA 
BRANCH  13  15
HETATM   15  C   UNL     1      -9.356  11.041  68.331  1.00  0.00    -0.179 A  
HETATM   16  C   UNL     1      -8.855  10.330  67.232  1.00  0.00    -0.136 A  
HETATM   17  C   UNL     1      -7.587  10.639  66.668  1.00  0.00    -0.129 A  
HETATM   18  C   UNL     1      -6.821  11.674  67.225  1.00  0.00    -0.129 A  
HETATM   19  C   UNL     1      -7.322  12.369  68.308  1.00  0.00    -0.113 A  
HETATM   20  N   UNL     1      -5.616  12.026  66.778  1.00  0.00    -0.300 NA 
HETATM   21  C   UNL     1      -5.137  11.317  65.759  1.00  0.00    -0.007 A  
HETATM   22  C   UNL     1      -8.568  12.065  68.859  1.00  0.00     0.189 A  
HETATM   23  N   UNL     1      -5.760  10.308  65.156  1.00  0.00    -0.111 NA 
HETATM   24  C   UNL     1      -6.983   9.965  65.587  1.00  0.00    -0.108 A  
BRANCH  24  25
HETATM   25  N   UNL     1      -7.645   8.847  65.002  1.00  0.00    -0.097 NA 
HETATM   26  H   UNL     1      -8.035   8.999  64.073  1.00  0.00     0.000 HD 
BRANCH  25  27
HETATM   27  C   UNL     1      -7.830   7.552  65.542  1.00  0.00    -0.114 A  
HETATM   28  C   UNL     1      -8.366   6.491  64.814  1.00  0.00    -0.019 A  
HETATM   29  C   UNL     1      -8.454   5.194  65.326  1.00  0.00    -0.144 A  
HETATM   30  C   UNL     1      -7.961   4.917  66.607  1.00  0.00    -0.103 A  
HETATM   31 CL   UNL     1      -9.238   4.071  64.265  1.00  0.00    -0.140 Cl 
HETATM   32  C   UNL     1      -7.483   5.989  67.376  1.00  0.00    -0.081 A  
HETATM   33  C   UNL     1      -7.422   7.290  66.853  1.00  0.00    -0.097 A  
BRANCH  30  34
HETATM   34  O   UNL     1      -7.884   3.707  67.251  1.00  0.00    -0.078 OA 
BRANCH  34  35
HETATM   35  C   UNL     1      -9.117   3.171  67.722  1.00  0.00    -0.178 C  
BRANCH  35  36
HETATM   36  C   UNL     1      -9.148   3.088  69.225  1.00  0.00    -0.198 A  
HETATM   37  C   UNL     1      -9.696   4.126  69.985  1.00  0.00    -0.282 A  
HETATM   38  C   UNL     1      -9.606   4.082  71.371  1.00  0.00    -0.171 A  
HETATM   39  C   UNL     1      -8.981   3.021  72.018  1.00  0.00    -0.133 A  
HETATM   40  F   UNL     1     -10.113   5.087  72.095  1.00  0.00    -0.207 F  
HETATM   41  C   UNL     1      -8.437   1.983  71.269  1.00  0.00    -0.084 A  
HETATM   42  C   UNL     1      -8.517   2.014  69.879  1.00  0.00    -0.085 A  
ENDBRANCH  35  36
ENDBRANCH  34  35
ENDBRANCH  30  34
ENDBRANCH  25  27
ENDBRANCH  24  25
ENDBRANCH  13  15
ENDBRANCH   9  10
ENDBRANCH   7   9
ENDBRANCH   6   7
ENDBRANCH   5   6
ENDBRANCH   2   5
TORSDOF 11
ENDMDL
MODEL      263
REMARK 921   NORMALIZED FREE ENERGY PREDICTED BY IDOCK:   -2.00 KCAL/MOL
REMARK 922        TOTAL FREE ENERGY PREDICTED BY IDOCK:   -6.03 KCAL/MOL
REMARK 923 INTER-LIGAND FREE ENERGY PREDICTED BY IDOCK:   -5.58 KCAL/MOL
REMARK 924 INTRA-LIGAND FREE ENERGY PREDICTED BY IDOCK:   -0.46 KCAL/MOL
REMARK 927      BINDING AFFINITY PREDICTED BY RF-SCORE:    0.00 PKD
ROOT
HETATM    1  C   UNL     1      -5.909   7.286  70.318  1.00  0.00    -0.024 C  
HETATM    2  S   UNL     1      -6.355   5.800  71.178  1.00  0.00    -0.041 S  
HETATM    3  O   UNL     1      -7.473   6.108  72.047  1.00  0.00    -0.092 OA 
HETATM    4  O   UNL     1      -5.138   5.209  71.697  1.00  0.00    -0.004 OA 
ENDROOT
BRANCH   2   5
HETATM    5  C   UNL     1      -6.947   4.771  69.854  1.00  0.00    -0.052 C  
BRANCH   5   6
HETATM    6  C   UNL     1      -5.811   4.328  68.944  1.00  0.00    -0.022 C  
BRANCH   6   7
HETATM    7  N   UNL     1      -5.987   4.743  67.548  1.00  0.00    -0.022 NA 
HETATM    8  H   UNL     1      -6.966   4.670  67.270  1.00  0.00     0.000 HD 
BRANCH   7   9
HETATM    9  C   UNL     1      -5.468   6.083  67.269  1.00  0.00    -0.005 C  
BRANCH   9  10
HETATM   10  C   UNL     1      -5.798   6.487  65.877  1.00  0.00    -0.022 A  
HETATM   11  C   UNL     1      -5.461   5.981  64.641  1.00  0.00    -0.017 A  
HETATM   12  C   UNL     1      -6.092   6.812  63.686  1.00  0.00    -0.039 A  
HETATM   13  C   UNL     1      -6.798   7.766  64.391  1.00  0.00    -0.059 A  
HETATM   14  O   UNL     1      -6.622   7.559  65.731  1.00  0.00    -0.044 OA 
BRANCH  13  15
HETATM   15  C   UNL     1      -7.649   8.891  64.029  1.00  0.00    -0.121 A  
HETATM   16  C   UNL     1      -8.347   9.618  65.004  1.00  0.00    -0.146 A  
HETATM   17  C   UNL     1      -9.184  10.710  64.652  1.00  0.00    -0.262 A  
HETATM   18  C   UNL     1      -9.318  11.068  63.302  1.00  0.00    -0.308 A  
HETATM   19  C   UNL     1      -8.628  10.347  62.348  1.00  0.00    -0.242 A  
HETATM   20  N   UNL     1     -10.091  12.064  62.873  1.00  0.00    -0.118 NA 
HETATM   21  C   UNL     1     -10.777  12.720  63.805  1.00  0.00    -0.361 A  
HETATM   22  C   UNL     1      -7.804   9.275  62.696  1.00  0.00    -0.122 A  
HETATM   23  N   UNL     1     -10.744  12.469  65.112  1.00  0.00    -0.283 NA 
HETATM   24  C   UNL     1      -9.950  11.482  65.551  1.00  0.00    -0.242 A  
BRANCH  24  25
HETATM   25  N   UNL     1      -9.946  11.149  66.937  1.00  0.00    -0.193 NA 
HETATM   26  H   UNL     1      -9.966  11.938  67.582  1.00  0.00     0.000 HD 
BRANCH  25  27
HETATM   27  C   UNL     1      -9.918   9.867  67.534  1.00  0.00    -0.185 A  
HETATM   28  C   UNL     1     -10.460   8.732  66.933  1.00  0.00    -0.319 A  
HETATM   29  C   UNL     1     -10.339   7.456  67.487  1.00  0.00    -0.251 A  
HETATM   30  C   UNL     1      -9.624   7.278  68.677  1.00  0.00    -0.141 A  
HETATM   31 CL   UNL     1     -11.173   6.223  66.600  1.00  0.00    -0.175 Cl 
HETATM   32  C   UNL     1      -9.132   8.420  69.329  1.00  0.00    -0.150 A  
HETATM   33  C   UNL     1      -9.281   9.698  68.768  1.00  0.00    -0.141 A  
BRANCH  30  34
HETATM   34  O   UNL     1      -9.329   6.108  69.333  1.00  0.00    -0.138 OA 
BRANCH  34  35
HETATM   35  C   UNL     1     -10.425   5.451  69.961  1.00  0.00    -0.303 C  
BRANCH  35  36
HETATM   36  C   UNL     1     -11.191   6.385  70.861  1.00  0.00    -0.384 A  
HETATM   37  C   UNL     1     -10.695   6.724  72.123  1.00  0.00    -0.249 A  
HETATM   38  C   UNL     1     -11.474   7.491  72.982  1.00  0.00    -0.197 A  
HETATM   39  C   UNL     1     -12.740   7.929  72.606  1.00  0.00     0.091 A  
HETATM   40  F   UNL     1     -11.006   7.796  74.198  1.00  0.00     0.193 F  
HETATM   41  C   UNL     1     -13.237   7.600  71.350  1.00  0.00    -0.337 A  
HETATM   42  C   UNL     1     -12.470   6.830  70.480  1.00  0.00    -0.051 A  
ENDBRANCH  35  36
ENDBRANCH  34  35
ENDBRANCH  30  34
ENDBRANCH  25  27
ENDBRANCH  24  25
ENDBRANCH  13  15
ENDBRANCH   9  10
ENDBRANCH   7   9
ENDBRANCH   6   7
ENDBRANCH   5   6
ENDBRANCH   2   5
TORSDOF 11
ENDMDL
MODEL      264
REMARK 921   NORMALIZED FREE ENERGY PREDICTED BY IDOCK:   -1.96 KCAL/MOL
REMARK 922        TOTAL FREE ENERGY PREDICTED BY IDOCK:   -5.97 KCAL/MOL
REMARK 923 INTER-LIGAND FREE ENERGY PREDICTED BY IDOCK:   -5.95 KCAL/MOL
REMARK 924 INTRA-LIGAND FREE ENERGY PREDICTED BY IDOCK:   -0.02 KCAL/MOL
REMARK 927      BINDING AFFINITY PREDICTED BY RF-SCORE:    0.00 PKD
ROOT
HETATM    1  C   UNL     1      -8.465   4.822  67.942  1.00  0.00    -0.103 C  
HETATM    2  S   UNL     1      -7.707   5.555  66.515  1.00  0.00    -0.100 S  
HETATM    3  O   UNL     1      -8.440   6.763  66.193  1.00  0.00    -0.123 OA 
HETATM    4  O   UNL     1      -7.512   4.508  65.533  1.00  0.00    -0.078 OA 
ENDROOT
BRANCH   2   5
HETATM    5  C   UNL     1      -6.112   6.025  67.145  1.00  0.00    -0.022 C  
BRANCH   5   6
HETATM    6  C   UNL     1      -6.032   7.525  67.393  1.00  0.00    -0.046 C  
BRANCH   6   7
HETATM    7  N   UNL     1      -5.743   8.300  66.181  1.00  0.00    -0.039 NA 
HETATM    8  H   UNL     1      -6.243   7.916  65.379  1.00  0.00     0.000 HD 
BRANCH   7   9
HETATM    9  C   UNL     1      -6.015   9.730  66.327  1.00  0.00    -0.063 C  
BRANCH   9  10
HETATM   10  C   UNL     1      -5.791  10.161  67.731  1.00  0.00    -0.042 A  
HETATM   11  C   UNL     1      -5.153  11.242  68.298  1.00  0.00    -0.039 A  
HETATM   12  C   UNL     1      -5.281  11.090  69.699  1.00  0.00    -0.041 A  
HETATM   13  C   UNL     1      -6.011   9.937  69.910  1.00  0.00    -0.045 A  
HETATM   14  O   UNL     1      -6.326   9.375  68.704  1.00  0.00    -0.048 OA 
BRANCH  13  15
HETATM   15  C   UNL     1      -6.491   9.226  71.087  1.00  0.00    -0.083 A  
HETATM   16  C   UNL     1      -7.707   8.529  71.069  1.00  0.00    -0.104 A  
HETATM   17  C   UNL     1      -8.182   7.842  72.218  1.00  0.00    -0.149 A  
HETATM   18  C   UNL     1      -7.420   7.863  73.396  1.00  0.00    -0.140 A  
HETATM   19  C   UNL     1      -6.224   8.552  73.406  1.00  0.00    -0.117 A  
HETATM   20  N   UNL     1      -7.789   7.264  74.527  1.00  0.00    -0.143 NA 
HETATM   21  C   UNL     1      -8.963   6.640  74.507  1.00  0.00    -0.188 A  
HETATM   22  C   UNL     1      -5.758   9.225  72.275  1.00  0.00    -0.026 A  
HETATM   23  N   UNL     1      -9.779   6.559  73.459  1.00  0.00    -0.166 NA 
HETATM   24  C   UNL     1      -9.402   7.141  72.310  1.00  0.00    -0.138 A  
BRANCH  24  25
HETATM   25  N   UNL     1     -10.287   7.126  71.193  1.00  0.00    -0.203 NA 
HETATM   26  H   UNL     1     -10.686   6.218  70.956  1.00  0.00     0.000 HD 
BRANCH  25  27
HETATM   27  C   UNL     1     -10.683   8.206  70.370  1.00  0.00    -0.232 A  
HETATM   28  C   UNL     1     -10.353   8.297  69.019  1.00  0.00    -0.233 A  
HETATM   29  C   UNL     1     -10.833   9.318  68.194  1.00  0.00    -0.090 A  
HETATM   30  C   UNL     1     -11.706  10.280  68.713  1.00  0.00     0.051 A  
HETATM   31 CL   UNL     1     -10.209   9.266  66.578  1.00  0.00    -0.336 Cl 
HETATM   32  C   UNL     1     -11.992  10.240  70.087  1.00  0.00    -0.313 A  
HETATM   33  C   UNL     1     -11.484   9.219  70.906  1.00  0.00    -0.367 A  
BRANCH  30  34
HETATM   34  O   UNL     1     -12.341  11.304  68.055  1.00  0.00    -0.432 OA 
BRANCH  34  35
HETATM   35  C   UNL     1     -11.770  12.599  68.215  1.00  0.00    -0.342 C  
BRANCH  35  36
HETATM   36  C   UNL     1     -11.013  13.028  66.985  1.00  0.00    -0.289 A  
HETATM   37  C   UNL     1     -10.947  14.377  66.624  1.00  0.00    -0.318 A  
HETATM   38  C   UNL     1     -10.345  14.735  65.423  1.00  0.00    -0.386 A  
HETATM   39  C   UNL     1      -9.807  13.774  64.574  1.00  0.00     0.361 A  
HETATM   40  F   UNL     1     -10.301  16.026  65.070  1.00  0.00    -0.380 F  
HETATM   41  C   UNL     1      -9.867  12.432  64.928  1.00  0.00    -0.122 A  
HETATM   42  C   UNL     1     -10.468  12.056  66.127  1.00  0.00    -0.271 A  
ENDBRANCH  35  36
ENDBRANCH  34  35
ENDBRANCH  30  34
ENDBRANCH  25  27
ENDBRANCH  24  25
ENDBRANCH  13  15
ENDBRANCH   9  10
ENDBRANCH   7   9
ENDBRANCH   6   7
ENDBRANCH   5   6
ENDBRANCH   2   5
TORSDOF 11
ENDMDL
MODEL      265
REMARK 921   NORMALIZED FREE ENERGY PREDICTED BY IDOCK:   -1.70 KCAL/MOL
REMARK 922        TOTAL FREE ENERGY PREDICTED BY IDOCK:   -5.54 KCAL/MOL
REMARK 923 INTER-LIGAND FREE ENERGY PREDICTED BY IDOCK:   -5.16 KCAL/MOL
REMARK 924 INTRA-LIGAND FREE ENERGY PREDICTED BY IDOCK:   -0.38 KCAL/MOL
REMARK 927      BINDING AFFINITY PREDICTED BY RF-SCORE:    0.00 PKD
ROOT
HETATM    1  C   UNL     1      -8.635   5.365  66.521  1.00  0.00    -0.116 C  
HETATM    2  S   UNL     1     -10.206   4.626  66.887  1.00  0.00    -0.084 S  
HETATM    3  O   UNL     1      -9.971   3.494  67.761  1.00  0.00     0.011 OA 
HETATM    4  O   UNL     1     -10.925   4.478  65.639  1.00  0.00    -0.218 OA 
ENDROOT
BRANCH   2   5
HETATM    5  C   UNL     1     -11.002   5.904  67.835  1.00  0.00    -0.149 C  
BRANCH   5   6
HETATM    6  C   UNL     1     -10.776   7.276  67.217  1.00  0.00    -0.321 C  
BRANCH   6   7
HETATM    7  N   UNL     1      -9.919   8.146  68.030  1.00  0.00    -0.176 NA 
HETATM    8  H   UNL     1     -10.262   9.107  68.016  1.00  0.00     0.000 HD 
BRANCH   7   9
HETATM    9  C   UNL     1      -9.751   7.676  69.406  1.00  0.00    -0.165 C  
BRANCH   9  10
HETATM   10  C   UNL     1     -10.912   8.084  70.239  1.00  0.00    -0.242 A  
HETATM   11  C   UNL     1     -11.817   7.383  71.006  1.00  0.00    -0.336 A  
HETATM   12  C   UNL     1     -12.695   8.344  71.561  1.00  0.00    -0.330 A  
HETATM   13  C   UNL     1     -12.263   9.580  71.122  1.00  0.00    -0.338 A  
HETATM   14  O   UNL     1     -11.169   9.417  70.320  1.00  0.00    -0.245 OA 
BRANCH  13  15
HETATM   15  C   UNL     1     -12.705  10.953  71.322  1.00  0.00    -0.542 A  
HETATM   16  C   UNL     1     -11.979  12.033  70.801  1.00  0.00    -0.151 A  
HETATM   17  C   UNL     1     -12.403  13.375  71.002  1.00  0.00    -0.401 A  
HETATM   18  C   UNL     1     -13.571  13.623  71.738  1.00  0.00    -0.363 A  
HETATM   19  C   UNL     1     -14.280  12.554  72.249  1.00  0.00     0.294 A  
HETATM   20  N   UNL     1     -14.039  14.844  71.994  1.00  0.00    -0.466 NA 
HETATM   21  C   UNL     1     -13.319  15.860  71.527  1.00  0.00    -0.062 A  
HETATM   22  C   UNL     1     -13.862  11.237  72.049  1.00  0.00     0.275 A  
HETATM   23  N   UNL     1     -12.192  15.754  70.827  1.00  0.00    -0.408 NA 
HETATM   24  C   UNL     1     -11.729  14.526  70.547  1.00  0.00    -0.276 A  
BRANCH  24  25
HETATM   25  N   UNL     1     -10.490  14.385  69.857  1.00  0.00    -0.430 NA 
HETATM   26  H   UNL     1     -10.096  13.445  69.842  1.00  0.00     0.000 HD 
BRANCH  25  27
HETATM   27  C   UNL     1      -9.737  15.378  69.188  1.00  0.00    -0.252 A  
HETATM   28  C   UNL     1      -8.425  15.703  69.533  1.00  0.00    -0.182 A  
HETATM   29  C   UNL     1      -7.659  16.615  68.804  1.00  0.00    -0.227 A  
HETATM   30  C   UNL     1      -8.195  17.217  67.660  1.00  0.00    -0.187 A  
HETATM   31 CL   UNL     1      -6.093  16.918  69.482  1.00  0.00    -0.214 Cl 
HETATM   32  C   UNL     1      -9.536  16.952  67.341  1.00  0.00    -0.238 A  
HETATM   33  C   UNL     1     -10.298  16.049  68.098  1.00  0.00    -0.260 A  
BRANCH  30  34
HETATM   34  O   UNL     1      -7.583  18.070  66.774  1.00  0.00    -0.201 OA 
BRANCH  34  35
HETATM   35  C   UNL     1      -7.772  19.461  67.015  1.00  0.00    -0.246 C  
BRANCH  35  36
HETATM   36  C   UNL     1      -7.686  19.787  68.483  1.00  0.00    -0.324 A  
HETATM   37  C   UNL     1      -6.467  20.155  69.061  1.00  0.00    -0.343 A  
HETATM   38  C   UNL     1      -6.389  20.335  70.437  1.00  0.00    -0.218 A  
HETATM   39  C   UNL     1      -7.502  20.156  71.250  1.00  0.00     1.291 A  
HETATM   40  F   UNL     1      -5.215  20.667  70.990  1.00  0.00    -0.258 F  
HETATM   41  C   UNL     1      -8.718  19.794  70.682  1.00  0.00     1.885 A  
HETATM   42  C   UNL     1      -8.813  19.608  69.305  1.00  0.00     0.048 A  
ENDBRANCH  35  36
ENDBRANCH  34  35
ENDBRANCH  30  34
ENDBRANCH  25  27
ENDBRANCH  24  25
ENDBRANCH  13  15
ENDBRANCH   9  10
ENDBRANCH   7   9
ENDBRANCH   6   7
ENDBRANCH   5   6
ENDBRANCH   2   5
TORSDOF 11
ENDMDL
MODEL      266
REMARK 921   NORMALIZED FREE ENERGY PREDICTED BY IDOCK:   -1.68 KCAL/MOL
REMARK 922        TOTAL FREE ENERGY PREDICTED BY IDOCK:   -5.51 KCAL/MOL
REMARK 923 INTER-LIGAND FREE ENERGY PREDICTED BY IDOCK:   -4.07 KCAL/MOL
REMARK 924 INTRA-LIGAND FREE ENERGY PREDICTED BY IDOCK:   -1.44 KCAL/MOL
REMARK 927      BINDING AFFINITY PREDICTED BY RF-SCORE:    0.00 PKD
ROOT
HETATM    1  C   UNL     1     -10.788  15.303  71.802  1.00  0.00     0.224 C  
HETATM    2  S   UNL     1     -10.271  15.573  70.127  1.00  0.00    -0.085 S  
HETATM    3  O   UNL     1      -9.599  16.855  70.070  1.00  0.00     0.578 OA 
HETATM    4  O   UNL     1     -11.396  15.272  69.265  1.00  0.00    -0.260 OA 
ENDROOT
BRANCH   2   5
HETATM    5  C   UNL     1      -9.052  14.296  69.907  1.00  0.00     1.165 C  
BRANCH   5   6
HETATM    6  C   UNL     1      -7.763  14.626  70.647  1.00  0.00     1.459 C  
BRANCH   6   7
HETATM    7  N   UNL     1      -6.578  13.989  70.064  1.00  0.00    -0.338 NA 
HETATM    8  H   UNL     1      -6.832  13.431  69.248  1.00  0.00     0.000 HD 
BRANCH   7   9
HETATM    9  C   UNL     1      -5.511  14.934  69.735  1.00  0.00    -0.098 C  
BRANCH   9  10
HETATM   10  C   UNL     1      -5.903  15.776  68.575  1.00  0.00    -0.100 A  
HETATM   11  C   UNL     1      -5.260  16.766  67.865  1.00  0.00    -0.128 A  
HETATM   12  C   UNL     1      -6.165  17.188  66.862  1.00  0.00    -0.231 A  
HETATM   13  C   UNL     1      -7.302  16.415  67.000  1.00  0.00    -0.220 A  
HETATM   14  O   UNL     1      -7.135  15.549  68.044  1.00  0.00    -0.109 OA 
BRANCH  13  15
HETATM   15  C   UNL     1      -8.578  16.333  66.304  1.00  0.00    -0.374 A  
HETATM   16  C   UNL     1      -9.212  15.101  66.092  1.00  0.00    -0.318 A  
HETATM   17  C   UNL     1     -10.453  15.017  65.406  1.00  0.00    -0.406 A  
HETATM   18  C   UNL     1     -11.056  16.191  64.928  1.00  0.00    -0.325 A  
HETATM   19  C   UNL     1     -10.425  17.400  65.140  1.00  0.00     0.290 A  
HETATM   20  N   UNL     1     -12.208  16.212  64.259  1.00  0.00    -0.501 NA 
HETATM   21  C   UNL     1     -12.778  15.032  64.032  1.00  0.00     0.515 A  
HETATM   22  C   UNL     1      -9.206  17.481  65.816  1.00  0.00     0.216 A  
HETATM   23  N   UNL     1     -12.301  13.853  64.422  1.00  0.00    -0.623 NA 
HETATM   24  C   UNL     1     -11.153  13.828  65.115  1.00  0.00    -0.328 A  
BRANCH  24  25
HETATM   25  N   UNL     1     -10.586  12.574  65.488  1.00  0.00    -0.268 NA 
HETATM   26  H   UNL     1      -9.997  12.128  64.786  1.00  0.00     0.000 HD 
BRANCH  25  27
HETATM   27  C   UNL     1     -10.735  11.868  66.705  1.00  0.00    -0.256 A  
HETATM   28  C   UNL     1     -10.002  10.724  67.017  1.00  0.00    -0.236 A  
HETATM   29  C   UNL     1     -10.086  10.092  68.260  1.00  0.00    -0.158 A  
HETATM   30  C   UNL     1     -10.907  10.628  69.259  1.00  0.00    -0.239 A  
HETATM   31 CL   UNL     1      -9.149   8.639  68.375  1.00  0.00    -0.138 Cl 
HETATM   32  C   UNL     1     -11.702  11.738  68.936  1.00  0.00    -0.384 A  
HETATM   33  C   UNL     1     -11.621  12.347  67.674  1.00  0.00    -0.421 A  
BRANCH  30  34
HETATM   34  O   UNL     1     -11.065  10.205  70.556  1.00  0.00    -0.294 OA 
BRANCH  34  35
HETATM   35  C   UNL     1      -9.934   9.573  71.149  1.00  0.00    -0.149 C  
BRANCH  35  36
HETATM   36  C   UNL     1     -10.330   8.352  71.937  1.00  0.00    -0.353 A  
HETATM   37  C   UNL     1     -11.578   7.752  71.742  1.00  0.00    -0.312 A  
HETATM   38  C   UNL     1     -11.968   6.701  72.563  1.00  0.00    -0.054 A  
HETATM   39  C   UNL     1     -11.138   6.234  73.576  1.00  0.00     0.017 A  
HETATM   40  F   UNL     1     -13.172   6.142  72.387  1.00  0.00    -0.204 F  
HETATM   41  C   UNL     1      -9.894   6.823  73.774  1.00  0.00    -0.289 A  
HETATM   42  C   UNL     1      -9.489   7.879  72.961  1.00  0.00    -0.336 A  
ENDBRANCH  35  36
ENDBRANCH  34  35
ENDBRANCH  30  34
ENDBRANCH  25  27
ENDBRANCH  24  25
ENDBRANCH  13  15
ENDBRANCH   9  10
ENDBRANCH   7   9
ENDBRANCH   6   7
ENDBRANCH   5   6
ENDBRANCH   2   5
TORSDOF 11
ENDMDL
MODEL      267
REMARK 921   NORMALIZED FREE ENERGY PREDICTED BY IDOCK:   -1.64 KCAL/MOL
REMARK 922        TOTAL FREE ENERGY PREDICTED BY IDOCK:   -5.45 KCAL/MOL
REMARK 923 INTER-LIGAND FREE ENERGY PREDICTED BY IDOCK:   -5.51 KCAL/MOL
REMARK 924 INTRA-LIGAND FREE ENERGY PREDICTED BY IDOCK:    0.06 KCAL/MOL
REMARK 927      BINDING AFFINITY PREDICTED BY RF-SCORE:    0.00 PKD
ROOT
HETATM    1  C   UNL     1     -10.880   6.681  68.454  1.00  0.00    -0.255 C  
HETATM    2  S   UNL     1      -9.112   6.543  68.425  1.00  0.00    -0.122 S  
HETATM    3  O   UNL     1      -8.762   5.495  67.488  1.00  0.00    -0.109 OA 
HETATM    4  O   UNL     1      -8.650   6.511  69.798  1.00  0.00    -0.133 OA 
ENDROOT
BRANCH   2   5
HETATM    5  C   UNL     1      -8.632   8.103  67.718  1.00  0.00    -0.131 C  
BRANCH   5   6
HETATM    6  C   UNL     1      -7.341   8.620  68.336  1.00  0.00    -0.086 C  
BRANCH   6   7
HETATM    7  N   UNL     1      -6.246   7.645  68.296  1.00  0.00    -0.039 NA 
HETATM    8  H   UNL     1      -5.835   7.599  67.363  1.00  0.00     0.000 HD 
BRANCH   7   9
HETATM    9  C   UNL     1      -5.213   7.886  69.305  1.00  0.00    -0.022 C  
BRANCH   9  10
HETATM   10  C   UNL     1      -5.368   9.244  69.890  1.00  0.00    -0.032 A  
HETATM   11  C   UNL     1      -5.136   9.764  71.145  1.00  0.00    -0.049 A  
HETATM   12  C   UNL     1      -5.478  11.135  71.075  1.00  0.00    -0.069 A  
HETATM   13  C   UNL     1      -5.878  11.382  69.777  1.00  0.00    -0.099 A  
HETATM   14  O   UNL     1      -5.803  10.224  69.054  1.00  0.00    -0.038 OA 
BRANCH  13  15
HETATM   15  C   UNL     1      -6.341  12.556  69.050  1.00  0.00    -0.092 A  
HETATM   16  C   UNL     1      -7.621  12.598  68.479  1.00  0.00    -0.121 A  
HETATM   17  C   UNL     1      -8.072  13.739  67.761  1.00  0.00    -0.176 A  
HETATM   18  C   UNL     1      -7.220  14.844  67.620  1.00  0.00    -0.185 A  
HETATM   19  C   UNL     1      -5.961  14.794  68.185  1.00  0.00    -0.146 A  
HETATM   20  N   UNL     1      -7.546  15.950  66.952  1.00  0.00    -0.230 NA 
HETATM   21  C   UNL     1      -8.748  15.960  66.383  1.00  0.00    -0.327 A  
HETATM   22  C   UNL     1      -5.520  13.673  68.891  1.00  0.00    -0.074 A  
HETATM   23  N   UNL     1      -9.639  14.973  66.435  1.00  0.00    -0.271 NA 
HETATM   24  C   UNL     1      -9.324  13.867  67.125  1.00  0.00    -0.243 A  
BRANCH  24  25
HETATM   25  N   UNL     1     -10.233  12.769  67.142  1.00  0.00    -0.232 NA 
HETATM   26  H   UNL     1     -10.347  12.275  66.258  1.00  0.00     0.000 HD 
BRANCH  25  27
HETATM   27  C   UNL     1     -10.997  12.276  68.225  1.00  0.00    -0.232 A  
HETATM   28  C   UNL     1     -10.698  11.089  68.892  1.00  0.00    -0.249 A  
HETATM   29  C   UNL     1     -11.401  10.662  70.022  1.00  0.00    -0.324 A  
HETATM   30  C   UNL     1     -12.430  11.455  70.543  1.00  0.00    -0.293 A  
HETATM   31 CL   UNL     1     -10.901   9.113  70.617  1.00  0.00    -0.295 Cl 
HETATM   32  C   UNL     1     -12.787  12.618  69.841  1.00  0.00     0.597 A  
HETATM   33  C   UNL     1     -12.083  13.020  68.695  1.00  0.00    -0.189 A  
BRANCH  30  34
HETATM   34  O   UNL     1     -13.178  11.252  71.676  1.00  0.00    -0.419 OA 
BRANCH  34  35
HETATM   35  C   UNL     1     -14.239  12.178  71.898  1.00  0.00     1.196 C  
BRANCH  35  36
HETATM   36  C   UNL     1     -13.716  13.547  72.243  1.00  0.00    -0.700 A  
HETATM   37  C   UNL     1     -12.666  13.701  73.153  1.00  0.00     0.500 A  
HETATM   38  C   UNL     1     -12.282  14.978  73.545  1.00  0.00    -0.437 A  
HETATM   39  C   UNL     1     -12.923  16.107  73.047  1.00  0.00    -0.495 A  
HETATM   40  F   UNL     1     -11.290  15.122  74.433  1.00  0.00    -0.015 F  
HETATM   41  C   UNL     1     -13.966  15.962  72.139  1.00  0.00    -0.234 A  
HETATM   42  C   UNL     1     -14.364  14.689  71.738  1.00  0.00    -0.638 A  
ENDBRANCH  35  36
ENDBRANCH  34  35
ENDBRANCH  30  34
ENDBRANCH  25  27
ENDBRANCH  24  25
ENDBRANCH  13  15
ENDBRANCH   9  10
ENDBRANCH   7   9
ENDBRANCH   6   7
ENDBRANCH   5   6
ENDBRANCH   2   5
TORSDOF 11
ENDMDL
MODEL      268
REMARK 921   NORMALIZED FREE ENERGY PREDICTED BY IDOCK:   -1.60 KCAL/MOL
REMARK 922        TOTAL FREE ENERGY PREDICTED BY IDOCK:   -5.37 KCAL/MOL
REMARK 923 INTER-LIGAND FREE ENERGY PREDICTED BY IDOCK:   -6.41 KCAL/MOL
REMARK 924 INTRA-LIGAND FREE ENERGY PREDICTED BY IDOCK:    1.04 KCAL/MOL
REMARK 927      BINDING AFFINITY PREDICTED BY RF-SCORE:    0.00 PKD
ROOT
HETATM    1  C   UNL     1      -6.849  14.645  67.366  1.00  0.00    -0.055 C  
HETATM    2  S   UNL     1      -7.251  16.341  67.693  1.00  0.00    -0.153 S  
HETATM    3  O   UNL     1      -6.763  17.136  66.584  1.00  0.00    -0.198 OA 
HETATM    4  O   UNL     1      -6.860  16.632  69.058  1.00  0.00    -0.182 OA 
ENDROOT
BRANCH   2   5
HETATM    5  C   UNL     1      -9.028  16.319  67.621  1.00  0.00    -0.192 C  
BRANCH   5   6
HETATM    6  C   UNL     1      -9.525  16.236  66.185  1.00  0.00    -0.339 C  
BRANCH   6   7
HETATM    7  N   UNL     1      -9.385  14.900  65.598  1.00  0.00    -0.476 NA 
HETATM    8  H   UNL     1      -8.710  14.909  64.833  1.00  0.00     0.000 HD 
BRANCH   7   9
HETATM    9  C   UNL     1      -9.046  13.866  66.576  1.00  0.00    -0.143 C  
BRANCH   9  10
HETATM   10  C   UNL     1      -9.689  12.576  66.213  1.00  0.00    -0.254 A  
HETATM   11  C   UNL     1     -10.990  12.124  66.257  1.00  0.00    -0.332 A  
HETATM   12  C   UNL     1     -10.964  10.795  65.771  1.00  0.00     0.021 A  
HETATM   13  C   UNL     1      -9.654  10.517  65.437  1.00  0.00    -0.237 A  
HETATM   14  O   UNL     1      -8.879  11.611  65.702  1.00  0.00    -0.100 OA 
BRANCH  13  15
HETATM   15  C   UNL     1      -8.956   9.362  64.889  1.00  0.00    -0.256 A  
HETATM   16  C   UNL     1      -8.399   8.386  65.727  1.00  0.00    -0.150 A  
HETATM   17  C   UNL     1      -7.710   7.262  65.196  1.00  0.00    -0.113 A  
HETATM   18  C   UNL     1      -7.583   7.128  63.805  1.00  0.00    -0.109 A  
HETATM   19  C   UNL     1      -8.134   8.094  62.987  1.00  0.00    -0.135 A  
HETATM   20  N   UNL     1      -6.942   6.121  63.214  1.00  0.00    -0.044 NA 
HETATM   21  C   UNL     1      -6.385   5.223  64.022  1.00  0.00    -0.022 A  
HETATM   22  C   UNL     1      -8.812   9.197  63.511  1.00  0.00    -0.086 A  
HETATM   23  N   UNL     1      -6.426   5.246  65.352  1.00  0.00    -0.039 NA 
HETATM   24  C   UNL     1      -7.090   6.246  65.951  1.00  0.00    -0.066 A  
BRANCH  24  25
HETATM   25  N   UNL     1      -7.094   6.331  67.374  1.00  0.00    -0.069 NA 
HETATM   26  H   UNL     1      -6.183   6.463  67.812  1.00  0.00     0.000 HD 
BRANCH  25  27
HETATM   27  C   UNL     1      -8.196   6.256  68.257  1.00  0.00    -0.115 A  
HETATM   28  C   UNL     1      -8.142   6.684  69.583  1.00  0.00    -0.126 A  
HETATM   29  C   UNL     1      -9.263   6.697  70.417  1.00  0.00    -0.156 A  
HETATM   30  C   UNL     1     -10.508   6.298  69.915  1.00  0.00    -0.227 A  
HETATM   31 CL   UNL     1      -8.923   7.186  72.044  1.00  0.00    -0.138 Cl 
HETATM   32  C   UNL     1     -10.563   5.800  68.604  1.00  0.00    -0.305 A  
HETATM   33  C   UNL     1      -9.421   5.774  67.788  1.00  0.00    -0.116 A  
BRANCH  30  34
HETATM   34  O   UNL     1     -11.728   6.312  70.544  1.00  0.00    -0.354 OA 
BRANCH  34  35
HETATM   35  C   UNL     1     -11.741   6.827  71.872  1.00  0.00    -0.310 C  
BRANCH  35  36
HETATM   36  C   UNL     1     -12.360   8.199  71.930  1.00  0.00    -0.371 A  
HETATM   37  C   UNL     1     -11.922   9.214  71.075  1.00  0.00    -0.344 A  
HETATM   38  C   UNL     1     -12.424  10.502  71.227  1.00  0.00    -0.419 A  
HETATM   39  C   UNL     1     -13.356  10.797  72.216  1.00  0.00    -0.149 A  
HETATM   40  F   UNL     1     -11.987  11.477  70.421  1.00  0.00    -0.376 F  
HETATM   41  C   UNL     1     -13.800   9.791  73.067  1.00  0.00     0.757 A  
HETATM   42  C   UNL     1     -13.305   8.497  72.928  1.00  0.00     0.066 A  
ENDBRANCH  35  36
ENDBRANCH  34  35
ENDBRANCH  30  34
ENDBRANCH  25  27
ENDBRANCH  24  25
ENDBRANCH  13  15
ENDBRANCH   9  10
ENDBRANCH   7   9
ENDBRANCH   6   7
ENDBRANCH   5   6
ENDBRANCH   2   5
TORSDOF 11
ENDMDL
MODEL      269
REMARK 921   NORMALIZED FREE ENERGY PREDICTED BY IDOCK:   -1.33 KCAL/MOL
REMARK 922        TOTAL FREE ENERGY PREDICTED BY IDOCK:   -4.94 KCAL/MOL
REMARK 923 INTER-LIGAND FREE ENERGY PREDICTED BY IDOCK:   -4.51 KCAL/MOL
REMARK 924 INTRA-LIGAND FREE ENERGY PREDICTED BY IDOCK:   -0.42 KCAL/MOL
REMARK 927      BINDING AFFINITY PREDICTED BY RF-SCORE:    0.00 PKD
ROOT
HETATM    1  C   UNL     1     -12.651  13.774  72.774  1.00  0.00     0.074 C  
HETATM    2  S   UNL     1     -12.523  15.492  72.352  1.00  0.00    -0.448 S  
HETATM    3  O   UNL     1     -11.555  16.098  73.244  1.00  0.00    -0.244 OA 
HETATM    4  O   UNL     1     -13.868  16.017  72.229  1.00  0.00    -0.314 OA 
ENDROOT
BRANCH   2   5
HETATM    5  C   UNL     1     -11.809  15.419  70.724  1.00  0.00    -0.353 C  
BRANCH   5   6
HETATM    6  C   UNL     1     -12.692  14.635  69.764  1.00  0.00    -0.015 C  
BRANCH   6   7
HETATM    7  N   UNL     1     -11.942  13.709  68.909  1.00  0.00    -0.356 NA 
HETATM    8  H   UNL     1     -11.597  14.186  68.075  1.00  0.00     0.000 HD 
BRANCH   7   9
HETATM    9  C   UNL     1     -10.851  13.026  69.605  1.00  0.00     0.320 C  
BRANCH   9  10
HETATM   10  C   UNL     1     -11.349  11.791  70.264  1.00  0.00     0.187 A  
HETATM   11  C   UNL     1     -12.484  11.497  70.987  1.00  0.00    -0.458 A  
HETATM   12  C   UNL     1     -12.382  10.133  71.350  1.00  0.00    -0.515 A  
HETATM   13  C   UNL     1     -11.202   9.663  70.809  1.00  0.00    -0.336 A  
HETATM   14  O   UNL     1     -10.576  10.678  70.140  1.00  0.00    -0.199 OA 
BRANCH  13  15
HETATM   15  C   UNL     1     -10.515   8.379  70.801  1.00  0.00    -0.230 A  
HETATM   16  C   UNL     1      -9.184   8.270  70.375  1.00  0.00    -0.153 A  
HETATM   17  C   UNL     1      -8.513   7.017  70.358  1.00  0.00    -0.141 A  
HETATM   18  C   UNL     1      -9.199   5.865  70.773  1.00  0.00    -0.153 A  
HETATM   19  C   UNL     1     -10.510   5.981  71.190  1.00  0.00    -0.284 A  
HETATM   20  N   UNL     1      -8.662   4.645  70.777  1.00  0.00    -0.102 NA 
HETATM   21  C   UNL     1      -7.412   4.551  70.334  1.00  0.00    -0.050 A  
HETATM   22  C   UNL     1     -11.166   7.213  71.208  1.00  0.00    -0.287 A  
HETATM   23  N   UNL     1      -6.664   5.565  69.904  1.00  0.00    -0.049 NA 
HETATM   24  C   UNL     1      -7.191   6.798  69.920  1.00  0.00    -0.080 A  
BRANCH  24  25
HETATM   25  N   UNL     1      -6.436   7.890  69.404  1.00  0.00    -0.035 NA 
HETATM   26  H   UNL     1      -6.013   7.743  68.488  1.00  0.00     0.000 HD 
BRANCH  25  27
HETATM   27  C   UNL     1      -6.195   9.152  69.996  1.00  0.00    -0.038 A  
HETATM   28  C   UNL     1      -5.821   9.311  71.330  1.00  0.00    -0.067 A  
HETATM   29  C   UNL     1      -5.492  10.554  71.877  1.00  0.00     0.214 A  
HETATM   30  C   UNL     1      -5.499  11.695  71.066  1.00  0.00    -0.063 A  
HETATM   31 CL   UNL     1      -5.148  10.505  73.574  1.00  0.00     0.126 Cl 
HETATM   32  C   UNL     1      -5.940  11.561  69.741  1.00  0.00    -0.116 A  
HETATM   33  C   UNL     1      -6.288  10.307  69.214  1.00  0.00    -0.047 A  
BRANCH  30  34
HETATM   34  O   UNL     1      -5.135  12.978  71.391  1.00  0.00    -0.151 OA 
BRANCH  34  35
HETATM   35  C   UNL     1      -6.161  13.962  71.294  1.00  0.00     0.202 C  
BRANCH  35  36
HETATM   36  C   UNL     1      -6.351  14.427  69.874  1.00  0.00    -0.155 A  
HETATM   37  C   UNL     1      -7.571  14.238  69.219  1.00  0.00     0.012 A  
HETATM   38  C   UNL     1      -7.685  14.567  67.873  1.00  0.00    -0.140 A  
HETATM   39  C   UNL     1      -6.604  15.082  67.166  1.00  0.00     0.283 A  
HETATM   40  F   UNL     1      -8.849  14.364  67.244  1.00  0.00    -0.171 F  
HETATM   41  C   UNL     1      -5.389  15.277  67.811  1.00  0.00    -0.087 A  
HETATM   42  C   UNL     1      -5.258  14.951  69.159  1.00  0.00    -0.093 A  
ENDBRANCH  35  36
ENDBRANCH  34  35
ENDBRANCH  30  34
ENDBRANCH  25  27
ENDBRANCH  24  25
ENDBRANCH  13  15
ENDBRANCH   9  10
ENDBRANCH   7   9
ENDBRANCH   6   7
ENDBRANCH   5   6
ENDBRANCH   2   5
TORSDOF 11
ENDMDL
MODEL      270
REMARK 921   NORMALIZED FREE ENERGY PREDICTED BY IDOCK:   -1.27 KCAL/MOL
REMARK 922        TOTAL FREE ENERGY PREDICTED BY IDOCK:   -4.84 KCAL/MOL
REMARK 923 INTER-LIGAND FREE ENERGY PREDICTED BY IDOCK:   -3.71 KCAL/MOL
REMARK 924 INTRA-LIGAND FREE ENERGY PREDICTED BY IDOCK:   -1.13 KCAL/MOL
REMARK 927      BINDING AFFINITY PREDICTED BY RF-SCORE:    0.00 PKD
ROOT
HETATM    1  C   UNL     1      -9.759   7.090  66.383  1.00  0.00    -0.068 C  
HETATM    2  S   UNL     1      -9.736   5.317  66.334  1.00  0.00    -0.183 S  
HETATM    3  O   UNL     1     -10.748   4.886  65.391  1.00  0.00    -0.099 OA 
HETATM    4  O   UNL     1      -9.727   4.838  67.701  1.00  0.00    -0.149 OA 
ENDROOT
BRANCH   2   5
HETATM    5  C   UNL     1      -8.139   4.989  65.623  1.00  0.00    -0.113 C  
BRANCH   5   6
HETATM    6  C   UNL     1      -8.247   4.657  64.141  1.00  0.00    -0.114 C  
BRANCH   6   7
HETATM    7  N   UNL     1      -8.909   5.706  63.358  1.00  0.00    -0.327 NA 
HETATM    8  H   UNL     1      -9.550   6.244  63.942  1.00  0.00     0.000 HD 
BRANCH   7   9
HETATM    9  C   UNL     1      -7.973   6.592  62.664  1.00  0.00    -0.098 C  
BRANCH   9  10
HETATM   10  C   UNL     1      -7.336   7.529  63.625  1.00  0.00    -0.094 A  
HETATM   11  C   UNL     1      -6.068   7.623  64.155  1.00  0.00    -0.049 A  
HETATM   12  C   UNL     1      -6.081   8.741  65.022  1.00  0.00    -0.060 A  
HETATM   13  C   UNL     1      -7.350   9.282  64.956  1.00  0.00    -0.102 A  
HETATM   14  O   UNL     1      -8.112   8.543  64.096  1.00  0.00    -0.148 OA 
BRANCH  13  15
HETATM   15  C   UNL     1      -8.015  10.418  65.580  1.00  0.00    -0.153 A  
HETATM   16  C   UNL     1      -7.761  10.766  66.914  1.00  0.00    -0.130 A  
HETATM   17  C   UNL     1      -8.416  11.867  67.528  1.00  0.00    -0.161 A  
HETATM   18  C   UNL     1      -9.337  12.621  66.784  1.00  0.00    -0.232 A  
HETATM   19  C   UNL     1      -9.582  12.271  65.471  1.00  0.00    -0.112 A  
HETATM   20  N   UNL     1     -10.012  13.659  67.275  1.00  0.00    -0.237 NA 
HETATM   21  C   UNL     1      -9.790  13.953  68.553  1.00  0.00    -0.214 A  
HETATM   22  C   UNL     1      -8.936  11.190  64.869  1.00  0.00    -0.052 A  
HETATM   23  N   UNL     1      -8.953  13.309  69.363  1.00  0.00     0.919 NA 
HETATM   24  C   UNL     1      -8.254  12.277  68.867  1.00  0.00     0.192 A  
BRANCH  24  25
HETATM   25  N   UNL     1      -7.401  11.529  69.729  1.00  0.00    -0.319 NA 
HETATM   26  H   UNL     1      -6.669  12.061  70.199  1.00  0.00     0.000 HD 
BRANCH  25  27
HETATM   27  C   UNL     1      -7.436  10.145  70.017  1.00  0.00    -0.162 A  
HETATM   28  C   UNL     1      -6.895   9.175  69.174  1.00  0.00    -0.050 A  
HETATM   29  C   UNL     1      -6.848   7.821  69.516  1.00  0.00    -0.047 A  
HETATM   30  C   UNL     1      -7.329   7.401  70.761  1.00  0.00    -0.069 A  
HETATM   31 CL   UNL     1      -6.212   6.803  68.267  1.00  0.00    -0.029 Cl 
HETATM   32  C   UNL     1      -7.938   8.355  71.591  1.00  0.00    -0.169 A  
HETATM   33  C   UNL     1      -7.996   9.708  71.222  1.00  0.00     0.605 A  
BRANCH  30  34
HETATM   34  O   UNL     1      -7.301   6.142  71.310  1.00  0.00    -0.077 OA 
BRANCH  34  35
HETATM   35  C   UNL     1      -7.661   6.052  72.685  1.00  0.00    -0.100 C  
BRANCH  35  36
HETATM   36  C   UNL     1      -8.999   5.385  72.866  1.00  0.00    -0.120 A  
HETATM   37  C   UNL     1     -10.153   5.937  72.301  1.00  0.00    -0.210 A  
HETATM   38  C   UNL     1     -11.391   5.370  72.580  1.00  0.00    -0.266 A  
HETATM   39  C   UNL     1     -11.503   4.261  73.412  1.00  0.00    -0.267 A  
HETATM   40  F   UNL     1     -12.496   5.914  72.055  1.00  0.00    -0.309 F  
HETATM   41  C   UNL     1     -10.359   3.704  73.973  1.00  0.00    -0.240 A  
HETATM   42  C   UNL     1      -9.112   4.261  73.705  1.00  0.00    -0.094 A  
ENDBRANCH  35  36
ENDBRANCH  34  35
ENDBRANCH  30  34
ENDBRANCH  25  27
ENDBRANCH  24  25
ENDBRANCH  13  15
ENDBRANCH   9  10
ENDBRANCH   7   9
ENDBRANCH   6   7
ENDBRANCH   5   6
ENDBRANCH   2   5
TORSDOF 11
ENDMDL
MODEL      271
REMARK 921   NORMALIZED FREE ENERGY PREDICTED BY IDOCK:   -1.18 KCAL/MOL
REMARK 922        TOTAL FREE ENERGY PREDICTED BY IDOCK:   -4.68 KCAL/MOL
REMARK 923 INTER-LIGAND FREE ENERGY PREDICTED BY IDOCK:   -5.27 KCAL/MOL
REMARK 924 INTRA-LIGAND FREE ENERGY PREDICTED BY IDOCK:    0.59 KCAL/MOL
REMARK 927      BINDING AFFINITY PREDICTED BY RF-SCORE:    0.00 PKD
ROOT
HETATM    1  C   UNL     1     -12.584  13.651  72.897  1.00  0.00     0.310 C  
HETATM    2  S   UNL     1     -12.842  15.406  72.925  1.00  0.00    -0.502 S  
HETATM    3  O   UNL     1     -11.877  15.983  73.838  1.00  0.00    -0.281 OA 
HETATM    4  O   UNL     1     -14.263  15.640  73.083  1.00  0.00    -0.138 OA 
ENDROOT
BRANCH   2   5
HETATM    5  C   UNL     1     -12.388  15.872  71.269  1.00  0.00    -0.408 C  
BRANCH   5   6
HETATM    6  C   UNL     1     -13.213  15.120  70.234  1.00  0.00    -0.016 C  
BRANCH   6   7
HETATM    7  N   UNL     1     -12.406  14.537  69.158  1.00  0.00    -0.571 NA 
HETATM    8  H   UNL     1     -12.158  15.246  68.467  1.00  0.00     0.000 HD 
BRANCH   7   9
HETATM    9  C   UNL     1     -11.211  13.842  69.638  1.00  0.00    -0.115 C  
BRANCH   9  10
HETATM   10  C   UNL     1     -11.391  12.370  69.537  1.00  0.00    -0.180 A  
HETATM   11  C   UNL     1     -12.236  11.477  70.160  1.00  0.00    -0.387 A  
HETATM   12  C   UNL     1     -11.922  10.201  69.634  1.00  0.00    -0.052 A  
HETATM   13  C   UNL     1     -10.920  10.389  68.703  1.00  0.00    -0.243 A  
HETATM   14  O   UNL     1     -10.603  11.717  68.642  1.00  0.00    -0.211 OA 
BRANCH  13  15
HETATM   15  C   UNL     1     -10.165   9.514  67.816  1.00  0.00    -0.265 A  
HETATM   16  C   UNL     1      -8.865   9.843  67.406  1.00  0.00    -0.137 A  
HETATM   17  C   UNL     1      -8.130   8.996  66.533  1.00  0.00    -0.111 A  
HETATM   18  C   UNL     1      -8.716   7.807  66.072  1.00  0.00    -0.161 A  
HETATM   19  C   UNL     1      -9.997   7.492  66.481  1.00  0.00    -0.209 A  
HETATM   20  N   UNL     1      -8.114   6.959  65.240  1.00  0.00    -0.130 NA 
HETATM   21  C   UNL     1      -6.897   7.303  64.828  1.00  0.00    -0.050 A  
HETATM   22  C   UNL     1     -10.717   8.325  67.339  1.00  0.00    -0.236 A  
HETATM   23  N   UNL     1      -6.241   8.405  65.184  1.00  0.00    -0.052 NA 
HETATM   24  C   UNL     1      -6.834   9.251  66.040  1.00  0.00    -0.088 A  
BRANCH  24  25
HETATM   25  N   UNL     1      -6.181  10.470  66.385  1.00  0.00    -0.085 NA 
HETATM   26  H   UNL     1      -5.776  10.991  65.608  1.00  0.00     0.000 HD 
BRANCH  25  27
HETATM   27  C   UNL     1      -6.023  11.051  67.665  1.00  0.00    -0.044 A  
HETATM   28  C   UNL     1      -5.723  10.311  68.808  1.00  0.00    -0.041 A  
HETATM   29  C   UNL     1      -5.472  10.907  70.047  1.00  0.00    -0.063 A  
HETATM   30  C   UNL     1      -5.485  12.302  70.163  1.00  0.00    -0.127 A  
HETATM   31 CL   UNL     1      -5.213   9.774  71.331  1.00  0.00    -0.066 Cl 
HETATM   32  C   UNL     1      -5.853  13.056  69.038  1.00  0.00    -0.079 A  
HETATM   33  C   UNL     1      -6.123  12.439  67.806  1.00  0.00    -0.111 A  
BRANCH  30  34
HETATM   34  O   UNL     1      -5.191  13.072  71.261  1.00  0.00    -0.161 OA 
BRANCH  34  35
HETATM   35  C   UNL     1      -6.186  14.015  71.648  1.00  0.00     0.443 C  
BRANCH  35  36
HETATM   36  C   UNL     1      -6.547  14.937  70.514  1.00  0.00     0.063 A  
HETATM   37  C   UNL     1      -5.654  15.924  70.086  1.00  0.00    -0.162 A  
HETATM   38  C   UNL     1      -6.055  16.839  69.119  1.00  0.00    -0.180 A  
HETATM   39  C   UNL     1      -7.331  16.789  68.568  1.00  0.00    -0.205 A  
HETATM   40  F   UNL     1      -5.205  17.796  68.727  1.00  0.00    -0.146 F  
HETATM   41  C   UNL     1      -8.223  15.808  68.985  1.00  0.00    -0.234 A  
HETATM   42  C   UNL     1      -7.837  14.885  69.954  1.00  0.00     0.164 A  
ENDBRANCH  35  36
ENDBRANCH  34  35
ENDBRANCH  30  34
ENDBRANCH  25  27
ENDBRANCH  24  25
ENDBRANCH  13  15
ENDBRANCH   9  10
ENDBRANCH   7   9
ENDBRANCH   6   7
ENDBRANCH   5   6
ENDBRANCH   2   5
TORSDOF 11
ENDMDL
MODEL      272
REMARK 921   NORMALIZED FREE ENERGY PREDICTED BY IDOCK:   -1.00 KCAL/MOL
REMARK 922        TOTAL FREE ENERGY PREDICTED BY IDOCK:   -4.39 KCAL/MOL
REMARK 923 INTER-LIGAND FREE ENERGY PREDICTED BY IDOCK:   -5.85 KCAL/MOL
REMARK 924 INTRA-LIGAND FREE ENERGY PREDICTED BY IDOCK:    1.47 KCAL/MOL
REMARK 927      BINDING AFFINITY PREDICTED BY RF-SCORE:    0.00 PKD
ROOT
HETATM    1  C   UNL     1      -7.755  15.663  69.551  1.00  0.00    -0.185 C  
HETATM    2  S   UNL     1      -6.918  15.858  67.999  1.00  0.00    -0.140 S  
HETATM    3  O   UNL     1      -6.632  14.536  67.479  1.00  0.00    -0.227 OA 
HETATM    4  O   UNL     1      -5.868  16.838  68.185  1.00  0.00    -0.113 OA 
ENDROOT
BRANCH   2   5
HETATM    5  C   UNL     1      -8.184  16.591  66.987  1.00  0.00    -0.196 C  
BRANCH   5   6
HETATM    6  C   UNL     1      -9.138  17.437  67.817  1.00  0.00    -0.243 C  
BRANCH   6   7
HETATM    7  N   UNL     1      -9.339  16.923  69.176  1.00  0.00    -0.183 NA 
HETATM    8  H   UNL     1      -9.145  17.647  69.869  1.00  0.00     0.000 HD 
BRANCH   7   9
HETATM    9  C   UNL     1     -10.666  16.343  69.390  1.00  0.00    -0.324 C  
BRANCH   9  10
HETATM   10  C   UNL     1     -11.110  15.605  68.179  1.00  0.00    -0.330 A  
HETATM   11  C   UNL     1     -12.135  15.795  67.279  1.00  0.00     0.864 A  
HETATM   12  C   UNL     1     -12.035  14.746  66.335  1.00  0.00    -0.179 A  
HETATM   13  C   UNL     1     -10.941  13.986  66.697  1.00  0.00    -0.300 A  
HETATM   14  O   UNL     1     -10.374  14.519  67.821  1.00  0.00    -0.235 OA 
BRANCH  13  15
HETATM   15  C   UNL     1     -10.294  12.795  66.163  1.00  0.00    -0.283 A  
HETATM   16  C   UNL     1      -9.606  11.905  66.999  1.00  0.00    -0.196 A  
HETATM   17  C   UNL     1      -8.967  10.747  66.479  1.00  0.00    -0.168 A  
HETATM   18  C   UNL     1      -9.024  10.491  65.101  1.00  0.00    -0.191 A  
HETATM   19  C   UNL     1      -9.704  11.373  64.284  1.00  0.00    -0.263 A  
HETATM   20  N   UNL     1      -8.444   9.443  64.518  1.00  0.00    -0.166 NA 
HETATM   21  C   UNL     1      -7.761   8.628  65.318  1.00  0.00    -0.092 A  
HETATM   22  C   UNL     1     -10.332  12.509  64.797  1.00  0.00    -0.331 A  
HETATM   23  N   UNL     1      -7.625   8.770  66.634  1.00  0.00    -0.089 NA 
HETATM   24  C   UNL     1      -8.226   9.811  67.229  1.00  0.00    -0.117 A  
BRANCH  24  25
HETATM   25  N   UNL     1      -8.041  10.023  68.626  1.00  0.00    -0.098 NA 
HETATM   26  H   UNL     1      -7.796  10.974  68.901  1.00  0.00     0.000 HD 
BRANCH  25  27
HETATM   27  C   UNL     1      -8.154   9.088  69.681  1.00  0.00    -0.103 A  
HETATM   28  C   UNL     1      -9.356   8.475  70.033  1.00  0.00    -0.164 A  
HETATM   29  C   UNL     1      -9.436   7.481  71.011  1.00  0.00    -0.160 A  
HETATM   30  C   UNL     1      -8.273   7.043  71.656  1.00  0.00    -0.104 A  
HETATM   31 CL   UNL     1     -11.050   6.939  71.332  1.00  0.00    -0.273 Cl 
HETATM   32  C   UNL     1      -7.068   7.699  71.361  1.00  0.00    -0.058 A  
HETATM   33  C   UNL     1      -7.009   8.711  70.390  1.00  0.00    -0.043 A  
BRANCH  30  34
HETATM   34  O   UNL     1      -8.133   6.035  72.577  1.00  0.00    -0.105 OA 
BRANCH  34  35
HETATM   35  C   UNL     1      -7.800   4.752  72.055  1.00  0.00    -0.100 C  
BRANCH  35  36
HETATM   36  C   UNL     1      -8.583   3.658  72.729  1.00  0.00    -0.093 A  
HETATM   37  C   UNL     1      -9.975   3.601  72.612  1.00  0.00    -0.222 A  
HETATM   38  C   UNL     1     -10.686   2.653  73.339  1.00  0.00    -0.180 A  
HETATM   39  C   UNL     1     -10.036   1.759  74.183  1.00  0.00    -0.139 A  
HETATM   40  F   UNL     1     -12.021   2.615  73.240  1.00  0.00    -0.207 F  
HETATM   41  C   UNL     1      -8.652   1.807  74.302  1.00  0.00    -0.054 A  
HETATM   42  C   UNL     1      -7.925   2.751  73.581  1.00  0.00    -0.060 A  
ENDBRANCH  35  36
ENDBRANCH  34  35
ENDBRANCH  30  34
ENDBRANCH  25  27
ENDBRANCH  24  25
ENDBRANCH  13  15
ENDBRANCH   9  10
ENDBRANCH   7   9
ENDBRANCH   6   7
ENDBRANCH   5   6
ENDBRANCH   2   5
TORSDOF 11
ENDMDL
MODEL      273
REMARK 921   NORMALIZED FREE ENERGY PREDICTED BY IDOCK:   -0.98 KCAL/MOL
REMARK 922        TOTAL FREE ENERGY PREDICTED BY IDOCK:   -4.35 KCAL/MOL
REMARK 923 INTER-LIGAND FREE ENERGY PREDICTED BY IDOCK:   -6.68 KCAL/MOL
REMARK 924 INTRA-LIGAND FREE ENERGY PREDICTED BY IDOCK:    2.33 KCAL/MOL
REMARK 927      BINDING AFFINITY PREDICTED BY RF-SCORE:    0.00 PKD
ROOT
HETATM    1  C   UNL     1      -5.125  13.968  68.587  1.00  0.00    -0.090 C  
HETATM    2  S   UNL     1      -6.126  14.807  69.788  1.00  0.00    -0.143 S  
HETATM    3  O   UNL     1      -5.240  15.398  70.770  1.00  0.00    -0.134 OA 
HETATM    4  O   UNL     1      -7.192  13.907  70.180  1.00  0.00     0.339 OA 
ENDROOT
BRANCH   2   5
HETATM    5  C   UNL     1      -6.839  16.119  68.821  1.00  0.00    -0.144 C  
BRANCH   5   6
HETATM    6  C   UNL     1      -7.154  15.658  67.406  1.00  0.00    -0.207 C  
BRANCH   6   7
HETATM    7  N   UNL     1      -8.136  14.570  67.354  1.00  0.00    -0.189 NA 
HETATM    8  H   UNL     1      -9.033  14.909  67.005  1.00  0.00     0.000 HD 
BRANCH   7   9
HETATM    9  C   UNL     1      -7.683  13.413  66.581  1.00  0.00     0.817 C  
BRANCH   9  10
HETATM   10  C   UNL     1      -8.677  12.311  66.665  1.00  0.00    -0.132 A  
HETATM   11  C   UNL     1      -9.692  11.888  65.835  1.00  0.00    -0.258 A  
HETATM   12  C   UNL     1     -10.289  10.775  66.473  1.00  0.00    -0.300 A  
HETATM   13  C   UNL     1      -9.592  10.567  67.647  1.00  0.00    -0.157 A  
HETATM   14  O   UNL     1      -8.603  11.503  67.757  1.00  0.00    -0.130 OA 
BRANCH  13  15
HETATM   15  C   UNL     1      -9.684   9.607  68.739  1.00  0.00    -0.167 A  
HETATM   16  C   UNL     1     -10.617   9.770  69.772  1.00  0.00    -0.285 A  
HETATM   17  C   UNL     1     -10.703   8.841  70.843  1.00  0.00    -0.282 A  
HETATM   18  C   UNL     1      -9.834   7.739  70.869  1.00  0.00    -0.175 A  
HETATM   19  C   UNL     1      -8.917   7.586  69.848  1.00  0.00    -0.141 A  
HETATM   20  N   UNL     1      -9.827   6.825  71.838  1.00  0.00    -0.166 NA 
HETATM   21  C   UNL     1     -10.691   7.013  72.831  1.00  0.00    -0.288 A  
HETATM   22  C   UNL     1      -8.836   8.500  68.795  1.00  0.00    -0.139 A  
HETATM   23  N   UNL     1     -11.555   8.021  72.926  1.00  0.00    -0.337 NA 
HETATM   24  C   UNL     1     -11.583   8.931  71.941  1.00  0.00    -0.371 A  
BRANCH  24  25
HETATM   25  N   UNL     1     -12.452  10.056  72.050  1.00  0.00    -0.309 NA 
HETATM   26  H   UNL     1     -13.078  10.055  72.855  1.00  0.00     0.000 HD 
BRANCH  25  27
HETATM   27  C   UNL     1     -12.558  11.173  71.189  1.00  0.00    -0.409 A  
HETATM   28  C   UNL     1     -12.755  12.474  71.647  1.00  0.00    -0.297 A  
HETATM   29  C   UNL     1     -12.761  13.581  70.794  1.00  0.00    -0.245 A  
HETATM   30  C   UNL     1     -12.531  13.405  69.425  1.00  0.00     0.093 A  
HETATM   31 CL   UNL     1     -13.115  15.079  71.589  1.00  0.00    -0.404 Cl 
HETATM   32  C   UNL     1     -12.399  12.094  68.940  1.00  0.00     0.199 A  
HETATM   33  C   UNL     1     -12.418  10.992  69.810  1.00  0.00    -0.251 A  
BRANCH  30  34
HETATM   34  O   UNL     1     -12.420  14.360  68.446  1.00  0.00    -0.088 OA 
BRANCH  34  35
HETATM   35  C   UNL     1     -11.126  14.520  67.871  1.00  0.00    -0.279 C  
BRANCH  35  36
HETATM   36  C   UNL     1     -10.733  15.971  67.782  1.00  0.00    -0.323 A  
HETATM   37  C   UNL     1     -10.387  16.687  68.932  1.00  0.00    -0.300 A  
HETATM   38  C   UNL     1     -10.144  18.053  68.841  1.00  0.00    -0.344 A  
HETATM   39  C   UNL     1     -10.239  18.720  67.625  1.00  0.00    -0.450 A  
HETATM   40  F   UNL     1      -9.833  18.740  69.947  1.00  0.00     0.080 F  
HETATM   41  C   UNL     1     -10.579  18.014  66.477  1.00  0.00    -0.263 A  
HETATM   42  C   UNL     1     -10.827  16.646  66.552  1.00  0.00    -0.017 A  
ENDBRANCH  35  36
ENDBRANCH  34  35
ENDBRANCH  30  34
ENDBRANCH  25  27
ENDBRANCH  24  25
ENDBRANCH  13  15
ENDBRANCH   9  10
ENDBRANCH   7   9
ENDBRANCH   6   7
ENDBRANCH   5   6
ENDBRANCH   2   5
TORSDOF 11
ENDMDL
MODEL      274
REMARK 921   NORMALIZED FREE ENERGY PREDICTED BY IDOCK:   -0.85 KCAL/MOL
REMARK 922        TOTAL FREE ENERGY PREDICTED BY IDOCK:   -4.14 KCAL/MOL
REMARK 923 INTER-LIGAND FREE ENERGY PREDICTED BY IDOCK:   -2.62 KCAL/MOL
REMARK 924 INTRA-LIGAND FREE ENERGY PREDICTED BY IDOCK:   -1.52 KCAL/MOL
REMARK 927      BINDING AFFINITY PREDICTED BY RF-SCORE:    0.00 PKD
ROOT
HETATM    1  C   UNL     1      -7.219  16.004  66.263  1.00  0.00     0.755 C  
HETATM    2  S   UNL     1      -7.689  17.221  67.465  1.00  0.00    -0.179 S  
HETATM    3  O   UNL     1      -7.222  18.511  66.998  1.00  0.00    -0.199 OA 
HETATM    4  O   UNL     1      -7.322  16.715  68.772  1.00  0.00    -0.194 OA 
ENDROOT
BRANCH   2   5
HETATM    5  C   UNL     1      -9.464  17.196  67.341  1.00  0.00    -0.247 C  
BRANCH   5   6
HETATM    6  C   UNL     1     -10.049  18.596  67.452  1.00  0.00    -0.362 C  
BRANCH   6   7
HETATM    7  N   UNL     1     -11.398  18.619  68.025  1.00  0.00     0.168 NA 
HETATM    8  H   UNL     1     -11.991  19.286  67.529  1.00  0.00     0.000 HD 
BRANCH   7   9
HETATM    9  C   UNL     1     -12.032  17.301  68.077  1.00  0.00     1.621 C  
BRANCH   9  10
HETATM   10  C   UNL     1     -11.731  16.631  69.369  1.00  0.00     0.422 A  
HETATM   11  C   UNL     1     -11.042  17.020  70.497  1.00  0.00     0.586 A  
HETATM   12  C   UNL     1     -11.107  15.930  71.397  1.00  0.00    -0.152 A  
HETATM   13  C   UNL     1     -11.852  14.945  70.779  1.00  0.00    -0.312 A  
HETATM   14  O   UNL     1     -12.237  15.381  69.542  1.00  0.00    -0.313 OA 
BRANCH  13  15
HETATM   15  C   UNL     1     -12.291  13.606  71.146  1.00  0.00    -0.403 A  
HETATM   16  C   UNL     1     -11.532  12.476  70.815  1.00  0.00     1.005 A  
HETATM   17  C   UNL     1     -11.962  11.168  71.164  1.00  0.00    -0.172 A  
HETATM   18  C   UNL     1     -13.173  11.003  71.854  1.00  0.00    -0.398 A  
HETATM   19  C   UNL     1     -13.916  12.122  72.176  1.00  0.00     0.240 A  
HETATM   20  N   UNL     1     -13.668   9.819  72.209  1.00  0.00    -0.334 NA 
HETATM   21  C   UNL     1     -12.956   8.753  71.854  1.00  0.00    -0.376 A  
HETATM   22  C   UNL     1     -13.490  13.407  71.833  1.00  0.00    -0.526 A  
HETATM   23  N   UNL     1     -11.802   8.778  71.191  1.00  0.00    -0.292 NA 
HETATM   24  C   UNL     1     -11.288   9.970  70.850  1.00  0.00    -0.361 A  
BRANCH  24  25
HETATM   25  N   UNL     1     -10.089  10.022  70.082  1.00  0.00    -0.361 NA 
HETATM   26  H   UNL     1      -9.224  10.102  70.616  1.00  0.00     0.000 HD 
BRANCH  25  27
HETATM   27  C   UNL     1      -9.941   9.978  68.676  1.00  0.00    -0.165 A  
HETATM   28  C   UNL     1      -9.693   8.801  67.971  1.00  0.00    -0.183 A  
HETATM   29  C   UNL     1      -9.647   8.754  66.576  1.00  0.00    -0.237 A  
HETATM   30  C   UNL     1      -9.886   9.915  65.832  1.00  0.00    -0.274 A  
HETATM   31 CL   UNL     1      -9.234   7.197  65.938  1.00  0.00    -0.066 Cl 
HETATM   32  C   UNL     1     -10.069  11.120  66.529  1.00  0.00    -0.265 A  
HETATM   33  C   UNL     1     -10.091  11.152  67.933  1.00  0.00    -0.195 A  
BRANCH  30  34
HETATM   34  O   UNL     1      -9.962  10.059  64.469  1.00  0.00    -0.287 OA 
BRANCH  34  35
HETATM   35  C   UNL     1      -8.908  10.798  63.859  1.00  0.00    -0.115 C  
BRANCH  35  36
HETATM   36  C   UNL     1      -7.584  10.094  63.997  1.00  0.00    -0.128 A  
HETATM   37  C   UNL     1      -7.310   8.942  63.254  1.00  0.00    -0.098 A  
HETATM   38  C   UNL     1      -6.131   8.242  63.485  1.00  0.00    -0.072 A  
HETATM   39  C   UNL     1      -5.217   8.669  64.443  1.00  0.00    -0.043 A  
HETATM   40  F   UNL     1      -5.881   7.128  62.787  1.00  0.00    -0.038 F  
HETATM   41  C   UNL     1      -5.482   9.816  65.182  1.00  0.00    -0.052 A  
HETATM   42  C   UNL     1      -6.659  10.527  64.964  1.00  0.00    -0.014 A  
ENDBRANCH  35  36
ENDBRANCH  34  35
ENDBRANCH  30  34
ENDBRANCH  25  27
ENDBRANCH  24  25
ENDBRANCH  13  15
ENDBRANCH   9  10
ENDBRANCH   7   9
ENDBRANCH   6   7
ENDBRANCH   5   6
ENDBRANCH   2   5
TORSDOF 11
ENDMDL
MODEL      275
REMARK 921   NORMALIZED FREE ENERGY PREDICTED BY IDOCK:   -0.73 KCAL/MOL
REMARK 922        TOTAL FREE ENERGY PREDICTED BY IDOCK:   -3.95 KCAL/MOL
REMARK 923 INTER-LIGAND FREE ENERGY PREDICTED BY IDOCK:   -3.45 KCAL/MOL
REMARK 924 INTRA-LIGAND FREE ENERGY PREDICTED BY IDOCK:   -0.50 KCAL/MOL
REMARK 927      BINDING AFFINITY PREDICTED BY RF-SCORE:    0.00 PKD
ROOT
HETATM    1  C   UNL     1     -12.929  14.619  64.694  1.00  0.00     0.455 C  
HETATM    2  S   UNL     1     -12.546  12.913  64.399  1.00  0.00    -0.270 S  
HETATM    3  O   UNL     1     -11.644  12.849  63.267  1.00  0.00    -0.488 OA 
HETATM    4  O   UNL     1     -13.791  12.172  64.414  1.00  0.00     0.031 OA 
ENDROOT
BRANCH   2   5
HETATM    5  C   UNL     1     -11.631  12.483  65.863  1.00  0.00    -0.405 C  
BRANCH   5   6
HETATM    6  C   UNL     1     -11.387  13.700  66.743  1.00  0.00    -0.328 C  
BRANCH   6   7
HETATM    7  N   UNL     1     -10.100  14.355  66.487  1.00  0.00    -0.268 NA 
HETATM    8  H   UNL     1     -10.239  15.296  66.120  1.00  0.00     0.000 HD 
BRANCH   7   9
HETATM    9  C   UNL     1      -9.216  14.378  67.653  1.00  0.00    -0.196 C  
BRANCH   9  10
HETATM   10  C   UNL     1      -8.377  13.153  67.693  1.00  0.00    -0.174 A  
HETATM   11  C   UNL     1      -7.793  12.374  66.717  1.00  0.00     0.074 A  
HETATM   12  C   UNL     1      -7.112  11.334  67.392  1.00  0.00    -0.109 A  
HETATM   13  C   UNL     1      -7.298  11.548  68.744  1.00  0.00    -0.115 A  
HETATM   14  O   UNL     1      -8.065  12.664  68.924  1.00  0.00     0.037 OA 
BRANCH  13  15
HETATM   15  C   UNL     1      -6.871  10.868  69.959  1.00  0.00    -0.093 A  
HETATM   16  C   UNL     1      -7.600   9.793  70.485  1.00  0.00    -0.110 A  
HETATM   17  C   UNL     1      -7.191   9.134  71.675  1.00  0.00     0.083 A  
HETATM   18  C   UNL     1      -6.034   9.569  72.339  1.00  0.00     0.235 A  
HETATM   19  C   UNL     1      -5.321  10.629  71.815  1.00  0.00     0.117 A  
HETATM   20  N   UNL     1      -5.580   9.026  73.468  1.00  0.00    -0.137 NA 
HETATM   21  C   UNL     1      -6.304   8.033  73.976  1.00  0.00    -0.103 A  
HETATM   22  C   UNL     1      -5.724  11.274  70.644  1.00  0.00    -0.123 A  
HETATM   23  N   UNL     1      -7.422   7.541  73.448  1.00  0.00    -0.095 NA 
HETATM   24  C   UNL     1      -7.871   8.068  72.300  1.00  0.00    -0.118 A  
BRANCH  24  25
HETATM   25  N   UNL     1      -9.100   7.604  71.748  1.00  0.00    -0.131 NA 
HETATM   26  H   UNL     1      -9.910   8.205  71.901  1.00  0.00     0.000 HD 
BRANCH  25  27
HETATM   27  C   UNL     1      -9.345   6.418  71.016  1.00  0.00    -0.164 A  
HETATM   28  C   UNL     1      -8.961   6.249  69.687  1.00  0.00    -0.135 A  
HETATM   29  C   UNL     1      -9.120   5.040  69.005  1.00  0.00    -0.105 A  
HETATM   30  C   UNL     1      -9.654   3.931  69.670  1.00  0.00    -0.189 A  
HETATM   31 CL   UNL     1      -8.651   5.106  67.338  1.00  0.00    -0.105 Cl 
HETATM   32  C   UNL     1     -10.108   4.106  70.987  1.00  0.00    -0.130 A  
HETATM   33  C   UNL     1      -9.960   5.334  71.650  1.00  0.00    -0.236 A  
BRANCH  30  34
HETATM   34  O   UNL     1      -9.817   2.649  69.205  1.00  0.00     0.082 OA 
BRANCH  34  35
HETATM   35  C   UNL     1      -8.663   2.043  68.628  1.00  0.00    -0.080 C  
BRANCH  35  36
HETATM   36  C   UNL     1      -7.544   1.916  69.628  1.00  0.00    -0.042 A  
HETATM   37  C   UNL     1      -7.725   2.321  70.954  1.00  0.00    -0.035 A  
HETATM   38  C   UNL     1      -6.643   2.305  71.828  1.00  0.00    -0.018 A  
HETATM   39  C   UNL     1      -5.384   1.893  71.406  1.00  0.00    -0.004 A  
HETATM   40  F   UNL     1      -6.814   2.713  73.091  1.00  0.00    -0.023 F  
HETATM   41  C   UNL     1      -5.198   1.486  70.090  1.00  0.00    -0.004 A  
HETATM   42  C   UNL     1      -6.271   1.497  69.201  1.00  0.00    -0.025 A  
ENDBRANCH  35  36
ENDBRANCH  34  35
ENDBRANCH  30  34
ENDBRANCH  25  27
ENDBRANCH  24  25
ENDBRANCH  13  15
ENDBRANCH   9  10
ENDBRANCH   7   9
ENDBRANCH   6   7
ENDBRANCH   5   6
ENDBRANCH   2   5
TORSDOF 11
ENDMDL
MODEL      276
REMARK 921   NORMALIZED FREE ENERGY PREDICTED BY IDOCK:   -0.58 KCAL/MOL
REMARK 922        TOTAL FREE ENERGY PREDICTED BY IDOCK:   -3.71 KCAL/MOL
REMARK 923 INTER-LIGAND FREE ENERGY PREDICTED BY IDOCK:   -5.37 KCAL/MOL
REMARK 924 INTRA-LIGAND FREE ENERGY PREDICTED BY IDOCK:    1.67 KCAL/MOL
REMARK 927      BINDING AFFINITY PREDICTED BY RF-SCORE:    0.00 PKD
ROOT
HETATM    1  C   UNL     1      -8.704   5.486  66.499  1.00  0.00    -0.119 C  
HETATM    2  S   UNL     1     -10.391   5.050  66.829  1.00  0.00    -0.217 S  
HETATM    3  O   UNL     1     -10.395   4.050  67.879  1.00  0.00     0.261 OA 
HETATM    4  O   UNL     1     -11.041   4.809  65.557  1.00  0.00    -0.183 OA 
ENDROOT
BRANCH   2   5
HETATM    5  C   UNL     1     -11.038   6.564  67.502  1.00  0.00    -0.308 C  
BRANCH   5   6
HETATM    6  C   UNL     1     -10.628   7.765  66.663  1.00  0.00    -0.010 C  
BRANCH   6   7
HETATM    7  N   UNL     1      -9.803   8.732  67.395  1.00  0.00    -0.180 NA 
HETATM    8  H   UNL     1     -10.226   9.660  67.371  1.00  0.00     0.000 HD 
BRANCH   7   9
HETATM    9  C   UNL     1      -9.517   8.328  68.773  1.00  0.00    -0.148 C  
BRANCH   9  10
HETATM   10  C   UNL     1     -10.715   8.524  69.630  1.00  0.00    -0.197 A  
HETATM   11  C   UNL     1     -11.618   7.657  70.206  1.00  0.00    -0.079 A  
HETATM   12  C   UNL     1     -12.543   8.460  70.914  1.00  0.00     0.060 A  
HETATM   13  C   UNL     1     -12.142   9.771  70.750  1.00  0.00    -0.279 A  
HETATM   14  O   UNL     1     -11.020   9.805  69.970  1.00  0.00    -0.244 OA 
BRANCH  13  15
HETATM   15  C   UNL     1     -12.637  11.061  71.209  1.00  0.00    -0.517 A  
HETATM   16  C   UNL     1     -11.941  12.246  70.933  1.00  0.00     0.032 A  
HETATM   17  C   UNL     1     -12.416  13.506  71.387  1.00  0.00    -0.347 A  
HETATM   18  C   UNL     1     -13.606  13.565  72.128  1.00  0.00    -0.557 A  
HETATM   19  C   UNL     1     -14.286  12.393  72.396  1.00  0.00     0.432 A  
HETATM   20  N   UNL     1     -14.122  14.695  72.611  1.00  0.00    -0.495 NA 
HETATM   21  C   UNL     1     -13.431  15.806  72.374  1.00  0.00    -0.463 A  
HETATM   22  C   UNL     1     -13.817  11.157  71.948  1.00  0.00     0.318 A  
HETATM   23  N   UNL     1     -12.288  15.877  71.696  1.00  0.00    -0.450 NA 
HETATM   24  C   UNL     1     -11.775  14.746  71.189  1.00  0.00    -0.309 A  
BRANCH  24  25
HETATM   25  N   UNL     1     -10.520  14.785  70.516  1.00  0.00    -0.400 NA 
HETATM   26  H   UNL     1      -9.770  15.274  71.005  1.00  0.00     0.000 HD 
BRANCH  25  27
HETATM   27  C   UNL     1     -10.177  14.234  69.260  1.00  0.00    -0.015 A  
HETATM   28  C   UNL     1      -9.721  15.000  68.188  1.00  0.00    -0.215 A  
HETATM   29  C   UNL     1      -9.293  14.434  66.985  1.00  0.00    -0.242 A  
HETATM   30  C   UNL     1      -9.281  13.042  66.836  1.00  0.00    -0.236 A  
HETATM   31 CL   UNL     1      -8.860  15.597  65.776  1.00  0.00    -0.079 Cl 
HETATM   32  C   UNL     1      -9.801  12.262  67.880  1.00  0.00    -0.201 A  
HETATM   33  C   UNL     1     -10.248  12.850  69.075  1.00  0.00     0.100 A  
BRANCH  30  34
HETATM   34  O   UNL     1      -8.829  12.299  65.775  1.00  0.00     0.112 OA 
BRANCH  34  35
HETATM   35  C   UNL     1      -9.827  11.809  64.884  1.00  0.00    -0.223 C  
BRANCH  35  36
HETATM   36  C   UNL     1     -11.062  12.671  64.907  1.00  0.00    -0.331 A  
HETATM   37  C   UNL     1     -11.206  13.732  64.008  1.00  0.00    -0.114 A  
HETATM   38  C   UNL     1     -12.297  14.585  64.126  1.00  0.00    -0.286 A  
HETATM   39  C   UNL     1     -13.250  14.401  65.123  1.00  0.00     0.331 A  
HETATM   40  F   UNL     1     -12.422  15.613  63.277  1.00  0.00     0.439 F  
HETATM   41  C   UNL     1     -13.114  13.346  66.017  1.00  0.00     0.456 A  
HETATM   42  C   UNL     1     -12.026  12.483  65.914  1.00  0.00    -0.472 A  
ENDBRANCH  35  36
ENDBRANCH  34  35
ENDBRANCH  30  34
ENDBRANCH  25  27
ENDBRANCH  24  25
ENDBRANCH  13  15
ENDBRANCH   9  10
ENDBRANCH   7   9
ENDBRANCH   6   7
ENDBRANCH   5   6
ENDBRANCH   2   5
TORSDOF 11
ENDMDL
MODEL      277
REMARK 921   NORMALIZED FREE ENERGY PREDICTED BY IDOCK:   -0.44 KCAL/MOL
REMARK 922        TOTAL FREE ENERGY PREDICTED BY IDOCK:   -3.48 KCAL/MOL
REMARK 923 INTER-LIGAND FREE ENERGY PREDICTED BY IDOCK:   -5.34 KCAL/MOL
REMARK 924 INTRA-LIGAND FREE ENERGY PREDICTED BY IDOCK:    1.87 KCAL/MOL
REMARK 927      BINDING AFFINITY PREDICTED BY RF-SCORE:    0.00 PKD
ROOT
HETATM    1  C   UNL     1      -7.977   5.552  74.410  1.00  0.00    -0.104 C  
HETATM    2  S   UNL     1      -6.829   5.082  73.141  1.00  0.00    -0.075 S  
HETATM    3  O   UNL     1      -5.492   5.209  73.683  1.00  0.00    -0.020 OA 
HETATM    4  O   UNL     1      -7.217   5.764  71.923  1.00  0.00    -0.086 OA 
ENDROOT
BRANCH   2   5
HETATM    5  C   UNL     1      -7.187   3.351  72.944  1.00  0.00    -0.046 C  
BRANCH   5   6
HETATM    6  C   UNL     1      -8.461   2.960  73.680  1.00  0.00    -0.073 C  
BRANCH   6   7
HETATM    7  N   UNL     1      -9.271   4.110  74.092  1.00  0.00    -0.102 NA 
HETATM    8  H   UNL     1      -8.827   4.985  73.811  1.00  0.00     0.000 HD 
BRANCH   7   9
HETATM    9  C   UNL     1     -10.652   4.052  73.612  1.00  0.00    -0.210 C  
BRANCH   9  10
HETATM   10  C   UNL     1     -10.798   4.835  72.357  1.00  0.00    -0.102 A  
HETATM   11  C   UNL     1     -11.749   5.721  71.902  1.00  0.00    -0.117 A  
HETATM   12  C   UNL     1     -11.323   6.137  70.618  1.00  0.00    -0.368 A  
HETATM   13  C   UNL     1     -10.124   5.499  70.370  1.00  0.00    -0.230 A  
HETATM   14  O   UNL     1      -9.803   4.709  71.439  1.00  0.00    -0.175 OA 
BRANCH  13  15
HETATM   15  C   UNL     1      -9.175   5.488  69.265  1.00  0.00    -0.140 A  
HETATM   16  C   UNL     1      -9.315   6.364  68.180  1.00  0.00    -0.108 A  
HETATM   17  C   UNL     1      -8.396   6.350  67.096  1.00  0.00    -0.112 A  
HETATM   18  C   UNL     1      -7.327   5.441  67.112  1.00  0.00    -0.083 A  
HETATM   19  C   UNL     1      -7.197   4.581  68.185  1.00  0.00    -0.065 A  
HETATM   20  N   UNL     1      -6.426   5.341  66.136  1.00  0.00    -0.039 NA 
HETATM   21  C   UNL     1      -6.594   6.150  65.095  1.00  0.00    -0.043 A  
HETATM   22  C   UNL     1      -8.100   4.598  69.249  1.00  0.00    -0.069 A  
HETATM   23  N   UNL     1      -7.570   7.044  64.958  1.00  0.00    -0.096 NA 
HETATM   24  C   UNL     1      -8.468   7.165  65.947  1.00  0.00    -0.147 A  
BRANCH  24  25
HETATM   25  N   UNL     1      -9.560   8.067  65.797  1.00  0.00    -0.413 NA 
HETATM   26  H   UNL     1     -10.380   7.695  65.318  1.00  0.00     0.000 HD 
BRANCH  25  27
HETATM   27  C   UNL     1      -9.657   9.412  66.226  1.00  0.00    -0.234 A  
HETATM   28  C   UNL     1      -9.598   9.792  67.566  1.00  0.00    -0.178 A  
HETATM   29  C   UNL     1      -9.596  11.130  67.970  1.00  0.00    -0.176 A  
HETATM   30  C   UNL     1      -9.621  12.147  67.009  1.00  0.00    -0.205 A  
HETATM   31 CL   UNL     1      -9.608  11.344  69.689  1.00  0.00     0.597 Cl 
HETATM   32  C   UNL     1      -9.750  11.779  65.660  1.00  0.00    -0.256 A  
HETATM   33  C   UNL     1      -9.772  10.430  65.274  1.00  0.00    -0.339 A  
BRANCH  30  34
HETATM   34  O   UNL     1      -9.547  13.505  67.197  1.00  0.00    -0.226 OA 
BRANCH  34  35
HETATM   35  C   UNL     1      -8.482  14.171  66.526  1.00  0.00     0.286 C  
BRANCH  35  36
HETATM   36  C   UNL     1      -8.090  15.443  67.231  1.00  0.00    -0.228 A  
HETATM   37  C   UNL     1      -8.152  16.673  66.570  1.00  0.00    -0.337 A  
HETATM   38  C   UNL     1      -7.674  17.815  67.202  1.00  0.00    -0.205 A  
HETATM   39  C   UNL     1      -7.135  17.756  68.482  1.00  0.00    -0.245 A  
HETATM   40  F   UNL     1      -7.715  18.988  66.557  1.00  0.00    -0.224 F  
HETATM   41  C   UNL     1      -7.074  16.537  69.148  1.00  0.00    -0.227 A  
HETATM   42  C   UNL     1      -7.547  15.383  68.528  1.00  0.00    -0.122 A  
ENDBRANCH  35  36
ENDBRANCH  34  35
ENDBRANCH  30  34
ENDBRANCH  25  27
ENDBRANCH  24  25
ENDBRANCH  13  15
ENDBRANCH   9  10
ENDBRANCH   7   9
ENDBRANCH   6   7
ENDBRANCH   5   6
ENDBRANCH   2   5
TORSDOF 11
ENDMDL
MODEL      278
REMARK 921   NORMALIZED FREE ENERGY PREDICTED BY IDOCK:   -0.38 KCAL/MOL
REMARK 922        TOTAL FREE ENERGY PREDICTED BY IDOCK:   -3.38 KCAL/MOL
REMARK 923 INTER-LIGAND FREE ENERGY PREDICTED BY IDOCK:   -3.57 KCAL/MOL
REMARK 924 INTRA-LIGAND FREE ENERGY PREDICTED BY IDOCK:    0.20 KCAL/MOL
REMARK 927      BINDING AFFINITY PREDICTED BY RF-SCORE:    0.00 PKD
ROOT
HETATM    1  C   UNL     1     -12.215  14.962  74.366  1.00  0.00    -0.070 C  
HETATM    2  S   UNL     1     -12.946  15.704  72.931  1.00  0.00    -0.551 S  
HETATM    3  O   UNL     1     -11.886  15.977  71.982  1.00  0.00    -0.455 OA 
HETATM    4  O   UNL     1     -13.841  16.750  73.383  1.00  0.00     0.105 OA 
ENDROOT
BRANCH   2   5
HETATM    5  C   UNL     1     -13.935  14.371  72.290  1.00  0.00    -0.513 C  
BRANCH   5   6
HETATM    6  C   UNL     1     -13.067  13.277  71.686  1.00  0.00    -0.363 C  
BRANCH   6   7
HETATM    7  N   UNL     1     -13.555  11.923  71.971  1.00  0.00    -0.323 NA 
HETATM    8  H   UNL     1     -14.348  11.691  71.374  1.00  0.00     0.000 HD 
BRANCH   7   9
HETATM    9  C   UNL     1     -12.515  10.897  71.875  1.00  0.00     0.017 C  
BRANCH   9  10
HETATM   10  C   UNL     1     -12.146  10.665  70.454  1.00  0.00    -0.341 A  
HETATM   11  C   UNL     1     -12.837  10.179  69.365  1.00  0.00     1.187 A  
HETATM   12  C   UNL     1     -11.931  10.200  68.278  1.00  0.00     0.940 A  
HETATM   13  C   UNL     1     -10.745  10.720  68.758  1.00  0.00    -0.208 A  
HETATM   14  O   UNL     1     -10.883  11.010  70.086  1.00  0.00    -0.128 OA 
BRANCH  13  15
HETATM   15  C   UNL     1      -9.441  11.010  68.176  1.00  0.00    -0.172 A  
HETATM   16  C   UNL     1      -8.858  10.150  67.236  1.00  0.00    -0.137 A  
HETATM   17  C   UNL     1      -7.582  10.425  66.674  1.00  0.00    -0.114 A  
HETATM   18  C   UNL     1      -6.892  11.582  67.069  1.00  0.00    -0.147 A  
HETATM   19  C   UNL     1      -7.473  12.424  67.996  1.00  0.00    -0.114 A  
HETATM   20  N   UNL     1      -5.686  11.916  66.612  1.00  0.00    -0.273 NA 
HETATM   21  C   UNL     1      -5.128  11.071  65.750  1.00  0.00    -0.124 A  
HETATM   22  C   UNL     1      -8.727  12.151  68.546  1.00  0.00    -0.079 A  
HETATM   23  N   UNL     1      -5.675   9.940  65.309  1.00  0.00    -0.065 NA 
HETATM   24  C   UNL     1      -6.898   9.610  65.749  1.00  0.00    -0.093 A  
BRANCH  24  25
HETATM   25  N   UNL     1      -7.479   8.373  65.344  1.00  0.00    -0.083 NA 
HETATM   26  H   UNL     1      -7.549   8.226  64.337  1.00  0.00     0.000 HD 
BRANCH  25  27
HETATM   27  C   UNL     1      -7.969   7.324  66.155  1.00  0.00    -0.112 A  
HETATM   28  C   UNL     1      -7.580   7.137  67.481  1.00  0.00    -0.110 A  
HETATM   29  C   UNL     1      -8.145   6.157  68.301  1.00  0.00    -0.111 A  
HETATM   30  C   UNL     1      -9.165   5.338  67.805  1.00  0.00    -0.112 A  
HETATM   31 CL   UNL     1      -7.432   6.065  69.877  1.00  0.00    -0.078 Cl 
HETATM   32  C   UNL     1      -9.519   5.468  66.452  1.00  0.00    -0.167 A  
HETATM   33  C   UNL     1      -8.925   6.444  65.637  1.00  0.00    -0.022 A  
BRANCH  30  34
HETATM   34  O   UNL     1      -9.894   4.381  68.467  1.00  0.00    -0.144 OA 
BRANCH  34  35
HETATM   35  C   UNL     1      -9.374   3.055  68.419  1.00  0.00    -0.187 C  
BRANCH  35  36
HETATM   36  C   UNL     1      -8.546   2.829  67.181  1.00  0.00    -0.118 A  
HETATM   37  C   UNL     1      -7.214   3.250  67.128  1.00  0.00    -0.059 A  
HETATM   38  C   UNL     1      -6.507   3.138  65.937  1.00  0.00    -0.032 A  
HETATM   39  C   UNL     1      -7.102   2.613  64.794  1.00  0.00    -0.050 A  
HETATM   40  F   UNL     1      -5.238   3.561  65.883  1.00  0.00    -0.007 F  
HETATM   41  C   UNL     1      -8.425   2.189  64.841  1.00  0.00    -0.093 A  
HETATM   42  C   UNL     1      -9.147   2.296  66.026  1.00  0.00    -0.066 A  
ENDBRANCH  35  36
ENDBRANCH  34  35
ENDBRANCH  30  34
ENDBRANCH  25  27
ENDBRANCH  24  25
ENDBRANCH  13  15
ENDBRANCH   9  10
ENDBRANCH   7   9
ENDBRANCH   6   7
ENDBRANCH   5   6
ENDBRANCH   2   5
TORSDOF 11
ENDMDL
MODEL      279
REMARK 921   NORMALIZED FREE ENERGY PREDICTED BY IDOCK:    0.05 KCAL/MOL
REMARK 922        TOTAL FREE ENERGY PREDICTED BY IDOCK:   -2.66 KCAL/MOL
REMARK 923 INTER-LIGAND FREE ENERGY PREDICTED BY IDOCK:   -2.41 KCAL/MOL
REMARK 924 INTRA-LIGAND FREE ENERGY PREDICTED BY IDOCK:   -0.25 KCAL/MOL
REMARK 927      BINDING AFFINITY PREDICTED BY RF-SCORE:    0.00 PKD
ROOT
HETATM    1  C   UNL     1     -12.307  13.962  65.914  1.00  0.00    -0.483 C  
HETATM    2  S   UNL     1     -10.703  14.136  65.176  1.00  0.00    -0.414 S  
HETATM    3  O   UNL     1      -9.716  14.049  66.233  1.00  0.00    -0.288 OA 
HETATM    4  O   UNL     1     -10.751  15.275  64.281  1.00  0.00     0.020 OA 
ENDROOT
BRANCH   2   5
HETATM    5  C   UNL     1     -10.590  12.661  64.188  1.00  0.00    -0.407 C  
BRANCH   5   6
HETATM    6  C   UNL     1     -11.439  11.539  64.767  1.00  0.00    -0.072 C  
BRANCH   6   7
HETATM    7  N   UNL     1     -11.300  11.394  66.220  1.00  0.00    -0.280 NA 
HETATM    8  H   UNL     1     -12.140  10.979  66.624  1.00  0.00     0.000 HD 
BRANCH   7   9
HETATM    9  C   UNL     1     -10.108  10.646  66.619  1.00  0.00    -0.220 C  
BRANCH   9  10
HETATM   10  C   UNL     1     -10.472   9.259  67.009  1.00  0.00    -0.233 A  
HETATM   11  C   UNL     1     -11.145   8.243  66.367  1.00  0.00     1.678 A  
HETATM   12  C   UNL     1     -11.170   7.152  67.268  1.00  0.00    -0.059 A  
HETATM   13  C   UNL     1     -10.492   7.554  68.401  1.00  0.00    -0.175 A  
HETATM   14  O   UNL     1     -10.061   8.841  68.236  1.00  0.00    -0.175 OA 
BRANCH  13  15
HETATM   15  C   UNL     1     -10.156   6.930  69.673  1.00  0.00    -0.195 A  
HETATM   16  C   UNL     1      -8.910   7.140  70.279  1.00  0.00    -0.148 A  
HETATM   17  C   UNL     1      -8.576   6.525  71.515  1.00  0.00    -0.129 A  
HETATM   18  C   UNL     1      -9.512   5.688  72.142  1.00  0.00    -0.149 A  
HETATM   19  C   UNL     1     -10.737   5.486  71.539  1.00  0.00    -0.290 A  
HETATM   20  N   UNL     1      -9.285   5.055  73.292  1.00  0.00    -0.128 NA 
HETATM   21  C   UNL     1      -8.084   5.233  73.835  1.00  0.00    -0.108 A  
HETATM   22  C   UNL     1     -11.063   6.093  70.324  1.00  0.00    -0.436 A  
HETATM   23  N   UNL     1      -7.111   5.990  73.333  1.00  0.00    -0.084 NA 
HETATM   24  C   UNL     1      -7.342   6.648  72.188  1.00  0.00    -0.089 A  
BRANCH  24  25
HETATM   25  N   UNL     1      -6.296   7.412  71.595  1.00  0.00    -0.039 NA 
HETATM   26  H   UNL     1      -5.347   7.103  71.806  1.00  0.00     0.000 HD 
BRANCH  25  27
HETATM   27  C   UNL     1      -6.400   8.543  70.752  1.00  0.00    -0.039 A  
HETATM   28  C   UNL     1      -7.484   9.419  70.780  1.00  0.00    -0.132 A  
HETATM   29  C   UNL     1      -7.530  10.586  70.013  1.00  0.00     0.001 A  
HETATM   30  C   UNL     1      -6.444  10.926  69.199  1.00  0.00    -0.063 A  
HETATM   31 CL   UNL     1      -9.019  11.461  70.154  1.00  0.00     2.093 Cl 
HETATM   32  C   UNL     1      -5.377  10.019  69.107  1.00  0.00    -0.035 A  
HETATM   33  C   UNL     1      -5.357   8.841  69.870  1.00  0.00    -0.029 A  
BRANCH  30  34
HETATM   34  O   UNL     1      -6.265  12.055  68.438  1.00  0.00    -0.049 OA 
BRANCH  34  35
HETATM   35  C   UNL     1      -5.750  13.194  69.121  1.00  0.00    -0.076 C  
BRANCH  35  36
HETATM   36  C   UNL     1      -6.453  14.458  68.700  1.00  0.00    -0.087 A  
HETATM   37  C   UNL     1      -7.686  14.808  69.258  1.00  0.00    -0.129 A  
HETATM   38  C   UNL     1      -8.370  15.915  68.769  1.00  0.00    -0.206 A  
HETATM   39  C   UNL     1      -7.848  16.682  67.732  1.00  0.00    -0.175 A  
HETATM   40  F   UNL     1      -9.560  16.235  69.291  1.00  0.00    -0.226 F  
HETATM   41  C   UNL     1      -6.621  16.342  67.175  1.00  0.00    -0.234 A  
HETATM   42  C   UNL     1      -5.924  15.235  67.653  1.00  0.00    -0.119 A  
ENDBRANCH  35  36
ENDBRANCH  34  35
ENDBRANCH  30  34
ENDBRANCH  25  27
ENDBRANCH  24  25
ENDBRANCH  13  15
ENDBRANCH   9  10
ENDBRANCH   7   9
ENDBRANCH   6   7
ENDBRANCH   5   6
ENDBRANCH   2   5
TORSDOF 11
ENDMDL
MODEL      280
REMARK 921   NORMALIZED FREE ENERGY PREDICTED BY IDOCK:    0.43 KCAL/MOL
REMARK 922        TOTAL FREE ENERGY PREDICTED BY IDOCK:   -2.03 KCAL/MOL
REMARK 923 INTER-LIGAND FREE ENERGY PREDICTED BY IDOCK:   -3.53 KCAL/MOL
REMARK 924 INTRA-LIGAND FREE ENERGY PREDICTED BY IDOCK:    1.50 KCAL/MOL
REMARK 927      BINDING AFFINITY PREDICTED BY RF-SCORE:    0.00 PKD
ROOT
HETATM    1  C   UNL     1     -10.454  12.202  69.996  1.00  0.00     1.478 C  
HETATM    2  S   UNL     1     -10.052  13.493  68.849  1.00  0.00     0.074 S  
HETATM    3  O   UNL     1      -9.960  12.903  67.529  1.00  0.00    -0.209 OA 
HETATM    4  O   UNL     1      -8.957  14.257  69.411  1.00  0.00     0.189 OA 
ENDROOT
BRANCH   2   5
HETATM    5  C   UNL     1     -11.515  14.503  68.904  1.00  0.00    -0.300 C  
BRANCH   5   6
HETATM    6  C   UNL     1     -11.465  15.492  70.060  1.00  0.00    -0.331 C  
BRANCH   6   7
HETATM    7  N   UNL     1     -10.171  16.172  70.188  1.00  0.00    -0.070 NA 
HETATM    8  H   UNL     1      -9.423  15.604  69.788  1.00  0.00     0.000 HD 
BRANCH   7   9
HETATM    9  C   UNL     1     -10.162  17.519  69.615  1.00  0.00     0.173 C  
BRANCH   9  10
HETATM   10  C   UNL     1     -10.062  17.451  68.133  1.00  0.00    -0.328 A  
HETATM   11  C   UNL     1      -9.566  18.313  67.180  1.00  0.00    -0.281 A  
HETATM   12  C   UNL     1      -9.757  17.676  65.931  1.00  0.00    -0.051 A  
HETATM   13  C   UNL     1     -10.338  16.451  66.193  1.00  0.00    -0.344 A  
HETATM   14  O   UNL     1     -10.517  16.314  67.541  1.00  0.00    -0.290 OA 
BRANCH  13  15
HETATM   15  C   UNL     1     -10.781  15.328  65.377  1.00  0.00    -0.407 A  
HETATM   16  C   UNL     1     -10.046  14.136  65.322  1.00  0.00    -0.364 A  
HETATM   17  C   UNL     1     -10.470  13.042  64.520  1.00  0.00    -0.413 A  
HETATM   18  C   UNL     1     -11.648  13.159  63.766  1.00  0.00    -0.425 A  
HETATM   19  C   UNL     1     -12.365  14.337  63.824  1.00  0.00    -0.048 A  
HETATM   20  N   UNL     1     -12.117  12.197  62.972  1.00  0.00    -0.184 NA 
HETATM   21  C   UNL     1     -11.389  11.087  62.900  1.00  0.00     1.035 A  
HETATM   22  C   UNL     1     -11.947  15.410  64.614  1.00  0.00    -0.176 A  
HETATM   23  N   UNL     1     -10.253  10.861  63.556  1.00  0.00    -0.343 NA 
HETATM   24  C   UNL     1      -9.788  11.817  64.374  1.00  0.00    -0.202 A  
BRANCH  24  25
HETATM   25  N   UNL     1      -8.541  11.627  65.037  1.00  0.00    -0.149 NA 
HETATM   26  H   UNL     1      -7.816  12.311  64.820  1.00  0.00     0.000 HD 
BRANCH  25  27
HETATM   27  C   UNL     1      -8.177  10.615  65.956  1.00  0.00    -0.158 A  
HETATM   28  C   UNL     1      -7.030  10.677  66.745  1.00  0.00    -0.110 A  
HETATM   29  C   UNL     1      -6.732   9.720  67.718  1.00  0.00    -0.069 A  
HETATM   30  C   UNL     1      -7.622   8.665  67.951  1.00  0.00    -0.098 A  
HETATM   31 CL   UNL     1      -5.208   9.967  68.504  1.00  0.00    -0.036 Cl 
HETATM   32  C   UNL     1      -8.745   8.552  67.118  1.00  0.00    -0.134 A  
HETATM   33  C   UNL     1      -9.017   9.511  66.130  1.00  0.00    -0.191 A  
BRANCH  30  34
HETATM   34  O   UNL     1      -7.550   7.679  68.904  1.00  0.00    -0.096 OA 
BRANCH  34  35
HETATM   35  C   UNL     1      -6.581   6.660  68.677  1.00  0.00    -0.051 C  
BRANCH  35  36
HETATM   36  C   UNL     1      -7.197   5.440  68.044  1.00  0.00    -0.072 A  
HETATM   37  C   UNL     1      -6.962   5.139  66.699  1.00  0.00    -0.064 A  
HETATM   38  C   UNL     1      -7.635   4.077  66.107  1.00  0.00    -0.089 A  
HETATM   39  C   UNL     1      -8.539   3.306  66.831  1.00  0.00    -0.120 A  
HETATM   40  F   UNL     1      -7.425   3.804  64.814  1.00  0.00    -0.067 F  
HETATM   41  C   UNL     1      -8.775   3.597  68.169  1.00  0.00    -0.130 A  
HETATM   42  C   UNL     1      -8.110   4.659  68.777  1.00  0.00    -0.082 A  
ENDBRANCH  35  36
ENDBRANCH  34  35
ENDBRANCH  30  34
ENDBRANCH  25  27
ENDBRANCH  24  25
ENDBRANCH  13  15
ENDBRANCH   9  10
ENDBRANCH   7   9
ENDBRANCH   6   7
ENDBRANCH   5   6
ENDBRANCH   2   5
TORSDOF 11
ENDMDL
MODEL      281
REMARK 921   NORMALIZED FREE ENERGY PREDICTED BY IDOCK:    1.00 KCAL/MOL
REMARK 922        TOTAL FREE ENERGY PREDICTED BY IDOCK:   -1.11 KCAL/MOL
REMARK 923 INTER-LIGAND FREE ENERGY PREDICTED BY IDOCK:   -0.85 KCAL/MOL
REMARK 924 INTRA-LIGAND FREE ENERGY PREDICTED BY IDOCK:   -0.26 KCAL/MOL
REMARK 927      BINDING AFFINITY PREDICTED BY RF-SCORE:    0.00 PKD
ROOT
HETATM    1  C   UNL     1     -11.791  12.053  71.153  1.00  0.00     0.700 C  
HETATM    2  S   UNL     1     -10.904  12.475  69.676  1.00  0.00     0.493 S  
HETATM    3  O   UNL     1     -11.226  11.486  68.667  1.00  0.00    -0.205 OA 
HETATM    4  O   UNL     1      -9.532  12.751  70.050  1.00  0.00     2.496 OA 
ENDROOT
BRANCH   2   5
HETATM    5  C   UNL     1     -11.670  14.012  69.213  1.00  0.00    -0.326 C  
BRANCH   5   6
HETATM    6  C   UNL     1     -11.690  14.995  70.374  1.00  0.00    -0.291 C  
BRANCH   6   7
HETATM    7  N   UNL     1     -10.638  16.014  70.290  1.00  0.00    -0.258 NA 
HETATM    8  H   UNL     1      -9.745  15.593  70.032  1.00  0.00     0.000 HD 
BRANCH   7   9
HETATM    9  C   UNL     1     -10.969  17.120  69.390  1.00  0.00     0.167 C  
BRANCH   9  10
HETATM   10  C   UNL     1     -10.454  16.847  68.023  1.00  0.00    -0.347 A  
HETATM   11  C   UNL     1      -9.974  17.655  67.016  1.00  0.00    -0.320 A  
HETATM   12  C   UNL     1      -9.634  16.794  65.945  1.00  0.00    -0.211 A  
HETATM   13  C   UNL     1      -9.904  15.508  66.366  1.00  0.00    -0.278 A  
HETATM   14  O   UNL     1     -10.398  15.543  67.639  1.00  0.00    -0.258 OA 
BRANCH  13  15
HETATM   15  C   UNL     1      -9.780  14.184  65.769  1.00  0.00    -0.246 A  
HETATM   16  C   UNL     1      -9.058  13.165  66.406  1.00  0.00    -0.069 A  
HETATM   17  C   UNL     1      -8.928  11.876  65.822  1.00  0.00     0.044 A  
HETATM   18  C   UNL     1      -9.534  11.619  64.583  1.00  0.00    -0.046 A  
HETATM   19  C   UNL     1     -10.243  12.628  63.962  1.00  0.00    -0.363 A  
HETATM   20  N   UNL     1      -9.454  10.449  63.949  1.00  0.00    -0.282 NA 
HETATM   21  C   UNL     1      -8.733   9.505  64.546  1.00  0.00    -0.205 A  
HETATM   22  C   UNL     1     -10.370  13.893  64.538  1.00  0.00    -0.260 A  
HETATM   23  N   UNL     1      -8.104   9.630  65.712  1.00  0.00    -0.111 NA 
HETATM   24  C   UNL     1      -8.200  10.798  66.365  1.00  0.00    -0.155 A  
BRANCH  24  25
HETATM   25  N   UNL     1      -7.482  10.981  67.582  1.00  0.00    -0.094 NA 
HETATM   26  H   UNL     1      -7.142  11.926  67.759  1.00  0.00     0.000 HD 
BRANCH  25  27
HETATM   27  C   UNL     1      -7.180  10.024  68.579  1.00  0.00    -0.076 A  
HETATM   28  C   UNL     1      -6.664  10.360  69.830  1.00  0.00    -0.117 A  
HETATM   29  C   UNL     1      -6.462   9.416  70.840  1.00  0.00    -0.096 A  
HETATM   30  C   UNL     1      -6.813   8.079  70.623  1.00  0.00    -0.037 A  
HETATM   31 CL   UNL     1      -5.728  10.064  72.270  1.00  0.00     0.247 Cl 
HETATM   32  C   UNL     1      -7.268   7.714  69.346  1.00  0.00    -0.081 A  
HETATM   33  C   UNL     1      -7.445   8.673  68.336  1.00  0.00    -0.095 A  
BRANCH  30  34
HETATM   34  O   UNL     1      -6.766   7.027  71.504  1.00  0.00    -0.051 OA 
BRANCH  34  35
HETATM   35  C   UNL     1      -5.509   6.367  71.623  1.00  0.00    -0.027 C  
BRANCH  35  36
HETATM   36  C   UNL     1      -5.678   4.908  71.953  1.00  0.00    -0.012 A  
HETATM   37  C   UNL     1      -5.799   3.956  70.936  1.00  0.00    -0.014 A  
HETATM   38  C   UNL     1      -6.072   2.633  71.264  1.00  0.00    -0.014 A  
HETATM   39  C   UNL     1      -6.228   2.239  72.589  1.00  0.00    -0.009 A  
HETATM   40  F   UNL     1      -6.209   1.729  70.287  1.00  0.00    -0.021 F  
HETATM   41  C   UNL     1      -6.105   3.179  73.605  1.00  0.00    -0.008 A  
HETATM   42  C   UNL     1      -5.833   4.508  73.293  1.00  0.00    -0.009 A  
ENDBRANCH  35  36
ENDBRANCH  34  35
ENDBRANCH  30  34
ENDBRANCH  25  27
ENDBRANCH  24  25
ENDBRANCH  13  15
ENDBRANCH   9  10
ENDBRANCH   7   9
ENDBRANCH   6   7
ENDBRANCH   5   6
ENDBRANCH   2   5
TORSDOF 11
ENDMDL
MODEL      282
REMARK 921   NORMALIZED FREE ENERGY PREDICTED BY IDOCK:    1.07 KCAL/MOL
REMARK 922        TOTAL FREE ENERGY PREDICTED BY IDOCK:   -0.99 KCAL/MOL
REMARK 923 INTER-LIGAND FREE ENERGY PREDICTED BY IDOCK:   -3.29 KCAL/MOL
REMARK 924 INTRA-LIGAND FREE ENERGY PREDICTED BY IDOCK:    2.30 KCAL/MOL
REMARK 927      BINDING AFFINITY PREDICTED BY RF-SCORE:    0.00 PKD
ROOT
HETATM    1  C   UNL     1      -9.891   8.144  64.937  1.00  0.00     2.184 C  
HETATM    2  S   UNL     1      -9.088   9.725  64.877  1.00  0.00    -0.243 S  
HETATM    3  O   UNL     1      -9.832  10.567  63.962  1.00  0.00    -0.302 OA 
HETATM    4  O   UNL     1      -7.669   9.491  64.701  1.00  0.00    -0.111 OA 
ENDROOT
BRANCH   2   5
HETATM    5  C   UNL     1      -9.347  10.333  66.528  1.00  0.00    -0.166 C  
BRANCH   5   6
HETATM    6  C   UNL     1      -8.039  10.779  67.167  1.00  0.00    -0.124 C  
BRANCH   6   7
HETATM    7  N   UNL     1      -6.948   9.815  66.993  1.00  0.00    -0.084 NA 
HETATM    8  H   UNL     1      -7.053   9.305  66.116  1.00  0.00     0.000 HD 
BRANCH   7   9
HETATM    9  C   UNL     1      -5.618  10.419  67.086  1.00  0.00    -0.041 C  
BRANCH   9  10
HETATM   10  C   UNL     1      -5.630  11.556  68.042  1.00  0.00    -0.043 A  
HETATM   11  C   UNL     1      -5.141  11.722  69.320  1.00  0.00    -0.052 A  
HETATM   12  C   UNL     1      -5.469  13.044  69.702  1.00  0.00    -0.088 A  
HETATM   13  C   UNL     1      -6.119  13.620  68.629  1.00  0.00    -0.087 A  
HETATM   14  O   UNL     1      -6.210  12.709  67.614  1.00  0.00    -0.116 OA 
BRANCH  13  15
HETATM   15  C   UNL     1      -6.702  14.928  68.363  1.00  0.00    -0.101 A  
HETATM   16  C   UNL     1      -8.045  15.062  67.986  1.00  0.00    -0.132 A  
HETATM   17  C   UNL     1      -8.614  16.336  67.716  1.00  0.00    -0.175 A  
HETATM   18  C   UNL     1      -7.815  17.483  67.828  1.00  0.00    -0.207 A  
HETATM   19  C   UNL     1      -6.492  17.343  68.200  1.00  0.00    -0.168 A  
HETATM   20  N   UNL     1      -8.252  18.717  67.581  1.00  0.00    -0.260 NA 
HETATM   21  C   UNL     1      -9.517  18.825  67.186  1.00  0.00    -0.305 A  
HETATM   22  C   UNL     1      -5.936  16.090  68.465  1.00  0.00    -0.105 A  
HETATM   23  N   UNL     1     -10.370  17.814  67.032  1.00  0.00    -0.343 NA 
HETATM   24  C   UNL     1      -9.941  16.572  67.302  1.00  0.00    -0.264 A  
BRANCH  24  25
HETATM   25  N   UNL     1     -10.813  15.466  67.082  1.00  0.00    -0.319 NA 
HETATM   26  H   UNL     1     -10.919  15.173  66.111  1.00  0.00     0.000 HD 
BRANCH  25  27
HETATM   27  C   UNL     1     -11.549  14.723  68.033  1.00  0.00    -0.343 A  
HETATM   28  C   UNL     1     -11.327  13.369  68.283  1.00  0.00    -0.330 A  
HETATM   29  C   UNL     1     -11.992  12.670  69.293  1.00  0.00    -0.246 A  
HETATM   30  C   UNL     1     -12.900  13.340  70.121  1.00  0.00     0.238 A  
HETATM   31 CL   UNL     1     -11.611  10.981  69.347  1.00  0.00    -0.347 Cl 
HETATM   32  C   UNL     1     -13.185  14.685  69.838  1.00  0.00     0.526 A  
HETATM   33  C   UNL     1     -12.522  15.366  68.804  1.00  0.00     0.264 A  
BRANCH  30  34
HETATM   34  O   UNL     1     -13.588  12.856  71.206  1.00  0.00     0.028 OA 
BRANCH  34  35
HETATM   35  C   UNL     1     -12.946  13.002  72.469  1.00  0.00    -0.027 C  
BRANCH  35  36
HETATM   36  C   UNL     1     -12.569  14.435  72.738  1.00  0.00    -0.358 A  
HETATM   37  C   UNL     1     -11.918  15.195  71.762  1.00  0.00    -0.448 A  
HETATM   38  C   UNL     1     -11.475  16.475  72.074  1.00  0.00     0.007 A  
HETATM   39  C   UNL     1     -11.668  17.014  73.341  1.00  0.00     0.264 A  
HETATM   40  F   UNL     1     -10.833  17.193  71.143  1.00  0.00     0.194 F  
HETATM   41  C   UNL     1     -12.317  16.265  74.315  1.00  0.00    -0.628 A  
HETATM   42  C   UNL     1     -12.766  14.981  74.019  1.00  0.00    -0.431 A  
ENDBRANCH  35  36
ENDBRANCH  34  35
ENDBRANCH  30  34
ENDBRANCH  25  27
ENDBRANCH  24  25
ENDBRANCH  13  15
ENDBRANCH   9  10
ENDBRANCH   7   9
ENDBRANCH   6   7
ENDBRANCH   5   6
ENDBRANCH   2   5
TORSDOF 11
ENDMDL
MODEL      283
REMARK 921   NORMALIZED FREE ENERGY PREDICTED BY IDOCK:    1.37 KCAL/MOL
REMARK 922        TOTAL FREE ENERGY PREDICTED BY IDOCK:   -0.50 KCAL/MOL
REMARK 923 INTER-LIGAND FREE ENERGY PREDICTED BY IDOCK:   -3.98 KCAL/MOL
REMARK 924 INTRA-LIGAND FREE ENERGY PREDICTED BY IDOCK:    3.48 KCAL/MOL
REMARK 927      BINDING AFFINITY PREDICTED BY RF-SCORE:    0.00 PKD
ROOT
HETATM    1  C   UNL     1      -7.822   4.970  67.359  1.00  0.00    -0.095 C  
HETATM    2  S   UNL     1      -6.999   5.648  65.942  1.00  0.00    -0.067 S  
HETATM    3  O   UNL     1      -7.610   6.927  65.642  1.00  0.00    -0.081 OA 
HETATM    4  O   UNL     1      -6.909   4.602  64.943  1.00  0.00    -0.050 OA 
ENDROOT
BRANCH   2   5
HETATM    5  C   UNL     1      -5.364   5.949  66.574  1.00  0.00    -0.009 C  
BRANCH   5   6
HETATM    6  C   UNL     1      -5.212   7.382  67.064  1.00  0.00    -0.022 C  
BRANCH   6   7
HETATM    7  N   UNL     1      -5.147   8.364  65.977  1.00  0.00    -0.027 NA 
HETATM    8  H   UNL     1      -5.562   7.988  65.124  1.00  0.00     0.000 HD 
BRANCH   7   9
HETATM    9  C   UNL     1      -5.748   9.653  66.320  1.00  0.00    -0.053 C  
BRANCH   9  10
HETATM   10  C   UNL     1      -5.637   9.905  67.781  1.00  0.00    -0.039 A  
HETATM   11  C   UNL     1      -5.382  11.033  68.529  1.00  0.00    -0.043 A  
HETATM   12  C   UNL     1      -5.407  10.625  69.884  1.00  0.00    -0.041 A  
HETATM   13  C   UNL     1      -5.699   9.276  69.889  1.00  0.00    -0.031 A  
HETATM   14  O   UNL     1      -5.845   8.840  68.602  1.00  0.00    -0.043 OA 
BRANCH  13  15
HETATM   15  C   UNL     1      -5.874   8.267  70.925  1.00  0.00    -0.033 A  
HETATM   16  C   UNL     1      -6.794   7.220  70.771  1.00  0.00    -0.052 A  
HETATM   17  C   UNL     1      -6.973   6.239  71.783  1.00  0.00    -0.076 A  
HETATM   18  C   UNL     1      -6.215   6.321  72.962  1.00  0.00    -0.055 A  
HETATM   19  C   UNL     1      -5.312   7.355  73.105  1.00  0.00    -0.041 A  
HETATM   20  N   UNL     1      -6.324   5.460  73.973  1.00  0.00    -0.066 NA 
HETATM   21  C   UNL     1      -7.229   4.496  73.829  1.00  0.00    -0.069 A  
HETATM   22  C   UNL     1      -5.136   8.317  72.109  1.00  0.00    -0.035 A  
HETATM   23  N   UNL     1      -8.013   4.320  72.769  1.00  0.00    -0.085 NA 
HETATM   24  C   UNL     1      -7.891   5.170  71.738  1.00  0.00    -0.110 A  
BRANCH  24  25
HETATM   25  N   UNL     1      -8.764   5.044  70.619  1.00  0.00    -0.119 NA 
HETATM   26  H   UNL     1      -9.047   4.094  70.382  1.00  0.00     0.000 HD 
BRANCH  25  27
HETATM   27  C   UNL     1      -9.289   6.066  69.793  1.00  0.00    -0.149 A  
HETATM   28  C   UNL     1     -10.228   5.829  68.790  1.00  0.00    -0.255 A  
HETATM   29  C   UNL     1     -10.812   6.858  68.047  1.00  0.00    -0.200 A  
HETATM   30  C   UNL     1     -10.482   8.190  68.323  1.00  0.00    -0.160 A  
HETATM   31 CL   UNL     1     -11.879   6.305  66.799  1.00  0.00     1.049 Cl 
HETATM   32  C   UNL     1      -9.488   8.439  69.283  1.00  0.00    -0.155 A  
HETATM   33  C   UNL     1      -8.896   7.391  70.005  1.00  0.00    -0.141 A  
BRANCH  30  34
HETATM   34  O   UNL     1     -10.998   9.334  67.766  1.00  0.00    -0.186 OA 
BRANCH  34  35
HETATM   35  C   UNL     1     -10.116  10.073  66.926  1.00  0.00    -0.229 C  
BRANCH  35  36
HETATM   36  C   UNL     1     -10.398  11.551  66.989  1.00  0.00    -0.254 A  
HETATM   37  C   UNL     1     -11.588  12.072  66.474  1.00  0.00    -0.384 A  
HETATM   38  C   UNL     1     -11.773  13.449  66.437  1.00  0.00    -0.368 A  
HETATM   39  C   UNL     1     -10.794  14.319  66.904  1.00  0.00    -0.298 A  
HETATM   40  F   UNL     1     -12.905  13.946  65.923  1.00  0.00    -0.499 F  
HETATM   41  C   UNL     1      -9.609  13.808  67.421  1.00  0.00    -0.229 A  
HETATM   42  C   UNL     1      -9.408  12.430  67.464  1.00  0.00    -0.181 A  
ENDBRANCH  35  36
ENDBRANCH  34  35
ENDBRANCH  30  34
ENDBRANCH  25  27
ENDBRANCH  24  25
ENDBRANCH  13  15
ENDBRANCH   9  10
ENDBRANCH   7   9
ENDBRANCH   6   7
ENDBRANCH   5   6
ENDBRANCH   2   5
TORSDOF 11
ENDMDL
MODEL      284
REMARK 921   NORMALIZED FREE ENERGY PREDICTED BY IDOCK:    1.75 KCAL/MOL
REMARK 922        TOTAL FREE ENERGY PREDICTED BY IDOCK:    0.12 KCAL/MOL
REMARK 923 INTER-LIGAND FREE ENERGY PREDICTED BY IDOCK:   -2.27 KCAL/MOL
REMARK 924 INTRA-LIGAND FREE ENERGY PREDICTED BY IDOCK:    2.39 KCAL/MOL
REMARK 927      BINDING AFFINITY PREDICTED BY RF-SCORE:    0.00 PKD
ROOT
HETATM    1  C   UNL     1      -9.254  14.626  69.775  1.00  0.00     0.456 C  
HETATM    2  S   UNL     1      -8.209  13.886  68.548  1.00  0.00    -0.097 S  
HETATM    3  O   UNL     1      -8.588  12.493  68.422  1.00  0.00    -0.172 OA 
HETATM    4  O   UNL     1      -6.843  14.271  68.841  1.00  0.00    -0.093 OA 
ENDROOT
BRANCH   2   5
HETATM    5  C   UNL     1      -8.717  14.735  67.070  1.00  0.00    -0.235 C  
BRANCH   5   6
HETATM    6  C   UNL     1      -8.848  13.777  65.895  1.00  0.00     0.775 C  
BRANCH   6   7
HETATM    7  N   UNL     1     -10.204  13.241  65.731  1.00  0.00    -0.289 NA 
HETATM    8  H   UNL     1     -10.501  12.745  66.572  1.00  0.00     0.000 HD 
BRANCH   7   9
HETATM    9  C   UNL     1     -11.189  14.254  65.351  1.00  0.00    -0.329 C  
BRANCH   9  10
HETATM   10  C   UNL     1     -11.039  15.466  66.198  1.00  0.00    -0.230 A  
HETATM   11  C   UNL     1     -10.649  16.761  65.935  1.00  0.00    -0.255 A  
HETATM   12  C   UNL     1     -10.712  17.453  67.167  1.00  0.00    -0.188 A  
HETATM   13  C   UNL     1     -11.159  16.549  68.110  1.00  0.00    -0.303 A  
HETATM   14  O   UNL     1     -11.364  15.337  67.512  1.00  0.00    -0.331 OA 
BRANCH  13  15
HETATM   15  C   UNL     1     -11.443  16.609  69.538  1.00  0.00     0.168 A  
HETATM   16  C   UNL     1     -12.184  15.604  70.174  1.00  0.00    -0.387 A  
HETATM   17  C   UNL     1     -12.471  15.664  71.564  1.00  0.00    -0.499 A  
HETATM   18  C   UNL     1     -12.003  16.753  72.316  1.00  0.00     0.168 A  
HETATM   19  C   UNL     1     -11.274  17.739  71.682  1.00  0.00     2.508 A  
HETATM   20  N   UNL     1     -12.234  16.907  73.619  1.00  0.00    -0.215 NA 
HETATM   21  C   UNL     1     -12.972  15.966  74.201  1.00  0.00    -0.209 A  
HETATM   22  C   UNL     1     -10.992  17.677  70.316  1.00  0.00     1.478 A  
HETATM   23  N   UNL     1     -13.480  14.895  73.595  1.00  0.00    -0.073 NA 
HETATM   24  C   UNL     1     -13.232  14.724  72.288  1.00  0.00    -0.374 A  
BRANCH  24  25
HETATM   25  N   UNL     1     -13.819  13.622  71.602  1.00  0.00    -0.257 NA 
HETATM   26  H   UNL     1     -14.779  13.757  71.285  1.00  0.00     0.000 HD 
BRANCH  25  27
HETATM   27  C   UNL     1     -13.244  12.364  71.301  1.00  0.00     0.008 A  
HETATM   28  C   UNL     1     -12.377  12.158  70.229  1.00  0.00    -0.269 A  
HETATM   29  C   UNL     1     -11.740  10.936  70.001  1.00  0.00    -0.345 A  
HETATM   30  C   UNL     1     -11.939   9.871  70.887  1.00  0.00    -0.345 A  
HETATM   31 CL   UNL     1     -10.784  10.901  68.556  1.00  0.00    -0.217 Cl 
HETATM   32  C   UNL     1     -12.861  10.043  71.931  1.00  0.00    -0.524 A  
HETATM   33  C   UNL     1     -13.510  11.272  72.132  1.00  0.00    -0.197 A  
BRANCH  30  34
HETATM   34  O   UNL     1     -11.350   8.630  70.881  1.00  0.00    -0.263 OA 
BRANCH  34  35
HETATM   35  C   UNL     1     -10.699   8.242  72.087  1.00  0.00    -0.319 C  
BRANCH  35  36
HETATM   36  C   UNL     1      -9.554   7.300  71.822  1.00  0.00    -0.163 A  
HETATM   37  C   UNL     1      -9.616   5.967  72.239  1.00  0.00    -0.162 A  
HETATM   38  C   UNL     1      -8.502   5.150  72.089  1.00  0.00    -0.125 A  
HETATM   39  C   UNL     1      -7.324   5.636  71.529  1.00  0.00    -0.087 A  
HETATM   40  F   UNL     1      -8.557   3.880  72.509  1.00  0.00    -0.092 F  
HETATM   41  C   UNL     1      -7.257   6.959  71.109  1.00  0.00    -0.076 A  
HETATM   42  C   UNL     1      -8.364   7.791  71.254  1.00  0.00    -0.108 A  
ENDBRANCH  35  36
ENDBRANCH  34  35
ENDBRANCH  30  34
ENDBRANCH  25  27
ENDBRANCH  24  25
ENDBRANCH  13  15
ENDBRANCH   9  10
ENDBRANCH   7   9
ENDBRANCH   6   7
ENDBRANCH   5   6
ENDBRANCH   2   5
TORSDOF 11
ENDMDL
MODEL      285
REMARK 921   NORMALIZED FREE ENERGY PREDICTED BY IDOCK:    1.84 KCAL/MOL
REMARK 922        TOTAL FREE ENERGY PREDICTED BY IDOCK:    0.28 KCAL/MOL
REMARK 923 INTER-LIGAND FREE ENERGY PREDICTED BY IDOCK:   -1.39 KCAL/MOL
REMARK 924 INTRA-LIGAND FREE ENERGY PREDICTED BY IDOCK:    1.68 KCAL/MOL
REMARK 927      BINDING AFFINITY PREDICTED BY RF-SCORE:    0.00 PKD
ROOT
HETATM    1  C   UNL     1     -10.281  17.547  70.104  1.00  0.00     0.923 C  
HETATM    2  S   UNL     1     -11.129  16.348  71.099  1.00  0.00     0.342 S  
HETATM    3  O   UNL     1     -11.790  17.053  72.178  1.00  0.00     0.064 OA 
HETATM    4  O   UNL     1     -10.207  15.262  71.361  1.00  0.00     0.500 OA 
ENDROOT
BRANCH   2   5
HETATM    5  C   UNL     1     -12.376  15.754  69.978  1.00  0.00    -0.219 C  
BRANCH   5   6
HETATM    6  C   UNL     1     -11.912  15.847  68.531  1.00  0.00    -0.039 C  
BRANCH   6   7
HETATM    7  N   UNL     1     -10.533  15.392  68.332  1.00  0.00    -0.235 NA 
HETATM    8  H   UNL     1      -9.879  16.171  68.413  1.00  0.00     0.000 HD 
BRANCH   7   9
HETATM    9  C   UNL     1     -10.146  14.297  69.223  1.00  0.00     0.030 C  
BRANCH   9  10
HETATM   10  C   UNL     1     -10.759  13.021  68.773  1.00  0.00    -0.221 A  
HETATM   11  C   UNL     1     -11.038  12.492  67.531  1.00  0.00    -0.311 A  
HETATM   12  C   UNL     1     -11.628  11.227  67.761  1.00  0.00    -0.307 A  
HETATM   13  C   UNL     1     -11.657  11.043  69.129  1.00  0.00    -0.319 A  
HETATM   14  O   UNL     1     -11.118  12.138  69.744  1.00  0.00    -0.075 OA 
BRANCH  13  15
HETATM   15  C   UNL     1     -12.117   9.981  70.013  1.00  0.00    -0.090 A  
HETATM   16  C   UNL     1     -11.232   9.016  70.512  1.00  0.00    -0.301 A  
HETATM   17  C   UNL     1     -11.680   7.973  71.367  1.00  0.00    -0.320 A  
HETATM   18  C   UNL     1     -13.037   7.907  71.718  1.00  0.00    -0.325 A  
HETATM   19  C   UNL     1     -13.903   8.861  71.222  1.00  0.00    -0.231 A  
HETATM   20  N   UNL     1     -13.554   6.960  72.499  1.00  0.00     0.465 NA 
HETATM   21  C   UNL     1     -12.709   6.029  72.933  1.00  0.00     0.879 A  
HETATM   22  C   UNL     1     -13.460   9.886  70.383  1.00  0.00     0.306 A  
HETATM   23  N   UNL     1     -11.408   5.976  72.661  1.00  0.00    -0.286 NA 
HETATM   24  C   UNL     1     -10.877   6.941  71.894  1.00  0.00    -0.229 A  
BRANCH  24  25
HETATM   25  N   UNL     1      -9.500   6.872  71.534  1.00  0.00    -0.156 NA 
HETATM   26  H   UNL     1      -8.919   7.646  71.853  1.00  0.00     0.000 HD 
BRANCH  25  27
HETATM   27  C   UNL     1      -8.834   5.869  70.791  1.00  0.00    -0.138 A  
HETATM   28  C   UNL     1      -7.472   5.916  70.496  1.00  0.00    -0.090 A  
HETATM   29  C   UNL     1      -6.806   4.874  69.847  1.00  0.00    -0.048 A  
HETATM   30  C   UNL     1      -7.504   3.713  69.497  1.00  0.00    -0.052 A  
HETATM   31 CL   UNL     1      -5.138   5.206  69.512  1.00  0.00     0.000 Cl 
HETATM   32  C   UNL     1      -8.888   3.680  69.726  1.00  0.00    -0.152 A  
HETATM   33  C   UNL     1      -9.546   4.746  70.360  1.00  0.00    -0.267 A  
BRANCH  30  34
HETATM   34  O   UNL     1      -7.019   2.559  68.931  1.00  0.00    -0.043 OA 
BRANCH  34  35
HETATM   35  C   UNL     1      -6.014   2.727  67.935  1.00  0.00    -0.024 C  
BRANCH  35  36
HETATM   36  C   UNL     1      -6.561   3.396  66.702  1.00  0.00    -0.041 A  
HETATM   37  C   UNL     1      -7.526   2.760  65.914  1.00  0.00    -0.072 A  
HETATM   38  C   UNL     1      -7.927   3.345  64.719  1.00  0.00    -0.089 A  
HETATM   39  C   UNL     1      -7.387   4.552  64.291  1.00  0.00    -0.066 A  
HETATM   40  F   UNL     1      -8.836   2.723  63.957  1.00  0.00    -0.094 F  
HETATM   41  C   UNL     1      -6.430   5.192  65.071  1.00  0.00    -0.035 A  
HETATM   42  C   UNL     1      -6.016   4.619  66.271  1.00  0.00    -0.023 A  
ENDBRANCH  35  36
ENDBRANCH  34  35
ENDBRANCH  30  34
ENDBRANCH  25  27
ENDBRANCH  24  25
ENDBRANCH  13  15
ENDBRANCH   9  10
ENDBRANCH   7   9
ENDBRANCH   6   7
ENDBRANCH   5   6
ENDBRANCH   2   5
TORSDOF 11
ENDMDL
MODEL      286
REMARK 921   NORMALIZED FREE ENERGY PREDICTED BY IDOCK:    2.09 KCAL/MOL
REMARK 922        TOTAL FREE ENERGY PREDICTED BY IDOCK:    0.68 KCAL/MOL
REMARK 923 INTER-LIGAND FREE ENERGY PREDICTED BY IDOCK:   -1.64 KCAL/MOL
REMARK 924 INTRA-LIGAND FREE ENERGY PREDICTED BY IDOCK:    2.32 KCAL/MOL
REMARK 927      BINDING AFFINITY PREDICTED BY RF-SCORE:    0.00 PKD
ROOT
HETATM    1  C   UNL     1      -9.540  10.766  65.462  1.00  0.00    -0.222 C  
HETATM    2  S   UNL     1      -7.930  10.136  65.064  1.00  0.00    -0.145 S  
HETATM    3  O   UNL     1      -6.951  10.945  65.762  1.00  0.00    -0.093 OA 
HETATM    4  O   UNL     1      -7.870   9.953  63.628  1.00  0.00    -0.134 OA 
ENDROOT
BRANCH   2   5
HETATM    5  C   UNL     1      -7.965   8.529  65.825  1.00  0.00    -0.107 C  
BRANCH   5   6
HETATM    6  C   UNL     1      -7.585   7.437  64.835  1.00  0.00    -0.105 C  
BRANCH   6   7
HETATM    7  N   UNL     1      -8.712   6.971  64.021  1.00  0.00    -0.073 NA 
HETATM    8  H   UNL     1      -8.552   7.170  63.033  1.00  0.00     0.000 HD 
BRANCH   7   9
HETATM    9  C   UNL     1      -9.029   5.556  64.220  1.00  0.00     0.262 C  
BRANCH   9  10
HETATM   10  C   UNL     1      -8.377   5.048  65.456  1.00  0.00    -0.126 A  
HETATM   11  C   UNL     1      -8.083   3.784  65.918  1.00  0.00    -0.097 A  
HETATM   12  C   UNL     1      -7.452   3.956  67.172  1.00  0.00    -0.072 A  
HETATM   13  C   UNL     1      -7.375   5.316  67.397  1.00  0.00    -0.083 A  
HETATM   14  O   UNL     1      -7.935   5.980  66.342  1.00  0.00    -0.102 OA 
BRANCH  13  15
HETATM   15  C   UNL     1      -6.849   6.152  68.467  1.00  0.00    -0.074 A  
HETATM   16  C   UNL     1      -7.261   7.484  68.618  1.00  0.00    -0.086 A  
HETATM   17  C   UNL     1      -6.744   8.305  69.655  1.00  0.00    -0.037 A  
HETATM   18  C   UNL     1      -5.800   7.772  70.547  1.00  0.00    -0.030 A  
HETATM   19  C   UNL     1      -5.399   6.460  70.392  1.00  0.00    -0.014 A  
HETATM   20  N   UNL     1      -5.246   8.467  71.540  1.00  0.00    -0.033 NA 
HETATM   21  C   UNL     1      -5.617   9.740  71.646  1.00  0.00    -0.032 A  
HETATM   22  C   UNL     1      -5.910   5.655  69.372  1.00  0.00    -0.016 A  
HETATM   23  N   UNL     1      -6.491  10.360  70.858  1.00  0.00    -0.341 NA 
HETATM   24  C   UNL     1      -7.069   9.660  69.871  1.00  0.00    -0.095 A  
BRANCH  24  25
HETATM   25  N   UNL     1      -7.958  10.317  68.972  1.00  0.00    -0.114 NA 
HETATM   26  H   UNL     1      -7.792  10.147  67.981  1.00  0.00     0.000 HD 
BRANCH  25  27
HETATM   27  C   UNL     1      -9.042  11.174  69.275  1.00  0.00     0.178 A  
HETATM   28  C   UNL     1      -8.888  12.533  69.545  1.00  0.00     1.608 A  
HETATM   29  C   UNL     1      -9.974  13.389  69.746  1.00  0.00     1.440 A  
HETATM   30  C   UNL     1     -11.279  12.892  69.648  1.00  0.00    -0.002 A  
HETATM   31 CL   UNL     1      -9.524  15.012  70.153  1.00  0.00     0.218 Cl 
HETATM   32  C   UNL     1     -11.447  11.513  69.445  1.00  0.00    -0.376 A  
HETATM   33  C   UNL     1     -10.344  10.665  69.267  1.00  0.00    -0.240 A  
BRANCH  30  34
HETATM   34  O   UNL     1     -12.465  13.578  69.733  1.00  0.00    -0.235 OA 
BRANCH  34  35
HETATM   35  C   UNL     1     -12.617  14.678  68.840  1.00  0.00     0.298 C  
BRANCH  35  36
HETATM   36  C   UNL     1     -11.767  14.513  67.608  1.00  0.00    -0.410 A  
HETATM   37  C   UNL     1     -10.885  15.522  67.211  1.00  0.00    -0.313 A  
HETATM   38  C   UNL     1     -10.199  15.399  66.008  1.00  0.00    -0.324 A  
HETATM   39  C   UNL     1     -10.375  14.287  65.191  1.00  0.00    -0.440 A  
HETATM   40  F   UNL     1      -9.371  16.377  65.620  1.00  0.00    -0.322 F  
HETATM   41  C   UNL     1     -11.248  13.277  65.582  1.00  0.00    -0.304 A  
HETATM   42  C   UNL     1     -11.943  13.387  66.783  1.00  0.00    -0.447 A  
ENDBRANCH  35  36
ENDBRANCH  34  35
ENDBRANCH  30  34
ENDBRANCH  25  27
ENDBRANCH  24  25
ENDBRANCH  13  15
ENDBRANCH   9  10
ENDBRANCH   7   9
ENDBRANCH   6   7
ENDBRANCH   5   6
ENDBRANCH   2   5
TORSDOF 11
ENDMDL
MODEL      287
REMARK 921   NORMALIZED FREE ENERGY PREDICTED BY IDOCK:    2.56 KCAL/MOL
REMARK 922        TOTAL FREE ENERGY PREDICTED BY IDOCK:    1.46 KCAL/MOL
REMARK 923 INTER-LIGAND FREE ENERGY PREDICTED BY IDOCK:   -4.10 KCAL/MOL
REMARK 924 INTRA-LIGAND FREE ENERGY PREDICTED BY IDOCK:    5.56 KCAL/MOL
REMARK 927      BINDING AFFINITY PREDICTED BY RF-SCORE:    0.00 PKD
ROOT
HETATM    1  C   UNL     1      -7.474  15.410  67.203  1.00  0.00    -0.189 C  
HETATM    2  S   UNL     1      -7.549  17.133  67.622  1.00  0.00    -0.169 S  
HETATM    3  O   UNL     1      -6.827  17.869  66.604  1.00  0.00    -0.174 OA 
HETATM    4  O   UNL     1      -7.213  17.260  69.026  1.00  0.00    -0.244 OA 
ENDROOT
BRANCH   2   5
HETATM    5  C   UNL     1      -9.283  17.482  67.435  1.00  0.00    -0.238 C  
BRANCH   5   6
HETATM    6  C   UNL     1      -9.688  17.516  65.968  1.00  0.00    -0.141 C  
BRANCH   6   7
HETATM    7  N   UNL     1      -9.493  16.235  65.281  1.00  0.00    -0.197 NA 
HETATM    8  H   UNL     1      -8.817  16.331  64.523  1.00  0.00     0.000 HD 
BRANCH   7   9
HETATM    9  C   UNL     1      -9.113  15.144  66.179  1.00  0.00    -0.241 C  
BRANCH   9  10
HETATM   10  C   UNL     1      -9.738  13.869  65.739  1.00  0.00    -0.164 A  
HETATM   11  C   UNL     1     -11.044  13.444  65.633  1.00  0.00    -0.298 A  
HETATM   12  C   UNL     1     -10.990  12.116  65.148  1.00  0.00    -0.355 A  
HETATM   13  C   UNL     1      -9.656  11.812  64.962  1.00  0.00    -0.130 A  
HETATM   14  O   UNL     1      -8.894  12.889  65.318  1.00  0.00     0.890 OA 
BRANCH  13  15
HETATM   15  C   UNL     1      -8.925  10.644  64.491  1.00  0.00    -0.214 A  
HETATM   16  C   UNL     1      -8.534   9.627  65.374  1.00  0.00    -0.155 A  
HETATM   17  C   UNL     1      -7.813   8.491  64.919  1.00  0.00    -0.119 A  
HETATM   18  C   UNL     1      -7.483   8.384  63.559  1.00  0.00    -0.117 A  
HETATM   19  C   UNL     1      -7.871   9.390  62.697  1.00  0.00    -0.118 A  
HETATM   20  N   UNL     1      -6.796   7.367  63.042  1.00  0.00    -0.057 NA 
HETATM   21  C   UNL     1      -6.398   6.430  63.897  1.00  0.00    -0.030 A  
HETATM   22  C   UNL     1      -8.581  10.505  63.146  1.00  0.00    -0.186 A  
HETATM   23  N   UNL     1      -6.637   6.424  65.206  1.00  0.00    -0.039 NA 
HETATM   24  C   UNL     1      -7.348   7.434  65.729  1.00  0.00    -0.074 A  
BRANCH  24  25
HETATM   25  N   UNL     1      -7.562   7.486  67.137  1.00  0.00    -0.105 NA 
HETATM   26  H   UNL     1      -6.810   7.110  67.714  1.00  0.00     0.000 HD 
BRANCH  25  27
HETATM   27  C   UNL     1      -8.682   7.990  67.840  1.00  0.00    -0.128 A  
HETATM   28  C   UNL     1      -8.640   8.350  69.186  1.00  0.00    -0.134 A  
HETATM   29  C   UNL     1      -9.724   8.938  69.842  1.00  0.00    -0.177 A  
HETATM   30  C   UNL     1     -10.898   9.217  69.135  1.00  0.00    -0.110 A  
HETATM   31 CL   UNL     1      -9.458   9.210  71.533  1.00  0.00    -0.309 Cl 
HETATM   32  C   UNL     1     -10.979   8.797  67.797  1.00  0.00     0.063 A  
HETATM   33  C   UNL     1      -9.887   8.188  67.160  1.00  0.00    -0.281 A  
BRANCH  30  34
HETATM   34  O   UNL     1     -12.032   9.854  69.574  1.00  0.00     0.054 OA 
BRANCH  34  35
HETATM   35  C   UNL     1     -11.864  10.736  70.680  1.00  0.00    -0.360 C  
BRANCH  35  36
HETATM   36  C   UNL     1     -11.457  12.115  70.233  1.00  0.00     0.062 A  
HETATM   37  C   UNL     1     -10.273  12.312  69.516  1.00  0.00     0.714 A  
HETATM   38  C   UNL     1      -9.860  13.605  69.219  1.00  0.00     0.437 A  
HETATM   39  C   UNL     1     -10.604  14.709  69.621  1.00  0.00    -0.125 A  
HETATM   40  F   UNL     1      -8.715  13.791  68.550  1.00  0.00    -0.168 F  
HETATM   41  C   UNL     1     -11.784  14.521  70.331  1.00  0.00    -0.354 A  
HETATM   42  C   UNL     1     -12.212  13.232  70.639  1.00  0.00    -0.417 A  
ENDBRANCH  35  36
ENDBRANCH  34  35
ENDBRANCH  30  34
ENDBRANCH  25  27
ENDBRANCH  24  25
ENDBRANCH  13  15
ENDBRANCH   9  10
ENDBRANCH   7   9
ENDBRANCH   6   7
ENDBRANCH   5   6
ENDBRANCH   2   5
TORSDOF 11
ENDMDL
MODEL      288
REMARK 921   NORMALIZED FREE ENERGY PREDICTED BY IDOCK:    3.28 KCAL/MOL
REMARK 922        TOTAL FREE ENERGY PREDICTED BY IDOCK:    2.64 KCAL/MOL
REMARK 923 INTER-LIGAND FREE ENERGY PREDICTED BY IDOCK:   -0.27 KCAL/MOL
REMARK 924 INTRA-LIGAND FREE ENERGY PREDICTED BY IDOCK:    2.91 KCAL/MOL
REMARK 927      BINDING AFFINITY PREDICTED BY RF-SCORE:    0.00 PKD
ROOT
HETATM    1  C   UNL     1      -7.419  12.296  67.158  1.00  0.00    -0.113 C  
HETATM    2  S   UNL     1      -6.354  10.967  66.659  1.00  0.00    -0.134 S  
HETATM    3  O   UNL     1      -6.271  10.028  67.760  1.00  0.00    -0.054 OA 
HETATM    4  O   UNL     1      -5.164  11.552  66.075  1.00  0.00    -0.299 OA 
ENDROOT
BRANCH   2   5
HETATM    5  C   UNL     1      -7.296  10.211  65.353  1.00  0.00    -0.144 C  
BRANCH   5   6
HETATM    6  C   UNL     1      -8.410  11.128  64.869  1.00  0.00     0.288 C  
BRANCH   6   7
HETATM    7  N   UNL     1      -9.735  10.749  65.371  1.00  0.00    -0.227 NA 
HETATM    8  H   UNL     1     -10.006  11.340  66.157  1.00  0.00     0.000 HD 
BRANCH   7   9
HETATM    9  C   UNL     1     -10.771  10.751  64.338  1.00  0.00    -0.050 C  
BRANCH   9  10
HETATM   10  C   UNL     1     -11.221  12.139  64.057  1.00  0.00    -0.390 A  
HETATM   11  C   UNL     1     -11.969  12.704  63.048  1.00  0.00    -0.116 A  
HETATM   12  C   UNL     1     -12.055  14.085  63.343  1.00  0.00     0.157 A  
HETATM   13  C   UNL     1     -11.375  14.283  64.528  1.00  0.00    -0.334 A  
HETATM   14  O   UNL     1     -10.873  13.090  64.965  1.00  0.00    -0.289 OA 
BRANCH  13  15
HETATM   15  C   UNL     1     -11.092  15.438  65.369  1.00  0.00    -0.331 A  
HETATM   16  C   UNL     1     -10.329  15.316  66.538  1.00  0.00    -0.289 A  
HETATM   17  C   UNL     1     -10.059  16.439  67.366  1.00  0.00    -0.262 A  
HETATM   18  C   UNL     1     -10.568  17.696  67.007  1.00  0.00    -0.254 A  
HETATM   19  C   UNL     1     -11.320  17.808  65.854  1.00  0.00     1.183 A  
HETATM   20  N   UNL     1     -10.384  18.802  67.725  1.00  0.00    -0.392 NA 
HETATM   21  C   UNL     1      -9.691  18.663  68.852  1.00  0.00    -0.322 A  
HETATM   22  C   UNL     1     -11.583  16.703  65.041  1.00  0.00     0.527 A  
HETATM   23  N   UNL     1      -9.168  17.526  69.305  1.00  0.00     0.076 NA 
HETATM   24  C   UNL     1      -9.331  16.414  68.573  1.00  0.00    -0.225 A  
BRANCH  24  25
HETATM   25  N   UNL     1      -8.838  15.171  69.068  1.00  0.00    -0.208 NA 
HETATM   26  H   UNL     1      -7.894  15.190  69.452  1.00  0.00     0.000 HD 
BRANCH  25  27
HETATM   27  C   UNL     1      -9.488  13.915  69.095  1.00  0.00     0.295 A  
HETATM   28  C   UNL     1      -8.931  12.780  69.683  1.00  0.00     2.040 A  
HETATM   29  C   UNL     1      -9.623  11.571  69.791  1.00  0.00     1.301 A  
HETATM   30  C   UNL     1     -10.939  11.479  69.326  1.00  0.00    -0.208 A  
HETATM   31 CL   UNL     1      -8.687  10.285  70.478  1.00  0.00     0.607 Cl 
HETATM   32  C   UNL     1     -11.488  12.592  68.670  1.00  0.00    -0.347 A  
HETATM   33  C   UNL     1     -10.770  13.793  68.552  1.00  0.00    -0.274 A  
BRANCH  30  34
HETATM   34  O   UNL     1     -11.805  10.416  69.409  1.00  0.00    -0.211 OA 
BRANCH  34  35
HETATM   35  C   UNL     1     -11.342   9.291  70.151  1.00  0.00    -0.164 C  
BRANCH  35  36
HETATM   36  C   UNL     1     -10.365   8.466  69.356  1.00  0.00    -0.217 A  
HETATM   37  C   UNL     1     -10.544   8.276  67.983  1.00  0.00    -0.188 A  
HETATM   38  C   UNL     1      -9.698   7.415  67.294  1.00  0.00    -0.157 A  
HETATM   39  C   UNL     1      -8.673   6.739  67.947  1.00  0.00    -0.120 A  
HETATM   40  F   UNL     1      -9.885   7.219  65.983  1.00  0.00    -0.139 F  
HETATM   41  C   UNL     1      -8.486   6.926  69.312  1.00  0.00    -0.129 A  
HETATM   42  C   UNL     1      -9.327   7.784  70.017  1.00  0.00    -0.157 A  
ENDBRANCH  35  36
ENDBRANCH  34  35
ENDBRANCH  30  34
ENDBRANCH  25  27
ENDBRANCH  24  25
ENDBRANCH  13  15
ENDBRANCH   9  10
ENDBRANCH   7   9
ENDBRANCH   6   7
ENDBRANCH   5   6
ENDBRANCH   2   5
TORSDOF 11
ENDMDL
MODEL      289
REMARK 921   NORMALIZED FREE ENERGY PREDICTED BY IDOCK:    3.39 KCAL/MOL
REMARK 922        TOTAL FREE ENERGY PREDICTED BY IDOCK:    2.82 KCAL/MOL
REMARK 923 INTER-LIGAND FREE ENERGY PREDICTED BY IDOCK:    2.00 KCAL/MOL
REMARK 924 INTRA-LIGAND FREE ENERGY PREDICTED BY IDOCK:    0.81 KCAL/MOL
REMARK 927      BINDING AFFINITY PREDICTED BY RF-SCORE:    0.00 PKD
ROOT
HETATM    1  C   UNL     1      -6.635  15.724  65.664  1.00  0.00     5.483 C  
HETATM    2  S   UNL     1      -6.922  17.130  66.707  1.00  0.00    -0.250 S  
HETATM    3  O   UNL     1      -6.247  18.268  66.115  1.00  0.00    -0.171 OA 
HETATM    4  O   UNL     1      -6.661  16.726  68.074  1.00  0.00    -0.137 OA 
ENDROOT
BRANCH   2   5
HETATM    5  C   UNL     1      -8.676  17.370  66.528  1.00  0.00    -0.260 C  
BRANCH   5   6
HETATM    6  C   UNL     1      -8.992  18.731  65.925  1.00  0.00     0.207 C  
BRANCH   6   7
HETATM    7  N   UNL     1     -10.395  19.126  66.083  1.00  0.00    -0.459 NA 
HETATM    8  H   UNL     1     -10.732  19.609  65.250  1.00  0.00     0.000 HD 
BRANCH   7   9
HETATM    9  C   UNL     1     -11.278  18.011  66.429  1.00  0.00     0.829 C  
BRANCH   9  10
HETATM   10  C   UNL     1     -10.974  17.513  67.796  1.00  0.00    -0.122 A  
HETATM   11  C   UNL     1     -10.040  17.867  68.744  1.00  0.00    -0.384 A  
HETATM   12  C   UNL     1     -10.258  17.016  69.853  1.00  0.00     0.245 A  
HETATM   13  C   UNL     1     -11.328  16.205  69.530  1.00  0.00    -0.321 A  
HETATM   14  O   UNL     1     -11.767  16.518  68.274  1.00  0.00    -0.106 OA 
BRANCH  13  15
HETATM   15  C   UNL     1     -12.052  15.140  70.210  1.00  0.00    -0.385 A  
HETATM   16  C   UNL     1     -11.520  13.846  70.305  1.00  0.00    -0.122 A  
HETATM   17  C   UNL     1     -12.228  12.802  70.960  1.00  0.00    -0.202 A  
HETATM   18  C   UNL     1     -13.485  13.072  71.522  1.00  0.00    -0.094 A  
HETATM   19  C   UNL     1     -14.002  14.348  71.424  1.00  0.00    -0.395 A  
HETATM   20  N   UNL     1     -14.231  12.157  72.140  1.00  0.00     0.499 NA 
HETATM   21  C   UNL     1     -13.731  10.925  72.187  1.00  0.00     0.167 A  
HETATM   22  C   UNL     1     -13.304  15.373  70.781  1.00  0.00    -0.385 A  
HETATM   23  N   UNL     1     -12.560  10.544  71.683  1.00  0.00    -0.407 NA 
HETATM   24  C   UNL     1     -11.795  11.466  71.080  1.00  0.00     0.132 A  
BRANCH  24  25
HETATM   25  N   UNL     1     -10.567  11.071  70.474  1.00  0.00     0.148 NA 
HETATM   26  H   UNL     1      -9.738  11.578  70.781  1.00  0.00     0.000 HD 
BRANCH  25  27
HETATM   27  C   UNL     1     -10.348  10.067  69.502  1.00  0.00    -0.235 A  
HETATM   28  C   UNL     1      -9.993   8.758  69.823  1.00  0.00    -0.193 A  
HETATM   29  C   UNL     1      -9.876   7.752  68.861  1.00  0.00    -0.166 A  
HETATM   30  C   UNL     1     -10.151   8.037  67.519  1.00  0.00    -0.219 A  
HETATM   31 CL   UNL     1      -9.336   6.232  69.495  1.00  0.00    -0.144 Cl 
HETATM   32  C   UNL     1     -10.442   9.365  67.172  1.00  0.00    -0.315 A  
HETATM   33  C   UNL     1     -10.535  10.368  68.149  1.00  0.00    -0.221 A  
BRANCH  30  34
HETATM   34  O   UNL     1     -10.169   7.178  66.447  1.00  0.00    -0.104 OA 
BRANCH  34  35
HETATM   35  C   UNL     1      -9.234   7.456  65.408  1.00  0.00     0.447 C  
BRANCH  35  36
HETATM   36  C   UNL     1      -7.818   7.449  65.920  1.00  0.00    -0.104 A  
HETATM   37  C   UNL     1      -7.281   6.304  66.514  1.00  0.00    -0.073 A  
HETATM   38  C   UNL     1      -6.014   6.358  67.085  1.00  0.00    -0.021 A  
HETATM   39  C   UNL     1      -5.270   7.533  67.074  1.00  0.00    -0.023 A  
HETATM   40  F   UNL     1      -5.511   5.265  67.672  1.00  0.00    -0.010 F  
HETATM   41  C   UNL     1      -5.797   8.675  66.481  1.00  0.00    -0.051 A  
HETATM   42  C   UNL     1      -7.065   8.637  65.907  1.00  0.00    -0.076 A  
ENDBRANCH  35  36
ENDBRANCH  34  35
ENDBRANCH  30  34
ENDBRANCH  25  27
ENDBRANCH  24  25
ENDBRANCH  13  15
ENDBRANCH   9  10
ENDBRANCH   7   9
ENDBRANCH   6   7
ENDBRANCH   5   6
ENDBRANCH   2   5
TORSDOF 11
ENDMDL
MODEL      290
REMARK 921   NORMALIZED FREE ENERGY PREDICTED BY IDOCK:    3.42 KCAL/MOL
REMARK 922        TOTAL FREE ENERGY PREDICTED BY IDOCK:    2.88 KCAL/MOL
REMARK 923 INTER-LIGAND FREE ENERGY PREDICTED BY IDOCK:    3.77 KCAL/MOL
REMARK 924 INTRA-LIGAND FREE ENERGY PREDICTED BY IDOCK:   -0.89 KCAL/MOL
REMARK 927      BINDING AFFINITY PREDICTED BY RF-SCORE:    0.00 PKD
ROOT
HETATM    1  C   UNL     1     -11.731  12.185  69.650  1.00  0.00    -0.325 C  
HETATM    2  S   UNL     1     -12.160  11.848  67.962  1.00  0.00     0.292 S  
HETATM    3  O   UNL     1     -13.566  12.152  67.792  1.00  0.00     5.514 OA 
HETATM    4  O   UNL     1     -11.623  10.546  67.623  1.00  0.00    -0.447 OA 
ENDROOT
BRANCH   2   5
HETATM    5  C   UNL     1     -11.216  13.079  67.090  1.00  0.00    -0.286 C  
BRANCH   5   6
HETATM    6  C   UNL     1      -9.742  12.706  67.026  1.00  0.00    -0.225 C  
BRANCH   6   7
HETATM    7  N   UNL     1      -9.104  13.072  65.757  1.00  0.00    -0.317 NA 
HETATM    8  H   UNL     1      -8.114  13.275  65.895  1.00  0.00     0.000 HD 
BRANCH   7   9
HETATM    9  C   UNL     1      -9.287  12.072  64.704  1.00  0.00     0.256 C  
BRANCH   9  10
HETATM   10  C   UNL     1      -8.541  10.830  65.033  1.00  0.00    -0.110 A  
HETATM   11  C   UNL     1      -7.238  10.429  64.833  1.00  0.00    -0.051 A  
HETATM   12  C   UNL     1      -7.135   9.126  65.376  1.00  0.00    -0.081 A  
HETATM   13  C   UNL     1      -8.375   8.813  65.897  1.00  0.00    -0.126 A  
HETATM   14  O   UNL     1      -9.229   9.859  65.692  1.00  0.00    -0.166 OA 
BRANCH  13  15
HETATM   15  C   UNL     1      -8.937   7.659  66.586  1.00  0.00    -0.181 A  
HETATM   16  C   UNL     1      -8.337   7.138  67.740  1.00  0.00    -0.118 A  
HETATM   17  C   UNL     1      -8.878   6.007  68.409  1.00  0.00    -0.112 A  
HETATM   18  C   UNL     1     -10.037   5.398  67.902  1.00  0.00    -0.168 A  
HETATM   19  C   UNL     1     -10.621   5.917  66.764  1.00  0.00    -0.368 A  
HETATM   20  N   UNL     1     -10.608   4.325  68.447  1.00  0.00     0.787 NA 
HETATM   21  C   UNL     1     -10.006   3.819  69.519  1.00  0.00     0.243 A  
HETATM   22  C   UNL     1     -10.089   7.029  66.110  1.00  0.00     0.265 A  
HETATM   23  N   UNL     1      -8.901   4.297  70.086  1.00  0.00    -0.077 NA 
HETATM   24  C   UNL     1      -8.334   5.390  69.554  1.00  0.00    -0.100 A  
BRANCH  24  25
HETATM   25  N   UNL     1      -7.114   5.884  70.100  1.00  0.00    -0.068 NA 
HETATM   26  H   UNL     1      -6.327   5.236  70.084  1.00  0.00     0.000 HD 
BRANCH  25  27
HETATM   27  C   UNL     1      -6.852   7.156  70.662  1.00  0.00    -0.053 A  
HETATM   28  C   UNL     1      -6.246   7.331  71.905  1.00  0.00    -0.040 A  
HETATM   29  C   UNL     1      -5.903   8.590  72.405  1.00  0.00    -0.066 A  
HETATM   30  C   UNL     1      -6.139   9.733  71.633  1.00  0.00     0.155 A  
HETATM   31 CL   UNL     1      -5.244   8.554  74.008  1.00  0.00    -0.072 Cl 
HETATM   32  C   UNL     1      -6.811   9.578  70.411  1.00  0.00    -0.101 A  
HETATM   33  C   UNL     1      -7.167   8.307  69.934  1.00  0.00    -0.059 A  
BRANCH  30  34
HETATM   34  O   UNL     1      -5.808  11.036  71.910  1.00  0.00    -0.064 OA 
BRANCH  34  35
HETATM   35  C   UNL     1      -5.134  11.744  70.872  1.00  0.00    -0.130 C  
BRANCH  35  36
HETATM   36  C   UNL     1      -5.475  13.210  70.889  1.00  0.00    -0.186 A  
HETATM   37  C   UNL     1      -5.646  13.916  69.694  1.00  0.00    -0.092 A  
HETATM   38  C   UNL     1      -5.843  15.291  69.733  1.00  0.00    -0.128 A  
HETATM   39  C   UNL     1      -5.873  15.979  70.942  1.00  0.00     0.270 A  
HETATM   40  F   UNL     1      -5.985  15.967  68.586  1.00  0.00    -0.100 F  
HETATM   41  C   UNL     1      -5.708  15.284  72.134  1.00  0.00     0.600 A  
HETATM   42  C   UNL     1      -5.508  13.906  72.112  1.00  0.00    -0.192 A  
ENDBRANCH  35  36
ENDBRANCH  34  35
ENDBRANCH  30  34
ENDBRANCH  25  27
ENDBRANCH  24  25
ENDBRANCH  13  15
ENDBRANCH   9  10
ENDBRANCH   7   9
ENDBRANCH   6   7
ENDBRANCH   5   6
ENDBRANCH   2   5
TORSDOF 11
ENDMDL
MODEL      291
REMARK 921   NORMALIZED FREE ENERGY PREDICTED BY IDOCK:    3.52 KCAL/MOL
REMARK 922        TOTAL FREE ENERGY PREDICTED BY IDOCK:    3.04 KCAL/MOL
REMARK 923 INTER-LIGAND FREE ENERGY PREDICTED BY IDOCK:    3.67 KCAL/MOL
REMARK 924 INTRA-LIGAND FREE ENERGY PREDICTED BY IDOCK:   -0.63 KCAL/MOL
REMARK 927      BINDING AFFINITY PREDICTED BY RF-SCORE:    0.00 PKD
ROOT
HETATM    1  C   UNL     1     -11.400  12.141  69.451  1.00  0.00    -0.245 C  
HETATM    2  S   UNL     1     -12.039  11.654  67.869  1.00  0.00     0.362 S  
HETATM    3  O   UNL     1     -13.480  11.795  67.909  1.00  0.00     4.945 OA 
HETATM    4  O   UNL     1     -11.414  10.398  67.509  1.00  0.00    -0.386 OA 
ENDROOT
BRANCH   2   5
HETATM    5  C   UNL     1     -11.387  12.921  66.803  1.00  0.00    -0.322 C  
BRANCH   5   6
HETATM    6  C   UNL     1     -10.096  12.473  66.134  1.00  0.00    -0.251 C  
BRANCH   6   7
HETATM    7  N   UNL     1      -9.851  13.128  64.845  1.00  0.00    -0.560 NA 
HETATM    8  H   UNL     1      -8.856  13.311  64.715  1.00  0.00     0.000 HD 
BRANCH   7   9
HETATM    9  C   UNL     1     -10.396  12.391  63.704  1.00  0.00    -0.403 C  
BRANCH   9  10
HETATM   10  C   UNL     1      -9.433  11.355  63.248  1.00  0.00    -0.314 A  
HETATM   11  C   UNL     1      -8.365  11.375  62.378  1.00  0.00    -0.019 A  
HETATM   12  C   UNL     1      -7.840  10.061  62.364  1.00  0.00    -0.140 A  
HETATM   13  C   UNL     1      -8.601   9.318  63.244  1.00  0.00    -0.201 A  
HETATM   14  O   UNL     1      -9.569  10.114  63.787  1.00  0.00    -0.293 OA 
BRANCH  13  15
HETATM   15  C   UNL     1      -8.591   7.932  63.692  1.00  0.00     0.342 A  
HETATM   16  C   UNL     1      -7.792   7.522  64.768  1.00  0.00    -0.126 A  
HETATM   17  C   UNL     1      -7.774   6.170  65.203  1.00  0.00    -0.097 A  
HETATM   18  C   UNL     1      -8.571   5.224  64.540  1.00  0.00    -0.109 A  
HETATM   19  C   UNL     1      -9.356   5.636  63.481  1.00  0.00     0.925 A  
HETATM   20  N   UNL     1      -8.609   3.932  64.862  1.00  0.00    -0.112 NA 
HETATM   21  C   UNL     1      -7.816   3.551  65.860  1.00  0.00    -0.089 A  
HETATM   22  C   UNL     1      -9.373   6.966  63.057  1.00  0.00     2.172 A  
HETATM   23  N   UNL     1      -7.009   4.347  66.556  1.00  0.00    -0.058 NA 
HETATM   24  C   UNL     1      -6.984   5.653  66.250  1.00  0.00    -0.060 A  
BRANCH  24  25
HETATM   25  N   UNL     1      -6.080   6.516  66.935  1.00  0.00    -0.028 NA 
HETATM   26  H   UNL     1      -5.099   6.240  66.911  1.00  0.00     0.000 HD 
BRANCH  25  27
HETATM   27  C   UNL     1      -6.365   7.706  67.645  1.00  0.00    -0.050 A  
HETATM   28  C   UNL     1      -5.983   7.917  68.968  1.00  0.00    -0.038 A  
HETATM   29  C   UNL     1      -6.184   9.132  69.627  1.00  0.00    -0.039 A  
HETATM   30  C   UNL     1      -6.762  10.207  68.942  1.00  0.00    -0.053 A  
HETATM   31 CL   UNL     1      -5.706   9.117  71.292  1.00  0.00    -0.050 Cl 
HETATM   32  C   UNL     1      -7.215   9.989  67.631  1.00  0.00    -0.088 A  
HETATM   33  C   UNL     1      -7.024   8.753  66.992  1.00  0.00    -0.074 A  
BRANCH  30  34
HETATM   34  O   UNL     1      -6.971  11.491  69.382  1.00  0.00    -0.112 OA 
BRANCH  34  35
HETATM   35  C   UNL     1      -6.460  12.528  68.549  1.00  0.00    -0.073 C  
BRANCH  35  36
HETATM   36  C   UNL     1      -7.391  13.710  68.501  1.00  0.00    -0.114 A  
HETATM   37  C   UNL     1      -7.742  14.292  67.279  1.00  0.00    -0.145 A  
HETATM   38  C   UNL     1      -8.506  15.453  67.268  1.00  0.00    -0.192 A  
HETATM   39  C   UNL     1      -8.930  16.047  68.452  1.00  0.00    -0.188 A  
HETATM   40  F   UNL     1      -8.822  16.020  66.097  1.00  0.00    -0.294 F  
HETATM   41  C   UNL     1      -8.589  15.471  69.670  1.00  0.00    -0.119 A  
HETATM   42  C   UNL     1      -7.822  14.309  69.699  1.00  0.00     0.363 A  
ENDBRANCH  35  36
ENDBRANCH  34  35
ENDBRANCH  30  34
ENDBRANCH  25  27
ENDBRANCH  24  25
ENDBRANCH  13  15
ENDBRANCH   9  10
ENDBRANCH   7   9
ENDBRANCH   6   7
ENDBRANCH   5   6
ENDBRANCH   2   5
TORSDOF 11
ENDMDL
MODEL      292
REMARK 921   NORMALIZED FREE ENERGY PREDICTED BY IDOCK:    4.24 KCAL/MOL
REMARK 922        TOTAL FREE ENERGY PREDICTED BY IDOCK:    4.22 KCAL/MOL
REMARK 923 INTER-LIGAND FREE ENERGY PREDICTED BY IDOCK:   -3.29 KCAL/MOL
REMARK 924 INTRA-LIGAND FREE ENERGY PREDICTED BY IDOCK:    7.51 KCAL/MOL
REMARK 927      BINDING AFFINITY PREDICTED BY RF-SCORE:    0.00 PKD
ROOT
HETATM    1  C   UNL     1     -11.629  13.250  70.714  1.00  0.00     0.525 C  
HETATM    2  S   UNL     1     -12.026  14.718  71.628  1.00  0.00    -0.307 S  
HETATM    3  O   UNL     1     -11.011  14.896  72.646  1.00  0.00     0.269 OA 
HETATM    4  O   UNL     1     -13.433  14.658  71.968  1.00  0.00    -0.326 OA 
ENDROOT
BRANCH   2   5
HETATM    5  C   UNL     1     -11.809  15.986  70.400  1.00  0.00    -0.268 C  
BRANCH   5   6
HETATM    6  C   UNL     1     -12.656  15.715  69.165  1.00  0.00     0.359 C  
BRANCH   6   7
HETATM    7  N   UNL     1     -11.862  15.507  67.949  1.00  0.00    -0.330 NA 
HETATM    8  H   UNL     1     -11.612  16.400  67.523  1.00  0.00     0.000 HD 
BRANCH   7   9
HETATM    9  C   UNL     1     -10.672  14.684  68.165  1.00  0.00    -0.242 C  
BRANCH   9  10
HETATM   10  C   UNL     1     -10.905  13.298  67.681  1.00  0.00    -0.258 A  
HETATM   11  C   UNL     1     -11.882  12.360  67.935  1.00  0.00    -0.370 A  
HETATM   12  C   UNL     1     -11.548  11.221  67.164  1.00  0.00    -0.113 A  
HETATM   13  C   UNL     1     -10.400  11.535  66.465  1.00  0.00    -0.232 A  
HETATM   14  O   UNL     1     -10.013  12.807  66.779  1.00  0.00    -0.227 OA 
BRANCH  13  15
HETATM   15  C   UNL     1      -9.553  10.830  65.512  1.00  0.00    -0.269 A  
HETATM   16  C   UNL     1      -8.166  11.031  65.486  1.00  0.00     0.018 A  
HETATM   17  C   UNL     1      -7.338  10.352  64.551  1.00  0.00    -0.013 A  
HETATM   18  C   UNL     1      -7.922   9.464  63.634  1.00  0.00    -0.142 A  
HETATM   19  C   UNL     1      -9.289   9.273  63.666  1.00  0.00     0.403 A  
HETATM   20  N   UNL     1      -7.233   8.795  62.711  1.00  0.00    -0.097 NA 
HETATM   21  C   UNL     1      -5.923   9.025  62.672  1.00  0.00    -0.094 A  
HETATM   22  C   UNL     1     -10.099   9.940  64.586  1.00  0.00     0.102 A  
HETATM   23  N   UNL     1      -5.257   9.849  63.478  1.00  0.00    -0.081 NA 
HETATM   24  C   UNL     1      -5.943  10.508  64.424  1.00  0.00    -0.053 A  
BRANCH  24  25
HETATM   25  N   UNL     1      -5.265  11.446  65.256  1.00  0.00    -0.472 NA 
HETATM   26  H   UNL     1      -4.550  12.009  64.797  1.00  0.00     0.000 HD 
BRANCH  25  27
HETATM   27  C   UNL     1      -5.455  11.698  66.635  1.00  0.00    -0.107 A  
HETATM   28  C   UNL     1      -5.499  10.690  67.596  1.00  0.00    -0.043 A  
HETATM   29  C   UNL     1      -5.588  10.957  68.965  1.00  0.00    -0.040 A  
HETATM   30  C   UNL     1      -5.605  12.282  69.415  1.00  0.00    -0.078 A  
HETATM   31 CL   UNL     1      -5.717   9.538  69.951  1.00  0.00    -0.035 Cl 
HETATM   32  C   UNL     1      -5.632  13.306  68.455  1.00  0.00    -0.084 A  
HETATM   33  C   UNL     1      -5.563  13.018  67.083  1.00  0.00     0.305 A  
BRANCH  30  34
HETATM   34  O   UNL     1      -5.611  12.747  70.707  1.00  0.00    -0.169 OA 
BRANCH  34  35
HETATM   35  C   UNL     1      -6.416  13.897  70.954  1.00  0.00     0.304 C  
BRANCH  35  36
HETATM   36  C   UNL     1      -6.459  14.811  69.758  1.00  0.00    -0.160 A  
HETATM   37  C   UNL     1      -7.463  14.679  68.795  1.00  0.00    -0.135 A  
HETATM   38  C   UNL     1      -7.413  15.454  67.642  1.00  0.00    -0.173 A  
HETATM   39  C   UNL     1      -6.381  16.362  67.430  1.00  0.00    -0.203 A  
HETATM   40  F   UNL     1      -8.364  15.310  66.711  1.00  0.00    -0.224 F  
HETATM   41  C   UNL     1      -5.381  16.502  68.386  1.00  0.00    -0.113 A  
HETATM   42  C   UNL     1      -5.415  15.731  69.545  1.00  0.00    -0.113 A  
ENDBRANCH  35  36
ENDBRANCH  34  35
ENDBRANCH  30  34
ENDBRANCH  25  27
ENDBRANCH  24  25
ENDBRANCH  13  15
ENDBRANCH   9  10
ENDBRANCH   7   9
ENDBRANCH   6   7
ENDBRANCH   5   6
ENDBRANCH   2   5
TORSDOF 11
ENDMDL
MODEL      293
REMARK 921   NORMALIZED FREE ENERGY PREDICTED BY IDOCK:    4.26 KCAL/MOL
REMARK 922        TOTAL FREE ENERGY PREDICTED BY IDOCK:    4.25 KCAL/MOL
REMARK 923 INTER-LIGAND FREE ENERGY PREDICTED BY IDOCK:    2.55 KCAL/MOL
REMARK 924 INTRA-LIGAND FREE ENERGY PREDICTED BY IDOCK:    1.70 KCAL/MOL
REMARK 927      BINDING AFFINITY PREDICTED BY RF-SCORE:    0.00 PKD
ROOT
HETATM    1  C   UNL     1      -6.576  15.537  65.382  1.00  0.00     8.469 C  
HETATM    2  S   UNL     1      -6.910  16.290  66.954  1.00  0.00    -0.083 S  
HETATM    3  O   UNL     1      -6.089  17.479  67.060  1.00  0.00    -0.129 OA 
HETATM    4  O   UNL     1      -6.864  15.249  67.960  1.00  0.00    -0.115 OA 
ENDROOT
BRANCH   2   5
HETATM    5  C   UNL     1      -8.604  16.801  66.765  1.00  0.00    -0.232 C  
BRANCH   5   6
HETATM    6  C   UNL     1      -8.764  18.295  67.007  1.00  0.00    -0.263 C  
BRANCH   6   7
HETATM    7  N   UNL     1     -10.102  18.667  67.477  1.00  0.00    -0.342 NA 
HETATM    8  H   UNL     1     -10.499  19.404  66.892  1.00  0.00     0.000 HD 
BRANCH   7   9
HETATM    9  C   UNL     1     -11.022  17.533  67.576  1.00  0.00    -0.084 C  
BRANCH   9  10
HETATM   10  C   UNL     1     -10.551  16.573  68.609  1.00  0.00    -0.316 A  
HETATM   11  C   UNL     1      -9.335  16.364  69.221  1.00  0.00    -0.175 A  
HETATM   12  C   UNL     1      -9.525  15.294  70.127  1.00  0.00     0.272 A  
HETATM   13  C   UNL     1     -10.852  14.924  70.035  1.00  0.00    -0.176 A  
HETATM   14  O   UNL     1     -11.478  15.713  69.111  1.00  0.00    -0.310 OA 
BRANCH  13  15
HETATM   15  C   UNL     1     -11.685  13.920  70.682  1.00  0.00    -0.194 A  
HETATM   16  C   UNL     1     -11.626  12.572  70.301  1.00  0.00    -0.052 A  
HETATM   17  C   UNL     1     -12.444  11.591  70.923  1.00  0.00    -0.464 A  
HETATM   18  C   UNL     1     -13.330  11.980  71.939  1.00  0.00    -0.304 A  
HETATM   19  C   UNL     1     -13.383  13.309  72.308  1.00  0.00    -0.630 A  
HETATM   20  N   UNL     1     -14.148  11.138  72.570  1.00  0.00     0.790 NA 
HETATM   21  C   UNL     1     -14.109   9.870  72.171  1.00  0.00     0.149 A  
HETATM   22  C   UNL     1     -12.577  14.271  71.696  1.00  0.00    -0.431 A  
HETATM   23  N   UNL     1     -13.323   9.382  71.214  1.00  0.00    -0.326 NA 
HETATM   24  C   UNL     1     -12.481  10.221  70.592  1.00  0.00    -0.318 A  
BRANCH  24  25
HETATM   25  N   UNL     1     -11.676   9.739  69.519  1.00  0.00    -0.450 NA 
HETATM   26  H   UNL     1     -12.091   9.001  68.951  1.00  0.00     0.000 HD 
BRANCH  25  27
HETATM   27  C   UNL     1     -10.377  10.150  69.140  1.00  0.00    -0.219 A  
HETATM   28  C   UNL     1     -10.118  10.902  67.995  1.00  0.00    -0.197 A  
HETATM   29  C   UNL     1      -8.845  11.386  67.682  1.00  0.00    -0.139 A  
HETATM   30  C   UNL     1      -7.777  11.145  68.554  1.00  0.00    -0.129 A  
HETATM   31 CL   UNL     1      -8.762  12.215  66.163  1.00  0.00     0.009 Cl 
HETATM   32  C   UNL     1      -8.008  10.332  69.674  1.00  0.00    -0.164 A  
HETATM   33  C   UNL     1      -9.290   9.837  69.961  1.00  0.00    -0.274 A  
BRANCH  30  34
HETATM   34  O   UNL     1      -6.483  11.596  68.467  1.00  0.00    -0.051 OA 
BRANCH  34  35
HETATM   35  C   UNL     1      -5.487  10.599  68.257  1.00  0.00    -0.036 C  
BRANCH  35  36
HETATM   36  C   UNL     1      -5.756   9.799  67.010  1.00  0.00    -0.050 A  
HETATM   37  C   UNL     1      -5.839  10.428  65.764  1.00  0.00    -0.108 A  
HETATM   38  C   UNL     1      -6.205   9.687  64.646  1.00  0.00    -0.089 A  
HETATM   39  C   UNL     1      -6.492   8.330  64.745  1.00  0.00    -0.064 A  
HETATM   40  F   UNL     1      -6.304  10.297  63.458  1.00  0.00    -0.126 F  
HETATM   41  C   UNL     1      -6.408   7.697  65.980  1.00  0.00    -0.042 A  
HETATM   42  C   UNL     1      -6.044   8.425  67.110  1.00  0.00    -0.055 A  
ENDBRANCH  35  36
ENDBRANCH  34  35
ENDBRANCH  30  34
ENDBRANCH  25  27
ENDBRANCH  24  25
ENDBRANCH  13  15
ENDBRANCH   9  10
ENDBRANCH   7   9
ENDBRANCH   6   7
ENDBRANCH   5   6
ENDBRANCH   2   5
TORSDOF 11
ENDMDL
MODEL      294
REMARK 921   NORMALIZED FREE ENERGY PREDICTED BY IDOCK:    4.81 KCAL/MOL
REMARK 922        TOTAL FREE ENERGY PREDICTED BY IDOCK:    5.15 KCAL/MOL
REMARK 923 INTER-LIGAND FREE ENERGY PREDICTED BY IDOCK:   -1.62 KCAL/MOL
REMARK 924 INTRA-LIGAND FREE ENERGY PREDICTED BY IDOCK:    6.77 KCAL/MOL
REMARK 927      BINDING AFFINITY PREDICTED BY RF-SCORE:    0.00 PKD
ROOT
HETATM    1  C   UNL     1      -5.409   6.328  69.701  1.00  0.00    -0.013 C  
HETATM    2  S   UNL     1      -6.181   4.967  70.537  1.00  0.00    -0.019 S  
HETATM    3  O   UNL     1      -7.265   5.495  71.340  1.00  0.00    -0.069 OA 
HETATM    4  O   UNL     1      -5.132   4.158  71.124  1.00  0.00     0.000 OA 
ENDROOT
BRANCH   2   5
HETATM    5  C   UNL     1      -6.887   4.056  69.182  1.00  0.00    -0.046 C  
BRANCH   5   6
HETATM    6  C   UNL     1      -5.808   3.402  68.330  1.00  0.00    -0.023 C  
BRANCH   6   7
HETATM    7  N   UNL     1      -5.811   3.859  66.936  1.00  0.00    -0.022 NA 
HETATM    8  H   UNL     1      -6.763   3.901  66.571  1.00  0.00     0.000 HD 
BRANCH   7   9
HETATM    9  C   UNL     1      -5.125   5.137  66.740  1.00  0.00    -0.008 C  
BRANCH   9  10
HETATM   10  C   UNL     1      -5.551   5.764  65.462  1.00  0.00    -0.013 A  
HETATM   11  C   UNL     1      -5.308   5.470  64.138  1.00  0.00    -0.013 A  
HETATM   12  C   UNL     1      -6.000   6.446  63.382  1.00  0.00    -0.023 A  
HETATM   13  C   UNL     1      -6.645   7.267  64.285  1.00  0.00    -0.044 A  
HETATM   14  O   UNL     1      -6.374   6.843  65.555  1.00  0.00    -0.041 OA 
BRANCH  13  15
HETATM   15  C   UNL     1      -7.511   8.433  64.175  1.00  0.00    -0.114 A  
HETATM   16  C   UNL     1      -8.376   8.796  65.217  1.00  0.00    -0.168 A  
HETATM   17  C   UNL     1      -9.228   9.928  65.110  1.00  0.00    -0.288 A  
HETATM   18  C   UNL     1      -9.205  10.698  63.937  1.00  0.00    -0.243 A  
HETATM   19  C   UNL     1      -8.350  10.333  62.915  1.00  0.00    -0.172 A  
HETATM   20  N   UNL     1      -9.977  11.765  63.736  1.00  0.00    -0.341 NA 
HETATM   21  C   UNL     1     -10.820  12.073  64.717  1.00  0.00    -0.306 A  
HETATM   22  C   UNL     1      -7.513   9.222  63.024  1.00  0.00    -0.105 A  
HETATM   23  N   UNL     1     -10.944  11.417  65.868  1.00  0.00    -0.249 NA 
HETATM   24  C   UNL     1     -10.153  10.355  66.085  1.00  0.00    -0.237 A  
BRANCH  24  25
HETATM   25  N   UNL     1     -10.311   9.595  67.280  1.00  0.00    -0.233 NA 
HETATM   26  H   UNL     1     -10.462  10.135  68.132  1.00  0.00     0.000 HD 
BRANCH  25  27
HETATM   27  C   UNL     1     -10.286   8.190  67.439  1.00  0.00    -0.281 A  
HETATM   28  C   UNL     1      -9.107   7.447  67.481  1.00  0.00    -0.128 A  
HETATM   29  C   UNL     1      -9.091   6.074  67.737  1.00  0.00    -0.109 A  
HETATM   30  C   UNL     1     -10.290   5.400  67.996  1.00  0.00    -0.152 A  
HETATM   31 CL   UNL     1      -7.514   5.361  67.647  1.00  0.00    -0.083 Cl 
HETATM   32  C   UNL     1     -11.489   6.121  67.890  1.00  0.00     0.428 A  
HETATM   33  C   UNL     1     -11.488   7.497  67.610  1.00  0.00     0.835 A  
BRANCH  30  34
HETATM   34  O   UNL     1     -10.475   4.084  68.343  1.00  0.00     0.553 OA 
BRANCH  34  35
HETATM   35  C   UNL     1      -9.660   3.137  67.657  1.00  0.00    -0.051 C  
BRANCH  35  36
HETATM   36  C   UNL     1      -9.707   3.342  66.166  1.00  0.00     0.018 A  
HETATM   37  C   UNL     1      -8.565   3.143  65.384  1.00  0.00    -0.110 A  
HETATM   38  C   UNL     1      -8.601   3.453  64.029  1.00  0.00    -0.089 A  
HETATM   39  C   UNL     1      -9.754   3.957  63.437  1.00  0.00    -0.152 A  
HETATM   40  F   UNL     1      -7.500   3.281  63.287  1.00  0.00    -0.050 F  
HETATM   41  C   UNL     1     -10.894   4.154  64.208  1.00  0.00    -0.094 A  
HETATM   42  C   UNL     1     -10.874   3.850  65.567  1.00  0.00     0.639 A  
ENDBRANCH  35  36
ENDBRANCH  34  35
ENDBRANCH  30  34
ENDBRANCH  25  27
ENDBRANCH  24  25
ENDBRANCH  13  15
ENDBRANCH   9  10
ENDBRANCH   7   9
ENDBRANCH   6   7
ENDBRANCH   5   6
ENDBRANCH   2   5
TORSDOF 11
ENDMDL
MODEL      295
REMARK 921   NORMALIZED FREE ENERGY PREDICTED BY IDOCK:    4.91 KCAL/MOL
REMARK 922        TOTAL FREE ENERGY PREDICTED BY IDOCK:    5.33 KCAL/MOL
REMARK 923 INTER-LIGAND FREE ENERGY PREDICTED BY IDOCK:    5.55 KCAL/MOL
REMARK 924 INTRA-LIGAND FREE ENERGY PREDICTED BY IDOCK:   -0.23 KCAL/MOL
REMARK 927      BINDING AFFINITY PREDICTED BY RF-SCORE:    0.00 PKD
ROOT
HETATM    1  C   UNL     1      -5.263  14.122  68.015  1.00  0.00    -0.100 C  
HETATM    2  S   UNL     1      -5.944  14.653  69.564  1.00  0.00    -0.115 S  
HETATM    3  O   UNL     1      -5.133  14.085  70.623  1.00  0.00    -0.097 OA 
HETATM    4  O   UNL     1      -7.375  14.438  69.513  1.00  0.00    -0.107 OA 
ENDROOT
BRANCH   2   5
HETATM    5  C   UNL     1      -5.646  16.406  69.516  1.00  0.00    -0.150 C  
BRANCH   5   6
HETATM    6  C   UNL     1      -6.031  16.997  68.167  1.00  0.00    -0.123 C  
BRANCH   6   7
HETATM    7  N   UNL     1      -7.380  16.623  67.732  1.00  0.00    -0.144 NA 
HETATM    8  H   UNL     1      -8.010  17.424  67.774  1.00  0.00     0.000 HD 
BRANCH   7   9
HETATM    9  C   UNL     1      -7.414  16.007  66.404  1.00  0.00     0.193 C  
BRANCH   9  10
HETATM   10  C   UNL     1      -8.669  15.233  66.223  1.00  0.00    -0.153 A  
HETATM   11  C   UNL     1      -9.938  15.573  65.807  1.00  0.00    -0.391 A  
HETATM   12  C   UNL     1     -10.701  14.382  65.845  1.00  0.00    -0.308 A  
HETATM   13  C   UNL     1      -9.851  13.377  66.260  1.00  0.00    -0.290 A  
HETATM   14  O   UNL     1      -8.608  13.899  66.483  1.00  0.00    -0.024 OA 
BRANCH  13  15
HETATM   15  C   UNL     1      -9.991  11.947  66.499  1.00  0.00    -0.225 A  
HETATM   16  C   UNL     1     -10.254  11.447  67.782  1.00  0.00    -0.202 A  
HETATM   17  C   UNL     1     -10.382  10.053  68.021  1.00  0.00    -0.238 A  
HETATM   18  C   UNL     1     -10.241   9.156  66.950  1.00  0.00    -0.266 A  
HETATM   19  C   UNL     1      -9.982   9.656  65.689  1.00  0.00    -0.321 A  
HETATM   20  N   UNL     1     -10.328   7.833  67.076  1.00  0.00    -0.310 NA 
HETATM   21  C   UNL     1     -10.538   7.372  68.306  1.00  0.00    -0.157 A  
HETATM   22  C   UNL     1      -9.858  11.027  65.457  1.00  0.00    -0.292 A  
HETATM   23  N   UNL     1     -10.677   8.117  69.400  1.00  0.00    -0.199 NA 
HETATM   24  C   UNL     1     -10.613   9.451  69.274  1.00  0.00    -0.225 A  
BRANCH  24  25
HETATM   25  N   UNL     1     -10.693  10.269  70.439  1.00  0.00    -0.416 NA 
HETATM   26  H   UNL     1     -10.010  10.068  71.169  1.00  0.00     0.000 HD 
BRANCH  25  27
HETATM   27  C   UNL     1     -11.595  11.323  70.714  1.00  0.00     0.135 A  
HETATM   28  C   UNL     1     -11.511  12.121  71.854  1.00  0.00     4.106 A  
HETATM   29  C   UNL     1     -12.346  13.221  72.067  1.00  0.00     0.387 A  
HETATM   30  C   UNL     1     -13.292  13.574  71.097  1.00  0.00    -0.071 A  
HETATM   31 CL   UNL     1     -12.109  13.998  73.597  1.00  0.00     0.700 Cl 
HETATM   32  C   UNL     1     -13.433  12.740  69.978  1.00  0.00     2.059 A  
HETATM   33  C   UNL     1     -12.599  11.626  69.791  1.00  0.00     0.037 A  
BRANCH  30  34
HETATM   34  O   UNL     1     -14.142  14.653  71.083  1.00  0.00    -0.351 OA 
BRANCH  34  35
HETATM   35  C   UNL     1     -14.033  15.519  69.958  1.00  0.00     1.784 C  
BRANCH  35  36
HETATM   36  C   UNL     1     -12.638  16.070  69.814  1.00  0.00     0.416 A  
HETATM   37  C   UNL     1     -12.252  16.736  68.647  1.00  0.00     1.474 A  
HETATM   38  C   UNL     1     -10.928  17.129  68.490  1.00  0.00    -0.204 A  
HETATM   39  C   UNL     1      -9.980  16.872  69.474  1.00  0.00    -0.016 A  
HETATM   40  F   UNL     1     -10.557  17.748  67.362  1.00  0.00    -0.342 F  
HETATM   41  C   UNL     1     -10.358  16.214  70.639  1.00  0.00     0.528 A  
HETATM   42  C   UNL     1     -11.680  15.812  70.811  1.00  0.00    -0.430 A  
ENDBRANCH  35  36
ENDBRANCH  34  35
ENDBRANCH  30  34
ENDBRANCH  25  27
ENDBRANCH  24  25
ENDBRANCH  13  15
ENDBRANCH   9  10
ENDBRANCH   7   9
ENDBRANCH   6   7
ENDBRANCH   5   6
ENDBRANCH   2   5
TORSDOF 11
ENDMDL
MODEL      296
REMARK 921   NORMALIZED FREE ENERGY PREDICTED BY IDOCK:    6.90 KCAL/MOL
REMARK 922        TOTAL FREE ENERGY PREDICTED BY IDOCK:    8.59 KCAL/MOL
REMARK 923 INTER-LIGAND FREE ENERGY PREDICTED BY IDOCK:    4.72 KCAL/MOL
REMARK 924 INTRA-LIGAND FREE ENERGY PREDICTED BY IDOCK:    3.87 KCAL/MOL
REMARK 927      BINDING AFFINITY PREDICTED BY RF-SCORE:    0.00 PKD
ROOT
HETATM    1  C   UNL     1      -9.150   7.758  66.059  1.00  0.00    -0.121 C  
HETATM    2  S   UNL     1      -8.241   8.994  66.949  1.00  0.00    -0.116 S  
HETATM    3  O   UNL     1      -8.524  10.278  66.339  1.00  0.00    -0.126 OA 
HETATM    4  O   UNL     1      -6.882   8.517  67.103  1.00  0.00    -0.065 OA 
ENDROOT
BRANCH   2   5
HETATM    5  C   UNL     1      -9.026   8.952  68.544  1.00  0.00    -0.134 C  
BRANCH   5   6
HETATM    6  C   UNL     1      -8.006   8.785  69.661  1.00  0.00    -0.096 C  
BRANCH   6   7
HETATM    7  N   UNL     1      -7.029   7.722  69.402  1.00  0.00    -0.061 NA 
HETATM    8  H   UNL     1      -6.868   7.614  68.401  1.00  0.00     0.000 HD 
BRANCH   7   9
HETATM    9  C   UNL     1      -5.763   7.908  70.113  1.00  0.00    -0.023 C  
BRANCH   9  10
HETATM   10  C   UNL     1      -5.850   9.075  71.030  1.00  0.00    -0.046 A  
HETATM   11  C   UNL     1      -5.755   9.212  72.397  1.00  0.00    -0.050 A  
HETATM   12  C   UNL     1      -5.924  10.590  72.671  1.00  0.00     1.352 A  
HETATM   13  C   UNL     1      -6.090  11.221  71.455  1.00  0.00     0.939 A  
HETATM   14  O   UNL     1      -6.037  10.293  70.453  1.00  0.00    -0.084 OA 
BRANCH  13  15
HETATM   15  C   UNL     1      -6.300  12.600  71.033  1.00  0.00     1.224 A  
HETATM   16  C   UNL     1      -7.330  12.938  70.143  1.00  0.00     1.664 A  
HETATM   17  C   UNL     1      -7.532  14.280  69.723  1.00  0.00     0.253 A  
HETATM   18  C   UNL     1      -6.683  15.287  70.206  1.00  0.00     0.044 A  
HETATM   19  C   UNL     1      -5.671  14.946  71.082  1.00  0.00    -0.008 A  
HETATM   20  N   UNL     1      -6.782  16.569  69.858  1.00  0.00    -0.031 NA 
HETATM   21  C   UNL     1      -7.738  16.869  68.984  1.00  0.00    -0.199 A  
HETATM   22  C   UNL     1      -5.475  13.626  71.495  1.00  0.00    -0.211 A  
HETATM   23  N   UNL     1      -8.595  16.005  68.446  1.00  0.00    -0.178 NA 
HETATM   24  C   UNL     1      -8.514  14.717  68.811  1.00  0.00    -0.161 A  
BRANCH  24  25
HETATM   25  N   UNL     1      -9.377  13.760  68.201  1.00  0.00    -0.206 NA 
HETATM   26  H   UNL     1      -9.268  13.644  67.194  1.00  0.00     0.000 HD 
BRANCH  25  27
HETATM   27  C   UNL     1     -10.364  12.950  68.810  1.00  0.00    -0.125 A  
HETATM   28  C   UNL     1     -10.094  11.693  69.348  1.00  0.00     0.299 A  
HETATM   29  C   UNL     1     -11.055  10.945  70.034  1.00  0.00    -0.211 A  
HETATM   30  C   UNL     1     -12.337  11.471  70.228  1.00  0.00    -0.273 A  
HETATM   31 CL   UNL     1     -10.504   9.379  70.529  1.00  0.00    -0.307 Cl 
HETATM   32  C   UNL     1     -12.643  12.705  69.632  1.00  0.00     0.325 A  
HETATM   33  C   UNL     1     -11.671  13.432  68.928  1.00  0.00    -0.369 A  
BRANCH  30  34
HETATM   34  O   UNL     1     -13.385  10.933  70.934  1.00  0.00    -0.120 OA 
BRANCH  34  35
HETATM   35  C   UNL     1     -13.637  11.507  72.213  1.00  0.00     0.135 C  
BRANCH  35  36
HETATM   36  C   UNL     1     -13.161  12.934  72.284  1.00  0.00    -0.421 A  
HETATM   37  C   UNL     1     -14.029  13.991  71.994  1.00  0.00    -0.598 A  
HETATM   38  C   UNL     1     -13.536  15.290  71.951  1.00  0.00    -0.475 A  
HETATM   39  C   UNL     1     -12.193  15.558  72.192  1.00  0.00    -0.488 A  
HETATM   40  F   UNL     1     -14.366  16.297  71.652  1.00  0.00     0.194 F  
HETATM   41  C   UNL     1     -11.325  14.513  72.485  1.00  0.00     0.859 A  
HETATM   42  C   UNL     1     -11.802  13.205  72.531  1.00  0.00     2.735 A  
ENDBRANCH  35  36
ENDBRANCH  34  35
ENDBRANCH  30  34
ENDBRANCH  25  27
ENDBRANCH  24  25
ENDBRANCH  13  15
ENDBRANCH   9  10
ENDBRANCH   7   9
ENDBRANCH   6   7
ENDBRANCH   5   6
ENDBRANCH   2   5
TORSDOF 11
ENDMDL
MODEL      297
REMARK 921   NORMALIZED FREE ENERGY PREDICTED BY IDOCK:    7.18 KCAL/MOL
REMARK 922        TOTAL FREE ENERGY PREDICTED BY IDOCK:    9.06 KCAL/MOL
REMARK 923 INTER-LIGAND FREE ENERGY PREDICTED BY IDOCK:   -2.49 KCAL/MOL
REMARK 924 INTRA-LIGAND FREE ENERGY PREDICTED BY IDOCK:   11.55 KCAL/MOL
REMARK 927      BINDING AFFINITY PREDICTED BY RF-SCORE:    0.00 PKD
ROOT
HETATM    1  C   UNL     1      -9.228   6.532  70.881  1.00  0.00    -0.154 C  
HETATM    2  S   UNL     1      -9.371   4.884  70.240  1.00  0.00    -0.168 S  
HETATM    3  O   UNL     1      -9.829   4.027  71.315  1.00  0.00    -0.180 OA 
HETATM    4  O   UNL     1      -8.157   4.590  69.506  1.00  0.00    -0.061 OA 
ENDROOT
BRANCH   2   5
HETATM    5  C   UNL     1     -10.697   5.059  69.066  1.00  0.00     0.340 C  
BRANCH   5   6
HETATM    6  C   UNL     1     -10.766   6.475  68.514  1.00  0.00    -0.273 C  
BRANCH   6   7
HETATM    7  N   UNL     1      -9.921   7.426  69.244  1.00  0.00    -0.169 NA 
HETATM    8  H   UNL     1     -10.341   7.668  70.143  1.00  0.00     0.000 HD 
BRANCH   7   9
HETATM    9  C   UNL     1      -8.544   6.964  69.423  1.00  0.00    -0.133 C  
BRANCH   9  10
HETATM   10  C   UNL     1      -7.586   7.982  68.918  1.00  0.00    -0.099 A  
HETATM   11  C   UNL     1      -6.626   7.968  67.930  1.00  0.00    -0.053 A  
HETATM   12  C   UNL     1      -6.039   9.256  67.929  1.00  0.00    -0.050 A  
HETATM   13  C   UNL     1      -6.688   9.991  68.900  1.00  0.00    -0.053 A  
HETATM   14  O   UNL     1      -7.638   9.211  69.498  1.00  0.00    -0.073 OA 
BRANCH  13  15
HETATM   15  C   UNL     1      -6.580  11.355  69.400  1.00  0.00    -0.119 A  
HETATM   16  C   UNL     1      -7.459  12.358  68.968  1.00  0.00     0.075 A  
HETATM   17  C   UNL     1      -7.351  13.692  69.447  1.00  0.00     0.220 A  
HETATM   18  C   UNL     1      -6.342  14.012  70.368  1.00  0.00    -0.073 A  
HETATM   19  C   UNL     1      -5.480  13.018  70.787  1.00  0.00    -0.179 A  
HETATM   20  N   UNL     1      -6.150  15.235  70.860  1.00  0.00     0.120 NA 
HETATM   21  C   UNL     1      -6.966  16.184  70.413  1.00  0.00     0.976 A  
HETATM   22  C   UNL     1      -5.589  11.708  70.317  1.00  0.00    -0.139 A  
HETATM   23  N   UNL     1      -7.950  16.009  69.534  1.00  0.00    -0.143 NA 
HETATM   24  C   UNL     1      -8.162  14.775  69.052  1.00  0.00    -0.141 A  
BRANCH  24  25
HETATM   25  N   UNL     1      -9.166  14.572  68.061  1.00  0.00    -0.184 NA 
HETATM   26  H   UNL     1      -9.832  15.335  67.942  1.00  0.00     0.000 HD 
BRANCH  25  27
HETATM   27  C   UNL     1      -9.358  13.452  67.219  1.00  0.00    -0.233 A  
HETATM   28  C   UNL     1      -9.497  12.151  67.700  1.00  0.00    -0.187 A  
HETATM   29  C   UNL     1      -9.785  11.066  66.867  1.00  0.00    -0.188 A  
HETATM   30  C   UNL     1      -9.976  11.273  65.496  1.00  0.00    -0.247 A  
HETATM   31 CL   UNL     1      -9.819   9.540  67.687  1.00  0.00    -0.192 Cl 
HETATM   32  C   UNL     1      -9.772  12.566  64.989  1.00  0.00    -0.014 A  
HETATM   33  C   UNL     1      -9.462  13.640  65.838  1.00  0.00    -0.057 A  
BRANCH  30  34
HETATM   34  O   UNL     1     -10.339  10.362  64.535  1.00  0.00    -0.311 OA 
BRANCH  34  35
HETATM   35  C   UNL     1      -9.358  10.080  63.541  1.00  0.00    -0.256 C  
BRANCH  35  36
HETATM   36  C   UNL     1      -8.840   8.671  63.658  1.00  0.00     0.245 A  
HETATM   37  C   UNL     1      -8.867   8.001  64.884  1.00  0.00     0.190 A  
HETATM   38  C   UNL     1      -8.276   6.747  64.993  1.00  0.00    -0.096 A  
HETATM   39  C   UNL     1      -7.657   6.147  63.902  1.00  0.00    -0.089 A  
HETATM   40  F   UNL     1      -8.285   6.117  66.175  1.00  0.00    -0.105 F  
HETATM   41  C   UNL     1      -7.630   6.805  62.678  1.00  0.00    -0.095 A  
HETATM   42  C   UNL     1      -8.216   8.062  62.553  1.00  0.00    -0.145 A  
ENDBRANCH  35  36
ENDBRANCH  34  35
ENDBRANCH  30  34
ENDBRANCH  25  27
ENDBRANCH  24  25
ENDBRANCH  13  15
ENDBRANCH   9  10
ENDBRANCH   7   9
ENDBRANCH   6   7
ENDBRANCH   5   6
ENDBRANCH   2   5
TORSDOF 11
ENDMDL
MODEL      298
REMARK 921   NORMALIZED FREE ENERGY PREDICTED BY IDOCK:    8.00 KCAL/MOL
REMARK 922        TOTAL FREE ENERGY PREDICTED BY IDOCK:   10.40 KCAL/MOL
REMARK 923 INTER-LIGAND FREE ENERGY PREDICTED BY IDOCK:    5.12 KCAL/MOL
REMARK 924 INTRA-LIGAND FREE ENERGY PREDICTED BY IDOCK:    5.29 KCAL/MOL
REMARK 927      BINDING AFFINITY PREDICTED BY RF-SCORE:    0.00 PKD
ROOT
HETATM    1  C   UNL     1     -12.555  14.564  64.992  1.00  0.00    -0.242 C  
HETATM    2  S   UNL     1     -12.249  12.830  64.778  1.00  0.00    -0.478 S  
HETATM    3  O   UNL     1     -11.010  12.685  64.041  1.00  0.00    -0.349 OA 
HETATM    4  O   UNL     1     -13.478  12.220  64.314  1.00  0.00    -0.653 OA 
ENDROOT
BRANCH   2   5
HETATM    5  C   UNL     1     -11.966  12.297  66.451  1.00  0.00    -0.209 C  
BRANCH   5   6
HETATM    6  C   UNL     1     -12.467  13.326  67.454  1.00  0.00     0.209 C  
BRANCH   6   7
HETATM    7  N   UNL     1     -11.472  14.352  67.783  1.00  0.00    -0.318 NA 
HETATM    8  H   UNL     1     -11.772  15.268  67.448  1.00  0.00     0.000 HD 
BRANCH   7   9
HETATM    9  C   UNL     1     -11.137  14.404  69.206  1.00  0.00    -0.271 C  
BRANCH   9  10
HETATM   10  C   UNL     1     -10.203  13.304  69.561  1.00  0.00     0.715 A  
HETATM   11  C   UNL     1      -8.830  13.195  69.569  1.00  0.00     1.519 A  
HETATM   12  C   UNL     1      -8.538  11.883  70.009  1.00  0.00     2.872 A  
HETATM   13  C   UNL     1      -9.748  11.270  70.267  1.00  0.00     2.209 A  
HETATM   14  O   UNL     1     -10.763  12.144  69.998  1.00  0.00     0.518 OA 
BRANCH  13  15
HETATM   15  C   UNL     1     -10.152   9.953  70.741  1.00  0.00    -0.073 A  
HETATM   16  C   UNL     1     -10.444   8.917  69.844  1.00  0.00    -0.223 A  
HETATM   17  C   UNL     1     -10.847   7.634  70.303  1.00  0.00    -0.253 A  
HETATM   18  C   UNL     1     -10.957   7.400  71.682  1.00  0.00    -0.225 A  
HETATM   19  C   UNL     1     -10.667   8.426  72.559  1.00  0.00    -0.372 A  
HETATM   20  N   UNL     1     -11.342   6.238  72.208  1.00  0.00    -0.280 NA 
HETATM   21  C   UNL     1     -11.654   5.276  71.344  1.00  0.00     0.732 A  
HETATM   22  C   UNL     1     -10.270   9.686  72.106  1.00  0.00     1.501 A  
HETATM   23  N   UNL     1     -11.602   5.379  70.018  1.00  0.00     1.168 NA 
HETATM   24  C   UNL     1     -11.192   6.539  69.484  1.00  0.00    -0.372 A  
BRANCH  24  25
HETATM   25  N   UNL     1     -11.191   6.697  68.068  1.00  0.00    -0.558 NA 
HETATM   26  H   UNL     1     -11.888   6.154  67.560  1.00  0.00     0.000 HD 
BRANCH  25  27
HETATM   27  C   UNL     1     -10.348   7.509  67.274  1.00  0.00    -0.296 A  
HETATM   28  C   UNL     1     -10.094   8.851  67.556  1.00  0.00    -0.285 A  
HETATM   29  C   UNL     1      -9.183   9.615  66.822  1.00  0.00    -0.149 A  
HETATM   30  C   UNL     1      -8.462   9.026  65.777  1.00  0.00    -0.141 A  
HETATM   31 CL   UNL     1      -9.109  11.277  67.307  1.00  0.00    -0.154 Cl 
HETATM   32  C   UNL     1      -8.758   7.696  65.438  1.00  0.00    -0.029 A  
HETATM   33  C   UNL     1      -9.692   6.949  66.173  1.00  0.00     0.047 A  
BRANCH  30  34
HETATM   34  O   UNL     1      -7.477   9.580  64.997  1.00  0.00    -0.103 OA 
BRANCH  34  35
HETATM   35  C   UNL     1      -6.858  10.755  65.513  1.00  0.00     0.015 C  
BRANCH  35  36
HETATM   36  C   UNL     1      -6.307  10.529  66.896  1.00  0.00    -0.074 A  
HETATM   37  C   UNL     1      -6.579   9.345  67.588  1.00  0.00    -0.063 A  
HETATM   38  C   UNL     1      -6.160   9.210  68.906  1.00  0.00    -0.044 A  
HETATM   39  C   UNL     1      -5.473  10.233  69.551  1.00  0.00    -0.038 A  
HETATM   40  F   UNL     1      -6.441   8.083  69.572  1.00  0.00    -0.033 F  
HETATM   41  C   UNL     1      -5.196  11.412  68.868  1.00  0.00    -0.040 A  
HETATM   42  C   UNL     1      -5.610  11.563  67.548  1.00  0.00    -0.062 A  
ENDBRANCH  35  36
ENDBRANCH  34  35
ENDBRANCH  30  34
ENDBRANCH  25  27
ENDBRANCH  24  25
ENDBRANCH  13  15
ENDBRANCH   9  10
ENDBRANCH   7   9
ENDBRANCH   6   7
ENDBRANCH   5   6
ENDBRANCH   2   5
TORSDOF 11
ENDMDL
MODEL      299
REMARK 921   NORMALIZED FREE ENERGY PREDICTED BY IDOCK:    9.18 KCAL/MOL
REMARK 922        TOTAL FREE ENERGY PREDICTED BY IDOCK:   12.34 KCAL/MOL
REMARK 923 INTER-LIGAND FREE ENERGY PREDICTED BY IDOCK:    9.66 KCAL/MOL
REMARK 924 INTRA-LIGAND FREE ENERGY PREDICTED BY IDOCK:    2.68 KCAL/MOL
REMARK 927      BINDING AFFINITY PREDICTED BY RF-SCORE:    0.00 PKD
ROOT
HETATM    1  C   UNL     1      -9.176   6.759  67.379  1.00  0.00    -0.127 C  
HETATM    2  S   UNL     1     -10.198   6.631  68.823  1.00  0.00    -0.183 S  
HETATM    3  O   UNL     1      -9.400   6.047  69.882  1.00  0.00    -0.145 OA 
HETATM    4  O   UNL     1     -11.460   6.046  68.420  1.00  0.00    -0.053 OA 
ENDROOT
BRANCH   2   5
HETATM    5  C   UNL     1     -10.485   8.341  69.224  1.00  0.00    -0.210 C  
BRANCH   5   6
HETATM    6  C   UNL     1     -11.103   9.090  68.051  1.00  0.00     0.228 C  
BRANCH   6   7
HETATM    7  N   UNL     1     -10.984  10.547  68.165  1.00  0.00    -0.256 NA 
HETATM    8  H   UNL     1     -10.768  10.819  69.124  1.00  0.00     0.000 HD 
BRANCH   7   9
HETATM    9  C   UNL     1     -10.017  11.127  67.232  1.00  0.00    -0.184 C  
BRANCH   9  10
HETATM   10  C   UNL     1      -8.705  11.326  67.901  1.00  0.00    -0.138 A  
HETATM   11  C   UNL     1      -7.650  10.485  68.180  1.00  0.00    -0.091 A  
HETATM   12  C   UNL     1      -6.678  11.274  68.841  1.00  0.00    -0.081 A  
HETATM   13  C   UNL     1      -7.184  12.557  68.908  1.00  0.00    -0.050 A  
HETATM   14  O   UNL     1      -8.421  12.586  68.327  1.00  0.00    -0.169 OA 
BRANCH  13  15
HETATM   15  C   UNL     1      -6.704  13.824  69.443  1.00  0.00    -0.079 A  
HETATM   16  C   UNL     1      -7.324  15.035  69.109  1.00  0.00    -0.164 A  
HETATM   17  C   UNL     1      -6.852  16.274  69.621  1.00  0.00    -0.125 A  
HETATM   18  C   UNL     1      -5.741  16.284  70.478  1.00  0.00    -0.043 A  
HETATM   19  C   UNL     1      -5.135  15.086  70.802  1.00  0.00    -0.130 A  
HETATM   20  N   UNL     1      -5.216  17.394  70.995  1.00  0.00    -0.295 NA 
HETATM   21  C   UNL     1      -5.791  18.539  70.638  1.00  0.00    -0.001 A  
HETATM   22  C   UNL     1      -5.602  13.871  70.299  1.00  0.00    -0.128 A  
HETATM   23  N   UNL     1      -6.839  18.660  69.827  1.00  0.00     0.000 NA 
HETATM   24  C   UNL     1      -7.386  17.544  69.321  1.00  0.00    -0.043 A  
BRANCH  24  25
HETATM   25  N   UNL     1      -8.466  17.649  68.398  1.00  0.00    -0.280 NA 
HETATM   26  H   UNL     1      -8.378  18.382  67.694  1.00  0.00     0.000 HD 
BRANCH  25  27
HETATM   27  C   UNL     1      -9.644  16.869  68.330  1.00  0.00    -0.258 A  
HETATM   28  C   UNL     1     -10.806  17.178  69.036  1.00  0.00    -0.129 A  
HETATM   29  C   UNL     1     -11.993  16.457  68.884  1.00  0.00     0.240 A  
HETATM   30  C   UNL     1     -12.054  15.399  67.971  1.00  0.00     0.191 A  
HETATM   31 CL   UNL     1     -13.269  16.977  69.935  1.00  0.00     6.232 Cl 
HETATM   32  C   UNL     1     -10.873  15.033  67.305  1.00  0.00    -0.310 A  
HETATM   33  C   UNL     1      -9.683  15.756  67.485  1.00  0.00    -0.226 A  
BRANCH  30  34
HETATM   34  O   UNL     1     -13.135  14.628  67.624  1.00  0.00     1.461 OA 
BRANCH  34  35
HETATM   35  C   UNL     1     -13.625  13.749  68.633  1.00  0.00     5.497 C  
BRANCH  35  36
HETATM   36  C   UNL     1     -13.040  14.072  69.982  1.00  0.00     0.392 A  
HETATM   37  C   UNL     1     -13.818  14.690  70.966  1.00  0.00    -0.232 A  
HETATM   38  C   UNL     1     -13.225  15.085  72.159  1.00  0.00    -0.368 A  
HETATM   39  C   UNL     1     -11.870  14.877  72.393  1.00  0.00    -0.359 A  
HETATM   40  F   UNL     1     -13.968  15.696  73.091  1.00  0.00    -0.562 F  
HETATM   41  C   UNL     1     -11.091  14.260  71.420  1.00  0.00     1.138 A  
HETATM   42  C   UNL     1     -11.670  13.860  70.219  1.00  0.00    -0.294 A  
ENDBRANCH  35  36
ENDBRANCH  34  35
ENDBRANCH  30  34
ENDBRANCH  25  27
ENDBRANCH  24  25
ENDBRANCH  13  15
ENDBRANCH   9  10
ENDBRANCH   7   9
ENDBRANCH   6   7
ENDBRANCH   5   6
ENDBRANCH   2   5
TORSDOF 11
ENDMDL
MODEL      300
REMARK 921   NORMALIZED FREE ENERGY PREDICTED BY IDOCK:   10.38 KCAL/MOL
REMARK 922        TOTAL FREE ENERGY PREDICTED BY IDOCK:   14.30 KCAL/MOL
REMARK 923 INTER-LIGAND FREE ENERGY PREDICTED BY IDOCK:   14.03 KCAL/MOL
REMARK 924 INTRA-LIGAND FREE ENERGY PREDICTED BY IDOCK:    0.27 KCAL/MOL
REMARK 927      BINDING AFFINITY PREDICTED BY RF-SCORE:    0.00 PKD
ROOT
HETATM    1  C   UNL     1      -9.402  16.710  65.897  1.00  0.00    -0.157 C  
HETATM    2  S   UNL     1     -10.746  16.083  66.870  1.00  0.00    -0.209 S  
HETATM    3  O   UNL     1     -11.774  17.103  66.917  1.00  0.00     1.052 OA 
HETATM    4  O   UNL     1     -10.188  15.520  68.083  1.00  0.00    -0.223 OA 
ENDROOT
BRANCH   2   5
HETATM    5  C   UNL     1     -11.338  14.743  65.861  1.00  0.00    -0.331 C  
BRANCH   5   6
HETATM    6  C   UNL     1     -11.021  14.973  64.390  1.00  0.00    -0.026 C  
BRANCH   6   7
HETATM    7  N   UNL     1      -9.909  14.152  63.900  1.00  0.00     0.581 NA 
HETATM    8  H   UNL     1      -9.141  14.144  64.572  1.00  0.00     0.000 HD 
BRANCH   7   9
HETATM    9  C   UNL     1     -10.304  12.788  63.547  1.00  0.00     0.027 C  
BRANCH   9  10
HETATM   10  C   UNL     1      -9.585  11.804  64.397  1.00  0.00    -0.061 A  
HETATM   11  C   UNL     1      -9.433  10.436  64.336  1.00  0.00    -0.343 A  
HETATM   12  C   UNL     1      -8.626  10.076  65.442  1.00  0.00    -0.162 A  
HETATM   13  C   UNL     1      -8.311  11.247  66.103  1.00  0.00    -0.111 A  
HETATM   14  O   UNL     1      -8.893  12.301  65.457  1.00  0.00     0.267 OA 
BRANCH  13  15
HETATM   15  C   UNL     1      -7.528  11.580  67.285  1.00  0.00    -0.139 A  
HETATM   16  C   UNL     1      -7.969  11.232  68.569  1.00  0.00    -0.145 A  
HETATM   17  C   UNL     1      -7.212  11.563  69.726  1.00  0.00     0.268 A  
HETATM   18  C   UNL     1      -6.000  12.255  69.579  1.00  0.00    -0.110 A  
HETATM   19  C   UNL     1      -5.573  12.595  68.310  1.00  0.00    -0.063 A  
HETATM   20  N   UNL     1      -5.230  12.624  70.601  1.00  0.00    -0.122 NA 
HETATM   21  C   UNL     1      -5.680  12.321  71.816  1.00  0.00     0.793 A  
HETATM   22  C   UNL     1      -6.318  12.267  67.176  1.00  0.00    -0.117 A  
HETATM   23  N   UNL     1      -6.815  11.680  72.084  1.00  0.00     5.052 NA 
HETATM   24  C   UNL     1      -7.582  11.286  71.057  1.00  0.00     4.425 A  
BRANCH  24  25
HETATM   25  N   UNL     1      -8.834  10.657  71.319  1.00  0.00     2.997 NA 
HETATM   26  H   UNL     1      -9.204  10.780  72.261  1.00  0.00     0.000 HD 
BRANCH  25  27
HETATM   27  C   UNL     1      -9.631   9.885  70.442  1.00  0.00    -0.056 A  
HETATM   28  C   UNL     1     -10.314  10.427  69.354  1.00  0.00    -0.259 A  
HETATM   29  C   UNL     1     -11.018   9.640  68.439  1.00  0.00    -0.113 A  
HETATM   30  C   UNL     1     -11.027   8.247  68.581  1.00  0.00     0.212 A  
HETATM   31 CL   UNL     1     -11.857  10.551  67.227  1.00  0.00     0.754 Cl 
HETATM   32  C   UNL     1     -10.402   7.694  69.709  1.00  0.00    -0.223 A  
HETATM   33  C   UNL     1      -9.718   8.502  70.630  1.00  0.00    -0.207 A  
BRANCH  30  34
HETATM   34  O   UNL     1     -11.587   7.306  67.753  1.00  0.00     0.471 OA 
BRANCH  34  35
HETATM   35  C   UNL     1     -11.558   5.962  68.225  1.00  0.00     1.217 C  
BRANCH  35  36
HETATM   36  C   UNL     1     -10.238   5.299  67.931  1.00  0.00    -0.203 A  
HETATM   37  C   UNL     1      -9.412   4.864  68.972  1.00  0.00    -0.205 A  
HETATM   38  C   UNL     1      -8.148   4.364  68.680  1.00  0.00    -0.077 A  
HETATM   39  C   UNL     1      -7.690   4.289  67.369  1.00  0.00    -0.084 A  
HETATM   40  F   UNL     1      -7.352   3.968  69.680  1.00  0.00    -0.047 F  
HETATM   41  C   UNL     1      -8.508   4.716  66.329  1.00  0.00    -0.113 A  
HETATM   42  C   UNL     1      -9.776   5.221  66.605  1.00  0.00    -0.177 A  
ENDBRANCH  35  36
ENDBRANCH  34  35
ENDBRANCH  30  34
ENDBRANCH  25  27
ENDBRANCH  24  25
ENDBRANCH  13  15
ENDBRANCH   9  10
ENDBRANCH   7   9
ENDBRANCH   6   7
ENDBRANCH   5   6
ENDBRANCH   2   5
TORSDOF 11
ENDMDL
MODEL      301
REMARK 921   NORMALIZED FREE ENERGY PREDICTED BY IDOCK:   13.16 KCAL/MOL
REMARK 922        TOTAL FREE ENERGY PREDICTED BY IDOCK:   18.88 KCAL/MOL
REMARK 923 INTER-LIGAND FREE ENERGY PREDICTED BY IDOCK:   17.15 KCAL/MOL
REMARK 924 INTRA-LIGAND FREE ENERGY PREDICTED BY IDOCK:    1.73 KCAL/MOL
REMARK 927      BINDING AFFINITY PREDICTED BY RF-SCORE:    0.00 PKD
ROOT
HETATM    1  C   UNL     1     -13.008  16.449  67.297  1.00  0.00     4.523 C  
HETATM    2  S   UNL     1     -11.981  17.617  68.151  1.00  0.00     2.846 S  
HETATM    3  O   UNL     1     -11.463  16.968  69.338  1.00  0.00     0.296 OA 
HETATM    4  O   UNL     1     -12.709  18.867  68.231  1.00  0.00     4.769 OA 
ENDROOT
BRANCH   2   5
HETATM    5  C   UNL     1     -10.638  17.833  67.005  1.00  0.00    -0.262 C  
BRANCH   5   6
HETATM    6  C   UNL     1      -9.490  16.881  67.308  1.00  0.00    -0.242 C  
BRANCH   6   7
HETATM    7  N   UNL     1      -8.226  17.273  66.676  1.00  0.00    -0.240 NA 
HETATM    8  H   UNL     1      -7.529  17.515  67.380  1.00  0.00     0.000 HD 
BRANCH   7   9
HETATM    9  C   UNL     1      -7.701  16.268  65.750  1.00  0.00     1.248 C  
BRANCH   9  10
HETATM   10  C   UNL     1      -8.756  15.279  65.406  1.00  0.00     1.756 A  
HETATM   11  C   UNL     1     -10.110  15.383  65.177  1.00  0.00    -0.299 A  
HETATM   12  C   UNL     1     -10.566  14.074  64.891  1.00  0.00    -0.442 A  
HETATM   13  C   UNL     1      -9.461  13.247  64.938  1.00  0.00     0.537 A  
HETATM   14  O   UNL     1      -8.356  13.989  65.247  1.00  0.00     2.926 OA 
BRANCH  13  15
HETATM   15  C   UNL     1      -9.236  11.822  64.740  1.00  0.00     0.174 A  
HETATM   16  C   UNL     1      -8.886  10.986  65.810  1.00  0.00    -0.200 A  
HETATM   17  C   UNL     1      -8.656   9.597  65.618  1.00  0.00    -0.149 A  
HETATM   18  C   UNL     1      -8.780   9.051  64.331  1.00  0.00    -0.118 A  
HETATM   19  C   UNL     1      -9.124   9.881  63.283  1.00  0.00    -0.294 A  
HETATM   20  N   UNL     1      -8.569   7.767  64.049  1.00  0.00     0.243 NA 
HETATM   21  C   UNL     1      -8.200   6.994  65.067  1.00  0.00    -0.090 A  
HETATM   22  C   UNL     1      -9.351  11.246  63.474  1.00  0.00    -0.217 A  
HETATM   23  N   UNL     1      -8.038   7.394  66.325  1.00  0.00    -0.112 NA 
HETATM   24  C   UNL     1      -8.272   8.682  66.619  1.00  0.00    -0.107 A  
BRANCH  24  25
HETATM   25  N   UNL     1      -8.042   9.151  67.945  1.00  0.00    -0.105 NA 
HETATM   26  H   UNL     1      -7.474   8.546  68.537  1.00  0.00     0.000 HD 
BRANCH  25  27
HETATM   27  C   UNL     1      -8.498  10.347  68.547  1.00  0.00    -0.129 A  
HETATM   28  C   UNL     1      -7.653  11.246  69.196  1.00  0.00    -0.070 A  
HETATM   29  C   UNL     1      -8.100  12.470  69.700  1.00  0.00     1.542 A  
HETATM   30  C   UNL     1      -9.438  12.845  69.532  1.00  0.00     1.494 A  
HETATM   31 CL   UNL     1      -6.882  13.370  70.542  1.00  0.00     0.722 Cl 
HETATM   32  C   UNL     1     -10.314  11.921  68.943  1.00  0.00    -0.131 A  
HETATM   33  C   UNL     1      -9.852  10.686  68.461  1.00  0.00    -0.175 A  
BRANCH  30  34
HETATM   34  O   UNL     1     -10.047  14.025  69.882  1.00  0.00     0.533 OA 
BRANCH  34  35
HETATM   35  C   UNL     1     -11.425  14.143  69.540  1.00  0.00    -0.281 C  
BRANCH  35  36
HETATM   36  C   UNL     1     -12.253  14.587  70.717  1.00  0.00    -0.403 A  
HETATM   37  C   UNL     1     -11.657  15.233  71.804  1.00  0.00    -0.498 A  
HETATM   38  C   UNL     1     -12.419  15.527  72.929  1.00  0.00    -0.424 A  
HETATM   39  C   UNL     1     -13.767  15.189  72.992  1.00  0.00    -0.390 A  
HETATM   40  F   UNL     1     -11.841  16.127  73.976  1.00  0.00    -0.452 F  
HETATM   41  C   UNL     1     -14.367  14.549  71.913  1.00  0.00    -0.647 A  
HETATM   42  C   UNL     1     -13.616  14.247  70.780  1.00  0.00     0.017 A  
ENDBRANCH  35  36
ENDBRANCH  34  35
ENDBRANCH  30  34
ENDBRANCH  25  27
ENDBRANCH  24  25
ENDBRANCH  13  15
ENDBRANCH   9  10
ENDBRANCH   7   9
ENDBRANCH   6   7
ENDBRANCH   5   6
ENDBRANCH   2   5
TORSDOF 11
ENDMDL
MODEL      302
REMARK 921   NORMALIZED FREE ENERGY PREDICTED BY IDOCK:   13.38 KCAL/MOL
REMARK 922        TOTAL FREE ENERGY PREDICTED BY IDOCK:   19.24 KCAL/MOL
REMARK 923 INTER-LIGAND FREE ENERGY PREDICTED BY IDOCK:   14.70 KCAL/MOL
REMARK 924 INTRA-LIGAND FREE ENERGY PREDICTED BY IDOCK:    4.55 KCAL/MOL
REMARK 927      BINDING AFFINITY PREDICTED BY RF-SCORE:    0.00 PKD
ROOT
HETATM    1  C   UNL     1      -9.245  18.586  70.903  1.00  0.00     4.743 C  
HETATM    2  S   UNL     1     -10.630  17.688  71.555  1.00  0.00     3.568 S  
HETATM    3  O   UNL     1     -11.244  18.503  72.583  1.00  0.00     1.874 OA 
HETATM    4  O   UNL     1     -10.188  16.335  71.828  1.00  0.00     2.240 OA 
ENDROOT
BRANCH   2   5
HETATM    5  C   UNL     1     -11.728  17.638  70.156  1.00  0.00     3.802 C  
BRANCH   5   6
HETATM    6  C   UNL     1     -10.957  17.529  68.848  1.00  0.00     0.252 C  
BRANCH   6   7
HETATM    7  N   UNL     1      -9.589  17.030  69.019  1.00  0.00    -0.234 NA 
HETATM    8  H   UNL     1      -8.955  17.789  69.270  1.00  0.00     0.000 HD 
BRANCH   7   9
HETATM    9  C   UNL     1      -9.486  15.930  69.979  1.00  0.00     0.294 C  
BRANCH   9  10
HETATM   10  C   UNL     1      -9.969  14.663  69.371  1.00  0.00    -0.024 A  
HETATM   11  C   UNL     1      -9.901  14.140  68.098  1.00  0.00    -0.229 A  
HETATM   12  C   UNL     1     -10.550  12.884  68.150  1.00  0.00    -0.249 A  
HETATM   13  C   UNL     1     -10.959  12.700  69.455  1.00  0.00     0.109 A  
HETATM   14  O   UNL     1     -10.596  13.786  70.200  1.00  0.00     0.544 OA 
BRANCH  13  15
HETATM   15  C   UNL     1     -11.663  11.645  70.172  1.00  0.00    -0.381 A  
HETATM   16  C   UNL     1     -10.966  10.597  70.790  1.00  0.00     0.237 A  
HETATM   17  C   UNL     1     -11.649   9.561  71.482  1.00  0.00    -0.465 A  
HETATM   18  C   UNL     1     -13.051   9.587  71.548  1.00  0.00    -0.389 A  
HETATM   19  C   UNL     1     -13.730  10.622  70.936  1.00  0.00     0.610 A  
HETATM   20  N   UNL     1     -13.781   8.654  72.158  1.00  0.00    -0.404 NA 
HETATM   21  C   UNL     1     -13.108   7.646  72.706  1.00  0.00     0.685 A  
HETATM   22  C   UNL     1     -13.056  11.639  70.258  1.00  0.00     0.457 A  
HETATM   23  N   UNL     1     -11.785   7.504  72.700  1.00  0.00    -0.271 NA 
HETATM   24  C   UNL     1     -11.044   8.452  72.107  1.00  0.00    -0.345 A  
BRANCH  24  25
HETATM   25  N   UNL     1      -9.630   8.291  72.030  1.00  0.00    -0.221 NA 
HETATM   26  H   UNL     1      -9.081   8.893  72.643  1.00  0.00     0.000 HD 
BRANCH  25  27
HETATM   27  C   UNL     1      -8.888   7.405  71.214  1.00  0.00    -0.137 A  
HETATM   28  C   UNL     1      -7.529   7.566  70.951  1.00  0.00    -0.073 A  
HETATM   29  C   UNL     1      -6.786   6.632  70.225  1.00  0.00    -0.053 A  
HETATM   30  C   UNL     1      -7.401   5.465  69.759  1.00  0.00    -0.065 A  
HETATM   31 CL   UNL     1      -5.139   7.100  69.956  1.00  0.00    -0.015 Cl 
HETATM   32  C   UNL     1      -8.783   5.323  69.956  1.00  0.00    -0.128 A  
HETATM   33  C   UNL     1      -9.519   6.282  70.669  1.00  0.00    -0.182 A  
BRANCH  30  34
HETATM   34  O   UNL     1      -6.833   4.401  69.102  1.00  0.00    -0.044 OA 
BRANCH  34  35
HETATM   35  C   UNL     1      -6.670   4.551  67.694  1.00  0.00    -0.048 C  
BRANCH  35  36
HETATM   36  C   UNL     1      -7.942   5.015  67.035  1.00  0.00    -0.103 A  
HETATM   37  C   UNL     1      -8.080   6.338  66.605  1.00  0.00    -0.110 A  
HETATM   38  C   UNL     1      -9.304   6.773  66.109  1.00  0.00    -0.051 A  
HETATM   39  C   UNL     1     -10.395   5.913  66.031  1.00  0.00     0.146 A  
HETATM   40  F   UNL     1      -9.439   8.046  65.718  1.00  0.00    -0.198 F  
HETATM   41  C   UNL     1     -10.263   4.595  66.453  1.00  0.00    -0.293 A  
HETATM   42  C   UNL     1      -9.045   4.145  66.955  1.00  0.00    -0.152 A  
ENDBRANCH  35  36
ENDBRANCH  34  35
ENDBRANCH  30  34
ENDBRANCH  25  27
ENDBRANCH  24  25
ENDBRANCH  13  15
ENDBRANCH   9  10
ENDBRANCH   7   9
ENDBRANCH   6   7
ENDBRANCH   5   6
ENDBRANCH   2   5
TORSDOF 11
ENDMDL
MODEL      303
REMARK 921   NORMALIZED FREE ENERGY PREDICTED BY IDOCK:   14.39 KCAL/MOL
REMARK 922        TOTAL FREE ENERGY PREDICTED BY IDOCK:   20.90 KCAL/MOL
REMARK 923 INTER-LIGAND FREE ENERGY PREDICTED BY IDOCK:   17.59 KCAL/MOL
REMARK 924 INTRA-LIGAND FREE ENERGY PREDICTED BY IDOCK:    3.31 KCAL/MOL
REMARK 927      BINDING AFFINITY PREDICTED BY RF-SCORE:    0.00 PKD
ROOT
HETATM    1  C   UNL     1      -8.611  13.092  65.519  1.00  0.00     1.824 C  
HETATM    2  S   UNL     1      -9.630  12.814  64.094  1.00  0.00     0.706 S  
HETATM    3  O   UNL     1     -10.538  11.727  64.403  1.00  0.00    -0.276 OA 
HETATM    4  O   UNL     1      -8.762  12.765  62.935  1.00  0.00     2.512 OA 
ENDROOT
BRANCH   2   5
HETATM    5  C   UNL     1     -10.572  14.320  64.015  1.00  0.00     0.895 C  
BRANCH   5   6
HETATM    6  C   UNL     1     -11.164  14.677  65.371  1.00  0.00    -0.347 C  
BRANCH   6   7
HETATM    7  N   UNL     1     -11.906  13.574  65.991  1.00  0.00    -0.359 NA 
HETATM    8  H   UNL     1     -11.309  12.755  66.104  1.00  0.00     0.000 HD 
BRANCH   7   9
HETATM    9  C   UNL     1     -12.535  13.937  67.261  1.00  0.00     0.003 C  
BRANCH   9  10
HETATM   10  C   UNL     1     -12.350  15.386  67.537  1.00  0.00     0.884 A  
HETATM   11  C   UNL     1     -13.114  16.330  68.188  1.00  0.00     3.760 A  
HETATM   12  C   UNL     1     -12.390  17.544  68.117  1.00  0.00     3.409 A  
HETATM   13  C   UNL     1     -11.215  17.270  67.447  1.00  0.00     0.253 A  
HETATM   14  O   UNL     1     -11.190  15.948  67.100  1.00  0.00    -0.213 OA 
BRANCH  13  15
HETATM   15  C   UNL     1     -10.052  18.052  67.050  1.00  0.00    -0.348 A  
HETATM   16  C   UNL     1      -8.773  17.749  67.535  1.00  0.00    -0.239 A  
HETATM   17  C   UNL     1      -7.638  18.516  67.157  1.00  0.00    -0.230 A  
HETATM   18  C   UNL     1      -7.802  19.600  66.281  1.00  0.00    -0.321 A  
HETATM   19  C   UNL     1      -9.066  19.893  65.808  1.00  0.00    -0.039 A  
HETATM   20  N   UNL     1      -6.804  20.387  65.883  1.00  0.00    -0.253 NA 
HETATM   21  C   UNL     1      -5.602  20.112  66.382  1.00  0.00    -0.173 A  
HETATM   22  C   UNL     1     -10.179  19.136  66.180  1.00  0.00    -0.535 A  
HETATM   23  N   UNL     1      -5.322  19.122  67.226  1.00  0.00    -0.159 NA 
HETATM   24  C   UNL     1      -6.319  18.313  67.612  1.00  0.00    -0.186 A  
BRANCH  24  25
HETATM   25  N   UNL     1      -6.059  17.286  68.566  1.00  0.00    -0.151 NA 
HETATM   26  H   UNL     1      -5.394  17.523  69.302  1.00  0.00     0.000 HD 
BRANCH  25  27
HETATM   27  C   UNL     1      -6.604  15.982  68.627  1.00  0.00    -0.123 A  
HETATM   28  C   UNL     1      -6.115  14.989  69.474  1.00  0.00    -0.117 A  
HETATM   29  C   UNL     1      -6.722  13.737  69.596  1.00  0.00    -0.015 A  
HETATM   30  C   UNL     1      -7.887  13.455  68.873  1.00  0.00     0.080 A  
HETATM   31 CL   UNL     1      -5.877  12.645  70.643  1.00  0.00    -0.150 Cl 
HETATM   32  C   UNL     1      -8.351  14.419  67.965  1.00  0.00    -0.157 A  
HETATM   33  C   UNL     1      -7.715  15.665  67.840  1.00  0.00    -0.143 A  
BRANCH  30  34
HETATM   34  O   UNL     1      -8.668  12.326  68.914  1.00  0.00     0.071 OA 
BRANCH  34  35
HETATM   35  C   UNL     1      -8.959  11.814  70.211  1.00  0.00     4.021 C  
BRANCH  35  36
HETATM   36  C   UNL     1     -10.164  10.911  70.194  1.00  0.00     0.558 A  
HETATM   37  C   UNL     1     -10.459  10.138  69.067  1.00  0.00    -0.239 A  
HETATM   38  C   UNL     1     -11.639   9.405  69.030  1.00  0.00     0.530 A  
HETATM   39  C   UNL     1     -12.533   9.425  70.095  1.00  0.00     0.468 A  
HETATM   40  F   UNL     1     -11.929   8.682  67.940  1.00  0.00     1.463 F  
HETATM   41  C   UNL     1     -12.244  10.188  71.221  1.00  0.00    -0.496 A  
HETATM   42  C   UNL     1     -11.067  10.930  71.273  1.00  0.00     1.424 A  
ENDBRANCH  35  36
ENDBRANCH  34  35
ENDBRANCH  30  34
ENDBRANCH  25  27
ENDBRANCH  24  25
ENDBRANCH  13  15
ENDBRANCH   9  10
ENDBRANCH   7   9
ENDBRANCH   6   7
ENDBRANCH   5   6
ENDBRANCH   2   5
TORSDOF 11
ENDMDL
MODEL      304
REMARK 921   NORMALIZED FREE ENERGY PREDICTED BY IDOCK:   14.60 KCAL/MOL
REMARK 922        TOTAL FREE ENERGY PREDICTED BY IDOCK:   21.24 KCAL/MOL
REMARK 923 INTER-LIGAND FREE ENERGY PREDICTED BY IDOCK:   12.39 KCAL/MOL
REMARK 924 INTRA-LIGAND FREE ENERGY PREDICTED BY IDOCK:    8.85 KCAL/MOL
REMARK 927      BINDING AFFINITY PREDICTED BY RF-SCORE:    0.00 PKD
ROOT
HETATM    1  C   UNL     1      -8.612  13.094  65.520  1.00  0.00     1.824 C  
HETATM    2  S   UNL     1      -9.623  12.809  64.091  1.00  0.00     0.706 S  
HETATM    3  O   UNL     1     -10.533  11.724  64.399  1.00  0.00    -0.271 OA 
HETATM    4  O   UNL     1      -8.750  12.755  62.936  1.00  0.00     2.512 OA 
ENDROOT
BRANCH   2   5
HETATM    5  C   UNL     1     -10.566  14.315  64.000  1.00  0.00     0.895 C  
BRANCH   5   6
HETATM    6  C   UNL     1     -11.166  14.677  65.351  1.00  0.00    -0.347 C  
BRANCH   6   7
HETATM    7  N   UNL     1     -11.910  13.575  65.971  1.00  0.00    -0.359 NA 
HETATM    8  H   UNL     1     -11.310  12.760  66.098  1.00  0.00     0.000 HD 
BRANCH   7   9
HETATM    9  C   UNL     1     -12.556  13.945  67.231  1.00  0.00     0.243 C  
BRANCH   9  10
HETATM   10  C   UNL     1     -12.384  15.397  67.495  1.00  0.00     0.884 A  
HETATM   11  C   UNL     1     -13.164  16.342  68.126  1.00  0.00     4.296 A  
HETATM   12  C   UNL     1     -12.449  17.560  68.054  1.00  0.00     3.903 A  
HETATM   13  C   UNL     1     -11.262  17.288  67.403  1.00  0.00     0.253 A  
HETATM   14  O   UNL     1     -11.223  15.963  67.070  1.00  0.00    -0.189 OA 
BRANCH  13  15
HETATM   15  C   UNL     1     -10.099  18.075  67.016  1.00  0.00    -0.348 A  
HETATM   16  C   UNL     1      -8.826  17.791  67.528  1.00  0.00    -0.243 A  
HETATM   17  C   UNL     1      -7.691  18.562  67.159  1.00  0.00    -0.232 A  
HETATM   18  C   UNL     1      -7.849  19.632  66.264  1.00  0.00    -0.321 A  
HETATM   19  C   UNL     1      -9.107  19.906  65.764  1.00  0.00    -0.039 A  
HETATM   20  N   UNL     1      -6.850  20.422  65.872  1.00  0.00    -0.253 NA 
HETATM   21  C   UNL     1      -5.656  20.165  66.396  1.00  0.00    -0.173 A  
HETATM   22  C   UNL     1     -10.219  19.145  66.128  1.00  0.00    -0.535 A  
HETATM   23  N   UNL     1      -5.382  19.190  67.260  1.00  0.00    -0.159 NA 
HETATM   24  C   UNL     1      -6.379  18.377  67.640  1.00  0.00    -0.191 A  
BRANCH  24  25
HETATM   25  N   UNL     1      -6.128  17.367  68.614  1.00  0.00    -0.167 NA 
HETATM   26  H   UNL     1      -5.473  17.619  69.354  1.00  0.00     0.000 HD 
BRANCH  25  27
HETATM   27  C   UNL     1      -6.667  16.062  68.688  1.00  0.00    -0.125 A  
HETATM   28  C   UNL     1      -6.970  15.296  67.564  1.00  0.00    -0.225 A  
HETATM   29  C   UNL     1      -7.410  13.973  67.650  1.00  0.00    -0.175 A  
HETATM   30  C   UNL     1      -7.530  13.359  68.902  1.00  0.00    -0.010 A  
HETATM   31 CL   UNL     1      -7.805  13.263  66.119  1.00  0.00     1.557 Cl 
HETATM   32  C   UNL     1      -7.296  14.139  70.045  1.00  0.00     0.440 A  
HETATM   33  C   UNL     1      -6.875  15.475  69.940  1.00  0.00    -0.093 A  
BRANCH  30  34
HETATM   34  O   UNL     1      -7.867  12.060  69.190  1.00  0.00     0.066 OA 
BRANCH  34  35
HETATM   35  C   UNL     1      -7.234  11.060  68.397  1.00  0.00    -0.085 C  
BRANCH  35  36
HETATM   36  C   UNL     1      -7.275   9.712  69.068  1.00  0.00    -0.071 A  
HETATM   37  C   UNL     1      -8.347   9.359  69.893  1.00  0.00    -0.174 A  
HETATM   38  C   UNL     1      -8.306   8.159  70.594  1.00  0.00    -0.123 A  
HETATM   39  C   UNL     1      -7.216   7.302  70.488  1.00  0.00    -0.066 A  
HETATM   40  F   UNL     1      -9.324   7.835  71.401  1.00  0.00    -0.141 F  
HETATM   41  C   UNL     1      -6.149   7.644  69.666  1.00  0.00    -0.030 A  
HETATM   42  C   UNL     1      -6.174   8.843  68.958  1.00  0.00    -0.044 A  
ENDBRANCH  35  36
ENDBRANCH  34  35
ENDBRANCH  30  34
ENDBRANCH  25  27
ENDBRANCH  24  25
ENDBRANCH  13  15
ENDBRANCH   9  10
ENDBRANCH   7   9
ENDBRANCH   6   7
ENDBRANCH   5   6
ENDBRANCH   2   5
TORSDOF 11
ENDMDL
MODEL      305
REMARK 921   NORMALIZED FREE ENERGY PREDICTED BY IDOCK:   17.41 KCAL/MOL
REMARK 922        TOTAL FREE ENERGY PREDICTED BY IDOCK:   25.86 KCAL/MOL
REMARK 923 INTER-LIGAND FREE ENERGY PREDICTED BY IDOCK:   23.07 KCAL/MOL
REMARK 924 INTRA-LIGAND FREE ENERGY PREDICTED BY IDOCK:    2.79 KCAL/MOL
REMARK 927      BINDING AFFINITY PREDICTED BY RF-SCORE:    0.00 PKD
ROOT
HETATM    1  C   UNL     1      -8.792   7.719  67.639  1.00  0.00    -0.128 C  
HETATM    2  S   UNL     1      -9.755   7.505  69.113  1.00  0.00    -0.169 S  
HETATM    3  O   UNL     1      -8.886   6.963  70.137  1.00  0.00    -0.144 OA 
HETATM    4  O   UNL     1     -10.988   6.841  68.741  1.00  0.00    -0.239 OA 
ENDROOT
BRANCH   2   5
HETATM    5  C   UNL     1     -10.144   9.186  69.546  1.00  0.00    -0.197 C  
BRANCH   5   6
HETATM    6  C   UNL     1     -11.056   9.830  68.512  1.00  0.00    -0.087 C  
BRANCH   6   7
HETATM    7  N   UNL     1     -11.047  11.296  68.560  1.00  0.00    -0.214 NA 
HETATM    8  H   UNL     1     -10.296  11.633  69.164  1.00  0.00     0.000 HD 
BRANCH   7   9
HETATM    9  C   UNL     1     -10.971  11.921  67.239  1.00  0.00    -0.268 C  
BRANCH   9  10
HETATM   10  C   UNL     1      -9.559  12.224  66.889  1.00  0.00    -0.213 A  
HETATM   11  C   UNL     1      -8.531  11.468  66.369  1.00  0.00    -0.138 A  
HETATM   12  C   UNL     1      -7.416  12.334  66.262  1.00  0.00     0.822 A  
HETATM   13  C   UNL     1      -7.832  13.575  66.701  1.00  0.00     0.738 A  
HETATM   14  O   UNL     1      -9.144  13.506  67.077  1.00  0.00    -0.228 OA 
BRANCH  13  15
HETATM   15  C   UNL     1      -7.199  14.880  66.842  1.00  0.00     0.455 A  
HETATM   16  C   UNL     1      -7.956  16.030  67.103  1.00  0.00    -0.234 A  
HETATM   17  C   UNL     1      -7.342  17.305  67.232  1.00  0.00    -0.189 A  
HETATM   18  C   UNL     1      -5.950  17.415  67.095  1.00  0.00    -0.143 A  
HETATM   19  C   UNL     1      -5.211  16.277  66.838  1.00  0.00     0.185 A  
HETATM   20  N   UNL     1      -5.286  18.567  67.182  1.00  0.00    -0.128 NA 
HETATM   21  C   UNL     1      -6.022  19.655  67.391  1.00  0.00    -0.184 A  
HETATM   22  C   UNL     1      -5.816  15.025  66.712  1.00  0.00     1.741 A  
HETATM   23  N   UNL     1      -7.345  19.682  67.527  1.00  0.00    -0.243 NA 
HETATM   24  C   UNL     1      -8.016  18.522  67.462  1.00  0.00    -0.236 A  
BRANCH  24  25
HETATM   25  N   UNL     1      -9.439  18.530  67.538  1.00  0.00    -0.275 NA 
HETATM   26  H   UNL     1      -9.905  19.296  67.052  1.00  0.00     0.000 HD 
BRANCH  25  27
HETATM   27  C   UNL     1     -10.290  17.614  68.199  1.00  0.00    -0.386 A  
HETATM   28  C   UNL     1     -10.598  17.701  69.556  1.00  0.00     0.310 A  
HETATM   29  C   UNL     1     -11.516  16.850  70.176  1.00  0.00     0.688 A  
HETATM   30  C   UNL     1     -12.191  15.884  69.420  1.00  0.00    -0.062 A  
HETATM   31 CL   UNL     1     -11.660  17.097  71.885  1.00  0.00     0.558 Cl 
HETATM   32  C   UNL     1     -11.841  15.740  68.069  1.00  0.00     0.024 A  
HETATM   33  C   UNL     1     -10.899  16.590  67.467  1.00  0.00    -0.237 A  
BRANCH  30  34
HETATM   34  O   UNL     1     -13.175  15.016  69.823  1.00  0.00     0.227 OA 
BRANCH  34  35
HETATM   35  C   UNL     1     -12.752  13.926  70.637  1.00  0.00    -0.281 C  
BRANCH  35  36
HETATM   36  C   UNL     1     -11.258  13.921  70.825  1.00  0.00     0.623 A  
HETATM   37  C   UNL     1     -10.683  14.460  71.979  1.00  0.00     2.570 A  
HETATM   38  C   UNL     1      -9.299  14.552  72.077  1.00  0.00     6.260 A  
HETATM   39  C   UNL     1      -8.475  14.115  71.045  1.00  0.00     4.652 A  
HETATM   40  F   UNL     1      -8.752  15.088  73.175  1.00  0.00     4.800 F  
HETATM   41  C   UNL     1      -9.040  13.574  69.896  1.00  0.00     2.349 A  
HETATM   42  C   UNL     1     -10.424  13.477  69.782  1.00  0.00     0.690 A  
ENDBRANCH  35  36
ENDBRANCH  34  35
ENDBRANCH  30  34
ENDBRANCH  25  27
ENDBRANCH  24  25
ENDBRANCH  13  15
ENDBRANCH   9  10
ENDBRANCH   7   9
ENDBRANCH   6   7
ENDBRANCH   5   6
ENDBRANCH   2   5
TORSDOF 11
ENDMDL
MODEL      306
REMARK 921   NORMALIZED FREE ENERGY PREDICTED BY IDOCK:   22.11 KCAL/MOL
REMARK 922        TOTAL FREE ENERGY PREDICTED BY IDOCK:   33.58 KCAL/MOL
REMARK 923 INTER-LIGAND FREE ENERGY PREDICTED BY IDOCK:   18.98 KCAL/MOL
REMARK 924 INTRA-LIGAND FREE ENERGY PREDICTED BY IDOCK:   14.60 KCAL/MOL
REMARK 927      BINDING AFFINITY PREDICTED BY RF-SCORE:    0.00 PKD
ROOT
HETATM    1  C   UNL     1      -7.411  16.213  68.513  1.00  0.00    -0.167 C  
HETATM    2  S   UNL     1      -6.893  17.378  69.746  1.00  0.00     0.401 S  
HETATM    3  O   UNL     1      -6.190  18.453  69.075  1.00  0.00    -0.216 OA 
HETATM    4  O   UNL     1      -6.276  16.632  70.825  1.00  0.00     0.425 OA 
ENDROOT
BRANCH   2   5
HETATM    5  C   UNL     1      -8.448  18.011  70.332  1.00  0.00     3.633 C  
BRANCH   5   6
HETATM    6  C   UNL     1      -9.416  18.257  69.183  1.00  0.00    -0.017 C  
BRANCH   6   7
HETATM    7  N   UNL     1      -9.563  17.103  68.290  1.00  0.00    -0.270 NA 
HETATM    8  H   UNL     1      -9.026  17.238  67.433  1.00  0.00     0.000 HD 
BRANCH   7   9
HETATM    9  C   UNL     1      -9.218  15.829  68.923  1.00  0.00    -0.227 C  
BRANCH   9  10
HETATM   10  C   UNL     1      -9.502  14.698  68.001  1.00  0.00    -0.207 A  
HETATM   11  C   UNL     1     -10.604  14.339  67.257  1.00  0.00    -0.278 A  
HETATM   12  C   UNL     1     -10.253  13.150  66.575  1.00  0.00    -0.277 A  
HETATM   13  C   UNL     1      -8.949  12.861  66.923  1.00  0.00    -0.210 A  
HETATM   14  O   UNL     1      -8.490  13.813  67.789  1.00  0.00    -0.156 OA 
BRANCH  13  15
HETATM   15  C   UNL     1      -8.004  11.807  66.580  1.00  0.00    -0.070 A  
HETATM   16  C   UNL     1      -8.170  10.499  67.057  1.00  0.00    -0.125 A  
HETATM   17  C   UNL     1      -7.245   9.471  66.731  1.00  0.00    -0.086 A  
HETATM   18  C   UNL     1      -6.141   9.770  65.918  1.00  0.00    -0.070 A  
HETATM   19  C   UNL     1      -5.985  11.061  65.453  1.00  0.00     0.116 A  
HETATM   20  N   UNL     1      -5.213   8.880  65.572  1.00  0.00    -0.037 NA 
HETATM   21  C   UNL     1      -5.362   7.653  66.064  1.00  0.00    -0.028 A  
HETATM   22  C   UNL     1      -6.896  12.069  65.773  1.00  0.00     1.880 A  
HETATM   23  N   UNL     1      -6.356   7.250  66.852  1.00  0.00    -0.049 NA 
HETATM   24  C   UNL     1      -7.306   8.137  67.185  1.00  0.00    -0.088 A  
BRANCH  24  25
HETATM   25  N   UNL     1      -8.344   7.749  68.080  1.00  0.00    -0.124 NA 
HETATM   26  H   UNL     1      -8.164   6.911  68.632  1.00  0.00     0.000 HD 
BRANCH  25  27
HETATM   27  C   UNL     1      -9.592   8.376  68.305  1.00  0.00    -0.144 A  
HETATM   28  C   UNL     1     -10.242   8.363  69.539  1.00  0.00    -0.207 A  
HETATM   29  C   UNL     1     -11.425   9.068  69.774  1.00  0.00     0.159 A  
HETATM   30  C   UNL     1     -11.984   9.850  68.756  1.00  0.00     0.820 A  
HETATM   31 CL   UNL     1     -12.086   8.822  71.357  1.00  0.00    -0.344 Cl 
HETATM   32  C   UNL     1     -11.379   9.817  67.490  1.00  0.00     0.353 A  
HETATM   33  C   UNL     1     -10.201   9.086  67.266  1.00  0.00    -0.323 A  
BRANCH  30  34
HETATM   34  O   UNL     1     -13.085  10.668  68.812  1.00  0.00     1.129 OA 
BRANCH  34  35
HETATM   35  C   UNL     1     -13.182  11.507  69.959  1.00  0.00     0.949 C  
BRANCH  35  36
HETATM   36  C   UNL     1     -12.017  12.457  70.052  1.00  0.00    -0.372 A  
HETATM   37  C   UNL     1     -10.726  11.980  70.291  1.00  0.00     1.495 A  
HETATM   38  C   UNL     1      -9.688  12.882  70.491  1.00  0.00     5.566 A  
HETATM   39  C   UNL     1      -9.912  14.255  70.457  1.00  0.00     1.819 A  
HETATM   40  F   UNL     1      -8.456  12.422  70.741  1.00  0.00     4.975 F  
HETATM   41  C   UNL     1     -11.193  14.737  70.215  1.00  0.00    -0.239 A  
HETATM   42  C   UNL     1     -12.244  13.846  70.015  1.00  0.00    -0.408 A  
ENDBRANCH  35  36
ENDBRANCH  34  35
ENDBRANCH  30  34
ENDBRANCH  25  27
ENDBRANCH  24  25
ENDBRANCH  13  15
ENDBRANCH   9  10
ENDBRANCH   7   9
ENDBRANCH   6   7
ENDBRANCH   5   6
ENDBRANCH   2   5
TORSDOF 11
ENDMDL
MODEL      307
REMARK 921   NORMALIZED FREE ENERGY PREDICTED BY IDOCK:   28.66 KCAL/MOL
REMARK 922        TOTAL FREE ENERGY PREDICTED BY IDOCK:   44.35 KCAL/MOL
REMARK 923 INTER-LIGAND FREE ENERGY PREDICTED BY IDOCK:   12.27 KCAL/MOL
REMARK 924 INTRA-LIGAND FREE ENERGY PREDICTED BY IDOCK:   32.07 KCAL/MOL
REMARK 927      BINDING AFFINITY PREDICTED BY RF-SCORE:    0.00 PKD
ROOT
HETATM    1  C   UNL     1      -6.970  11.410  69.666  1.00  0.00    -0.020 C  
HETATM    2  S   UNL     1      -6.199  10.101  68.750  1.00  0.00    -0.047 S  
HETATM    3  O   UNL     1      -5.944   9.007  69.666  1.00  0.00    -0.032 OA 
HETATM    4  O   UNL     1      -5.136  10.684  67.957  1.00  0.00    -0.038 OA 
ENDROOT
BRANCH   2   5
HETATM    5  C   UNL     1      -7.503   9.607  67.645  1.00  0.00    -0.091 C  
BRANCH   5   6
HETATM    6  C   UNL     1      -8.579  10.678  67.542  1.00  0.00    -0.122 C  
BRANCH   6   7
HETATM    7  N   UNL     1      -9.747  10.412  68.389  1.00  0.00    -0.154 NA 
HETATM    8  H   UNL     1      -9.635  10.847  69.305  1.00  0.00     0.000 HD 
BRANCH   7   9
HETATM    9  C   UNL     1     -11.014  10.812  67.776  1.00  0.00    -0.297 C  
BRANCH   9  10
HETATM   10  C   UNL     1     -11.080  12.291  67.638  1.00  0.00    -0.268 A  
HETATM   11  C   UNL     1     -11.984  13.145  67.047  1.00  0.00    -0.412 A  
HETATM   12  C   UNL     1     -11.487  14.454  67.254  1.00  0.00    -0.377 A  
HETATM   13  C   UNL     1     -10.320  14.328  67.981  1.00  0.00    -0.229 A  
HETATM   14  O   UNL     1     -10.078  13.004  68.220  1.00  0.00    -0.230 OA 
BRANCH  13  15
HETATM   15  C   UNL     1      -9.339  15.260  68.519  1.00  0.00    -0.200 A  
HETATM   16  C   UNL     1      -8.173  14.804  69.149  1.00  0.00    -0.106 A  
HETATM   17  C   UNL     1      -7.219  15.711  69.684  1.00  0.00    -0.153 A  
HETATM   18  C   UNL     1      -7.449  17.091  69.581  1.00  0.00     0.416 A  
HETATM   19  C   UNL     1      -8.601  17.532  68.959  1.00  0.00    -0.030 A  
HETATM   20  N   UNL     1      -6.624  18.018  70.065  1.00  0.00     0.141 NA 
HETATM   21  C   UNL     1      -5.541  17.570  70.694  1.00  0.00    -0.094 A  
HETATM   22  C   UNL     1      -9.536  16.639  68.433  1.00  0.00    -0.233 A  
HETATM   23  N   UNL     1      -5.219  16.290  70.867  1.00  0.00    -0.172 NA 
HETATM   24  C   UNL     1      -6.035  15.354  70.361  1.00  0.00    -0.080 A  
BRANCH  24  25
HETATM   25  N   UNL     1      -5.748  13.977  70.589  1.00  0.00    -0.159 NA 
HETATM   26  H   UNL     1      -4.766  13.748  70.740  1.00  0.00     0.000 HD 
BRANCH  25  27
HETATM   27  C   UNL     1      -6.647  12.885  70.632  1.00  0.00     1.066 A  
HETATM   28  C   UNL     1      -6.420  11.739  71.392  1.00  0.00     2.457 A  
HETATM   29  C   UNL     1      -7.359  10.711  71.504  1.00  0.00     3.517 A  
HETATM   30  C   UNL     1      -8.598  10.828  70.863  1.00  0.00     3.765 A  
HETATM   31 CL   UNL     1      -6.809   9.354  72.430  1.00  0.00     0.467 Cl 
HETATM   32  C   UNL     1      -8.813  11.944  70.040  1.00  0.00     2.962 A  
HETATM   33  C   UNL     1      -7.849  12.957  69.921  1.00  0.00     1.883 A  
BRANCH  30  34
HETATM   34  O   UNL     1      -9.672   9.974  70.913  1.00  0.00     0.127 OA 
BRANCH  34  35
HETATM   35  C   UNL     1      -9.581   8.910  71.857  1.00  0.00    -0.256 C  
BRANCH  35  36
HETATM   36  C   UNL     1      -8.679   7.809  71.366  1.00  0.00    -0.142 A  
HETATM   37  C   UNL     1      -8.813   7.303  70.070  1.00  0.00    -0.141 A  
HETATM   38  C   UNL     1      -8.050   6.208  69.680  1.00  0.00    -0.112 A  
HETATM   39  C   UNL     1      -7.155   5.606  70.557  1.00  0.00    -0.066 A  
HETATM   40  F   UNL     1      -8.196   5.712  68.445  1.00  0.00    -0.100 F  
HETATM   41  C   UNL     1      -7.013   6.107  71.846  1.00  0.00    -0.077 A  
HETATM   42  C   UNL     1      -7.771   7.202  72.253  1.00  0.00    -0.089 A  
ENDBRANCH  35  36
ENDBRANCH  34  35
ENDBRANCH  30  34
ENDBRANCH  25  27
ENDBRANCH  24  25
ENDBRANCH  13  15
ENDBRANCH   9  10
ENDBRANCH   7   9
ENDBRANCH   6   7
ENDBRANCH   5   6
ENDBRANCH   2   5
TORSDOF 11
ENDMDL
MODEL      308
REMARK 921   NORMALIZED FREE ENERGY PREDICTED BY IDOCK:   30.90 KCAL/MOL
REMARK 922        TOTAL FREE ENERGY PREDICTED BY IDOCK:   48.02 KCAL/MOL
REMARK 923 INTER-LIGAND FREE ENERGY PREDICTED BY IDOCK:   45.71 KCAL/MOL
REMARK 924 INTRA-LIGAND FREE ENERGY PREDICTED BY IDOCK:    2.32 KCAL/MOL
REMARK 927      BINDING AFFINITY PREDICTED BY RF-SCORE:    0.00 PKD
ROOT
HETATM    1  C   UNL     1      -6.186  14.774  63.593  1.00  0.00    25.845 C  
HETATM    2  S   UNL     1      -6.259  14.944  65.358  1.00  0.00    12.960 S  
HETATM    3  O   UNL     1      -5.318  15.977  65.743  1.00  0.00     2.154 OA 
HETATM    4  O   UNL     1      -6.196  13.616  65.932  1.00  0.00     4.741 OA 
ENDROOT
BRANCH   2   5
HETATM    5  C   UNL     1      -7.905  15.573  65.600  1.00  0.00     3.078 C  
BRANCH   5   6
HETATM    6  C   UNL     1      -7.882  16.987  66.164  1.00  0.00    -0.260 C  
BRANCH   6   7
HETATM    7  N   UNL     1      -9.143  17.378  66.804  1.00  0.00    -0.251 NA 
HETATM    8  H   UNL     1      -9.525  18.217  66.367  1.00  0.00     0.000 HD 
BRANCH   7   9
HETATM    9  C   UNL     1     -10.139  16.306  66.830  1.00  0.00    -0.278 C  
BRANCH   9  10
HETATM   10  C   UNL     1      -9.792  15.300  67.867  1.00  0.00    -0.216 A  
HETATM   11  C   UNL     1      -8.604  14.914  68.449  1.00  0.00    -0.159 A  
HETATM   12  C   UNL     1      -8.930  13.898  69.379  1.00  0.00     0.708 A  
HETATM   13  C   UNL     1     -10.300  13.736  69.330  1.00  0.00     0.128 A  
HETATM   14  O   UNL     1     -10.824  14.600  68.410  1.00  0.00    -0.234 OA 
BRANCH  13  15
HETATM   15  C   UNL     1     -11.258  12.881  70.017  1.00  0.00     0.216 A  
HETATM   16  C   UNL     1     -11.263  11.493  69.823  1.00  0.00    -0.237 A  
HETATM   17  C   UNL     1     -12.202  10.657  70.485  1.00  0.00    -0.449 A  
HETATM   18  C   UNL     1     -13.146  11.234  71.349  1.00  0.00    -0.295 A  
HETATM   19  C   UNL     1     -13.135  12.602  71.534  1.00  0.00    -0.373 A  
HETATM   20  N   UNL     1     -14.076  10.537  72.001  1.00  0.00     0.359 NA 
HETATM   21  C   UNL     1     -14.093   9.226  71.777  1.00  0.00    -0.193 A  
HETATM   22  C   UNL     1     -12.210  13.421  70.884  1.00  0.00    -0.367 A  
HETATM   23  N   UNL     1     -13.261   8.566  70.974  1.00  0.00     0.012 NA 
HETATM   24  C   UNL     1     -12.309   9.260  70.334  1.00  0.00     0.234 A  
BRANCH  24  25
HETATM   25  N   UNL     1     -11.448   8.588  69.418  1.00  0.00    -0.211 NA 
HETATM   26  H   UNL     1     -11.847   7.774  68.950  1.00  0.00     0.000 HD 
BRANCH  25  27
HETATM   27  C   UNL     1     -10.112   8.902  69.073  1.00  0.00    -0.197 A  
HETATM   28  C   UNL     1      -9.746   9.421  67.832  1.00  0.00    -0.177 A  
HETATM   29  C   UNL     1      -8.440   9.819  67.537  1.00  0.00    -0.122 A  
HETATM   30  C   UNL     1      -7.448   9.732  68.520  1.00  0.00    -0.079 A  
HETATM   31 CL   UNL     1      -8.218  10.345  65.901  1.00  0.00    -0.145 Cl 
HETATM   32  C   UNL     1      -7.786   9.148  69.751  1.00  0.00    -0.088 A  
HETATM   33  C   UNL     1      -9.100   8.734  70.022  1.00  0.00    -0.164 A  
BRANCH  30  34
HETATM   34  O   UNL     1      -6.139  10.140  68.454  1.00  0.00    -0.045 OA 
BRANCH  34  35
HETATM   35  C   UNL     1      -5.219   9.424  69.273  1.00  0.00    -0.036 C  
BRANCH  35  36
HETATM   36  C   UNL     1      -5.461   7.939  69.212  1.00  0.00    -0.026 A  
HETATM   37  C   UNL     1      -5.259   7.233  68.022  1.00  0.00    -0.024 A  
HETATM   38  C   UNL     1      -5.602   5.887  67.958  1.00  0.00    -0.008 A  
HETATM   39  C   UNL     1      -6.143   5.230  69.058  1.00  0.00    -0.025 A  
HETATM   40  F   UNL     1      -5.428   5.219  66.811  1.00  0.00    -0.010 F  
HETATM   41  C   UNL     1      -6.343   5.925  70.245  1.00  0.00    -0.032 A  
HETATM   42  C   UNL     1      -6.006   7.274  70.325  1.00  0.00    -0.024 A  
ENDBRANCH  35  36
ENDBRANCH  34  35
ENDBRANCH  30  34
ENDBRANCH  25  27
ENDBRANCH  24  25
ENDBRANCH  13  15
ENDBRANCH   9  10
ENDBRANCH   7   9
ENDBRANCH   6   7
ENDBRANCH   5   6
ENDBRANCH   2   5
TORSDOF 11
ENDMDL
MODEL      309
REMARK 921   NORMALIZED FREE ENERGY PREDICTED BY IDOCK:   35.20 KCAL/MOL
REMARK 922        TOTAL FREE ENERGY PREDICTED BY IDOCK:   55.09 KCAL/MOL
REMARK 923 INTER-LIGAND FREE ENERGY PREDICTED BY IDOCK:   54.66 KCAL/MOL
REMARK 924 INTRA-LIGAND FREE ENERGY PREDICTED BY IDOCK:    0.43 KCAL/MOL
REMARK 927      BINDING AFFINITY PREDICTED BY RF-SCORE:    0.00 PKD
ROOT
HETATM    1  C   UNL     1      -9.167   7.777  66.103  1.00  0.00    -0.128 C  
HETATM    2  S   UNL     1      -8.350   8.835  67.270  1.00  0.00    -0.104 S  
HETATM    3  O   UNL     1      -8.400  10.188  66.754  1.00  0.00    -0.121 OA 
HETATM    4  O   UNL     1      -7.092   8.210  67.626  1.00  0.00    -0.082 OA 
ENDROOT
BRANCH   2   5
HETATM    5  C   UNL     1      -9.433   8.737  68.677  1.00  0.00    -0.141 C  
BRANCH   5   6
HETATM    6  C   UNL     1      -8.699   8.229  69.910  1.00  0.00    -0.134 C  
BRANCH   6   7
HETATM    7  N   UNL     1      -7.918   7.012  69.662  1.00  0.00    -0.122 NA 
HETATM    8  H   UNL     1      -7.455   7.059  68.754  1.00  0.00     0.000 HD 
BRANCH   7   9
HETATM    9  C   UNL     1      -6.955   6.713  70.722  1.00  0.00    -0.067 C  
BRANCH   9  10
HETATM   10  C   UNL     1      -7.178   7.601  71.892  1.00  0.00    -0.065 A  
HETATM   11  C   UNL     1      -7.613   7.376  73.180  1.00  0.00    -0.107 A  
HETATM   12  C   UNL     1      -7.614   8.636  73.824  1.00  0.00     0.008 A  
HETATM   13  C   UNL     1      -7.157   9.556  72.902  1.00  0.00     1.428 A  
HETATM   14  O   UNL     1      -6.886   8.919  71.724  1.00  0.00    -0.161 OA 
BRANCH  13  15
HETATM   15  C   UNL     1      -6.917  10.993  72.917  1.00  0.00     6.886 A  
HETATM   16  C   UNL     1      -7.346  11.812  71.864  1.00  0.00     8.884 A  
HETATM   17  C   UNL     1      -7.106  13.212  71.871  1.00  0.00     5.909 A  
HETATM   18  C   UNL     1      -6.423  13.787  72.954  1.00  0.00     2.235 A  
HETATM   19  C   UNL     1      -6.003  12.973  73.988  1.00  0.00     1.215 A  
HETATM   20  N   UNL     1      -6.136  15.085  73.044  1.00  0.00     0.902 NA 
HETATM   21  C   UNL     1      -6.514  15.843  72.019  1.00  0.00     2.988 A  
HETATM   22  C   UNL     1      -6.242  11.597  73.979  1.00  0.00     3.116 A  
HETATM   23  N   UNL     1      -7.156  15.416  70.934  1.00  0.00     0.987 NA 
HETATM   24  C   UNL     1      -7.467  14.114  70.849  1.00  0.00     2.239 A  
BRANCH  24  25
HETATM   25  N   UNL     1      -8.095  13.619  69.670  1.00  0.00     0.275 NA 
HETATM   26  H   UNL     1      -7.467  13.352  68.912  1.00  0.00     0.000 HD 
BRANCH  25  27
HETATM   27  C   UNL     1      -9.475  13.449  69.412  1.00  0.00     0.955 A  
HETATM   28  C   UNL     1     -10.155  12.256  69.651  1.00  0.00     1.123 A  
HETATM   29  C   UNL     1     -11.537  12.130  69.485  1.00  0.00    -0.315 A  
HETATM   30  C   UNL     1     -12.295  13.240  69.095  1.00  0.00     0.026 A  
HETATM   31 CL   UNL     1     -12.134  10.526  69.758  1.00  0.00    -0.316 Cl 
HETATM   32  C   UNL     1     -11.615  14.428  68.784  1.00  0.00    -0.348 A  
HETATM   33  C   UNL     1     -10.223  14.530  68.935  1.00  0.00    -0.229 A  
BRANCH  30  34
HETATM   34  O   UNL     1     -13.657  13.340  68.954  1.00  0.00     3.341 OA 
BRANCH  34  35
HETATM   35  C   UNL     1     -14.349  13.990  70.017  1.00  0.00     4.155 C  
BRANCH  35  36
HETATM   36  C   UNL     1     -13.432  14.884  70.810  1.00  0.00    -0.279 A  
HETATM   37  C   UNL     1     -13.309  16.239  70.491  1.00  0.00     2.354 A  
HETATM   38  C   UNL     1     -12.370  17.017  71.160  1.00  0.00     3.266 A  
HETATM   39  C   UNL     1     -11.551  16.470  72.141  1.00  0.00    -0.224 A  
HETATM   40  F   UNL     1     -12.239  18.310  70.838  1.00  0.00     6.201 F  
HETATM   41  C   UNL     1     -11.671  15.123  72.466  1.00  0.00    -0.475 A  
HETATM   42  C   UNL     1     -12.605  14.330  71.805  1.00  0.00    -0.418 A  
ENDBRANCH  35  36
ENDBRANCH  34  35
ENDBRANCH  30  34
ENDBRANCH  25  27
ENDBRANCH  24  25
ENDBRANCH  13  15
ENDBRANCH   9  10
ENDBRANCH   7   9
ENDBRANCH   6   7
ENDBRANCH   5   6
ENDBRANCH   2   5
TORSDOF 11
ENDMDL
MODEL      310
REMARK 921   NORMALIZED FREE ENERGY PREDICTED BY IDOCK:   38.11 KCAL/MOL
REMARK 922        TOTAL FREE ENERGY PREDICTED BY IDOCK:   59.86 KCAL/MOL
REMARK 923 INTER-LIGAND FREE ENERGY PREDICTED BY IDOCK:   50.80 KCAL/MOL
REMARK 924 INTRA-LIGAND FREE ENERGY PREDICTED BY IDOCK:    9.06 KCAL/MOL
REMARK 927      BINDING AFFINITY PREDICTED BY RF-SCORE:    0.00 PKD
ROOT
HETATM    1  C   UNL     1      -9.167   7.777  66.103  1.00  0.00    -0.128 C  
HETATM    2  S   UNL     1      -8.339   8.839  67.258  1.00  0.00    -0.104 S  
HETATM    3  O   UNL     1      -8.387  10.189  66.734  1.00  0.00    -0.121 OA 
HETATM    4  O   UNL     1      -7.082   8.212  67.612  1.00  0.00    -0.082 OA 
ENDROOT
BRANCH   2   5
HETATM    5  C   UNL     1      -9.415   8.754  68.672  1.00  0.00    -0.141 C  
BRANCH   5   6
HETATM    6  C   UNL     1      -8.676   8.252  69.904  1.00  0.00    -0.134 C  
BRANCH   6   7
HETATM    7  N   UNL     1      -7.901   7.030  69.660  1.00  0.00    -0.116 NA 
HETATM    8  H   UNL     1      -7.443   7.069  68.749  1.00  0.00     0.000 HD 
BRANCH   7   9
HETATM    9  C   UNL     1      -6.933   6.734  70.716  1.00  0.00    -0.067 C  
BRANCH   9  10
HETATM   10  C   UNL     1      -7.146   7.630  71.882  1.00  0.00    -0.064 A  
HETATM   11  C   UNL     1      -7.575   7.416  73.173  1.00  0.00    -0.107 A  
HETATM   12  C   UNL     1      -7.567   8.679  73.810  1.00  0.00     0.008 A  
HETATM   13  C   UNL     1      -7.112   9.592  72.879  1.00  0.00     1.771 A  
HETATM   14  O   UNL     1      -6.850   8.946  71.704  1.00  0.00    -0.116 OA 
BRANCH  13  15
HETATM   15  C   UNL     1      -6.866  11.028  72.884  1.00  0.00     6.120 A  
HETATM   16  C   UNL     1      -7.298  11.842  71.827  1.00  0.00     8.265 A  
HETATM   17  C   UNL     1      -7.052  13.241  71.824  1.00  0.00     5.227 A  
HETATM   18  C   UNL     1      -6.361  13.820  72.900  1.00  0.00     1.787 A  
HETATM   19  C   UNL     1      -5.939  13.011  73.936  1.00  0.00     1.325 A  
HETATM   20  N   UNL     1      -6.068  15.117  72.979  1.00  0.00     1.065 NA 
HETATM   21  C   UNL     1      -6.450  15.871  71.952  1.00  0.00     2.784 A  
HETATM   22  C   UNL     1      -6.183  11.637  73.937  1.00  0.00     3.314 A  
HETATM   23  N   UNL     1      -7.099  15.439  70.873  1.00  0.00     0.987 NA 
HETATM   24  C   UNL     1      -7.416  14.138  70.799  1.00  0.00     1.923 A  
BRANCH  24  25
HETATM   25  N   UNL     1      -8.052  13.637  69.626  1.00  0.00     0.275 NA 
HETATM   26  H   UNL     1      -7.429  13.363  68.866  1.00  0.00     0.000 HD 
BRANCH  25  27
HETATM   27  C   UNL     1      -9.435  13.471  69.377  1.00  0.00     0.883 A  
HETATM   28  C   UNL     1     -10.118  12.282  69.627  1.00  0.00     1.123 A  
HETATM   29  C   UNL     1     -11.501  12.161  69.470  1.00  0.00    -0.265 A  
HETATM   30  C   UNL     1     -12.257  13.271  69.077  1.00  0.00    -0.116 A  
HETATM   31 CL   UNL     1     -12.103  10.561  69.756  1.00  0.00    -0.316 Cl 
HETATM   32  C   UNL     1     -11.574  14.454  68.754  1.00  0.00    -0.348 A  
HETATM   33  C   UNL     1     -10.181  14.552  68.898  1.00  0.00    -0.229 A  
BRANCH  30  34
HETATM   34  O   UNL     1     -13.619  13.376  68.943  1.00  0.00     3.268 OA 
BRANCH  34  35
HETATM   35  C   UNL     1     -14.092  14.525  68.247  1.00  0.00    10.105 C  
BRANCH  35  36
HETATM   36  C   UNL     1     -13.028  15.112  67.357  1.00  0.00     2.491 A  
HETATM   37  C   UNL     1     -12.934  14.735  66.015  1.00  0.00     0.671 A  
HETATM   38  C   UNL     1     -11.873  15.199  65.246  1.00  0.00    -0.062 A  
HETATM   39  C   UNL     1     -10.902  16.033  65.789  1.00  0.00    -0.236 A  
HETATM   40  F   UNL     1     -11.775  14.819  63.966  1.00  0.00    -0.312 F  
HETATM   41  C   UNL     1     -10.991  16.415  67.122  1.00  0.00    -0.082 A  
HETATM   42  C   UNL     1     -12.047  15.958  67.907  1.00  0.00     0.555 A  
ENDBRANCH  35  36
ENDBRANCH  34  35
ENDBRANCH  30  34
ENDBRANCH  25  27
ENDBRANCH  24  25
ENDBRANCH  13  15
ENDBRANCH   9  10
ENDBRANCH   7   9
ENDBRANCH   6   7
ENDBRANCH   5   6
ENDBRANCH   2   5
TORSDOF 11
ENDMDL
MODEL      311
REMARK 921   NORMALIZED FREE ENERGY PREDICTED BY IDOCK:   41.58 KCAL/MOL
REMARK 922        TOTAL FREE ENERGY PREDICTED BY IDOCK:   65.58 KCAL/MOL
REMARK 923 INTER-LIGAND FREE ENERGY PREDICTED BY IDOCK:   58.28 KCAL/MOL
REMARK 924 INTRA-LIGAND FREE ENERGY PREDICTED BY IDOCK:    7.30 KCAL/MOL
REMARK 927      BINDING AFFINITY PREDICTED BY RF-SCORE:    0.00 PKD
ROOT
HETATM    1  C   UNL     1      -5.686  14.371  63.193  1.00  0.00    19.587 C  
HETATM    2  S   UNL     1      -6.036  14.741  64.892  1.00  0.00    19.017 S  
HETATM    3  O   UNL     1      -5.127  15.787  65.315  1.00  0.00     4.904 OA 
HETATM    4  O   UNL     1      -6.126  13.485  65.607  1.00  0.00     6.166 OA 
ENDROOT
BRANCH   2   5
HETATM    5  C   UNL     1      -7.671  15.435  64.788  1.00  0.00    10.228 C  
BRANCH   5   6
HETATM    6  C   UNL     1      -7.646  16.946  64.971  1.00  0.00     4.116 C  
BRANCH   6   7
HETATM    7  N   UNL     1      -8.909  17.492  65.478  1.00  0.00     0.042 NA 
HETATM    8  H   UNL     1      -9.266  18.216  64.855  1.00  0.00     0.000 HD 
BRANCH   7   9
HETATM    9  C   UNL     1      -9.928  16.470  65.723  1.00  0.00    -0.274 C  
BRANCH   9  10
HETATM   10  C   UNL     1      -9.485  15.543  66.797  1.00  0.00    -0.237 A  
HETATM   11  C   UNL     1      -8.248  15.099  67.212  1.00  0.00    -0.234 A  
HETATM   12  C   UNL     1      -8.485  14.221  68.296  1.00  0.00    -0.167 A  
HETATM   13  C   UNL     1      -9.850  14.195  68.498  1.00  0.00    -0.230 A  
HETATM   14  O   UNL     1     -10.458  15.010  67.584  1.00  0.00    -0.242 OA 
BRANCH  13  15
HETATM   15  C   UNL     1     -10.738  13.515  69.431  1.00  0.00     0.052 A  
HETATM   16  C   UNL     1     -10.949  12.131  69.356  1.00  0.00    -0.109 A  
HETATM   17  C   UNL     1     -11.821  11.466  70.260  1.00  0.00    -0.438 A  
HETATM   18  C   UNL     1     -12.486  12.211  71.247  1.00  0.00    -0.185 A  
HETATM   19  C   UNL     1     -12.273  13.573  71.314  1.00  0.00    -0.209 A  
HETATM   20  N   UNL     1     -13.334  11.681  72.127  1.00  0.00    -0.394 NA 
HETATM   21  C   UNL     1     -13.555  10.374  72.019  1.00  0.00    -0.156 A  
HETATM   22  C   UNL     1     -11.414  14.224  70.426  1.00  0.00    -0.188 A  
HETATM   23  N   UNL     1     -12.996   9.566  71.122  1.00  0.00    -0.306 NA 
HETATM   24  C   UNL     1     -12.124  10.089  70.248  1.00  0.00    -0.150 A  
BRANCH  24  25
HETATM   25  N   UNL     1     -11.561   9.259  69.235  1.00  0.00    -0.236 NA 
HETATM   26  H   UNL     1     -12.175   9.039  68.451  1.00  0.00     0.000 HD 
BRANCH  25  27
HETATM   27  C   UNL     1     -10.263   8.700  69.175  1.00  0.00    -0.208 A  
HETATM   28  C   UNL     1      -9.366   8.964  68.142  1.00  0.00    -0.151 A  
HETATM   29  C   UNL     1      -8.053   8.485  68.144  1.00  0.00    -0.119 A  
HETATM   30  C   UNL     1      -7.588   7.734  69.230  1.00  0.00    -0.098 A  
HETATM   31 CL   UNL     1      -7.162   8.871  66.709  1.00  0.00    -0.081 Cl 
HETATM   32  C   UNL     1      -8.501   7.403  70.243  1.00  0.00    -0.136 A  
HETATM   33  C   UNL     1      -9.822   7.875  70.214  1.00  0.00    -0.184 A  
BRANCH  30  34
HETATM   34  O   UNL     1      -6.325   7.245  69.454  1.00  0.00    -0.034 OA 
BRANCH  34  35
HETATM   35  C   UNL     1      -6.230   6.155  70.367  1.00  0.00    -0.035 C  
BRANCH  35  36
HETATM   36  C   UNL     1      -7.512   5.367  70.425  1.00  0.00    -0.075 A  
HETATM   37  C   UNL     1      -8.454   5.612  71.428  1.00  0.00    -0.128 A  
HETATM   38  C   UNL     1      -9.572   4.793  71.532  1.00  0.00    -0.160 A  
HETATM   39  C   UNL     1      -9.771   3.733  70.653  1.00  0.00    -0.235 A  
HETATM   40  F   UNL     1     -10.462   5.017  72.506  1.00  0.00    -0.227 F  
HETATM   41  C   UNL     1      -8.841   3.486  69.651  1.00  0.00    -0.151 A  
HETATM   42  C   UNL     1      -7.714   4.296  69.535  1.00  0.00    -0.054 A  
ENDBRANCH  35  36
ENDBRANCH  34  35
ENDBRANCH  30  34
ENDBRANCH  25  27
ENDBRANCH  24  25
ENDBRANCH  13  15
ENDBRANCH   9  10
ENDBRANCH   7   9
ENDBRANCH   6   7
ENDBRANCH   5   6
ENDBRANCH   2   5
TORSDOF 11
ENDMDL
MODEL      312
REMARK 921   NORMALIZED FREE ENERGY PREDICTED BY IDOCK:   54.86 KCAL/MOL
REMARK 922        TOTAL FREE ENERGY PREDICTED BY IDOCK:   87.40 KCAL/MOL
REMARK 923 INTER-LIGAND FREE ENERGY PREDICTED BY IDOCK:   77.99 KCAL/MOL
REMARK 924 INTRA-LIGAND FREE ENERGY PREDICTED BY IDOCK:    9.41 KCAL/MOL
REMARK 927      BINDING AFFINITY PREDICTED BY RF-SCORE:    0.00 PKD
ROOT
HETATM    1  C   UNL     1      -9.167   7.777  66.103  1.00  0.00    -0.128 C  
HETATM    2  S   UNL     1      -8.339   8.839  67.258  1.00  0.00    -0.104 S  
HETATM    3  O   UNL     1      -8.387  10.189  66.734  1.00  0.00    -0.121 OA 
HETATM    4  O   UNL     1      -7.082   8.212  67.612  1.00  0.00    -0.082 OA 
ENDROOT
BRANCH   2   5
HETATM    5  C   UNL     1      -9.415   8.754  68.672  1.00  0.00    -0.141 C  
BRANCH   5   6
HETATM    6  C   UNL     1      -8.676   8.252  69.904  1.00  0.00    -0.134 C  
BRANCH   6   7
HETATM    7  N   UNL     1      -7.901   7.030  69.660  1.00  0.00    -0.116 NA 
HETATM    8  H   UNL     1      -7.443   7.069  68.749  1.00  0.00     0.000 HD 
BRANCH   7   9
HETATM    9  C   UNL     1      -6.933   6.734  70.716  1.00  0.00    -0.067 C  
BRANCH   9  10
HETATM   10  C   UNL     1      -7.146   7.630  71.882  1.00  0.00    -0.064 A  
HETATM   11  C   UNL     1      -7.575   7.416  73.173  1.00  0.00    -0.107 A  
HETATM   12  C   UNL     1      -7.567   8.679  73.810  1.00  0.00     0.008 A  
HETATM   13  C   UNL     1      -7.112   9.592  72.879  1.00  0.00     1.771 A  
HETATM   14  O   UNL     1      -6.850   8.946  71.704  1.00  0.00    -0.116 OA 
BRANCH  13  15
HETATM   15  C   UNL     1      -6.866  11.028  72.884  1.00  0.00     6.120 A  
HETATM   16  C   UNL     1      -7.298  11.842  71.827  1.00  0.00     8.265 A  
HETATM   17  C   UNL     1      -7.052  13.241  71.824  1.00  0.00     5.227 A  
HETATM   18  C   UNL     1      -6.361  13.820  72.900  1.00  0.00     1.787 A  
HETATM   19  C   UNL     1      -5.939  13.011  73.936  1.00  0.00     1.325 A  
HETATM   20  N   UNL     1      -6.068  15.117  72.979  1.00  0.00     1.065 NA 
HETATM   21  C   UNL     1      -6.450  15.871  71.952  1.00  0.00     2.784 A  
HETATM   22  C   UNL     1      -6.183  11.637  73.937  1.00  0.00     3.314 A  
HETATM   23  N   UNL     1      -7.099  15.439  70.873  1.00  0.00     0.987 NA 
HETATM   24  C   UNL     1      -7.416  14.138  70.799  1.00  0.00     1.923 A  
BRANCH  24  25
HETATM   25  N   UNL     1      -8.052  13.637  69.626  1.00  0.00     0.275 NA 
HETATM   26  H   UNL     1      -7.770  12.702  69.333  1.00  0.00     0.000 HD 
BRANCH  25  27
HETATM   27  C   UNL     1      -9.023  14.269  68.813  1.00  0.00    -0.097 A  
HETATM   28  C   UNL     1     -10.395  14.108  68.999  1.00  0.00    -0.159 A  
HETATM   29  C   UNL     1     -11.344  14.812  68.254  1.00  0.00    -0.301 A  
HETATM   30  C   UNL     1     -10.926  15.746  67.299  1.00  0.00    -0.259 A  
HETATM   31 CL   UNL     1     -12.982  14.373  68.608  1.00  0.00     1.150 Cl 
HETATM   32  C   UNL     1      -9.549  15.868  67.054  1.00  0.00    -0.232 A  
HETATM   33  C   UNL     1      -8.610  15.135  67.797  1.00  0.00    -0.157 A  
BRANCH  30  34
HETATM   34  O   UNL     1     -11.692  16.585  66.529  1.00  0.00     0.845 OA 
BRANCH  34  35
HETATM   35  C   UNL     1     -11.026  17.214  65.438  1.00  0.00     0.035 C  
BRANCH  35  36
HETATM   36  C   UNL     1      -9.791  16.454  65.030  1.00  0.00     0.772 A  
HETATM   37  C   UNL     1      -9.849  15.489  64.020  1.00  0.00     4.457 A  
HETATM   38  C   UNL     1      -8.726  14.719  63.743  1.00  0.00    12.188 A  
HETATM   39  C   UNL     1      -7.542  14.892  64.454  1.00  0.00    15.463 A  
HETATM   40  F   UNL     1      -8.791  13.781  62.790  1.00  0.00     6.600 F  
HETATM   41  C   UNL     1      -7.476  15.853  65.456  1.00  0.00     3.855 A  
HETATM   42  C   UNL     1      -8.594  16.631  65.747  1.00  0.00     0.159 A  
ENDBRANCH  35  36
ENDBRANCH  34  35
ENDBRANCH  30  34
ENDBRANCH  25  27
ENDBRANCH  24  25
ENDBRANCH  13  15
ENDBRANCH   9  10
ENDBRANCH   7   9
ENDBRANCH   6   7
ENDBRANCH   5   6
ENDBRANCH   2   5
TORSDOF 11
ENDMDL
