MODEL        1
REMARK 921   NORMALIZED FREE ENERGY PREDICTED BY IDOCK:   -5.24 KCAL/MOL
REMARK 922        TOTAL FREE ENERGY PREDICTED BY IDOCK:  -12.21 KCAL/MOL
REMARK 923 INTER-LIGAND FREE ENERGY PREDICTED BY IDOCK:  -10.13 KCAL/MOL
REMARK 924 INTRA-LIGAND FREE ENERGY PREDICTED BY IDOCK:   -2.08 KCAL/MOL
REMARK 927      BINDING AFFINITY PREDICTED BY RF-SCORE:    0.00 PKD
ROOT
HETATM    1  C   UNL     1     -11.812  16.134  71.441  1.00  0.00    -0.490 C  
HETATM    2  C   UNL     1     -13.025  15.280  71.116  1.00  0.00    -0.521 C  
ENDROOT
BRANCH   2   3
HETATM    3  C   UNL     1     -12.656  13.799  71.066  1.00  0.00    -0.446 C  
BRANCH   3   4
HETATM    4  C   UNL     1     -13.441  12.998  72.102  1.00  0.00    -0.638 C  
BRANCH   4   5
HETATM    5  C   UNL     1     -13.266  11.497  71.873  1.00  0.00    -0.479 C  
BRANCH   5   6
HETATM    6  C   UNL     1     -12.190  11.236  70.828  1.00  0.00    -0.479 C  
BRANCH   6   7
HETATM    7  C   UNL     1     -11.999   9.742  70.580  1.00  0.00    -0.340 C  
BRANCH   7   8
HETATM    8  C   UNL     1     -10.708   9.274  71.247  1.00  0.00    -0.422 C  
BRANCH   8   9
HETATM    9  C   UNL     1      -9.487   9.563  70.384  1.00  0.00    -0.317 C  
BRANCH   9  10
HETATM   10  C   UNL     1      -9.812   9.498  68.884  1.00  0.00    -0.179 C  
BRANCH  10  11
HETATM   11  C   UNL     1      -9.423  10.760  68.101  1.00  0.00    -0.161 C  
BRANCH  11  12
HETATM   12  C   UNL     1     -10.468  11.076  67.061  1.00  0.00    -0.240 C  
HETATM   13  O   UNL     1     -11.673  11.095  67.259  1.00  0.00    -0.540 OA 
BRANCH  12  14
HETATM   14  O   UNL     1      -9.860  11.519  65.926  1.00  0.00    -0.215 OA 
BRANCH  14  15
HETATM   15  C   UNL     1      -9.788  10.543  64.880  1.00  0.00    -0.315 C  
BRANCH  15  16
HETATM   16  C   UNL     1     -10.573  11.126  63.699  1.00  0.00    -0.347 C  
BRANCH  16  17
HETATM   17  N   UNL     1     -10.857  12.546  63.814  1.00  0.00    -0.426 N  
HETATM   18  C   UNL     1     -12.121  12.989  64.122  1.00  0.00    -0.427 C  
HETATM   19  H   UNL     1     -10.109  13.224  63.664  1.00  0.00     0.000 HD 
HETATM   20  O   UNL     1     -13.094  12.247  64.205  1.00  0.00    -0.746 OA 
BRANCH  18  21
HETATM   21  C   UNL     1     -12.283  14.488  64.270  1.00  0.00    -0.415 C  
BRANCH  21  22
HETATM   22  N   UNL     1     -11.535  14.938  65.463  1.00  0.00    -0.335 NA 
HETATM   23  C   UNL     1     -10.507  15.813  65.321  1.00  0.00    -0.401 A  
HETATM   24  C   UNL     1      -9.778  16.230  66.426  1.00  0.00    -0.310 A  
HETATM   25  C   UNL     1     -10.121  15.761  67.686  1.00  0.00    -0.247 A  
HETATM   26  C   UNL     1     -11.186  14.881  67.819  1.00  0.00    -0.329 A  
HETATM   27  C   UNL     1     -11.884  14.481  66.686  1.00  0.00    -0.366 A  
ENDBRANCH  21  22
ENDBRANCH  18  21
ENDBRANCH  16  17
ENDBRANCH  15  16
ENDBRANCH  14  15
ENDBRANCH  12  14
ENDBRANCH  11  12
ENDBRANCH  10  11
ENDBRANCH   9  10
ENDBRANCH   8   9
ENDBRANCH   7   8
ENDBRANCH   6   7
ENDBRANCH   5   6
ENDBRANCH   4   5
ENDBRANCH   3   4
ENDBRANCH   2   3
TORSDOF 16
ENDMDL
MODEL        2
REMARK 921   NORMALIZED FREE ENERGY PREDICTED BY IDOCK:   -5.14 KCAL/MOL
REMARK 922        TOTAL FREE ENERGY PREDICTED BY IDOCK:  -12.02 KCAL/MOL
REMARK 923 INTER-LIGAND FREE ENERGY PREDICTED BY IDOCK:  -10.29 KCAL/MOL
REMARK 924 INTRA-LIGAND FREE ENERGY PREDICTED BY IDOCK:   -1.73 KCAL/MOL
REMARK 927      BINDING AFFINITY PREDICTED BY RF-SCORE:    0.00 PKD
ROOT
HETATM    1  C   UNL     1      -5.732  20.831  65.124  1.00  0.00    -0.259 C  
HETATM    2  C   UNL     1      -6.685  19.690  65.438  1.00  0.00    -0.319 C  
ENDROOT
BRANCH   2   3
HETATM    3  C   UNL     1      -6.641  19.330  66.921  1.00  0.00    -0.200 C  
BRANCH   3   4
HETATM    4  C   UNL     1      -7.538  20.253  67.741  1.00  0.00    -0.310 C  
BRANCH   4   5
HETATM    5  C   UNL     1      -8.847  20.533  67.005  1.00  0.00    -0.357 C  
BRANCH   5   6
HETATM    6  C   UNL     1     -10.022  19.901  67.740  1.00  0.00    -0.552 C  
BRANCH   6   7
HETATM    7  C   UNL     1     -10.562  18.684  66.995  1.00  0.00    -0.448 C  
BRANCH   7   8
HETATM    8  C   UNL     1      -9.802  17.436  67.435  1.00  0.00    -0.281 C  
BRANCH   8   9
HETATM    9  C   UNL     1      -9.409  16.564  66.251  1.00  0.00    -0.334 C  
BRANCH   9  10
HETATM   10  C   UNL     1     -10.630  16.126  65.426  1.00  0.00    -0.399 C  
BRANCH  10  11
HETATM   11  C   UNL     1     -10.588  14.660  64.972  1.00  0.00    -0.461 C  
BRANCH  11  12
HETATM   12  C   UNL     1     -11.980  14.163  64.671  1.00  0.00    -0.445 C  
HETATM   13  O   UNL     1     -12.610  14.410  63.655  1.00  0.00    -0.817 OA 
BRANCH  12  14
HETATM   14  O   UNL     1     -12.350  13.252  65.613  1.00  0.00    -0.436 OA 
BRANCH  14  15
HETATM   15  C   UNL     1     -11.282  12.411  66.067  1.00  0.00    -0.335 C  
BRANCH  15  16
HETATM   16  C   UNL     1     -11.456  12.282  67.584  1.00  0.00    -0.336 C  
BRANCH  16  17
HETATM   17  N   UNL     1     -12.128  13.411  68.206  1.00  0.00    -0.307 N  
HETATM   18  C   UNL     1     -11.419  14.351  68.913  1.00  0.00    -0.289 C  
HETATM   19  H   UNL     1     -13.140  13.506  68.116  1.00  0.00     0.000 HD 
HETATM   20  O   UNL     1     -10.221  14.246  69.160  1.00  0.00    -0.193 OA 
BRANCH  18  21
HETATM   21  C   UNL     1     -12.219  15.511  69.467  1.00  0.00    -0.236 C  
BRANCH  21  22
HETATM   22  N   UNL     1     -12.449  15.293  70.911  1.00  0.00    -0.355 NA 
HETATM   23  C   UNL     1     -11.971  16.189  71.811  1.00  0.00    -0.489 A  
HETATM   24  C   UNL     1     -12.158  15.990  73.172  1.00  0.00    -0.616 A  
HETATM   25  C   UNL     1     -12.856  14.873  73.608  1.00  0.00    -0.522 A  
HETATM   26  C   UNL     1     -13.354  13.973  72.676  1.00  0.00    -0.643 A  
HETATM   27  C   UNL     1     -13.138  14.205  71.323  1.00  0.00    -0.350 A  
ENDBRANCH  21  22
ENDBRANCH  18  21
ENDBRANCH  16  17
ENDBRANCH  15  16
ENDBRANCH  14  15
ENDBRANCH  12  14
ENDBRANCH  11  12
ENDBRANCH  10  11
ENDBRANCH   9  10
ENDBRANCH   8   9
ENDBRANCH   7   8
ENDBRANCH   6   7
ENDBRANCH   5   6
ENDBRANCH   4   5
ENDBRANCH   3   4
ENDBRANCH   2   3
TORSDOF 16
ENDMDL
MODEL        3
REMARK 921   NORMALIZED FREE ENERGY PREDICTED BY IDOCK:   -5.07 KCAL/MOL
REMARK 922        TOTAL FREE ENERGY PREDICTED BY IDOCK:  -11.89 KCAL/MOL
REMARK 923 INTER-LIGAND FREE ENERGY PREDICTED BY IDOCK:   -9.98 KCAL/MOL
REMARK 924 INTRA-LIGAND FREE ENERGY PREDICTED BY IDOCK:   -1.91 KCAL/MOL
REMARK 927      BINDING AFFINITY PREDICTED BY RF-SCORE:    0.00 PKD
ROOT
HETATM    1  C   UNL     1     -10.629   6.084  66.805  1.00  0.00    -0.359 C  
HETATM    2  C   UNL     1     -10.978   6.312  68.266  1.00  0.00    -0.408 C  
ENDROOT
BRANCH   2   3
HETATM    3  C   UNL     1      -9.900   7.136  68.966  1.00  0.00    -0.156 C  
BRANCH   3   4
HETATM    4  C   UNL     1      -9.794   6.766  70.443  1.00  0.00    -0.186 C  
BRANCH   4   5
HETATM    5  C   UNL     1     -10.843   5.720  70.818  1.00  0.00    -0.330 C  
BRANCH   5   6
HETATM    6  C   UNL     1     -11.653   6.181  72.023  1.00  0.00    -0.364 C  
BRANCH   6   7
HETATM    7  C   UNL     1     -12.699   7.221  71.632  1.00  0.00    -0.410 C  
BRANCH   7   8
HETATM    8  C   UNL     1     -12.359   8.558  72.284  1.00  0.00    -0.450 C  
BRANCH   8   9
HETATM    9  C   UNL     1     -12.368   9.699  71.276  1.00  0.00    -0.449 C  
BRANCH   9  10
HETATM   10  C   UNL     1     -13.084  10.945  71.820  1.00  0.00    -0.564 C  
BRANCH  10  11
HETATM   11  C   UNL     1     -12.716  12.248  71.096  1.00  0.00    -0.340 C  
BRANCH  11  12
HETATM   12  C   UNL     1     -13.182  13.440  71.893  1.00  0.00    -0.431 C  
HETATM   13  O   UNL     1     -14.140  13.449  72.650  1.00  0.00    -0.767 OA 
BRANCH  12  14
HETATM   14  O   UNL     1     -12.267  14.444  71.786  1.00  0.00    -0.339 OA 
BRANCH  14  15
HETATM   15  C   UNL     1     -12.717  15.569  71.021  1.00  0.00    -0.467 C  
BRANCH  15  16
HETATM   16  C   UNL     1     -11.833  15.614  69.770  1.00  0.00    -0.363 C  
BRANCH  16  17
HETATM   17  N   UNL     1     -12.336  14.830  68.654  1.00  0.00    -0.591 N  
HETATM   18  C   UNL     1     -11.580  14.653  67.521  1.00  0.00    -0.375 C  
HETATM   19  H   UNL     1     -13.262  14.407  68.712  1.00  0.00     0.000 HD 
HETATM   20  O   UNL     1     -10.509  15.220  67.329  1.00  0.00    -0.265 OA 
BRANCH  18  21
HETATM   21  C   UNL     1     -12.184  13.770  66.449  1.00  0.00    -0.436 C  
BRANCH  21  22
HETATM   22  N   UNL     1     -11.481  12.470  66.441  1.00  0.00    -0.343 NA 
HETATM   23  C   UNL     1     -10.826  12.066  65.323  1.00  0.00    -0.294 A  
HETATM   24  C   UNL     1     -10.179  10.838  65.289  1.00  0.00    -0.351 A  
HETATM   25  C   UNL     1     -10.188  10.031  66.417  1.00  0.00    -0.290 A  
HETATM   26  C   UNL     1     -10.847  10.464  67.559  1.00  0.00    -0.358 A  
HETATM   27  C   UNL     1     -11.491  11.695  67.549  1.00  0.00    -0.289 A  
ENDBRANCH  21  22
ENDBRANCH  18  21
ENDBRANCH  16  17
ENDBRANCH  15  16
ENDBRANCH  14  15
ENDBRANCH  12  14
ENDBRANCH  11  12
ENDBRANCH  10  11
ENDBRANCH   9  10
ENDBRANCH   8   9
ENDBRANCH   7   8
ENDBRANCH   6   7
ENDBRANCH   5   6
ENDBRANCH   4   5
ENDBRANCH   3   4
ENDBRANCH   2   3
TORSDOF 16
ENDMDL
MODEL        4
REMARK 921   NORMALIZED FREE ENERGY PREDICTED BY IDOCK:   -5.06 KCAL/MOL
REMARK 922        TOTAL FREE ENERGY PREDICTED BY IDOCK:  -11.88 KCAL/MOL
REMARK 923 INTER-LIGAND FREE ENERGY PREDICTED BY IDOCK:  -10.28 KCAL/MOL
REMARK 924 INTRA-LIGAND FREE ENERGY PREDICTED BY IDOCK:   -1.60 KCAL/MOL
REMARK 927      BINDING AFFINITY PREDICTED BY RF-SCORE:    0.00 PKD
ROOT
HETATM    1  C   UNL     1     -11.828   7.855  72.165  1.00  0.00    -0.384 C  
HETATM    2  C   UNL     1     -11.232   9.135  71.604  1.00  0.00    -0.447 C  
ENDROOT
BRANCH   2   3
HETATM    3  C   UNL     1     -12.279   9.936  70.832  1.00  0.00    -0.420 C  
BRANCH   3   4
HETATM    4  C   UNL     1     -13.123  10.793  71.772  1.00  0.00    -0.573 C  
BRANCH   4   5
HETATM    5  C   UNL     1     -12.941  12.279  71.461  1.00  0.00    -0.390 C  
BRANCH   5   6
HETATM    6  C   UNL     1     -13.827  13.127  72.364  1.00  0.00    -0.583 C  
BRANCH   6   7
HETATM    7  C   UNL     1     -13.236  14.517  72.585  1.00  0.00    -0.571 C  
BRANCH   7   8
HETATM    8  C   UNL     1     -13.363  15.337  71.304  1.00  0.00    -0.586 C  
BRANCH   8   9
HETATM    9  C   UNL     1     -12.023  15.903  70.858  1.00  0.00    -0.432 C  
BRANCH   9  10
HETATM   10  C   UNL     1     -11.347  15.019  69.798  1.00  0.00    -0.310 C  
BRANCH  10  11
HETATM   11  C   UNL     1      -9.958  15.510  69.364  1.00  0.00    -0.277 C  
BRANCH  11  12
HETATM   12  C   UNL     1      -9.781  15.334  67.877  1.00  0.00    -0.211 C  
HETATM   13  O   UNL     1      -9.084  14.481  67.348  1.00  0.00    -0.181 OA 
BRANCH  12  14
HETATM   14  O   UNL     1     -10.656  16.142  67.217  1.00  0.00    -0.307 OA 
BRANCH  14  15
HETATM   15  C   UNL     1     -10.129  16.719  66.016  1.00  0.00    -0.332 C  
BRANCH  15  16
HETATM   16  C   UNL     1     -10.951  16.131  64.864  1.00  0.00    -0.349 C  
BRANCH  16  17
HETATM   17  N   UNL     1     -10.789  14.697  64.685  1.00  0.00    -0.601 N  
HETATM   18  C   UNL     1     -11.776  13.945  64.098  1.00  0.00    -0.340 C  
HETATM   19  H   UNL     1      -9.930  14.244  65.000  1.00  0.00     0.000 HD 
HETATM   20  O   UNL     1     -12.878  14.393  63.797  1.00  0.00    -0.644 OA 
BRANCH  18  21
HETATM   21  C   UNL     1     -11.471  12.472  63.913  1.00  0.00    -0.437 C  
BRANCH  21  22
HETATM   22  N   UNL     1     -11.143  11.879  65.227  1.00  0.00    -0.306 NA 
HETATM   23  C   UNL     1     -10.267  10.845  65.299  1.00  0.00    -0.288 A  
HETATM   24  C   UNL     1      -9.964  10.260  66.521  1.00  0.00    -0.280 A  
HETATM   25  C   UNL     1     -10.550  10.754  67.677  1.00  0.00    -0.271 A  
HETATM   26  C   UNL     1     -11.431  11.824  67.592  1.00  0.00    -0.370 A  
HETATM   27  C   UNL     1     -11.715  12.374  66.348  1.00  0.00    -0.391 A  
ENDBRANCH  21  22
ENDBRANCH  18  21
ENDBRANCH  16  17
ENDBRANCH  15  16
ENDBRANCH  14  15
ENDBRANCH  12  14
ENDBRANCH  11  12
ENDBRANCH  10  11
ENDBRANCH   9  10
ENDBRANCH   8   9
ENDBRANCH   7   8
ENDBRANCH   6   7
ENDBRANCH   5   6
ENDBRANCH   4   5
ENDBRANCH   3   4
ENDBRANCH   2   3
TORSDOF 16
ENDMDL
MODEL        5
REMARK 921   NORMALIZED FREE ENERGY PREDICTED BY IDOCK:   -5.05 KCAL/MOL
REMARK 922        TOTAL FREE ENERGY PREDICTED BY IDOCK:  -11.86 KCAL/MOL
REMARK 923 INTER-LIGAND FREE ENERGY PREDICTED BY IDOCK:   -9.87 KCAL/MOL
REMARK 924 INTRA-LIGAND FREE ENERGY PREDICTED BY IDOCK:   -1.99 KCAL/MOL
REMARK 927      BINDING AFFINITY PREDICTED BY RF-SCORE:    0.00 PKD
ROOT
HETATM    1  C   UNL     1     -11.427   9.620  71.193  1.00  0.00    -0.456 C  
HETATM    2  C   UNL     1     -12.538  10.502  70.650  1.00  0.00    -0.457 C  
ENDROOT
BRANCH   2   3
HETATM    3  C   UNL     1     -13.277  11.213  71.782  1.00  0.00    -0.486 C  
BRANCH   3   4
HETATM    4  C   UNL     1     -12.984  12.711  71.778  1.00  0.00    -0.417 C  
BRANCH   4   5
HETATM    5  C   UNL     1     -14.128  13.489  72.428  1.00  0.00    -0.563 C  
BRANCH   5   6
HETATM    6  C   UNL     1     -13.741  14.949  72.622  1.00  0.00    -0.552 C  
BRANCH   6   7
HETATM    7  C   UNL     1     -13.215  15.568  71.330  1.00  0.00    -0.588 C  
BRANCH   7   8
HETATM    8  C   UNL     1     -11.787  16.065  71.544  1.00  0.00    -0.554 C  
BRANCH   8   9
HETATM    9  C   UNL     1     -10.866  15.652  70.405  1.00  0.00    -0.358 C  
BRANCH   9  10
HETATM   10  C   UNL     1     -11.634  15.437  69.091  1.00  0.00    -0.354 C  
BRANCH  10  11
HETATM   11  C   UNL     1     -11.862  13.963  68.731  1.00  0.00    -0.396 C  
BRANCH  11  12
HETATM   12  C   UNL     1     -12.031  13.806  67.241  1.00  0.00    -0.401 C  
HETATM   13  O   UNL     1     -12.145  14.726  66.446  1.00  0.00    -0.264 OA 
BRANCH  12  14
HETATM   14  O   UNL     1     -11.849  12.501  66.898  1.00  0.00    -0.437 OA 
BRANCH  14  15
HETATM   15  C   UNL     1     -10.865  12.295  65.876  1.00  0.00    -0.271 C  
BRANCH  15  16
HETATM   16  C   UNL     1      -9.506  12.543  66.538  1.00  0.00    -0.240 C  
BRANCH  16  17
HETATM   17  N   UNL     1      -8.952  13.863  66.289  1.00  0.00    -0.473 N  
HETATM   18  C   UNL     1      -8.345  14.574  67.296  1.00  0.00    -0.212 C  
HETATM   19  H   UNL     1      -9.014  14.267  65.355  1.00  0.00     0.000 HD 
HETATM   20  O   UNL     1      -8.331  14.207  68.467  1.00  0.00    -0.156 OA 
BRANCH  18  21
HETATM   21  C   UNL     1      -7.755  15.913  66.904  1.00  0.00    -0.233 C  
BRANCH  21  22
HETATM   22  N   UNL     1      -8.749  16.975  67.170  1.00  0.00    -0.205 NA 
HETATM   23  C   UNL     1      -9.677  17.279  66.226  1.00  0.00    -0.266 A  
HETATM   24  C   UNL     1     -10.604  18.288  66.448  1.00  0.00    -0.318 A  
HETATM   25  C   UNL     1     -10.590  18.974  67.654  1.00  0.00    -0.526 A  
HETATM   26  C   UNL     1      -9.647  18.640  68.617  1.00  0.00    -0.407 A  
HETATM   27  C   UNL     1      -8.731  17.630  68.351  1.00  0.00    -0.284 A  
ENDBRANCH  21  22
ENDBRANCH  18  21
ENDBRANCH  16  17
ENDBRANCH  15  16
ENDBRANCH  14  15
ENDBRANCH  12  14
ENDBRANCH  11  12
ENDBRANCH  10  11
ENDBRANCH   9  10
ENDBRANCH   8   9
ENDBRANCH   7   8
ENDBRANCH   6   7
ENDBRANCH   5   6
ENDBRANCH   4   5
ENDBRANCH   3   4
ENDBRANCH   2   3
TORSDOF 16
ENDMDL
MODEL        6
REMARK 921   NORMALIZED FREE ENERGY PREDICTED BY IDOCK:   -4.99 KCAL/MOL
REMARK 922        TOTAL FREE ENERGY PREDICTED BY IDOCK:  -11.73 KCAL/MOL
REMARK 923 INTER-LIGAND FREE ENERGY PREDICTED BY IDOCK:   -9.54 KCAL/MOL
REMARK 924 INTRA-LIGAND FREE ENERGY PREDICTED BY IDOCK:   -2.19 KCAL/MOL
REMARK 927      BINDING AFFINITY PREDICTED BY RF-SCORE:    0.00 PKD
ROOT
HETATM    1  C   UNL     1     -11.500   6.185  69.485  1.00  0.00    -0.299 C  
HETATM    2  C   UNL     1     -10.706   6.427  70.757  1.00  0.00    -0.302 C  
ENDROOT
BRANCH   2   3
HETATM    3  C   UNL     1     -11.575   7.077  71.831  1.00  0.00    -0.320 C  
BRANCH   3   4
HETATM    4  C   UNL     1     -13.035   7.149  71.393  1.00  0.00    -0.419 C  
BRANCH   4   5
HETATM    5  C   UNL     1     -13.657   8.486  71.795  1.00  0.00    -0.419 C  
BRANCH   5   6
HETATM    6  C   UNL     1     -12.584   9.558  71.929  1.00  0.00    -0.479 C  
BRANCH   6   7
HETATM    7  C   UNL     1     -13.029  10.880  71.309  1.00  0.00    -0.492 C  
BRANCH   7   8
HETATM    8  C   UNL     1     -12.057  11.280  70.202  1.00  0.00    -0.448 C  
BRANCH   8   9
HETATM    9  C   UNL     1     -11.086  10.157  69.868  1.00  0.00    -0.346 C  
BRANCH   9  10
HETATM   10  C   UNL     1     -10.892   9.992  68.353  1.00  0.00    -0.277 C  
BRANCH  10  11
HETATM   11  C   UNL     1     -10.185  11.176  67.678  1.00  0.00    -0.208 C  
BRANCH  11  12
HETATM   12  C   UNL     1     -10.989  11.665  66.499  1.00  0.00    -0.299 C  
HETATM   13  O   UNL     1     -10.844  11.290  65.346  1.00  0.00    -0.261 OA 
BRANCH  12  14
HETATM   14  O   UNL     1     -12.018  12.440  66.941  1.00  0.00    -0.550 OA 
BRANCH  14  15
HETATM   15  C   UNL     1     -12.258  13.605  66.143  1.00  0.00    -0.444 C  
BRANCH  15  16
HETATM   16  C   UNL     1     -11.102  14.568  66.436  1.00  0.00    -0.331 C  
BRANCH  16  17
HETATM   17  N   UNL     1     -11.385  15.542  67.477  1.00  0.00    -0.282 N  
HETATM   18  C   UNL     1     -10.823  15.422  68.724  1.00  0.00    -0.252 C  
HETATM   19  H   UNL     1     -12.008  16.325  67.278  1.00  0.00     0.000 HD 
HETATM   20  O   UNL     1     -10.156  14.453  69.074  1.00  0.00    -0.221 OA 
BRANCH  18  21
HETATM   21  C   UNL     1     -11.144  16.527  69.709  1.00  0.00    -0.245 C  
BRANCH  21  22
HETATM   22  N   UNL     1     -11.920  15.962  70.833  1.00  0.00    -0.400 NA 
HETATM   23  C   UNL     1     -13.053  15.258  70.582  1.00  0.00    -0.358 A  
HETATM   24  C   UNL     1     -13.807  14.738  71.625  1.00  0.00    -0.535 A  
HETATM   25  C   UNL     1     -13.382  14.927  72.933  1.00  0.00    -0.576 A  
HETATM   26  C   UNL     1     -12.212  15.634  73.174  1.00  0.00    -0.587 A  
HETATM   27  C   UNL     1     -11.492  16.145  72.102  1.00  0.00    -0.189 A  
ENDBRANCH  21  22
ENDBRANCH  18  21
ENDBRANCH  16  17
ENDBRANCH  15  16
ENDBRANCH  14  15
ENDBRANCH  12  14
ENDBRANCH  11  12
ENDBRANCH  10  11
ENDBRANCH   9  10
ENDBRANCH   8   9
ENDBRANCH   7   8
ENDBRANCH   6   7
ENDBRANCH   5   6
ENDBRANCH   4   5
ENDBRANCH   3   4
ENDBRANCH   2   3
TORSDOF 16
ENDMDL
MODEL        7
REMARK 921   NORMALIZED FREE ENERGY PREDICTED BY IDOCK:   -4.96 KCAL/MOL
REMARK 922        TOTAL FREE ENERGY PREDICTED BY IDOCK:  -11.69 KCAL/MOL
REMARK 923 INTER-LIGAND FREE ENERGY PREDICTED BY IDOCK:  -10.01 KCAL/MOL
REMARK 924 INTRA-LIGAND FREE ENERGY PREDICTED BY IDOCK:   -1.67 KCAL/MOL
REMARK 927      BINDING AFFINITY PREDICTED BY RF-SCORE:    0.00 PKD
ROOT
HETATM    1  C   UNL     1     -10.169   6.778  70.130  1.00  0.00    -0.215 C  
HETATM    2  C   UNL     1     -11.666   6.532  70.216  1.00  0.00    -0.430 C  
ENDROOT
BRANCH   2   3
HETATM    3  C   UNL     1     -12.215   6.963  71.574  1.00  0.00    -0.415 C  
BRANCH   3   4
HETATM    4  C   UNL     1     -13.729   7.152  71.524  1.00  0.00    -0.413 C  
BRANCH   4   5
HETATM    5  C   UNL     1     -14.113   8.567  71.955  1.00  0.00    -0.519 C  
BRANCH   5   6
HETATM    6  C   UNL     1     -12.870   9.426  72.146  1.00  0.00    -0.480 C  
BRANCH   6   7
HETATM    7  C   UNL     1     -13.150  10.895  71.841  1.00  0.00    -0.537 C  
BRANCH   7   8
HETATM    8  C   UNL     1     -12.171  11.391  70.779  1.00  0.00    -0.475 C  
BRANCH   8   9
HETATM    9  C   UNL     1     -11.198  10.302  70.351  1.00  0.00    -0.407 C  
BRANCH   9  10
HETATM   10  C   UNL     1     -10.973  10.294  68.831  1.00  0.00    -0.279 C  
BRANCH  10  11
HETATM   11  C   UNL     1     -11.519  11.534  68.109  1.00  0.00    -0.385 C  
BRANCH  11  12
HETATM   12  C   UNL     1     -11.221  11.455  66.632  1.00  0.00    -0.231 C  
HETATM   13  O   UNL     1     -10.475  10.642  66.108  1.00  0.00    -0.243 OA 
BRANCH  12  14
HETATM   14  O   UNL     1     -12.048  12.299  65.956  1.00  0.00    -0.623 OA 
BRANCH  14  15
HETATM   15  C   UNL     1     -11.549  12.711  64.678  1.00  0.00    -0.342 C  
BRANCH  15  16
HETATM   16  C   UNL     1     -10.673  13.941  64.940  1.00  0.00    -0.410 C  
BRANCH  16  17
HETATM   17  N   UNL     1     -11.218  14.864  65.922  1.00  0.00    -0.336 N  
HETATM   18  C   UNL     1     -10.485  15.229  67.026  1.00  0.00    -0.292 C  
HETATM   19  H   UNL     1     -12.155  15.244  65.791  1.00  0.00     0.000 HD 
HETATM   20  O   UNL     1      -9.401  14.730  67.312  1.00  0.00    -0.196 OA 
BRANCH  18  21
HETATM   21  C   UNL     1     -11.133  16.239  67.950  1.00  0.00    -0.270 C  
BRANCH  21  22
HETATM   22  N   UNL     1     -10.515  17.563  67.727  1.00  0.00    -0.369 NA 
HETATM   23  C   UNL     1      -9.935  18.219  68.765  1.00  0.00    -0.370 A  
HETATM   24  C   UNL     1      -9.369  19.473  68.580  1.00  0.00    -0.430 A  
HETATM   25  C   UNL     1      -9.382  20.047  67.317  1.00  0.00    -0.496 A  
HETATM   26  C   UNL     1      -9.963  19.358  66.261  1.00  0.00    -0.509 A  
HETATM   27  C   UNL     1     -10.526  18.109  66.490  1.00  0.00    -0.341 A  
ENDBRANCH  21  22
ENDBRANCH  18  21
ENDBRANCH  16  17
ENDBRANCH  15  16
ENDBRANCH  14  15
ENDBRANCH  12  14
ENDBRANCH  11  12
ENDBRANCH  10  11
ENDBRANCH   9  10
ENDBRANCH   8   9
ENDBRANCH   7   8
ENDBRANCH   6   7
ENDBRANCH   5   6
ENDBRANCH   4   5
ENDBRANCH   3   4
ENDBRANCH   2   3
TORSDOF 16
ENDMDL
MODEL        8
REMARK 921   NORMALIZED FREE ENERGY PREDICTED BY IDOCK:   -4.96 KCAL/MOL
REMARK 922        TOTAL FREE ENERGY PREDICTED BY IDOCK:  -11.67 KCAL/MOL
REMARK 923 INTER-LIGAND FREE ENERGY PREDICTED BY IDOCK:   -9.98 KCAL/MOL
REMARK 924 INTRA-LIGAND FREE ENERGY PREDICTED BY IDOCK:   -1.69 KCAL/MOL
REMARK 927      BINDING AFFINITY PREDICTED BY RF-SCORE:    0.00 PKD
ROOT
HETATM    1  C   UNL     1     -11.195   6.718  68.362  1.00  0.00    -0.146 C  
HETATM    2  C   UNL     1     -11.153   5.995  69.697  1.00  0.00    -0.474 C  
ENDROOT
BRANCH   2   3
HETATM    3  C   UNL     1     -10.020   6.525  70.573  1.00  0.00    -0.206 C  
BRANCH   3   4
HETATM    4  C   UNL     1     -10.465   6.669  72.026  1.00  0.00    -0.227 C  
BRANCH   4   5
HETATM    5  C   UNL     1     -10.806   8.123  72.347  1.00  0.00    -0.409 C  
BRANCH   5   6
HETATM    6  C   UNL     1     -10.138   9.063  71.352  1.00  0.00    -0.399 C  
BRANCH   6   7
HETATM    7  C   UNL     1     -11.130  10.073  70.781  1.00  0.00    -0.407 C  
BRANCH   7   8
HETATM    8  C   UNL     1     -12.555   9.589  71.032  1.00  0.00    -0.331 C  
BRANCH   8   9
HETATM    9  C   UNL     1     -13.322  10.532  71.948  1.00  0.00    -0.461 C  
BRANCH   9  10
HETATM   10  C   UNL     1     -12.949  12.002  71.705  1.00  0.00    -0.445 C  
BRANCH  10  11
HETATM   11  C   UNL     1     -13.851  13.008  72.435  1.00  0.00    -0.526 C  
BRANCH  11  12
HETATM   12  C   UNL     1     -13.493  14.418  72.039  1.00  0.00    -0.402 C  
HETATM   13  O   UNL     1     -14.102  15.420  72.380  1.00  0.00    -0.528 OA 
BRANCH  12  14
HETATM   14  O   UNL     1     -12.289  14.419  71.404  1.00  0.00    -0.330 OA 
BRANCH  14  15
HETATM   15  C   UNL     1     -11.821  15.723  71.034  1.00  0.00    -0.420 C  
BRANCH  15  16
HETATM   16  C   UNL     1     -11.741  15.729  69.504  1.00  0.00    -0.360 C  
BRANCH  16  17
HETATM   17  N   UNL     1     -12.221  14.509  68.876  1.00  0.00    -0.564 N  
HETATM   18  C   UNL     1     -11.345  13.626  68.292  1.00  0.00    -0.289 C  
HETATM   19  H   UNL     1     -13.220  14.306  68.868  1.00  0.00     0.000 HD 
HETATM   20  O   UNL     1     -10.146  13.852  68.160  1.00  0.00    -0.235 OA 
BRANCH  18  21
HETATM   21  C   UNL     1     -11.955  12.363  67.720  1.00  0.00    -0.186 C  
BRANCH  21  22
HETATM   22  N   UNL     1     -11.766  12.358  66.254  1.00  0.00    -0.472 NA 
HETATM   23  C   UNL     1     -10.908  11.470  65.689  1.00  0.00    -0.252 A  
HETATM   24  C   UNL     1     -10.700  11.464  64.317  1.00  0.00    -0.420 A  
HETATM   25  C   UNL     1     -11.393  12.363  63.519  1.00  0.00    -0.553 A  
HETATM   26  C   UNL     1     -12.281  13.253  64.107  1.00  0.00    -0.465 A  
HETATM   27  C   UNL     1     -12.453  13.232  65.485  1.00  0.00    -0.474 A  
ENDBRANCH  21  22
ENDBRANCH  18  21
ENDBRANCH  16  17
ENDBRANCH  15  16
ENDBRANCH  14  15
ENDBRANCH  12  14
ENDBRANCH  11  12
ENDBRANCH  10  11
ENDBRANCH   9  10
ENDBRANCH   8   9
ENDBRANCH   7   8
ENDBRANCH   6   7
ENDBRANCH   5   6
ENDBRANCH   4   5
ENDBRANCH   3   4
ENDBRANCH   2   3
TORSDOF 16
ENDMDL
MODEL        9
REMARK 921   NORMALIZED FREE ENERGY PREDICTED BY IDOCK:   -4.94 KCAL/MOL
REMARK 922        TOTAL FREE ENERGY PREDICTED BY IDOCK:  -11.65 KCAL/MOL
REMARK 923 INTER-LIGAND FREE ENERGY PREDICTED BY IDOCK:   -9.90 KCAL/MOL
REMARK 924 INTRA-LIGAND FREE ENERGY PREDICTED BY IDOCK:   -1.75 KCAL/MOL
REMARK 927      BINDING AFFINITY PREDICTED BY RF-SCORE:    0.00 PKD
ROOT
HETATM    1  C   UNL     1     -12.573  11.159  70.973  1.00  0.00    -0.503 C  
HETATM    2  C   UNL     1     -13.219  10.181  71.939  1.00  0.00    -0.557 C  
ENDROOT
BRANCH   2   3
HETATM    3  C   UNL     1     -12.839   8.741  71.601  1.00  0.00    -0.392 C  
BRANCH   3   4
HETATM    4  C   UNL     1     -11.476   8.378  72.184  1.00  0.00    -0.442 C  
BRANCH   4   5
HETATM    5  C   UNL     1     -10.475   8.067  71.072  1.00  0.00    -0.229 C  
BRANCH   5   6
HETATM    6  C   UNL     1      -9.369   9.114  71.039  1.00  0.00    -0.333 C  
BRANCH   6   7
HETATM    7  C   UNL     1      -9.300   9.816  69.686  1.00  0.00    -0.237 C  
BRANCH   7   8
HETATM    8  C   UNL     1     -10.191   9.086  68.684  1.00  0.00    -0.226 C  
BRANCH   8   9
HETATM    9  C   UNL     1     -10.860  10.048  67.713  1.00  0.00    -0.337 C  
BRANCH   9  10
HETATM   10  C   UNL     1     -10.037  10.238  66.429  1.00  0.00    -0.296 C  
BRANCH  10  11
HETATM   11  C   UNL     1     -10.093  11.659  65.851  1.00  0.00    -0.267 C  
BRANCH  11  12
HETATM   12  C   UNL     1     -10.647  11.634  64.449  1.00  0.00    -0.323 C  
HETATM   13  O   UNL     1     -10.124  11.075  63.497  1.00  0.00    -0.319 OA 
BRANCH  12  14
HETATM   14  O   UNL     1     -11.902  12.163  64.447  1.00  0.00    -0.363 OA 
BRANCH  14  15
HETATM   15  C   UNL     1     -12.104  13.189  63.467  1.00  0.00    -0.514 C  
BRANCH  15  16
HETATM   16  C   UNL     1     -12.360  14.481  64.250  1.00  0.00    -0.369 C  
BRANCH  16  17
HETATM   17  N   UNL     1     -11.162  15.254  64.535  1.00  0.00    -0.667 N  
HETATM   18  C   UNL     1     -10.718  15.413  65.825  1.00  0.00    -0.351 C  
HETATM   19  H   UNL     1     -10.644  15.683  63.768  1.00  0.00     0.000 HD 
HETATM   20  O   UNL     1     -11.343  15.026  66.807  1.00  0.00    -0.341 OA 
BRANCH  18  21
HETATM   21  C   UNL     1      -9.428  16.190  65.994  1.00  0.00    -0.339 C  
BRANCH  21  22
HETATM   22  N   UNL     1      -9.714  17.449  66.715  1.00  0.00    -0.277 NA 
HETATM   23  C   UNL     1      -9.239  17.625  67.974  1.00  0.00    -0.271 A  
HETATM   24  C   UNL     1      -9.516  18.791  68.675  1.00  0.00    -0.412 A  
HETATM   25  C   UNL     1     -10.268  19.788  68.071  1.00  0.00    -0.581 A  
HETATM   26  C   UNL     1     -10.732  19.601  66.776  1.00  0.00    -0.562 A  
HETATM   27  C   UNL     1     -10.441  18.416  66.112  1.00  0.00    -0.395 A  
ENDBRANCH  21  22
ENDBRANCH  18  21
ENDBRANCH  16  17
ENDBRANCH  15  16
ENDBRANCH  14  15
ENDBRANCH  12  14
ENDBRANCH  11  12
ENDBRANCH  10  11
ENDBRANCH   9  10
ENDBRANCH   8   9
ENDBRANCH   7   8
ENDBRANCH   6   7
ENDBRANCH   5   6
ENDBRANCH   4   5
ENDBRANCH   3   4
ENDBRANCH   2   3
TORSDOF 16
ENDMDL
MODEL       10
REMARK 921   NORMALIZED FREE ENERGY PREDICTED BY IDOCK:   -4.94 KCAL/MOL
REMARK 922        TOTAL FREE ENERGY PREDICTED BY IDOCK:  -11.65 KCAL/MOL
REMARK 923 INTER-LIGAND FREE ENERGY PREDICTED BY IDOCK:   -9.92 KCAL/MOL
REMARK 924 INTRA-LIGAND FREE ENERGY PREDICTED BY IDOCK:   -1.73 KCAL/MOL
REMARK 927      BINDING AFFINITY PREDICTED BY RF-SCORE:    0.00 PKD
ROOT
HETATM    1  C   UNL     1      -9.987   6.507  66.669  1.00  0.00    -0.204 C  
HETATM    2  C   UNL     1     -10.838   5.986  67.815  1.00  0.00    -0.380 C  
ENDROOT
BRANCH   2   3
HETATM    3  C   UNL     1     -10.018   5.099  68.749  1.00  0.00    -0.237 C  
BRANCH   3   4
HETATM    4  C   UNL     1     -10.574   5.127  70.169  1.00  0.00    -0.225 C  
BRANCH   4   5
HETATM    5  C   UNL     1     -11.446   6.364  70.386  1.00  0.00    -0.458 C  
BRANCH   5   6
HETATM    6  C   UNL     1     -11.850   6.485  71.850  1.00  0.00    -0.381 C  
BRANCH   6   7
HETATM    7  C   UNL     1     -11.669   7.910  72.366  1.00  0.00    -0.423 C  
BRANCH   7   8
HETATM    8  C   UNL     1     -12.971   8.687  72.191  1.00  0.00    -0.432 C  
BRANCH   8   9
HETATM    9  C   UNL     1     -12.731  10.068  71.597  1.00  0.00    -0.535 C  
BRANCH   9  10
HETATM   10  C   UNL     1     -11.494  10.098  70.686  1.00  0.00    -0.432 C  
BRANCH  10  11
HETATM   11  C   UNL     1     -11.461  11.282  69.710  1.00  0.00    -0.386 C  
BRANCH  11  12
HETATM   12  C   UNL     1     -11.380  10.787  68.287  1.00  0.00    -0.309 C  
HETATM   13  O   UNL     1     -10.868   9.735  67.937  1.00  0.00    -0.266 OA 
BRANCH  12  14
HETATM   14  O   UNL     1     -12.124  11.594  67.482  1.00  0.00    -0.611 OA 
BRANCH  14  15
HETATM   15  C   UNL     1     -11.471  11.971  66.264  1.00  0.00    -0.345 C  
BRANCH  15  16
HETATM   16  C   UNL     1     -10.763  13.299  66.553  1.00  0.00    -0.285 C  
BRANCH  16  17
HETATM   17  N   UNL     1     -11.571  14.260  67.286  1.00  0.00    -0.358 N  
HETATM   18  C   UNL     1     -11.126  14.794  68.471  1.00  0.00    -0.264 C  
HETATM   19  H   UNL     1     -12.479  14.540  66.916  1.00  0.00     0.000 HD 
HETATM   20  O   UNL     1     -10.101  14.425  69.035  1.00  0.00    -0.221 OA 
BRANCH  18  21
HETATM   21  C   UNL     1     -12.028  15.827  69.115  1.00  0.00    -0.296 C  
BRANCH  21  22
HETATM   22  N   UNL     1     -12.326  15.410  70.501  1.00  0.00    -0.381 NA 
HETATM   23  C   UNL     1     -11.779  16.089  71.541  1.00  0.00    -0.484 A  
HETATM   24  C   UNL     1     -12.029  15.698  72.849  1.00  0.00    -0.588 A  
HETATM   25  C   UNL     1     -12.863  14.615  73.090  1.00  0.00    -0.586 A  
HETATM   26  C   UNL     1     -13.429  13.940  72.017  1.00  0.00    -0.543 A  
HETATM   27  C   UNL     1     -13.145  14.357  70.723  1.00  0.00    -0.285 A  
ENDBRANCH  21  22
ENDBRANCH  18  21
ENDBRANCH  16  17
ENDBRANCH  15  16
ENDBRANCH  14  15
ENDBRANCH  12  14
ENDBRANCH  11  12
ENDBRANCH  10  11
ENDBRANCH   9  10
ENDBRANCH   8   9
ENDBRANCH   7   8
ENDBRANCH   6   7
ENDBRANCH   5   6
ENDBRANCH   4   5
ENDBRANCH   3   4
ENDBRANCH   2   3
TORSDOF 16
ENDMDL
MODEL       11
REMARK 921   NORMALIZED FREE ENERGY PREDICTED BY IDOCK:   -4.94 KCAL/MOL
REMARK 922        TOTAL FREE ENERGY PREDICTED BY IDOCK:  -11.65 KCAL/MOL
REMARK 923 INTER-LIGAND FREE ENERGY PREDICTED BY IDOCK:   -9.27 KCAL/MOL
REMARK 924 INTRA-LIGAND FREE ENERGY PREDICTED BY IDOCK:   -2.38 KCAL/MOL
REMARK 927      BINDING AFFINITY PREDICTED BY RF-SCORE:    0.00 PKD
ROOT
HETATM    1  C   UNL     1     -13.190  13.846  71.490  1.00  0.00    -0.425 C  
HETATM    2  C   UNL     1     -13.278  12.421  72.008  1.00  0.00    -0.514 C  
ENDROOT
BRANCH   2   3
HETATM    3  C   UNL     1     -12.589  11.447  71.055  1.00  0.00    -0.487 C  
BRANCH   3   4
HETATM    4  C   UNL     1     -13.009  10.007  71.335  1.00  0.00    -0.517 C  
BRANCH   4   5
HETATM    5  C   UNL     1     -11.805   9.160  71.743  1.00  0.00    -0.453 C  
BRANCH   5   6
HETATM    6  C   UNL     1     -11.564   8.047  70.731  1.00  0.00    -0.251 C  
BRANCH   6   7
HETATM    7  C   UNL     1     -10.094   7.960  70.331  1.00  0.00    -0.194 C  
BRANCH   7   8
HETATM    8  C   UNL     1      -9.421   9.312  70.558  1.00  0.00    -0.317 C  
BRANCH   8   9
HETATM    9  C   UNL     1      -8.849   9.885  69.269  1.00  0.00    -0.178 C  
BRANCH   9  10
HETATM   10  C   UNL     1      -9.743  10.988  68.682  1.00  0.00    -0.198 C  
BRANCH  10  11
HETATM   11  C   UNL     1     -10.829  10.474  67.726  1.00  0.00    -0.347 C  
BRANCH  11  12
HETATM   12  C   UNL     1     -10.201   9.806  66.528  1.00  0.00    -0.219 C  
HETATM   13  O   UNL     1     -10.212   8.605  66.307  1.00  0.00    -0.264 OA 
BRANCH  12  14
HETATM   14  O   UNL     1      -9.789  10.756  65.643  1.00  0.00    -0.219 OA 
BRANCH  14  15
HETATM   15  C   UNL     1      -9.337  10.231  64.389  1.00  0.00    -0.277 C  
BRANCH  15  16
HETATM   16  C   UNL     1     -10.240  10.852  63.317  1.00  0.00    -0.257 C  
BRANCH  16  17
HETATM   17  N   UNL     1     -10.588  12.242  63.561  1.00  0.00    -0.457 N  
HETATM   18  C   UNL     1     -11.901  12.628  63.678  1.00  0.00    -0.530 C  
HETATM   19  H   UNL     1      -9.848  12.939  63.646  1.00  0.00     0.000 HD 
HETATM   20  O   UNL     1     -12.847  11.874  63.477  1.00  0.00    -0.691 OA 
BRANCH  18  21
HETATM   21  C   UNL     1     -12.139  14.092  63.988  1.00  0.00    -0.376 C  
BRANCH  21  22
HETATM   22  N   UNL     1     -11.767  14.354  65.395  1.00  0.00    -0.354 NA 
HETATM   23  C   UNL     1     -10.852  15.314  65.681  1.00  0.00    -0.363 A  
HETATM   24  C   UNL     1     -10.472  15.559  66.993  1.00  0.00    -0.304 A  
HETATM   25  C   UNL     1     -11.052  14.826  68.019  1.00  0.00    -0.294 A  
HETATM   26  C   UNL     1     -12.000  13.859  67.714  1.00  0.00    -0.390 A  
HETATM   27  C   UNL     1     -12.344  13.638  66.386  1.00  0.00    -0.389 A  
ENDBRANCH  21  22
ENDBRANCH  18  21
ENDBRANCH  16  17
ENDBRANCH  15  16
ENDBRANCH  14  15
ENDBRANCH  12  14
ENDBRANCH  11  12
ENDBRANCH  10  11
ENDBRANCH   9  10
ENDBRANCH   8   9
ENDBRANCH   7   8
ENDBRANCH   6   7
ENDBRANCH   5   6
ENDBRANCH   4   5
ENDBRANCH   3   4
ENDBRANCH   2   3
TORSDOF 16
ENDMDL
MODEL       12
REMARK 921   NORMALIZED FREE ENERGY PREDICTED BY IDOCK:   -4.94 KCAL/MOL
REMARK 922        TOTAL FREE ENERGY PREDICTED BY IDOCK:  -11.64 KCAL/MOL
REMARK 923 INTER-LIGAND FREE ENERGY PREDICTED BY IDOCK:   -9.91 KCAL/MOL
REMARK 924 INTRA-LIGAND FREE ENERGY PREDICTED BY IDOCK:   -1.73 KCAL/MOL
REMARK 927      BINDING AFFINITY PREDICTED BY RF-SCORE:    0.00 PKD
ROOT
HETATM    1  C   UNL     1     -11.405  14.810  64.812  1.00  0.00    -0.399 C  
HETATM    2  C   UNL     1     -12.606  13.954  65.178  1.00  0.00    -0.466 C  
ENDROOT
BRANCH   2   3
HETATM    3  C   UNL     1     -12.427  12.519  64.688  1.00  0.00    -0.539 C  
BRANCH   3   4
HETATM    4  C   UNL     1     -11.271  12.413  63.697  1.00  0.00    -0.544 C  
BRANCH   4   5
HETATM    5  C   UNL     1     -10.530  11.087  63.867  1.00  0.00    -0.422 C  
BRANCH   5   6
HETATM    6  C   UNL     1      -9.845  11.026  65.225  1.00  0.00    -0.309 C  
BRANCH   6   7
HETATM    7  C   UNL     1     -10.150   9.717  65.950  1.00  0.00    -0.314 C  
BRANCH   7   8
HETATM    8  C   UNL     1     -10.849  10.017  67.274  1.00  0.00    -0.284 C  
BRANCH   8   9
HETATM    9  C   UNL     1     -10.736  11.486  67.655  1.00  0.00    -0.255 C  
BRANCH   9  10
HETATM   10  C   UNL     1     -11.802  11.900  68.681  1.00  0.00    -0.365 C  
BRANCH  10  11
HETATM   11  C   UNL     1     -11.961  10.921  69.852  1.00  0.00    -0.430 C  
BRANCH  11  12
HETATM   12  C   UNL     1     -12.670  11.590  71.003  1.00  0.00    -0.328 C  
HETATM   13  O   UNL     1     -13.121  11.015  71.981  1.00  0.00    -0.496 OA 
BRANCH  12  14
HETATM   14  O   UNL     1     -12.563  12.942  70.878  1.00  0.00    -0.343 OA 
BRANCH  14  15
HETATM   15  C   UNL     1     -13.353  13.682  71.817  1.00  0.00    -0.388 C  
BRANCH  15  16
HETATM   16  C   UNL     1     -13.402  15.121  71.291  1.00  0.00    -0.477 C  
BRANCH  16  17
HETATM   17  N   UNL     1     -12.797  15.300  69.982  1.00  0.00    -0.643 N  
HETATM   18  C   UNL     1     -11.567  15.898  69.852  1.00  0.00    -0.336 C  
HETATM   19  H   UNL     1     -13.290  14.978  69.150  1.00  0.00     0.000 HD 
HETATM   20  O   UNL     1     -10.963  16.412  70.788  1.00  0.00    -0.220 OA 
BRANCH  18  21
HETATM   21  C   UNL     1     -11.011  15.978  68.445  1.00  0.00    -0.331 C  
BRANCH  21  22
HETATM   22  N   UNL     1     -10.233  17.227  68.303  1.00  0.00    -0.326 NA 
HETATM   23  C   UNL     1     -10.855  18.366  67.905  1.00  0.00    -0.202 A  
HETATM   24  C   UNL     1     -10.138  19.543  67.744  1.00  0.00    -0.532 A  
HETATM   25  C   UNL     1      -8.777  19.554  68.015  1.00  0.00    -0.369 A  
HETATM   26  C   UNL     1      -8.156  18.386  68.438  1.00  0.00    -0.327 A  
HETATM   27  C   UNL     1      -8.909  17.227  68.577  1.00  0.00    -0.269 A  
ENDBRANCH  21  22
ENDBRANCH  18  21
ENDBRANCH  16  17
ENDBRANCH  15  16
ENDBRANCH  14  15
ENDBRANCH  12  14
ENDBRANCH  11  12
ENDBRANCH  10  11
ENDBRANCH   9  10
ENDBRANCH   8   9
ENDBRANCH   7   8
ENDBRANCH   6   7
ENDBRANCH   5   6
ENDBRANCH   4   5
ENDBRANCH   3   4
ENDBRANCH   2   3
TORSDOF 16
ENDMDL
MODEL       13
REMARK 921   NORMALIZED FREE ENERGY PREDICTED BY IDOCK:   -4.94 KCAL/MOL
REMARK 922        TOTAL FREE ENERGY PREDICTED BY IDOCK:  -11.64 KCAL/MOL
REMARK 923 INTER-LIGAND FREE ENERGY PREDICTED BY IDOCK:  -10.10 KCAL/MOL
REMARK 924 INTRA-LIGAND FREE ENERGY PREDICTED BY IDOCK:   -1.54 KCAL/MOL
REMARK 927      BINDING AFFINITY PREDICTED BY RF-SCORE:    0.00 PKD
ROOT
HETATM    1  C   UNL     1      -6.558  21.166  67.436  1.00  0.00    -0.437 C  
HETATM    2  C   UNL     1      -7.678  20.220  67.037  1.00  0.00    -0.360 C  
ENDROOT
BRANCH   2   3
HETATM    3  C   UNL     1      -8.152  19.394  68.231  1.00  0.00    -0.371 C  
BRANCH   3   4
HETATM    4  C   UNL     1      -9.666  19.481  68.398  1.00  0.00    -0.498 C  
BRANCH   4   5
HETATM    5  C   UNL     1     -10.292  18.087  68.403  1.00  0.00    -0.377 C  
BRANCH   5   6
HETATM    6  C   UNL     1      -9.603  17.185  67.388  1.00  0.00    -0.247 C  
BRANCH   6   7
HETATM    7  C   UNL     1     -10.477  16.953  66.158  1.00  0.00    -0.276 C  
BRANCH   7   8
HETATM    8  C   UNL     1     -10.312  15.513  65.678  1.00  0.00    -0.407 C  
BRANCH   8   9
HETATM    9  C   UNL     1     -11.447  15.089  64.757  1.00  0.00    -0.403 C  
BRANCH   9  10
HETATM   10  C   UNL     1     -12.432  14.139  65.455  1.00  0.00    -0.495 C  
BRANCH  10  11
HETATM   11  C   UNL     1     -12.504  12.738  64.831  1.00  0.00    -0.563 C  
BRANCH  11  12
HETATM   12  C   UNL     1     -11.519  11.814  65.501  1.00  0.00    -0.179 C  
HETATM   13  O   UNL     1     -10.486  11.401  64.996  1.00  0.00    -0.277 OA 
BRANCH  12  14
HETATM   14  O   UNL     1     -11.858  11.661  66.811  1.00  0.00    -0.557 OA 
BRANCH  14  15
HETATM   15  C   UNL     1     -10.838  11.055  67.614  1.00  0.00    -0.256 C  
BRANCH  15  16
HETATM   16  C   UNL     1     -11.105  11.506  69.054  1.00  0.00    -0.245 C  
BRANCH  16  17
HETATM   17  N   UNL     1     -11.900  12.718  69.163  1.00  0.00    -0.309 N  
HETATM   18  C   UNL     1     -11.316  13.956  69.052  1.00  0.00    -0.283 C  
HETATM   19  H   UNL     1     -12.905  12.648  69.323  1.00  0.00     0.000 HD 
HETATM   20  O   UNL     1     -10.103  14.125  68.971  1.00  0.00    -0.193 OA 
BRANCH  18  21
HETATM   21  C   UNL     1     -12.253  15.144  69.124  1.00  0.00    -0.150 C  
BRANCH  21  22
HETATM   22  N   UNL     1     -12.586  15.409  70.540  1.00  0.00    -0.419 NA 
HETATM   23  C   UNL     1     -13.829  15.123  71.004  1.00  0.00    -0.349 A  
HETATM   24  C   UNL     1     -14.168  15.387  72.324  1.00  0.00    -0.639 A  
HETATM   25  C   UNL     1     -13.217  15.928  73.177  1.00  0.00    -0.692 A  
HETATM   26  C   UNL     1     -11.944  16.200  72.694  1.00  0.00    -0.653 A  
HETATM   27  C   UNL     1     -11.649  15.930  71.363  1.00  0.00    -0.464 A  
ENDBRANCH  21  22
ENDBRANCH  18  21
ENDBRANCH  16  17
ENDBRANCH  15  16
ENDBRANCH  14  15
ENDBRANCH  12  14
ENDBRANCH  11  12
ENDBRANCH  10  11
ENDBRANCH   9  10
ENDBRANCH   8   9
ENDBRANCH   7   8
ENDBRANCH   6   7
ENDBRANCH   5   6
ENDBRANCH   4   5
ENDBRANCH   3   4
ENDBRANCH   2   3
TORSDOF 16
ENDMDL
MODEL       14
REMARK 921   NORMALIZED FREE ENERGY PREDICTED BY IDOCK:   -4.93 KCAL/MOL
REMARK 922        TOTAL FREE ENERGY PREDICTED BY IDOCK:  -11.62 KCAL/MOL
REMARK 923 INTER-LIGAND FREE ENERGY PREDICTED BY IDOCK:   -9.69 KCAL/MOL
REMARK 924 INTRA-LIGAND FREE ENERGY PREDICTED BY IDOCK:   -1.93 KCAL/MOL
REMARK 927      BINDING AFFINITY PREDICTED BY RF-SCORE:    0.00 PKD
ROOT
HETATM    1  C   UNL     1     -12.457  15.558  74.017  1.00  0.00    -0.789 C  
HETATM    2  C   UNL     1     -13.385  15.444  72.820  1.00  0.00    -0.617 C  
ENDROOT
BRANCH   2   3
HETATM    3  C   UNL     1     -13.371  14.029  72.247  1.00  0.00    -0.574 C  
BRANCH   3   4
HETATM    4  C   UNL     1     -12.628  13.979  70.915  1.00  0.00    -0.431 C  
BRANCH   4   5
HETATM    5  C   UNL     1     -12.638  15.348  70.236  1.00  0.00    -0.377 C  
BRANCH   5   6
HETATM    6  C   UNL     1     -11.806  15.321  68.961  1.00  0.00    -0.342 C  
BRANCH   6   7
HETATM    7  C   UNL     1     -12.239  14.191  68.031  1.00  0.00    -0.181 C  
BRANCH   7   8
HETATM    8  C   UNL     1     -11.861  14.538  66.593  1.00  0.00    -0.383 C  
BRANCH   8   9
HETATM    9  C   UNL     1     -12.895  14.034  65.597  1.00  0.00    -0.442 C  
BRANCH   9  10
HETATM   10  C   UNL     1     -12.532  12.650  65.037  1.00  0.00    -0.556 C  
BRANCH  10  11
HETATM   11  C   UNL     1     -11.744  12.692  63.720  1.00  0.00    -0.566 C  
BRANCH  11  12
HETATM   12  C   UNL     1     -10.566  11.753  63.783  1.00  0.00    -0.415 C  
HETATM   13  O   UNL     1      -9.718  11.630  62.913  1.00  0.00    -0.382 OA 
BRANCH  12  14
HETATM   14  O   UNL     1     -10.486  11.207  65.028  1.00  0.00    -0.286 OA 
BRANCH  14  15
HETATM   15  C   UNL     1      -9.171  11.229  65.596  1.00  0.00    -0.213 C  
BRANCH  15  16
HETATM   16  C   UNL     1      -9.230  12.213  66.770  1.00  0.00    -0.207 C  
BRANCH  16  17
HETATM   17  N   UNL     1      -8.687  13.528  66.475  1.00  0.00    -0.446 N  
HETATM   18  C   UNL     1      -8.281  14.365  67.486  1.00  0.00    -0.188 C  
HETATM   19  H   UNL     1      -8.605  13.834  65.505  1.00  0.00     0.000 HD 
HETATM   20  O   UNL     1      -8.451  14.118  68.676  1.00  0.00    -0.159 OA 
BRANCH  18  21
HETATM   21  C   UNL     1      -7.679  15.687  67.055  1.00  0.00    -0.222 C  
BRANCH  21  22
HETATM   22  N   UNL     1      -8.693  16.751  67.207  1.00  0.00    -0.196 NA 
HETATM   23  C   UNL     1      -8.783  17.433  68.378  1.00  0.00    -0.271 A  
HETATM   24  C   UNL     1      -9.744  18.420  68.548  1.00  0.00    -0.386 A  
HETATM   25  C   UNL     1     -10.603  18.722  67.501  1.00  0.00    -0.497 A  
HETATM   26  C   UNL     1     -10.489  18.029  66.303  1.00  0.00    -0.340 A  
HETATM   27  C   UNL     1      -9.520  17.042  66.178  1.00  0.00    -0.225 A  
ENDBRANCH  21  22
ENDBRANCH  18  21
ENDBRANCH  16  17
ENDBRANCH  15  16
ENDBRANCH  14  15
ENDBRANCH  12  14
ENDBRANCH  11  12
ENDBRANCH  10  11
ENDBRANCH   9  10
ENDBRANCH   8   9
ENDBRANCH   7   8
ENDBRANCH   6   7
ENDBRANCH   5   6
ENDBRANCH   4   5
ENDBRANCH   3   4
ENDBRANCH   2   3
TORSDOF 16
ENDMDL
MODEL       15
REMARK 921   NORMALIZED FREE ENERGY PREDICTED BY IDOCK:   -4.90 KCAL/MOL
REMARK 922        TOTAL FREE ENERGY PREDICTED BY IDOCK:  -11.57 KCAL/MOL
REMARK 923 INTER-LIGAND FREE ENERGY PREDICTED BY IDOCK:   -9.94 KCAL/MOL
REMARK 924 INTRA-LIGAND FREE ENERGY PREDICTED BY IDOCK:   -1.63 KCAL/MOL
REMARK 927      BINDING AFFINITY PREDICTED BY RF-SCORE:    0.00 PKD
ROOT
HETATM    1  C   UNL     1     -12.279  11.560  70.648  1.00  0.00    -0.473 C  
HETATM    2  C   UNL     1     -11.763  10.172  70.986  1.00  0.00    -0.470 C  
ENDROOT
BRANCH   2   3
HETATM    3  C   UNL     1     -12.700   9.459  71.958  1.00  0.00    -0.483 C  
BRANCH   3   4
HETATM    4  C   UNL     1     -12.641   7.945  71.773  1.00  0.00    -0.353 C  
BRANCH   4   5
HETATM    5  C   UNL     1     -11.287   7.520  71.206  1.00  0.00    -0.284 C  
BRANCH   5   6
HETATM    6  C   UNL     1     -11.397   6.169  70.511  1.00  0.00    -0.381 C  
BRANCH   6   7
HETATM    7  C   UNL     1     -11.195   6.295  69.003  1.00  0.00    -0.415 C  
BRANCH   7   8
HETATM    8  C   UNL     1     -10.430   7.579  68.695  1.00  0.00    -0.207 C  
BRANCH   8   9
HETATM    9  C   UNL     1     -10.409   7.883  67.204  1.00  0.00    -0.398 C  
BRANCH   9  10
HETATM   10  C   UNL     1      -9.917   9.309  66.912  1.00  0.00    -0.298 C  
BRANCH  10  11
HETATM   11  C   UNL     1     -10.898  10.411  67.334  1.00  0.00    -0.344 C  
BRANCH  11  12
HETATM   12  C   UNL     1     -10.854  11.557  66.354  1.00  0.00    -0.285 C  
HETATM   13  O   UNL     1      -9.910  11.823  65.626  1.00  0.00    -0.228 OA 
BRANCH  12  14
HETATM   14  O   UNL     1     -12.086  12.131  66.270  1.00  0.00    -0.626 OA 
BRANCH  14  15
HETATM   15  C   UNL     1     -12.397  12.666  64.978  1.00  0.00    -0.497 C  
BRANCH  15  16
HETATM   16  C   UNL     1     -12.609  14.170  65.179  1.00  0.00    -0.408 C  
BRANCH  16  17
HETATM   17  N   UNL     1     -11.384  14.953  65.168  1.00  0.00    -0.367 N  
HETATM   18  C   UNL     1     -10.805  15.371  66.341  1.00  0.00    -0.303 C  
HETATM   19  H   UNL     1     -10.950  15.195  64.277  1.00  0.00     0.000 HD 
HETATM   20  O   UNL     1     -11.324  15.217  67.442  1.00  0.00    -0.333 OA 
BRANCH  18  21
HETATM   21  C   UNL     1      -9.501  16.130  66.206  1.00  0.00    -0.316 C  
BRANCH  21  22
HETATM   22  N   UNL     1      -9.681  17.496  66.742  1.00  0.00    -0.282 NA 
HETATM   23  C   UNL     1     -10.428  18.396  66.053  1.00  0.00    -0.374 A  
HETATM   24  C   UNL     1     -10.590  19.690  66.527  1.00  0.00    -0.591 A  
HETATM   25  C   UNL     1      -9.997  20.055  67.727  1.00  0.00    -0.560 A  
HETATM   26  C   UNL     1      -9.250  19.120  68.431  1.00  0.00    -0.406 A  
HETATM   27  C   UNL     1      -9.105  17.838  67.916  1.00  0.00    -0.259 A  
ENDBRANCH  21  22
ENDBRANCH  18  21
ENDBRANCH  16  17
ENDBRANCH  15  16
ENDBRANCH  14  15
ENDBRANCH  12  14
ENDBRANCH  11  12
ENDBRANCH  10  11
ENDBRANCH   9  10
ENDBRANCH   8   9
ENDBRANCH   7   8
ENDBRANCH   6   7
ENDBRANCH   5   6
ENDBRANCH   4   5
ENDBRANCH   3   4
ENDBRANCH   2   3
TORSDOF 16
ENDMDL
MODEL       16
REMARK 921   NORMALIZED FREE ENERGY PREDICTED BY IDOCK:   -4.87 KCAL/MOL
REMARK 922        TOTAL FREE ENERGY PREDICTED BY IDOCK:  -11.51 KCAL/MOL
REMARK 923 INTER-LIGAND FREE ENERGY PREDICTED BY IDOCK:  -10.31 KCAL/MOL
REMARK 924 INTRA-LIGAND FREE ENERGY PREDICTED BY IDOCK:   -1.20 KCAL/MOL
REMARK 927      BINDING AFFINITY PREDICTED BY RF-SCORE:    0.00 PKD
ROOT
HETATM    1  C   UNL     1      -5.594  20.634  65.542  1.00  0.00    -0.237 C  
HETATM    2  C   UNL     1      -6.801  19.716  65.450  1.00  0.00    -0.303 C  
ENDROOT
BRANCH   2   3
HETATM    3  C   UNL     1      -6.960  18.889  66.724  1.00  0.00    -0.212 C  
BRANCH   3   4
HETATM    4  C   UNL     1      -7.609  19.707  67.837  1.00  0.00    -0.332 C  
BRANCH   4   5
HETATM    5  C   UNL     1      -8.859  20.423  67.325  1.00  0.00    -0.444 C  
BRANCH   5   6
HETATM    6  C   UNL     1     -10.104  19.894  68.025  1.00  0.00    -0.572 C  
BRANCH   6   7
HETATM    7  C   UNL     1     -10.775  18.787  67.216  1.00  0.00    -0.490 C  
BRANCH   7   8
HETATM    8  C   UNL     1     -10.632  17.457  67.952  1.00  0.00    -0.383 C  
BRANCH   8   9
HETATM    9  C   UNL     1      -9.859  16.435  67.131  1.00  0.00    -0.249 C  
BRANCH   9  10
HETATM   10  C   UNL     1     -10.778  15.625  66.203  1.00  0.00    -0.305 C  
BRANCH  10  11
HETATM   11  C   UNL     1     -10.760  14.113  66.465  1.00  0.00    -0.289 C  
BRANCH  11  12
HETATM   12  C   UNL     1     -12.127  13.522  66.225  1.00  0.00    -0.428 C  
HETATM   13  O   UNL     1     -12.927  13.918  65.391  1.00  0.00    -0.722 OA 
BRANCH  12  14
HETATM   14  O   UNL     1     -12.258  12.372  66.942  1.00  0.00    -0.527 OA 
BRANCH  14  15
HETATM   15  C   UNL     1     -11.095  11.535  66.926  1.00  0.00    -0.307 C  
BRANCH  15  16
HETATM   16  C   UNL     1     -11.298  10.501  68.038  1.00  0.00    -0.246 C  
BRANCH  16  17
HETATM   17  N   UNL     1     -12.237  10.911  69.070  1.00  0.00    -0.463 N  
HETATM   18  C   UNL     1     -11.911  10.804  70.400  1.00  0.00    -0.357 C  
HETATM   19  H   UNL     1     -13.148  11.283  68.803  1.00  0.00     0.000 HD 
HETATM   20  O   UNL     1     -10.885  10.264  70.803  1.00  0.00    -0.269 OA 
BRANCH  18  21
HETATM   21  C   UNL     1     -12.945  11.315  71.382  1.00  0.00    -0.379 C  
BRANCH  21  22
HETATM   22  N   UNL     1     -12.948  12.793  71.355  1.00  0.00    -0.329 NA 
HETATM   23  C   UNL     1     -13.664  13.481  72.280  1.00  0.00    -0.602 A  
HETATM   24  C   UNL     1     -13.697  14.869  72.257  1.00  0.00    -0.564 A  
HETATM   25  C   UNL     1     -12.974  15.552  71.290  1.00  0.00    -0.565 A  
HETATM   26  C   UNL     1     -12.232  14.836  70.360  1.00  0.00    -0.395 A  
HETATM   27  C   UNL     1     -12.233  13.447  70.413  1.00  0.00    -0.345 A  
ENDBRANCH  21  22
ENDBRANCH  18  21
ENDBRANCH  16  17
ENDBRANCH  15  16
ENDBRANCH  14  15
ENDBRANCH  12  14
ENDBRANCH  11  12
ENDBRANCH  10  11
ENDBRANCH   9  10
ENDBRANCH   8   9
ENDBRANCH   7   8
ENDBRANCH   6   7
ENDBRANCH   5   6
ENDBRANCH   4   5
ENDBRANCH   3   4
ENDBRANCH   2   3
TORSDOF 16
ENDMDL
MODEL       17
REMARK 921   NORMALIZED FREE ENERGY PREDICTED BY IDOCK:   -4.87 KCAL/MOL
REMARK 922        TOTAL FREE ENERGY PREDICTED BY IDOCK:  -11.51 KCAL/MOL
REMARK 923 INTER-LIGAND FREE ENERGY PREDICTED BY IDOCK:   -9.94 KCAL/MOL
REMARK 924 INTRA-LIGAND FREE ENERGY PREDICTED BY IDOCK:   -1.57 KCAL/MOL
REMARK 927      BINDING AFFINITY PREDICTED BY RF-SCORE:    0.00 PKD
ROOT
HETATM    1  C   UNL     1      -8.157  10.371  64.825  1.00  0.00    -0.124 C  
HETATM    2  C   UNL     1      -9.645  10.224  64.559  1.00  0.00    -0.378 C  
ENDROOT
BRANCH   2   3
HETATM    3  C   UNL     1     -10.052  10.965  63.288  1.00  0.00    -0.368 C  
BRANCH   3   4
HETATM    4  C   UNL     1     -10.543  12.376  63.603  1.00  0.00    -0.481 C  
BRANCH   4   5
HETATM    5  C   UNL     1     -12.057  12.475  63.427  1.00  0.00    -0.621 C  
BRANCH   5   6
HETATM    6  C   UNL     1     -12.749  12.579  64.779  1.00  0.00    -0.415 C  
BRANCH   6   7
HETATM    7  C   UNL     1     -12.574  13.964  65.396  1.00  0.00    -0.538 C  
BRANCH   7   8
HETATM    8  C   UNL     1     -12.067  13.826  66.829  1.00  0.00    -0.460 C  
BRANCH   8   9
HETATM    9  C   UNL     1     -11.723  12.384  67.173  1.00  0.00    -0.415 C  
BRANCH   9  10
HETATM   10  C   UNL     1     -11.209  12.240  68.613  1.00  0.00    -0.305 C  
BRANCH  10  11
HETATM   11  C   UNL     1     -11.896  11.127  69.418  1.00  0.00    -0.415 C  
BRANCH  11  12
HETATM   12  C   UNL     1     -12.483  11.686  70.690  1.00  0.00    -0.295 C  
HETATM   13  O   UNL     1     -12.888  11.018  71.629  1.00  0.00    -0.430 OA 
BRANCH  12  14
HETATM   14  O   UNL     1     -12.319  13.037  70.711  1.00  0.00    -0.363 OA 
BRANCH  14  15
HETATM   15  C   UNL     1     -12.809  13.669  71.899  1.00  0.00    -0.287 C  
BRANCH  15  16
HETATM   16  C   UNL     1     -12.122  15.037  71.969  1.00  0.00    -0.379 C  
BRANCH  16  17
HETATM   17  N   UNL     1     -11.012  15.196  71.045  1.00  0.00    -0.546 N  
HETATM   18  C   UNL     1     -11.197  15.781  69.816  1.00  0.00    -0.330 C  
HETATM   19  H   UNL     1     -10.083  14.869  71.311  1.00  0.00     0.000 HD 
HETATM   20  O   UNL     1     -12.299  16.096  69.377  1.00  0.00    -0.059 OA 
BRANCH  18  21
HETATM   21  C   UNL     1      -9.957  15.944  68.962  1.00  0.00    -0.233 C  
BRANCH  21  22
HETATM   22  N   UNL     1     -10.044  17.221  68.222  1.00  0.00    -0.301 NA 
HETATM   23  C   UNL     1     -10.255  17.208  66.881  1.00  0.00    -0.315 A  
HETATM   24  C   UNL     1     -10.318  18.396  66.166  1.00  0.00    -0.431 A  
HETATM   25  C   UNL     1     -10.182  19.603  66.836  1.00  0.00    -0.560 A  
HETATM   26  C   UNL     1      -9.984  19.602  68.210  1.00  0.00    -0.543 A  
HETATM   27  C   UNL     1      -9.918  18.391  68.887  1.00  0.00    -0.345 A  
ENDBRANCH  21  22
ENDBRANCH  18  21
ENDBRANCH  16  17
ENDBRANCH  15  16
ENDBRANCH  14  15
ENDBRANCH  12  14
ENDBRANCH  11  12
ENDBRANCH  10  11
ENDBRANCH   9  10
ENDBRANCH   8   9
ENDBRANCH   7   8
ENDBRANCH   6   7
ENDBRANCH   5   6
ENDBRANCH   4   5
ENDBRANCH   3   4
ENDBRANCH   2   3
TORSDOF 16
ENDMDL
MODEL       18
REMARK 921   NORMALIZED FREE ENERGY PREDICTED BY IDOCK:   -4.86 KCAL/MOL
REMARK 922        TOTAL FREE ENERGY PREDICTED BY IDOCK:  -11.48 KCAL/MOL
REMARK 923 INTER-LIGAND FREE ENERGY PREDICTED BY IDOCK:   -9.61 KCAL/MOL
REMARK 924 INTRA-LIGAND FREE ENERGY PREDICTED BY IDOCK:   -1.87 KCAL/MOL
REMARK 927      BINDING AFFINITY PREDICTED BY RF-SCORE:    0.00 PKD
ROOT
HETATM    1  C   UNL     1     -11.141   6.159  68.953  1.00  0.00    -0.417 C  
HETATM    2  C   UNL     1     -10.607   6.232  70.373  1.00  0.00    -0.309 C  
ENDROOT
BRANCH   2   3
HETATM    3  C   UNL     1     -11.745   6.367  71.381  1.00  0.00    -0.364 C  
BRANCH   3   4
HETATM    4  C   UNL     1     -11.281   7.080  72.648  1.00  0.00    -0.310 C  
BRANCH   4   5
HETATM    5  C   UNL     1     -11.292   8.596  72.452  1.00  0.00    -0.353 C  
BRANCH   5   6
HETATM    6  C   UNL     1     -12.718   9.106  72.294  1.00  0.00    -0.447 C  
BRANCH   6   7
HETATM    7  C   UNL     1     -12.770  10.375  71.447  1.00  0.00    -0.551 C  
BRANCH   7   8
HETATM    8  C   UNL     1     -11.636  10.355  70.426  1.00  0.00    -0.423 C  
BRANCH   8   9
HETATM    9  C   UNL     1     -11.804  11.439  69.371  1.00  0.00    -0.419 C  
BRANCH   9  10
HETATM   10  C   UNL     1     -11.222  11.018  68.012  1.00  0.00    -0.372 C  
BRANCH  10  11
HETATM   11  C   UNL     1     -10.499   9.664  68.031  1.00  0.00    -0.276 C  
BRANCH  11  12
HETATM   12  C   UNL     1     -10.042   9.293  66.643  1.00  0.00    -0.271 C  
HETATM   13  O   UNL     1      -9.669   8.183  66.298  1.00  0.00    -0.216 OA 
BRANCH  12  14
HETATM   14  O   UNL     1     -10.288  10.328  65.792  1.00  0.00    -0.239 OA 
BRANCH  14  15
HETATM   15  C   UNL     1      -9.376  10.411  64.690  1.00  0.00    -0.254 C  
BRANCH  15  16
HETATM   16  C   UNL     1     -10.195  10.912  63.496  1.00  0.00    -0.317 C  
BRANCH  16  17
HETATM   17  N   UNL     1     -10.567  12.315  63.572  1.00  0.00    -0.457 N  
HETATM   18  C   UNL     1     -11.887  12.694  63.581  1.00  0.00    -0.530 C  
HETATM   19  H   UNL     1      -9.838  13.027  63.620  1.00  0.00     0.000 HD 
HETATM   20  O   UNL     1     -12.816  11.910  63.413  1.00  0.00    -0.715 OA 
BRANCH  18  21
HETATM   21  C   UNL     1     -12.152  14.179  63.720  1.00  0.00    -0.151 C  
BRANCH  21  22
HETATM   22  N   UNL     1     -11.670  14.633  65.042  1.00  0.00    -0.376 NA 
HETATM   23  C   UNL     1     -10.620  15.491  65.117  1.00  0.00    -0.431 A  
HETATM   24  C   UNL     1     -10.138  15.911  66.349  1.00  0.00    -0.306 A  
HETATM   25  C   UNL     1     -10.751  15.462  67.509  1.00  0.00    -0.295 A  
HETATM   26  C   UNL     1     -11.835  14.598  67.418  1.00  0.00    -0.374 A  
HETATM   27  C   UNL     1     -12.280  14.195  66.166  1.00  0.00    -0.442 A  
ENDBRANCH  21  22
ENDBRANCH  18  21
ENDBRANCH  16  17
ENDBRANCH  15  16
ENDBRANCH  14  15
ENDBRANCH  12  14
ENDBRANCH  11  12
ENDBRANCH  10  11
ENDBRANCH   9  10
ENDBRANCH   8   9
ENDBRANCH   7   8
ENDBRANCH   6   7
ENDBRANCH   5   6
ENDBRANCH   4   5
ENDBRANCH   3   4
ENDBRANCH   2   3
TORSDOF 16
ENDMDL
MODEL       19
REMARK 921   NORMALIZED FREE ENERGY PREDICTED BY IDOCK:   -4.84 KCAL/MOL
REMARK 922        TOTAL FREE ENERGY PREDICTED BY IDOCK:  -11.45 KCAL/MOL
REMARK 923 INTER-LIGAND FREE ENERGY PREDICTED BY IDOCK:   -9.67 KCAL/MOL
REMARK 924 INTRA-LIGAND FREE ENERGY PREDICTED BY IDOCK:   -1.78 KCAL/MOL
REMARK 927      BINDING AFFINITY PREDICTED BY RF-SCORE:    0.00 PKD
ROOT
HETATM    1  C   UNL     1     -13.221  11.194  71.777  1.00  0.00    -0.486 C  
HETATM    2  C   UNL     1     -13.119  12.680  71.480  1.00  0.00    -0.373 C  
ENDROOT
BRANCH   2   3
HETATM    3  C   UNL     1     -13.841  13.503  72.544  1.00  0.00    -0.624 C  
BRANCH   3   4
HETATM    4  C   UNL     1     -13.926  14.973  72.143  1.00  0.00    -0.610 C  
BRANCH   4   5
HETATM    5  C   UNL     1     -13.116  15.238  70.875  1.00  0.00    -0.523 C  
BRANCH   5   6
HETATM    6  C   UNL     1     -11.796  15.918  71.215  1.00  0.00    -0.502 C  
BRANCH   6   7
HETATM    7  C   UNL     1     -10.775  15.755  70.092  1.00  0.00    -0.354 C  
BRANCH   7   8
HETATM    8  C   UNL     1     -11.492  15.369  68.801  1.00  0.00    -0.352 C  
BRANCH   8   9
HETATM    9  C   UNL     1     -10.717  15.812  67.568  1.00  0.00    -0.317 C  
BRANCH   9  10
HETATM   10  C   UNL     1     -11.010  14.921  66.351  1.00  0.00    -0.336 C  
BRANCH  10  11
HETATM   11  C   UNL     1     -12.153  13.919  66.566  1.00  0.00    -0.484 C  
BRANCH  11  12
HETATM   12  C   UNL     1     -12.249  12.972  65.396  1.00  0.00    -0.471 C  
HETATM   13  O   UNL     1     -13.282  12.470  64.981  1.00  0.00    -0.700 OA 
BRANCH  12  14
HETATM   14  O   UNL     1     -11.046  12.912  64.761  1.00  0.00    -0.289 OA 
BRANCH  14  15
HETATM   15  C   UNL     1     -11.100  12.323  63.456  1.00  0.00    -0.464 C  
BRANCH  15  16
HETATM   16  C   UNL     1      -9.915  11.354  63.376  1.00  0.00    -0.402 C  
BRANCH  16  17
HETATM   17  N   UNL     1     -10.070  10.153  64.179  1.00  0.00    -0.463 N  
HETATM   18  C   UNL     1      -9.233   9.902  65.240  1.00  0.00    -0.226 C  
HETATM   19  H   UNL     1     -10.810   9.488  63.953  1.00  0.00     0.000 HD 
HETATM   20  O   UNL     1      -8.254  10.593  65.505  1.00  0.00    -0.160 OA 
BRANCH  18  21
HETATM   21  C   UNL     1      -9.527   8.648  66.037  1.00  0.00    -0.208 C  
BRANCH  21  22
HETATM   22  N   UNL     1      -9.817   9.024  67.437  1.00  0.00    -0.177 NA 
HETATM   23  C   UNL     1     -10.803   9.918  67.704  1.00  0.00    -0.257 A  
HETATM   24  C   UNL     1     -11.075  10.301  69.010  1.00  0.00    -0.277 A  
HETATM   25  C   UNL     1     -10.342   9.746  70.049  1.00  0.00    -0.307 A  
HETATM   26  C   UNL     1      -9.347   8.820  69.764  1.00  0.00    -0.163 A  
HETATM   27  C   UNL     1      -9.101   8.472  68.442  1.00  0.00    -0.139 A  
ENDBRANCH  21  22
ENDBRANCH  18  21
ENDBRANCH  16  17
ENDBRANCH  15  16
ENDBRANCH  14  15
ENDBRANCH  12  14
ENDBRANCH  11  12
ENDBRANCH  10  11
ENDBRANCH   9  10
ENDBRANCH   8   9
ENDBRANCH   7   8
ENDBRANCH   6   7
ENDBRANCH   5   6
ENDBRANCH   4   5
ENDBRANCH   3   4
ENDBRANCH   2   3
TORSDOF 16
ENDMDL
MODEL       20
REMARK 921   NORMALIZED FREE ENERGY PREDICTED BY IDOCK:   -4.84 KCAL/MOL
REMARK 922        TOTAL FREE ENERGY PREDICTED BY IDOCK:  -11.44 KCAL/MOL
REMARK 923 INTER-LIGAND FREE ENERGY PREDICTED BY IDOCK:  -10.42 KCAL/MOL
REMARK 924 INTRA-LIGAND FREE ENERGY PREDICTED BY IDOCK:   -1.02 KCAL/MOL
REMARK 927      BINDING AFFINITY PREDICTED BY RF-SCORE:    0.00 PKD
ROOT
HETATM    1  C   UNL     1     -11.640   7.261  71.267  1.00  0.00    -0.316 C  
HETATM    2  C   UNL     1     -12.538   8.451  71.559  1.00  0.00    -0.334 C  
ENDROOT
BRANCH   2   3
HETATM    3  C   UNL     1     -11.776   9.765  71.398  1.00  0.00    -0.475 C  
BRANCH   3   4
HETATM    4  C   UNL     1     -12.699  10.885  70.926  1.00  0.00    -0.464 C  
BRANCH   4   5
HETATM    5  C   UNL     1     -12.021  11.729  69.848  1.00  0.00    -0.405 C  
BRANCH   5   6
HETATM    6  C   UNL     1     -10.825  10.990  69.262  1.00  0.00    -0.285 C  
BRANCH   6   7
HETATM    7  C   UNL     1     -10.964  10.804  67.753  1.00  0.00    -0.354 C  
BRANCH   7   8
HETATM    8  C   UNL     1      -9.974   9.745  67.275  1.00  0.00    -0.242 C  
BRANCH   8   9
HETATM    9  C   UNL     1      -9.797   9.775  65.763  1.00  0.00    -0.360 C  
BRANCH   9  10
HETATM   10  C   UNL     1      -9.963  11.191  65.191  1.00  0.00    -0.323 C  
BRANCH  10  11
HETATM   11  C   UNL     1     -10.701  11.243  63.846  1.00  0.00    -0.451 C  
BRANCH  11  12
HETATM   12  C   UNL     1     -12.091  11.799  64.030  1.00  0.00    -0.259 C  
HETATM   13  O   UNL     1     -12.995  11.718  63.213  1.00  0.00    -0.633 OA 
BRANCH  12  14
HETATM   14  O   UNL     1     -12.239  12.234  65.312  1.00  0.00    -0.508 OA 
BRANCH  14  15
HETATM   15  C   UNL     1     -13.022  13.427  65.440  1.00  0.00    -0.173 C  
BRANCH  15  16
HETATM   16  C   UNL     1     -12.251  14.524  64.698  1.00  0.00    -0.460 C  
BRANCH  16  17
HETATM   17  N   UNL     1     -11.030  14.949  65.362  1.00  0.00    -0.344 N  
HETATM   18  C   UNL     1     -10.552  16.228  65.205  1.00  0.00    -0.336 C  
HETATM   19  H   UNL     1     -10.521  14.291  65.952  1.00  0.00     0.000 HD 
HETATM   20  O   UNL     1     -11.041  17.041  64.427  1.00  0.00    -1.144 OA 
BRANCH  18  21
HETATM   21  C   UNL     1      -9.304  16.573  65.991  1.00  0.00    -0.267 C  
BRANCH  21  22
HETATM   22  N   UNL     1      -9.466  17.916  66.588  1.00  0.00    -0.289 NA 
HETATM   23  C   UNL     1      -8.626  18.919  66.225  1.00  0.00    -0.257 A  
HETATM   24  C   UNL     1      -8.748  20.181  66.791  1.00  0.00    -0.390 A  
HETATM   25  C   UNL     1      -9.751  20.417  67.720  1.00  0.00    -0.487 A  
HETATM   26  C   UNL     1     -10.614  19.387  68.069  1.00  0.00    -0.453 A  
HETATM   27  C   UNL     1     -10.452  18.137  67.486  1.00  0.00    -0.410 A  
ENDBRANCH  21  22
ENDBRANCH  18  21
ENDBRANCH  16  17
ENDBRANCH  15  16
ENDBRANCH  14  15
ENDBRANCH  12  14
ENDBRANCH  11  12
ENDBRANCH  10  11
ENDBRANCH   9  10
ENDBRANCH   8   9
ENDBRANCH   7   8
ENDBRANCH   6   7
ENDBRANCH   5   6
ENDBRANCH   4   5
ENDBRANCH   3   4
ENDBRANCH   2   3
TORSDOF 16
ENDMDL
MODEL       21
REMARK 921   NORMALIZED FREE ENERGY PREDICTED BY IDOCK:   -4.83 KCAL/MOL
REMARK 922        TOTAL FREE ENERGY PREDICTED BY IDOCK:  -11.43 KCAL/MOL
REMARK 923 INTER-LIGAND FREE ENERGY PREDICTED BY IDOCK:   -9.37 KCAL/MOL
REMARK 924 INTRA-LIGAND FREE ENERGY PREDICTED BY IDOCK:   -2.05 KCAL/MOL
REMARK 927      BINDING AFFINITY PREDICTED BY RF-SCORE:    0.00 PKD
ROOT
HETATM    1  C   UNL     1     -13.834   6.863  71.485  1.00  0.00    -0.275 C  
HETATM    2  C   UNL     1     -14.385   8.270  71.643  1.00  0.00    -0.561 C  
ENDROOT
BRANCH   2   3
HETATM    3  C   UNL     1     -13.398   9.164  72.391  1.00  0.00    -0.527 C  
BRANCH   3   4
HETATM    4  C   UNL     1     -12.858  10.269  71.488  1.00  0.00    -0.557 C  
BRANCH   4   5
HETATM    5  C   UNL     1     -11.587   9.812  70.772  1.00  0.00    -0.417 C  
BRANCH   5   6
HETATM    6  C   UNL     1     -10.711   8.989  71.708  1.00  0.00    -0.437 C  
BRANCH   6   7
HETATM    7  C   UNL     1      -9.919   7.928  70.949  1.00  0.00    -0.196 C  
BRANCH   7   8
HETATM    8  C   UNL     1     -10.676   7.533  69.683  1.00  0.00    -0.236 C  
BRANCH   8   9
HETATM    9  C   UNL     1      -9.830   7.727  68.433  1.00  0.00    -0.180 C  
BRANCH   9  10
HETATM   10  C   UNL     1     -10.491   8.689  67.433  1.00  0.00    -0.351 C  
BRANCH  10  11
HETATM   11  C   UNL     1      -9.771  10.037  67.288  1.00  0.00    -0.206 C  
BRANCH  11  12
HETATM   12  C   UNL     1     -10.774  11.155  67.147  1.00  0.00    -0.259 C  
HETATM   13  O   UNL     1     -11.925  11.122  67.554  1.00  0.00    -0.580 OA 
BRANCH  12  14
HETATM   14  O   UNL     1     -10.150  12.267  66.671  1.00  0.00    -0.210 OA 
BRANCH  14  15
HETATM   15  C   UNL     1     -11.029  13.212  66.048  1.00  0.00    -0.279 C  
BRANCH  15  16
HETATM   16  C   UNL     1     -10.545  14.598  66.486  1.00  0.00    -0.300 C  
BRANCH  16  17
HETATM   17  N   UNL     1     -10.161  14.681  67.885  1.00  0.00    -0.224 N  
HETATM   18  C   UNL     1     -10.871  15.462  68.765  1.00  0.00    -0.252 C  
HETATM   19  H   UNL     1      -9.353  14.154  68.218  1.00  0.00     0.000 HD 
HETATM   20  O   UNL     1     -11.780  16.210  68.421  1.00  0.00    -0.320 OA 
BRANCH  18  21
HETATM   21  C   UNL     1     -10.411  15.425  70.208  1.00  0.00    -0.241 C  
BRANCH  21  22
HETATM   22  N   UNL     1     -11.575  15.152  71.078  1.00  0.00    -0.322 NA 
HETATM   23  C   UNL     1     -12.206  13.953  71.001  1.00  0.00    -0.342 A  
HETATM   24  C   UNL     1     -13.314  13.686  71.793  1.00  0.00    -0.469 A  
HETATM   25  C   UNL     1     -13.763  14.650  72.684  1.00  0.00    -0.545 A  
HETATM   26  C   UNL     1     -13.098  15.865  72.765  1.00  0.00    -0.580 A  
HETATM   27  C   UNL     1     -11.998  16.096  71.948  1.00  0.00    -0.507 A  
ENDBRANCH  21  22
ENDBRANCH  18  21
ENDBRANCH  16  17
ENDBRANCH  15  16
ENDBRANCH  14  15
ENDBRANCH  12  14
ENDBRANCH  11  12
ENDBRANCH  10  11
ENDBRANCH   9  10
ENDBRANCH   8   9
ENDBRANCH   7   8
ENDBRANCH   6   7
ENDBRANCH   5   6
ENDBRANCH   4   5
ENDBRANCH   3   4
ENDBRANCH   2   3
TORSDOF 16
ENDMDL
MODEL       22
REMARK 921   NORMALIZED FREE ENERGY PREDICTED BY IDOCK:   -4.83 KCAL/MOL
REMARK 922        TOTAL FREE ENERGY PREDICTED BY IDOCK:  -11.43 KCAL/MOL
REMARK 923 INTER-LIGAND FREE ENERGY PREDICTED BY IDOCK:   -9.75 KCAL/MOL
REMARK 924 INTRA-LIGAND FREE ENERGY PREDICTED BY IDOCK:   -1.68 KCAL/MOL
REMARK 927      BINDING AFFINITY PREDICTED BY RF-SCORE:    0.00 PKD
ROOT
HETATM    1  C   UNL     1     -12.824  10.495  71.541  1.00  0.00    -0.568 C  
HETATM    2  C   UNL     1     -12.794  12.003  71.365  1.00  0.00    -0.391 C  
ENDROOT
BRANCH   2   3
HETATM    3  C   UNL     1     -13.778  12.686  72.312  1.00  0.00    -0.429 C  
BRANCH   3   4
HETATM    4  C   UNL     1     -14.040  14.129  71.891  1.00  0.00    -0.566 C  
BRANCH   4   5
HETATM    5  C   UNL     1     -13.368  15.106  72.855  1.00  0.00    -0.603 C  
BRANCH   5   6
HETATM    6  C   UNL     1     -12.478  16.081  72.095  1.00  0.00    -0.524 C  
BRANCH   6   7
HETATM    7  C   UNL     1     -11.241  15.388  71.530  1.00  0.00    -0.401 C  
BRANCH   7   8
HETATM    8  C   UNL     1     -11.049  15.794  70.071  1.00  0.00    -0.348 C  
BRANCH   8   9
HETATM    9  C   UNL     1     -11.876  14.930  69.129  1.00  0.00    -0.340 C  
BRANCH   9  10
HETATM   10  C   UNL     1     -11.086  13.716  68.617  1.00  0.00    -0.299 C  
BRANCH  10  11
HETATM   11  C   UNL     1     -11.962  12.595  68.040  1.00  0.00    -0.300 C  
BRANCH  11  12
HETATM   12  C   UNL     1     -11.575  12.309  66.611  1.00  0.00    -0.375 C  
HETATM   13  O   UNL     1     -10.724  11.506  66.260  1.00  0.00    -0.255 OA 
BRANCH  12  14
HETATM   14  O   UNL     1     -12.443  12.938  65.771  1.00  0.00    -0.531 OA 
BRANCH  14  15
HETATM   15  C   UNL     1     -11.846  13.413  64.558  1.00  0.00    -0.398 C  
BRANCH  15  16
HETATM   16  C   UNL     1     -11.498  14.885  64.804  1.00  0.00    -0.410 C  
BRANCH  16  17
HETATM   17  N   UNL     1     -10.140  15.108  65.275  1.00  0.00    -0.347 N  
HETATM   18  C   UNL     1      -9.822  16.229  66.002  1.00  0.00    -0.343 C  
HETATM   19  H   UNL     1      -9.415  14.423  65.062  1.00  0.00     0.000 HD 
HETATM   20  O   UNL     1     -10.608  17.150  66.201  1.00  0.00    -0.299 OA 
BRANCH  18  21
HETATM   21  C   UNL     1      -8.390  16.324  66.486  1.00  0.00    -0.308 C  
BRANCH  21  22
HETATM   22  N   UNL     1      -8.113  17.715  66.902  1.00  0.00    -0.214 NA 
HETATM   23  C   UNL     1      -7.576  18.589  66.013  1.00  0.00    -0.197 A  
HETATM   24  C   UNL     1      -7.287  19.893  66.390  1.00  0.00    -0.291 A  
HETATM   25  C   UNL     1      -7.571  20.307  67.684  1.00  0.00    -0.339 A  
HETATM   26  C   UNL     1      -8.137  19.408  68.578  1.00  0.00    -0.396 A  
HETATM   27  C   UNL     1      -8.401  18.109  68.163  1.00  0.00    -0.277 A  
ENDBRANCH  21  22
ENDBRANCH  18  21
ENDBRANCH  16  17
ENDBRANCH  15  16
ENDBRANCH  14  15
ENDBRANCH  12  14
ENDBRANCH  11  12
ENDBRANCH  10  11
ENDBRANCH   9  10
ENDBRANCH   8   9
ENDBRANCH   7   8
ENDBRANCH   6   7
ENDBRANCH   5   6
ENDBRANCH   4   5
ENDBRANCH   3   4
ENDBRANCH   2   3
TORSDOF 16
ENDMDL
MODEL       23
REMARK 921   NORMALIZED FREE ENERGY PREDICTED BY IDOCK:   -4.82 KCAL/MOL
REMARK 922        TOTAL FREE ENERGY PREDICTED BY IDOCK:  -11.42 KCAL/MOL
REMARK 923 INTER-LIGAND FREE ENERGY PREDICTED BY IDOCK:   -9.73 KCAL/MOL
REMARK 924 INTRA-LIGAND FREE ENERGY PREDICTED BY IDOCK:   -1.68 KCAL/MOL
REMARK 927      BINDING AFFINITY PREDICTED BY RF-SCORE:    0.00 PKD
ROOT
HETATM    1  C   UNL     1     -12.934   9.866  71.482  1.00  0.00    -0.523 C  
HETATM    2  C   UNL     1     -11.718   8.996  71.213  1.00  0.00    -0.382 C  
ENDROOT
BRANCH   2   3
HETATM    3  C   UNL     1     -11.965   7.555  71.653  1.00  0.00    -0.333 C  
BRANCH   3   4
HETATM    4  C   UNL     1     -11.737   6.578  70.504  1.00  0.00    -0.438 C  
BRANCH   4   5
HETATM    5  C   UNL     1     -10.275   6.139  70.447  1.00  0.00    -0.256 C  
BRANCH   5   6
HETATM    6  C   UNL     1      -9.695   6.382  69.060  1.00  0.00    -0.145 C  
BRANCH   6   7
HETATM    7  C   UNL     1     -10.791   6.638  68.029  1.00  0.00    -0.345 C  
BRANCH   7   8
HETATM    8  C   UNL     1     -10.574   8.003  67.380  1.00  0.00    -0.337 C  
BRANCH   8   9
HETATM    9  C   UNL     1      -9.451   8.779  68.053  1.00  0.00    -0.158 C  
BRANCH   9  10
HETATM   10  C   UNL     1      -9.815  10.257  68.261  1.00  0.00    -0.161 C  
BRANCH  10  11
HETATM   11  C   UNL     1     -11.206  10.641  67.738  1.00  0.00    -0.383 C  
BRANCH  11  12
HETATM   12  C   UNL     1     -11.084  11.489  66.496  1.00  0.00    -0.282 C  
HETATM   13  O   UNL     1     -10.225  11.360  65.638  1.00  0.00    -0.232 OA 
BRANCH  12  14
HETATM   14  O   UNL     1     -12.179  12.291  66.385  1.00  0.00    -0.613 OA 
BRANCH  14  15
HETATM   15  C   UNL     1     -12.435  12.753  65.053  1.00  0.00    -0.506 C  
BRANCH  15  16
HETATM   16  C   UNL     1     -12.347  14.282  65.107  1.00  0.00    -0.424 C  
BRANCH  16  17
HETATM   17  N   UNL     1     -11.077  14.790  65.599  1.00  0.00    -0.332 N  
HETATM   18  C   UNL     1     -10.638  16.044  65.250  1.00  0.00    -0.402 C  
HETATM   19  H   UNL     1     -10.505  14.209  66.212  1.00  0.00     0.000 HD 
HETATM   20  O   UNL     1     -11.211  16.756  64.431  1.00  0.00    -1.112 OA 
BRANCH  18  21
HETATM   21  C   UNL     1      -9.328  16.487  65.868  1.00  0.00    -0.191 C  
BRANCH  21  22
HETATM   22  N   UNL     1      -9.571  17.678  66.709  1.00  0.00    -0.283 NA 
HETATM   23  C   UNL     1     -10.146  17.534  67.931  1.00  0.00    -0.330 A  
HETATM   24  C   UNL     1     -10.402  18.642  68.726  1.00  0.00    -0.203 A  
HETATM   25  C   UNL     1     -10.048  19.904  68.271  1.00  0.00    -0.571 A  
HETATM   26  C   UNL     1      -9.445  20.036  67.027  1.00  0.00    -0.523 A  
HETATM   27  C   UNL     1      -9.215  18.902  66.259  1.00  0.00    -0.268 A  
ENDBRANCH  21  22
ENDBRANCH  18  21
ENDBRANCH  16  17
ENDBRANCH  15  16
ENDBRANCH  14  15
ENDBRANCH  12  14
ENDBRANCH  11  12
ENDBRANCH  10  11
ENDBRANCH   9  10
ENDBRANCH   8   9
ENDBRANCH   7   8
ENDBRANCH   6   7
ENDBRANCH   5   6
ENDBRANCH   4   5
ENDBRANCH   3   4
ENDBRANCH   2   3
TORSDOF 16
ENDMDL
MODEL       24
REMARK 921   NORMALIZED FREE ENERGY PREDICTED BY IDOCK:   -4.81 KCAL/MOL
REMARK 922        TOTAL FREE ENERGY PREDICTED BY IDOCK:  -11.38 KCAL/MOL
REMARK 923 INTER-LIGAND FREE ENERGY PREDICTED BY IDOCK:   -9.86 KCAL/MOL
REMARK 924 INTRA-LIGAND FREE ENERGY PREDICTED BY IDOCK:   -1.52 KCAL/MOL
REMARK 927      BINDING AFFINITY PREDICTED BY RF-SCORE:    0.00 PKD
ROOT
HETATM    1  C   UNL     1     -11.012   6.270  68.178  1.00  0.00    -0.412 C  
HETATM    2  C   UNL     1     -11.369   6.288  69.654  1.00  0.00    -0.492 C  
ENDROOT
BRANCH   2   3
HETATM    3  C   UNL     1     -10.606   7.386  70.390  1.00  0.00    -0.238 C  
BRANCH   3   4
HETATM    4  C   UNL     1     -11.374   7.866  71.619  1.00  0.00    -0.299 C  
BRANCH   4   5
HETATM    5  C   UNL     1     -11.455   9.392  71.646  1.00  0.00    -0.463 C  
BRANCH   5   6
HETATM    6  C   UNL     1     -10.972   9.979  70.326  1.00  0.00    -0.377 C  
BRANCH   6   7
HETATM    7  C   UNL     1     -11.873  11.117  69.854  1.00  0.00    -0.439 C  
BRANCH   7   8
HETATM    8  C   UNL     1     -12.570  11.750  71.056  1.00  0.00    -0.409 C  
BRANCH   8   9
HETATM    9  C   UNL     1     -12.511  13.270  71.009  1.00  0.00    -0.422 C  
BRANCH   9  10
HETATM   10  C   UNL     1     -12.203  13.793  69.597  1.00  0.00    -0.359 C  
BRANCH  10  11
HETATM   11  C   UNL     1     -11.969  15.309  69.526  1.00  0.00    -0.356 C  
BRANCH  11  12
HETATM   12  C   UNL     1     -10.805  15.618  68.619  1.00  0.00    -0.273 C  
HETATM   13  O   UNL     1      -9.658  15.817  68.990  1.00  0.00    -0.211 OA 
BRANCH  12  14
HETATM   14  O   UNL     1     -11.185  15.457  67.321  1.00  0.00    -0.327 OA 
BRANCH  14  15
HETATM   15  C   UNL     1     -10.254  15.984  66.367  1.00  0.00    -0.305 C  
BRANCH  15  16
HETATM   16  C   UNL     1     -10.975  15.965  65.015  1.00  0.00    -0.412 C  
BRANCH  16  17
HETATM   17  N   UNL     1     -10.967  14.672  64.352  1.00  0.00    -0.621 N  
HETATM   18  C   UNL     1     -12.092  13.883  64.334  1.00  0.00    -0.443 C  
HETATM   19  H   UNL     1     -10.116  14.346  63.893  1.00  0.00     0.000 HD 
HETATM   20  O   UNL     1     -13.115  14.153  64.956  1.00  0.00    -0.728 OA 
BRANCH  18  21
HETATM   21  C   UNL     1     -11.982  12.583  63.565  1.00  0.00    -0.543 C  
BRANCH  21  22
HETATM   22  N   UNL     1     -11.113  11.651  64.314  1.00  0.00    -0.343 NA 
HETATM   23  C   UNL     1     -10.176  10.926  63.653  1.00  0.00    -0.332 A  
HETATM   24  C   UNL     1      -9.367  10.028  64.335  1.00  0.00    -0.348 A  
HETATM   25  C   UNL     1      -9.509   9.891  65.709  1.00  0.00    -0.280 A  
HETATM   26  C   UNL     1     -10.460  10.651  66.375  1.00  0.00    -0.276 A  
HETATM   27  C   UNL     1     -11.256  11.531  65.653  1.00  0.00    -0.148 A  
ENDBRANCH  21  22
ENDBRANCH  18  21
ENDBRANCH  16  17
ENDBRANCH  15  16
ENDBRANCH  14  15
ENDBRANCH  12  14
ENDBRANCH  11  12
ENDBRANCH  10  11
ENDBRANCH   9  10
ENDBRANCH   8   9
ENDBRANCH   7   8
ENDBRANCH   6   7
ENDBRANCH   5   6
ENDBRANCH   4   5
ENDBRANCH   3   4
ENDBRANCH   2   3
TORSDOF 16
ENDMDL
MODEL       25
REMARK 921   NORMALIZED FREE ENERGY PREDICTED BY IDOCK:   -4.80 KCAL/MOL
REMARK 922        TOTAL FREE ENERGY PREDICTED BY IDOCK:  -11.38 KCAL/MOL
REMARK 923 INTER-LIGAND FREE ENERGY PREDICTED BY IDOCK:   -9.73 KCAL/MOL
REMARK 924 INTRA-LIGAND FREE ENERGY PREDICTED BY IDOCK:   -1.64 KCAL/MOL
REMARK 927      BINDING AFFINITY PREDICTED BY RF-SCORE:    0.00 PKD
ROOT
HETATM    1  C   UNL     1     -11.139   5.011  73.057  1.00  0.00    -0.378 C  
HETATM    2  C   UNL     1     -11.643   6.217  72.282  1.00  0.00    -0.362 C  
ENDROOT
BRANCH   2   3
HETATM    3  C   UNL     1     -11.278   7.518  72.994  1.00  0.00    -0.373 C  
BRANCH   3   4
HETATM    4  C   UNL     1      -9.791   7.563  73.336  1.00  0.00    -0.365 C  
BRANCH   4   5
HETATM    5  C   UNL     1      -8.959   7.888  72.097  1.00  0.00    -0.199 C  
BRANCH   5   6
HETATM    6  C   UNL     1      -9.417   9.199  71.471  1.00  0.00    -0.239 C  
BRANCH   6   7
HETATM    7  C   UNL     1      -9.939   8.992  70.052  1.00  0.00    -0.207 C  
BRANCH   7   8
HETATM    8  C   UNL     1     -10.937  10.096  69.708  1.00  0.00    -0.325 C  
BRANCH   8   9
HETATM    9  C   UNL     1     -11.832  10.439  70.890  1.00  0.00    -0.475 C  
BRANCH   9  10
HETATM   10  C   UNL     1     -12.358  11.881  70.816  1.00  0.00    -0.416 C  
BRANCH  10  11
HETATM   11  C   UNL     1     -13.176  12.315  72.041  1.00  0.00    -0.508 C  
BRANCH  11  12
HETATM   12  C   UNL     1     -13.288  13.818  72.092  1.00  0.00    -0.476 C  
HETATM   13  O   UNL     1     -13.385  14.481  73.112  1.00  0.00    -0.595 OA 
BRANCH  12  14
HETATM   14  O   UNL     1     -13.074  14.331  70.849  1.00  0.00    -0.350 OA 
BRANCH  14  15
HETATM   15  C   UNL     1     -12.327  15.554  70.839  1.00  0.00    -0.422 C  
BRANCH  15  16
HETATM   16  C   UNL     1     -11.676  15.644  69.455  1.00  0.00    -0.370 C  
BRANCH  16  17
HETATM   17  N   UNL     1     -12.348  14.868  68.427  1.00  0.00    -0.578 N  
HETATM   18  C   UNL     1     -11.881  14.856  67.135  1.00  0.00    -0.211 C  
HETATM   19  H   UNL     1     -13.177  14.324  68.667  1.00  0.00     0.000 HD 
HETATM   20  O   UNL     1     -10.962  15.569  66.743  1.00  0.00    -0.314 OA 
BRANCH  18  21
HETATM   21  C   UNL     1     -12.629  13.966  66.164  1.00  0.00    -0.380 C  
BRANCH  21  22
HETATM   22  N   UNL     1     -11.702  12.944  65.635  1.00  0.00    -0.365 NA 
HETATM   23  C   UNL     1     -11.254  11.955  66.450  1.00  0.00    -0.331 A  
HETATM   24  C   UNL     1     -10.365  10.999  65.977  1.00  0.00    -0.311 A  
HETATM   25  C   UNL     1      -9.951  11.049  64.654  1.00  0.00    -0.357 A  
HETATM   26  C   UNL     1     -10.430  12.055  63.826  1.00  0.00    -0.469 A  
HETATM   27  C   UNL     1     -11.311  12.998  64.342  1.00  0.00    -0.357 A  
ENDBRANCH  21  22
ENDBRANCH  18  21
ENDBRANCH  16  17
ENDBRANCH  15  16
ENDBRANCH  14  15
ENDBRANCH  12  14
ENDBRANCH  11  12
ENDBRANCH  10  11
ENDBRANCH   9  10
ENDBRANCH   8   9
ENDBRANCH   7   8
ENDBRANCH   6   7
ENDBRANCH   5   6
ENDBRANCH   4   5
ENDBRANCH   3   4
ENDBRANCH   2   3
TORSDOF 16
ENDMDL
MODEL       26
REMARK 921   NORMALIZED FREE ENERGY PREDICTED BY IDOCK:   -4.79 KCAL/MOL
REMARK 922        TOTAL FREE ENERGY PREDICTED BY IDOCK:  -11.35 KCAL/MOL
REMARK 923 INTER-LIGAND FREE ENERGY PREDICTED BY IDOCK:   -9.78 KCAL/MOL
REMARK 924 INTRA-LIGAND FREE ENERGY PREDICTED BY IDOCK:   -1.57 KCAL/MOL
REMARK 927      BINDING AFFINITY PREDICTED BY RF-SCORE:    0.00 PKD
ROOT
HETATM    1  C   UNL     1     -13.365   7.198  71.261  1.00  0.00    -0.321 C  
HETATM    2  C   UNL     1     -14.002   8.440  71.860  1.00  0.00    -0.483 C  
ENDROOT
BRANCH   2   3
HETATM    3  C   UNL     1     -12.939   9.435  72.320  1.00  0.00    -0.479 C  
BRANCH   3   4
HETATM    4  C   UNL     1     -13.098  10.780  71.617  1.00  0.00    -0.551 C  
BRANCH   4   5
HETATM    5  C   UNL     1     -12.139  10.890  70.432  1.00  0.00    -0.453 C  
BRANCH   5   6
HETATM    6  C   UNL     1     -10.885  10.061  70.678  1.00  0.00    -0.367 C  
BRANCH   6   7
HETATM    7  C   UNL     1     -10.057   9.904  69.406  1.00  0.00    -0.227 C  
BRANCH   7   8
HETATM    8  C   UNL     1     -10.982   9.898  68.191  1.00  0.00    -0.261 C  
BRANCH   8   9
HETATM    9  C   UNL     1     -10.592   8.822  67.187  1.00  0.00    -0.303 C  
BRANCH   9  10
HETATM   10  C   UNL     1      -9.908   9.413  65.945  1.00  0.00    -0.362 C  
BRANCH  10  11
HETATM   11  C   UNL     1      -9.839  10.947  65.935  1.00  0.00    -0.285 C  
BRANCH  11  12
HETATM   12  C   UNL     1     -10.187  11.479  64.567  1.00  0.00    -0.288 C  
HETATM   13  O   UNL     1      -9.598  11.201  63.534  1.00  0.00    -0.256 OA 
BRANCH  12  14
HETATM   14  O   UNL     1     -11.364  12.161  64.632  1.00  0.00    -0.311 OA 
BRANCH  14  15
HETATM   15  C   UNL     1     -11.273  13.427  65.297  1.00  0.00    -0.289 C  
BRANCH  15  16
HETATM   16  C   UNL     1     -12.253  13.361  66.473  1.00  0.00    -0.356 C  
BRANCH  16  17
HETATM   17  N   UNL     1     -12.251  14.543  67.319  1.00  0.00    -0.581 N  
HETATM   18  C   UNL     1     -11.468  14.602  68.446  1.00  0.00    -0.311 C  
HETATM   19  H   UNL     1     -12.839  15.340  67.073  1.00  0.00     0.000 HD 
HETATM   20  O   UNL     1     -10.823  13.648  68.870  1.00  0.00    -0.247 OA 
BRANCH  18  21
HETATM   21  C   UNL     1     -11.506  15.905  69.216  1.00  0.00    -0.374 C  
BRANCH  21  22
HETATM   22  N   UNL     1     -12.045  15.651  70.569  1.00  0.00    -0.379 NA 
HETATM   23  C   UNL     1     -11.324  16.014  71.660  1.00  0.00    -0.229 A  
HETATM   24  C   UNL     1     -11.803  15.763  72.938  1.00  0.00    -0.568 A  
HETATM   25  C   UNL     1     -13.040  15.154  73.095  1.00  0.00    -0.625 A  
HETATM   26  C   UNL     1     -13.775  14.803  71.971  1.00  0.00    -0.527 A  
HETATM   27  C   UNL     1     -13.254  15.063  70.709  1.00  0.00    -0.348 A  
ENDBRANCH  21  22
ENDBRANCH  18  21
ENDBRANCH  16  17
ENDBRANCH  15  16
ENDBRANCH  14  15
ENDBRANCH  12  14
ENDBRANCH  11  12
ENDBRANCH  10  11
ENDBRANCH   9  10
ENDBRANCH   8   9
ENDBRANCH   7   8
ENDBRANCH   6   7
ENDBRANCH   5   6
ENDBRANCH   4   5
ENDBRANCH   3   4
ENDBRANCH   2   3
TORSDOF 16
ENDMDL
MODEL       27
REMARK 921   NORMALIZED FREE ENERGY PREDICTED BY IDOCK:   -4.79 KCAL/MOL
REMARK 922        TOTAL FREE ENERGY PREDICTED BY IDOCK:  -11.35 KCAL/MOL
REMARK 923 INTER-LIGAND FREE ENERGY PREDICTED BY IDOCK:   -8.91 KCAL/MOL
REMARK 924 INTRA-LIGAND FREE ENERGY PREDICTED BY IDOCK:   -2.44 KCAL/MOL
REMARK 927      BINDING AFFINITY PREDICTED BY RF-SCORE:    0.00 PKD
ROOT
HETATM    1  C   UNL     1      -8.998  10.483  64.967  1.00  0.00    -0.223 C  
HETATM    2  C   UNL     1     -10.434  10.881  64.673  1.00  0.00    -0.384 C  
ENDROOT
BRANCH   2   3
HETATM    3  C   UNL     1     -10.510  11.813  63.465  1.00  0.00    -0.500 C  
BRANCH   3   4
HETATM    4  C   UNL     1     -11.804  12.621  63.470  1.00  0.00    -0.619 C  
BRANCH   4   5
HETATM    5  C   UNL     1     -12.494  12.532  64.830  1.00  0.00    -0.524 C  
BRANCH   5   6
HETATM    6  C   UNL     1     -12.627  13.915  65.456  1.00  0.00    -0.560 C  
BRANCH   6   7
HETATM    7  C   UNL     1     -11.459  14.819  65.073  1.00  0.00    -0.389 C  
BRANCH   7   8
HETATM    8  C   UNL     1     -10.612  15.110  66.309  1.00  0.00    -0.312 C  
BRANCH   8   9
HETATM    9  C   UNL     1      -9.712  13.937  66.669  1.00  0.00    -0.295 C  
BRANCH   9  10
HETATM   10  C   UNL     1      -9.948  13.446  68.105  1.00  0.00    -0.237 C  
BRANCH  10  11
HETATM   11  C   UNL     1      -9.895  11.920  68.265  1.00  0.00    -0.199 C  
BRANCH  11  12
HETATM   12  C   UNL     1     -11.235  11.393  68.713  1.00  0.00    -0.247 C  
HETATM   13  O   UNL     1     -12.203  11.225  67.987  1.00  0.00    -0.621 OA 
BRANCH  12  14
HETATM   14  O   UNL     1     -11.144  10.956  70.000  1.00  0.00    -0.268 OA 
BRANCH  14  15
HETATM   15  C   UNL     1     -12.286  11.267  70.807  1.00  0.00    -0.398 C  
BRANCH  15  16
HETATM   16  C   UNL     1     -12.677   9.964  71.512  1.00  0.00    -0.415 C  
BRANCH  16  17
HETATM   17  N   UNL     1     -12.393   8.761  70.746  1.00  0.00    -0.492 N  
HETATM   18  C   UNL     1     -11.789   7.677  71.336  1.00  0.00    -0.293 C  
HETATM   19  H   UNL     1     -12.644   8.722  69.759  1.00  0.00     0.000 HD 
HETATM   20  O   UNL     1     -11.356   7.688  72.484  1.00  0.00    -0.307 OA 
BRANCH  18  21
HETATM   21  C   UNL     1     -11.595   6.461  70.454  1.00  0.00    -0.373 C  
BRANCH  21  22
HETATM   22  N   UNL     1     -10.731   6.827  69.311  1.00  0.00    -0.236 NA 
HETATM   23  C   UNL     1     -11.155   6.590  68.044  1.00  0.00    -0.238 A  
HETATM   24  C   UNL     1     -10.349   6.906  66.959  1.00  0.00    -0.348 A  
HETATM   25  C   UNL     1      -9.108   7.486  67.178  1.00  0.00    -0.144 A  
HETATM   26  C   UNL     1      -8.693   7.738  68.479  1.00  0.00    -0.128 A  
HETATM   27  C   UNL     1      -9.527   7.399  69.537  1.00  0.00    -0.155 A  
ENDBRANCH  21  22
ENDBRANCH  18  21
ENDBRANCH  16  17
ENDBRANCH  15  16
ENDBRANCH  14  15
ENDBRANCH  12  14
ENDBRANCH  11  12
ENDBRANCH  10  11
ENDBRANCH   9  10
ENDBRANCH   8   9
ENDBRANCH   7   8
ENDBRANCH   6   7
ENDBRANCH   5   6
ENDBRANCH   4   5
ENDBRANCH   3   4
ENDBRANCH   2   3
TORSDOF 16
ENDMDL
MODEL       28
REMARK 921   NORMALIZED FREE ENERGY PREDICTED BY IDOCK:   -4.78 KCAL/MOL
REMARK 922        TOTAL FREE ENERGY PREDICTED BY IDOCK:  -11.32 KCAL/MOL
REMARK 923 INTER-LIGAND FREE ENERGY PREDICTED BY IDOCK:  -10.17 KCAL/MOL
REMARK 924 INTRA-LIGAND FREE ENERGY PREDICTED BY IDOCK:   -1.16 KCAL/MOL
REMARK 927      BINDING AFFINITY PREDICTED BY RF-SCORE:    0.00 PKD
ROOT
HETATM    1  C   UNL     1     -12.754  10.542  71.623  1.00  0.00    -0.550 C  
HETATM    2  C   UNL     1     -12.804   9.026  71.700  1.00  0.00    -0.419 C  
ENDROOT
BRANCH   2   3
HETATM    3  C   UNL     1     -11.473   8.410  71.276  1.00  0.00    -0.325 C  
BRANCH   3   4
HETATM    4  C   UNL     1     -10.341   9.432  71.354  1.00  0.00    -0.326 C  
BRANCH   4   5
HETATM    5  C   UNL     1      -9.626   9.553  70.009  1.00  0.00    -0.272 C  
BRANCH   5   6
HETATM    6  C   UNL     1     -10.367   8.767  68.935  1.00  0.00    -0.229 C  
BRANCH   6   7
HETATM    7  C   UNL     1     -10.696   9.639  67.727  1.00  0.00    -0.316 C  
BRANCH   7   8
HETATM    8  C   UNL     1      -9.749   9.302  66.579  1.00  0.00    -0.305 C  
BRANCH   8   9
HETATM    9  C   UNL     1     -10.075  10.097  65.323  1.00  0.00    -0.344 C  
BRANCH   9  10
HETATM   10  C   UNL     1     -10.653  11.483  65.650  1.00  0.00    -0.326 C  
BRANCH  10  11
HETATM   11  C   UNL     1     -10.886  12.373  64.421  1.00  0.00    -0.375 C  
BRANCH  11  12
HETATM   12  C   UNL     1     -12.307  12.877  64.399  1.00  0.00    -0.398 C  
HETATM   13  O   UNL     1     -13.301  12.173  64.309  1.00  0.00    -0.761 OA 
BRANCH  12  14
HETATM   14  O   UNL     1     -12.321  14.208  64.685  1.00  0.00    -0.498 OA 
BRANCH  14  15
HETATM   15  C   UNL     1     -11.020  14.788  64.843  1.00  0.00    -0.412 C  
BRANCH  15  16
HETATM   16  C   UNL     1     -11.057  15.561  66.166  1.00  0.00    -0.177 C  
BRANCH  16  17
HETATM   17  N   UNL     1     -11.062  14.719  67.351  1.00  0.00    -0.314 N  
HETATM   18  C   UNL     1     -11.412  15.231  68.577  1.00  0.00    -0.342 C  
HETATM   19  H   UNL     1     -10.803  13.736  67.271  1.00  0.00     0.000 HD 
HETATM   20  O   UNL     1     -11.625  16.423  68.774  1.00  0.00    -0.308 OA 
BRANCH  18  21
HETATM   21  C   UNL     1     -11.436  14.246  69.727  1.00  0.00    -0.261 C  
BRANCH  21  22
HETATM   22  N   UNL     1     -12.177  14.843  70.858  1.00  0.00    -0.301 NA 
HETATM   23  C   UNL     1     -11.507  15.551  71.803  1.00  0.00    -0.426 A  
HETATM   24  C   UNL     1     -12.181  16.100  72.884  1.00  0.00    -0.640 A  
HETATM   25  C   UNL     1     -13.556  15.937  72.985  1.00  0.00    -0.616 A  
HETATM   26  C   UNL     1     -14.231  15.225  72.002  1.00  0.00    -0.679 A  
HETATM   27  C   UNL     1     -13.517  14.684  70.941  1.00  0.00    -0.243 A  
ENDBRANCH  21  22
ENDBRANCH  18  21
ENDBRANCH  16  17
ENDBRANCH  15  16
ENDBRANCH  14  15
ENDBRANCH  12  14
ENDBRANCH  11  12
ENDBRANCH  10  11
ENDBRANCH   9  10
ENDBRANCH   8   9
ENDBRANCH   7   8
ENDBRANCH   6   7
ENDBRANCH   5   6
ENDBRANCH   4   5
ENDBRANCH   3   4
ENDBRANCH   2   3
TORSDOF 16
ENDMDL
MODEL       29
REMARK 921   NORMALIZED FREE ENERGY PREDICTED BY IDOCK:   -4.77 KCAL/MOL
REMARK 922        TOTAL FREE ENERGY PREDICTED BY IDOCK:  -11.32 KCAL/MOL
REMARK 923 INTER-LIGAND FREE ENERGY PREDICTED BY IDOCK:   -9.85 KCAL/MOL
REMARK 924 INTRA-LIGAND FREE ENERGY PREDICTED BY IDOCK:   -1.47 KCAL/MOL
REMARK 927      BINDING AFFINITY PREDICTED BY RF-SCORE:    0.00 PKD
ROOT
HETATM    1  C   UNL     1      -6.748   9.298  64.866  1.00  0.00    -0.079 C  
HETATM    2  C   UNL     1      -7.460   9.029  63.551  1.00  0.00    -0.103 C  
ENDROOT
BRANCH   2   3
HETATM    3  C   UNL     1      -8.790   9.775  63.484  1.00  0.00    -0.260 C  
BRANCH   3   4
HETATM    4  C   UNL     1      -9.419   9.911  64.868  1.00  0.00    -0.355 C  
BRANCH   4   5
HETATM    5  C   UNL     1     -10.461  11.029  64.883  1.00  0.00    -0.371 C  
BRANCH   5   6
HETATM    6  C   UNL     1     -10.661  11.594  63.483  1.00  0.00    -0.495 C  
BRANCH   6   7
HETATM    7  C   UNL     1     -11.980  12.354  63.367  1.00  0.00    -0.595 C  
BRANCH   7   8
HETATM    8  C   UNL     1     -12.623  12.475  64.746  1.00  0.00    -0.493 C  
BRANCH   8   9
HETATM    9  C   UNL     1     -12.777  13.928  65.174  1.00  0.00    -0.434 C  
BRANCH   9  10
HETATM   10  C   UNL     1     -11.595  14.405  66.031  1.00  0.00    -0.364 C  
BRANCH  10  11
HETATM   11  C   UNL     1     -10.377  14.868  65.219  1.00  0.00    -0.424 C  
BRANCH  11  12
HETATM   12  C   UNL     1     -10.443  16.354  64.974  1.00  0.00    -0.080 C  
HETATM   13  O   UNL     1     -11.265  16.914  64.265  1.00  0.00    -1.204 OA 
BRANCH  12  14
HETATM   14  O   UNL     1      -9.572  16.991  65.805  1.00  0.00    -0.525 OA 
BRANCH  14  15
HETATM   15  C   UNL     1     -10.189  17.930  66.694  1.00  0.00    -0.371 C  
BRANCH  15  16
HETATM   16  C   UNL     1      -9.975  17.382  68.108  1.00  0.00    -0.308 C  
BRANCH  16  17
HETATM   17  N   UNL     1     -11.155  16.770  68.697  1.00  0.00    -0.297 N  
HETATM   18  C   UNL     1     -11.038  15.844  69.705  1.00  0.00    -0.324 C  
HETATM   19  H   UNL     1     -12.080  17.031  68.357  1.00  0.00     0.000 HD 
HETATM   20  O   UNL     1      -9.962  15.396  70.090  1.00  0.00    -0.258 OA 
BRANCH  18  21
HETATM   21  C   UNL     1     -12.338  15.318  70.279  1.00  0.00    -0.366 C  
BRANCH  21  22
HETATM   22  N   UNL     1     -12.277  13.842  70.335  1.00  0.00    -0.346 NA 
HETATM   23  C   UNL     1     -12.708  13.193  71.447  1.00  0.00    -0.297 A  
HETATM   24  C   UNL     1     -12.638  11.809  71.528  1.00  0.00    -0.320 A  
HETATM   25  C   UNL     1     -12.142  11.087  70.452  1.00  0.00    -0.463 A  
HETATM   26  C   UNL     1     -11.721  11.763  69.314  1.00  0.00    -0.398 A  
HETATM   27  C   UNL     1     -11.799  13.149  69.278  1.00  0.00    -0.323 A  
ENDBRANCH  21  22
ENDBRANCH  18  21
ENDBRANCH  16  17
ENDBRANCH  15  16
ENDBRANCH  14  15
ENDBRANCH  12  14
ENDBRANCH  11  12
ENDBRANCH  10  11
ENDBRANCH   9  10
ENDBRANCH   8   9
ENDBRANCH   7   8
ENDBRANCH   6   7
ENDBRANCH   5   6
ENDBRANCH   4   5
ENDBRANCH   3   4
ENDBRANCH   2   3
TORSDOF 16
ENDMDL
MODEL       30
REMARK 921   NORMALIZED FREE ENERGY PREDICTED BY IDOCK:   -4.77 KCAL/MOL
REMARK 922        TOTAL FREE ENERGY PREDICTED BY IDOCK:  -11.32 KCAL/MOL
REMARK 923 INTER-LIGAND FREE ENERGY PREDICTED BY IDOCK:   -9.13 KCAL/MOL
REMARK 924 INTRA-LIGAND FREE ENERGY PREDICTED BY IDOCK:   -2.19 KCAL/MOL
REMARK 927      BINDING AFFINITY PREDICTED BY RF-SCORE:    0.00 PKD
ROOT
HETATM    1  C   UNL     1     -12.781  13.947  65.481  1.00  0.00    -0.536 C  
HETATM    2  C   UNL     1     -12.211  13.826  64.078  1.00  0.00    -0.429 C  
ENDROOT
BRANCH   2   3
HETATM    3  C   UNL     1     -12.138  12.365  63.639  1.00  0.00    -0.648 C  
BRANCH   3   4
HETATM    4  C   UNL     1     -10.690  11.909  63.475  1.00  0.00    -0.504 C  
BRANCH   4   5
HETATM    5  C   UNL     1     -10.385  10.730  64.397  1.00  0.00    -0.405 C  
BRANCH   5   6
HETATM    6  C   UNL     1      -9.583  11.190  65.608  1.00  0.00    -0.259 C  
BRANCH   6   7
HETATM    7  C   UNL     1     -10.466  11.335  66.845  1.00  0.00    -0.286 C  
BRANCH   7   8
HETATM    8  C   UNL     1     -10.120  12.632  67.571  1.00  0.00    -0.212 C  
BRANCH   8   9
HETATM    9  C   UNL     1      -9.383  13.610  66.666  1.00  0.00    -0.265 C  
BRANCH   9  10
HETATM   10  C   UNL     1      -9.649  15.072  67.058  1.00  0.00    -0.233 C  
BRANCH  10  11
HETATM   11  C   UNL     1      -9.103  15.462  68.438  1.00  0.00    -0.191 C  
BRANCH  11  12
HETATM   12  C   UNL     1     -10.113  16.296  69.186  1.00  0.00    -0.264 C  
HETATM   13  O   UNL     1     -10.593  17.345  68.785  1.00  0.00    -0.341 OA 
BRANCH  12  14
HETATM   14  O   UNL     1     -10.546  15.611  70.280  1.00  0.00    -0.316 OA 
BRANCH  14  15
HETATM   15  C   UNL     1     -11.972  15.503  70.378  1.00  0.00    -0.367 C  
BRANCH  15  16
HETATM   16  C   UNL     1     -12.247  14.285  71.266  1.00  0.00    -0.350 C  
BRANCH  16  17
HETATM   17  N   UNL     1     -12.105  13.007  70.589  1.00  0.00    -0.508 N  
HETATM   18  C   UNL     1     -12.747  11.887  71.057  1.00  0.00    -0.258 C  
HETATM   19  H   UNL     1     -11.522  12.941  69.755  1.00  0.00     0.000 HD 
HETATM   20  O   UNL     1     -13.373  11.859  72.113  1.00  0.00    -0.503 OA 
BRANCH  18  21
HETATM   21  C   UNL     1     -12.571  10.626  70.237  1.00  0.00    -0.260 C  
BRANCH  21  22
HETATM   22  N   UNL     1     -11.447   9.843  70.792  1.00  0.00    -0.326 NA 
HETATM   23  C   UNL     1     -11.648   9.056  71.879  1.00  0.00    -0.370 A  
HETATM   24  C   UNL     1     -10.600   8.330  72.429  1.00  0.00    -0.408 A  
HETATM   25  C   UNL     1      -9.343   8.399  71.845  1.00  0.00    -0.313 A  
HETATM   26  C   UNL     1      -9.156   9.194  70.722  1.00  0.00    -0.313 A  
HETATM   27  C   UNL     1     -10.229   9.912  70.209  1.00  0.00    -0.264 A  
ENDBRANCH  21  22
ENDBRANCH  18  21
ENDBRANCH  16  17
ENDBRANCH  15  16
ENDBRANCH  14  15
ENDBRANCH  12  14
ENDBRANCH  11  12
ENDBRANCH  10  11
ENDBRANCH   9  10
ENDBRANCH   8   9
ENDBRANCH   7   8
ENDBRANCH   6   7
ENDBRANCH   5   6
ENDBRANCH   4   5
ENDBRANCH   3   4
ENDBRANCH   2   3
TORSDOF 16
ENDMDL
MODEL       31
REMARK 921   NORMALIZED FREE ENERGY PREDICTED BY IDOCK:   -4.75 KCAL/MOL
REMARK 922        TOTAL FREE ENERGY PREDICTED BY IDOCK:  -11.28 KCAL/MOL
REMARK 923 INTER-LIGAND FREE ENERGY PREDICTED BY IDOCK:   -9.01 KCAL/MOL
REMARK 924 INTRA-LIGAND FREE ENERGY PREDICTED BY IDOCK:   -2.27 KCAL/MOL
REMARK 927      BINDING AFFINITY PREDICTED BY RF-SCORE:    0.00 PKD
ROOT
HETATM    1  C   UNL     1      -9.173   9.146  68.418  1.00  0.00    -0.132 C  
HETATM    2  C   UNL     1     -10.504   8.783  67.782  1.00  0.00    -0.292 C  
ENDROOT
BRANCH   2   3
HETATM    3  C   UNL     1     -10.507   7.333  67.303  1.00  0.00    -0.380 C  
BRANCH   3   4
HETATM    4  C   UNL     1     -11.147   6.410  68.337  1.00  0.00    -0.374 C  
BRANCH   4   5
HETATM    5  C   UNL     1     -10.078   5.716  69.180  1.00  0.00    -0.274 C  
BRANCH   5   6
HETATM    6  C   UNL     1     -10.354   5.916  70.665  1.00  0.00    -0.296 C  
BRANCH   6   7
HETATM    7  C   UNL     1     -11.703   6.592  70.900  1.00  0.00    -0.416 C  
BRANCH   7   8
HETATM    8  C   UNL     1     -11.645   7.414  72.185  1.00  0.00    -0.331 C  
BRANCH   8   9
HETATM    9  C   UNL     1     -11.328   8.877  71.908  1.00  0.00    -0.446 C  
BRANCH   9  10
HETATM   10  C   UNL     1     -12.372   9.530  70.989  1.00  0.00    -0.363 C  
BRANCH  10  11
HETATM   11  C   UNL     1     -11.969  10.915  70.464  1.00  0.00    -0.466 C  
BRANCH  11  12
HETATM   12  C   UNL     1     -12.736  11.994  71.186  1.00  0.00    -0.266 C  
HETATM   13  O   UNL     1     -13.320  11.850  72.249  1.00  0.00    -0.471 OA 
BRANCH  12  14
HETATM   14  O   UNL     1     -12.522  13.191  70.573  1.00  0.00    -0.313 OA 
BRANCH  14  15
HETATM   15  C   UNL     1     -13.278  14.276  71.125  1.00  0.00    -0.321 C  
BRANCH  15  16
HETATM   16  C   UNL     1     -12.587  15.560  70.654  1.00  0.00    -0.443 C  
BRANCH  16  17
HETATM   17  N   UNL     1     -12.317  15.604  69.227  1.00  0.00    -0.579 N  
HETATM   18  C   UNL     1     -11.030  15.694  68.756  1.00  0.00    -0.281 C  
HETATM   19  H   UNL     1     -13.093  15.567  68.566  1.00  0.00     0.000 HD 
HETATM   20  O   UNL     1     -10.055  15.856  69.484  1.00  0.00    -0.248 OA 
BRANCH  18  21
HETATM   21  C   UNL     1     -10.868  15.675  67.250  1.00  0.00    -0.298 C  
BRANCH  21  22
HETATM   22  N   UNL     1     -10.812  14.272  66.789  1.00  0.00    -0.295 NA 
HETATM   23  C   UNL     1      -9.646  13.582  66.875  1.00  0.00    -0.258 A  
HETATM   24  C   UNL     1      -9.568  12.271  66.426  1.00  0.00    -0.242 A  
HETATM   25  C   UNL     1     -10.699  11.660  65.904  1.00  0.00    -0.328 A  
HETATM   26  C   UNL     1     -11.889  12.372  65.838  1.00  0.00    -0.467 A  
HETATM   27  C   UNL     1     -11.922  13.685  66.289  1.00  0.00    -0.423 A  
ENDBRANCH  21  22
ENDBRANCH  18  21
ENDBRANCH  16  17
ENDBRANCH  15  16
ENDBRANCH  14  15
ENDBRANCH  12  14
ENDBRANCH  11  12
ENDBRANCH  10  11
ENDBRANCH   9  10
ENDBRANCH   8   9
ENDBRANCH   7   8
ENDBRANCH   6   7
ENDBRANCH   5   6
ENDBRANCH   4   5
ENDBRANCH   3   4
ENDBRANCH   2   3
TORSDOF 16
ENDMDL
MODEL       32
REMARK 921   NORMALIZED FREE ENERGY PREDICTED BY IDOCK:   -4.75 KCAL/MOL
REMARK 922        TOTAL FREE ENERGY PREDICTED BY IDOCK:  -11.27 KCAL/MOL
REMARK 923 INTER-LIGAND FREE ENERGY PREDICTED BY IDOCK:   -9.35 KCAL/MOL
REMARK 924 INTRA-LIGAND FREE ENERGY PREDICTED BY IDOCK:   -1.91 KCAL/MOL
REMARK 927      BINDING AFFINITY PREDICTED BY RF-SCORE:    0.00 PKD
ROOT
HETATM    1  C   UNL     1      -7.715   9.910  65.272  1.00  0.00    -0.129 C  
HETATM    2  C   UNL     1      -8.995   9.168  64.930  1.00  0.00    -0.201 C  
ENDROOT
BRANCH   2   3
HETATM    3  C   UNL     1      -9.879   9.002  66.164  1.00  0.00    -0.349 C  
BRANCH   3   4
HETATM    4  C   UNL     1     -10.334  10.354  66.706  1.00  0.00    -0.294 C  
BRANCH   4   5
HETATM    5  C   UNL     1     -10.821  10.225  68.148  1.00  0.00    -0.312 C  
BRANCH   5   6
HETATM    6  C   UNL     1     -10.394   8.888  68.741  1.00  0.00    -0.232 C  
BRANCH   6   7
HETATM    7  C   UNL     1     -10.805   8.766  70.206  1.00  0.00    -0.252 C  
BRANCH   7   8
HETATM    8  C   UNL     1     -11.455  10.069  70.665  1.00  0.00    -0.425 C  
BRANCH   8   9
HETATM    9  C   UNL     1     -12.649   9.817  71.574  1.00  0.00    -0.493 C  
BRANCH   9  10
HETATM   10  C   UNL     1     -13.384  11.117  71.936  1.00  0.00    -0.409 C  
BRANCH  10  11
HETATM   11  C   UNL     1     -12.846  12.363  71.219  1.00  0.00    -0.337 C  
BRANCH  11  12
HETATM   12  C   UNL     1     -13.367  13.615  71.880  1.00  0.00    -0.425 C  
HETATM   13  O   UNL     1     -14.359  13.675  72.589  1.00  0.00    -0.703 OA 
BRANCH  12  14
HETATM   14  O   UNL     1     -12.464  14.622  71.721  1.00  0.00    -0.320 OA 
BRANCH  14  15
HETATM   15  C   UNL     1     -12.637  15.380  70.517  1.00  0.00    -0.423 C  
BRANCH  15  16
HETATM   16  C   UNL     1     -11.231  15.600  69.947  1.00  0.00    -0.331 C  
BRANCH  16  17
HETATM   17  N   UNL     1     -11.205  15.917  68.528  1.00  0.00    -0.344 N  
HETATM   18  C   UNL     1     -11.045  14.927  67.589  1.00  0.00    -0.311 C  
HETATM   19  H   UNL     1     -11.307  16.885  68.227  1.00  0.00     0.000 HD 
HETATM   20  O   UNL     1     -10.804  13.758  67.874  1.00  0.00    -0.238 OA 
BRANCH  18  21
HETATM   21  C   UNL     1     -11.091  15.370  66.141  1.00  0.00    -0.230 C  
BRANCH  21  22
HETATM   22  N   UNL     1     -11.324  14.189  65.283  1.00  0.00    -0.317 NA 
HETATM   23  C   UNL     1     -12.549  13.605  65.261  1.00  0.00    -0.469 A  
HETATM   24  C   UNL     1     -12.782  12.482  64.479  1.00  0.00    -0.440 A  
HETATM   25  C   UNL     1     -11.755  11.969  63.700  1.00  0.00    -0.587 A  
HETATM   26  C   UNL     1     -10.511  12.587  63.718  1.00  0.00    -0.451 A  
HETATM   27  C   UNL     1     -10.318  13.703  64.522  1.00  0.00    -0.330 A  
ENDBRANCH  21  22
ENDBRANCH  18  21
ENDBRANCH  16  17
ENDBRANCH  15  16
ENDBRANCH  14  15
ENDBRANCH  12  14
ENDBRANCH  11  12
ENDBRANCH  10  11
ENDBRANCH   9  10
ENDBRANCH   8   9
ENDBRANCH   7   8
ENDBRANCH   6   7
ENDBRANCH   5   6
ENDBRANCH   4   5
ENDBRANCH   3   4
ENDBRANCH   2   3
TORSDOF 16
ENDMDL
MODEL       33
REMARK 921   NORMALIZED FREE ENERGY PREDICTED BY IDOCK:   -4.74 KCAL/MOL
REMARK 922        TOTAL FREE ENERGY PREDICTED BY IDOCK:  -11.25 KCAL/MOL
REMARK 923 INTER-LIGAND FREE ENERGY PREDICTED BY IDOCK:   -9.34 KCAL/MOL
REMARK 924 INTRA-LIGAND FREE ENERGY PREDICTED BY IDOCK:   -1.91 KCAL/MOL
REMARK 927      BINDING AFFINITY PREDICTED BY RF-SCORE:    0.00 PKD
ROOT
HETATM    1  C   UNL     1     -10.129   5.264  68.888  1.00  0.00    -0.254 C  
HETATM    2  C   UNL     1     -10.476   5.777  70.275  1.00  0.00    -0.349 C  
ENDROOT
BRANCH   2   3
HETATM    3  C   UNL     1     -11.707   6.680  70.234  1.00  0.00    -0.432 C  
BRANCH   3   4
HETATM    4  C   UNL     1     -12.196   7.012  71.641  1.00  0.00    -0.395 C  
BRANCH   4   5
HETATM    5  C   UNL     1     -11.996   8.496  71.949  1.00  0.00    -0.409 C  
BRANCH   5   6
HETATM    6  C   UNL     1     -13.249   9.289  71.601  1.00  0.00    -0.456 C  
BRANCH   6   7
HETATM    7  C   UNL     1     -12.910  10.710  71.160  1.00  0.00    -0.518 C  
BRANCH   7   8
HETATM    8  C   UNL     1     -11.652  10.691  70.294  1.00  0.00    -0.424 C  
BRANCH   8   9
HETATM    9  C   UNL     1     -11.573  11.907  69.382  1.00  0.00    -0.388 C  
BRANCH   9  10
HETATM   10  C   UNL     1     -11.556  11.514  67.897  1.00  0.00    -0.352 C  
BRANCH  10  11
HETATM   11  C   UNL     1     -10.224  11.795  67.188  1.00  0.00    -0.236 C  
BRANCH  11  12
HETATM   12  C   UNL     1      -9.941  10.727  66.161  1.00  0.00    -0.232 C  
HETATM   13  O   UNL     1     -10.163   9.535  66.307  1.00  0.00    -0.271 OA 
BRANCH  12  14
HETATM   14  O   UNL     1      -9.580  11.312  64.986  1.00  0.00    -0.225 OA 
BRANCH  14  15
HETATM   15  C   UNL     1     -10.331  10.863  63.851  1.00  0.00    -0.329 C  
BRANCH  15  16
HETATM   16  C   UNL     1     -11.409  11.925  63.607  1.00  0.00    -0.450 C  
BRANCH  16  17
HETATM   17  N   UNL     1     -11.007  13.276  63.961  1.00  0.00    -0.538 N  
HETATM   18  C   UNL     1     -11.835  14.085  64.701  1.00  0.00    -0.417 C  
HETATM   19  H   UNL     1     -10.099  13.628  63.658  1.00  0.00     0.000 HD 
HETATM   20  O   UNL     1     -12.983  13.778  65.006  1.00  0.00    -0.732 OA 
BRANCH  18  21
HETATM   21  C   UNL     1     -11.286  15.451  65.057  1.00  0.00    -0.387 C  
BRANCH  21  22
HETATM   22  N   UNL     1     -10.546  15.356  66.334  1.00  0.00    -0.302 NA 
HETATM   23  C   UNL     1     -11.226  15.376  67.508  1.00  0.00    -0.302 A  
HETATM   24  C   UNL     1     -10.548  15.311  68.718  1.00  0.00    -0.240 A  
HETATM   25  C   UNL     1      -9.165  15.203  68.719  1.00  0.00    -0.200 A  
HETATM   26  C   UNL     1      -8.483  15.166  67.510  1.00  0.00    -0.185 A  
HETATM   27  C   UNL     1      -9.199  15.244  66.322  1.00  0.00    -0.315 A  
ENDBRANCH  21  22
ENDBRANCH  18  21
ENDBRANCH  16  17
ENDBRANCH  15  16
ENDBRANCH  14  15
ENDBRANCH  12  14
ENDBRANCH  11  12
ENDBRANCH  10  11
ENDBRANCH   9  10
ENDBRANCH   8   9
ENDBRANCH   7   8
ENDBRANCH   6   7
ENDBRANCH   5   6
ENDBRANCH   4   5
ENDBRANCH   3   4
ENDBRANCH   2   3
TORSDOF 16
ENDMDL
MODEL       34
REMARK 921   NORMALIZED FREE ENERGY PREDICTED BY IDOCK:   -4.72 KCAL/MOL
REMARK 922        TOTAL FREE ENERGY PREDICTED BY IDOCK:  -11.21 KCAL/MOL
REMARK 923 INTER-LIGAND FREE ENERGY PREDICTED BY IDOCK:   -9.45 KCAL/MOL
REMARK 924 INTRA-LIGAND FREE ENERGY PREDICTED BY IDOCK:   -1.76 KCAL/MOL
REMARK 927      BINDING AFFINITY PREDICTED BY RF-SCORE:    0.00 PKD
ROOT
HETATM    1  C   UNL     1      -9.082   7.873  73.242  1.00  0.00    -0.341 C  
HETATM    2  C   UNL     1     -10.048   8.525  72.267  1.00  0.00    -0.386 C  
ENDROOT
BRANCH   2   3
HETATM    3  C   UNL     1     -11.441   7.909  72.378  1.00  0.00    -0.433 C  
BRANCH   3   4
HETATM    4  C   UNL     1     -12.009   7.574  71.002  1.00  0.00    -0.317 C  
BRANCH   4   5
HETATM    5  C   UNL     1     -11.390   6.287  70.458  1.00  0.00    -0.428 C  
BRANCH   5   6
HETATM    6  C   UNL     1     -11.156   6.397  68.957  1.00  0.00    -0.424 C  
BRANCH   6   7
HETATM    7  C   UNL     1     -10.321   7.627  68.608  1.00  0.00    -0.220 C  
BRANCH   7   8
HETATM    8  C   UNL     1     -10.567   8.015  67.152  1.00  0.00    -0.367 C  
BRANCH   8   9
HETATM    9  C   UNL     1     -10.459   9.518  66.940  1.00  0.00    -0.279 C  
BRANCH   9  10
HETATM   10  C   UNL     1      -9.915   9.867  65.546  1.00  0.00    -0.363 C  
BRANCH  10  11
HETATM   11  C   UNL     1      -9.958  11.365  65.211  1.00  0.00    -0.303 C  
BRANCH  11  12
HETATM   12  C   UNL     1     -10.433  11.572  63.795  1.00  0.00    -0.405 C  
HETATM   13  O   UNL     1     -10.145  10.861  62.845  1.00  0.00    -0.282 OA 
BRANCH  12  14
HETATM   14  O   UNL     1     -11.376  12.554  63.772  1.00  0.00    -0.395 OA 
BRANCH  14  15
HETATM   15  C   UNL     1     -12.266  12.539  64.895  1.00  0.00    -0.470 C  
BRANCH  15  16
HETATM   16  C   UNL     1     -12.514  14.007  65.262  1.00  0.00    -0.475 C  
BRANCH  16  17
HETATM   17  N   UNL     1     -12.457  14.284  66.687  1.00  0.00    -0.543 N  
HETATM   18  C   UNL     1     -11.256  14.529  67.309  1.00  0.00    -0.332 C  
HETATM   19  H   UNL     1     -13.318  14.298  67.233  1.00  0.00     0.000 HD 
HETATM   20  O   UNL     1     -10.171  14.420  66.747  1.00  0.00    -0.263 OA 
BRANCH  18  21
HETATM   21  C   UNL     1     -11.326  14.862  68.785  1.00  0.00    -0.287 C  
BRANCH  21  22
HETATM   22  N   UNL     1     -11.746  13.657  69.532  1.00  0.00    -0.303 NA 
HETATM   23  C   UNL     1     -12.554  13.785  70.615  1.00  0.00    -0.315 A  
HETATM   24  C   UNL     1     -12.940  12.668  71.343  1.00  0.00    -0.353 A  
HETATM   25  C   UNL     1     -12.510  11.411  70.943  1.00  0.00    -0.478 A  
HETATM   26  C   UNL     1     -11.699  11.293  69.822  1.00  0.00    -0.422 A  
HETATM   27  C   UNL     1     -11.327  12.437  69.128  1.00  0.00    -0.269 A  
ENDBRANCH  21  22
ENDBRANCH  18  21
ENDBRANCH  16  17
ENDBRANCH  15  16
ENDBRANCH  14  15
ENDBRANCH  12  14
ENDBRANCH  11  12
ENDBRANCH  10  11
ENDBRANCH   9  10
ENDBRANCH   8   9
ENDBRANCH   7   8
ENDBRANCH   6   7
ENDBRANCH   5   6
ENDBRANCH   4   5
ENDBRANCH   3   4
ENDBRANCH   2   3
TORSDOF 16
ENDMDL
MODEL       35
REMARK 921   NORMALIZED FREE ENERGY PREDICTED BY IDOCK:   -4.70 KCAL/MOL
REMARK 922        TOTAL FREE ENERGY PREDICTED BY IDOCK:  -11.18 KCAL/MOL
REMARK 923 INTER-LIGAND FREE ENERGY PREDICTED BY IDOCK:   -8.94 KCAL/MOL
REMARK 924 INTRA-LIGAND FREE ENERGY PREDICTED BY IDOCK:   -2.24 KCAL/MOL
REMARK 927      BINDING AFFINITY PREDICTED BY RF-SCORE:    0.00 PKD
ROOT
HETATM    1  C   UNL     1      -8.208  10.331  64.133  1.00  0.00    -0.152 C  
HETATM    2  C   UNL     1      -9.648  10.274  63.651  1.00  0.00    -0.334 C  
ENDROOT
BRANCH   2   3
HETATM    3  C   UNL     1     -10.121  11.645  63.172  1.00  0.00    -0.409 C  
BRANCH   3   4
HETATM    4  C   UNL     1     -11.558  11.918  63.610  1.00  0.00    -0.559 C  
BRANCH   4   5
HETATM    5  C   UNL     1     -11.737  13.385  63.997  1.00  0.00    -0.465 C  
BRANCH   5   6
HETATM    6  C   UNL     1     -12.588  13.507  65.255  1.00  0.00    -0.517 C  
BRANCH   6   7
HETATM    7  C   UNL     1     -11.979  12.735  66.422  1.00  0.00    -0.443 C  
BRANCH   7   8
HETATM    8  C   UNL     1     -10.565  13.244  66.690  1.00  0.00    -0.283 C  
BRANCH   8   9
HETATM    9  C   UNL     1      -9.578  12.102  66.885  1.00  0.00    -0.210 C  
BRANCH   9  10
HETATM   10  C   UNL     1     -10.288  10.762  67.133  1.00  0.00    -0.269 C  
BRANCH  10  11
HETATM   11  C   UNL     1      -9.425   9.717  67.854  1.00  0.00    -0.146 C  
BRANCH  11  12
HETATM   12  C   UNL     1     -10.080   8.361  67.791  1.00  0.00    -0.207 C  
HETATM   13  O   UNL     1      -9.969   7.568  66.869  1.00  0.00    -0.206 OA 
BRANCH  12  14
HETATM   14  O   UNL     1     -10.657   8.079  68.992  1.00  0.00    -0.215 OA 
BRANCH  14  15
HETATM   15  C   UNL     1     -11.201   6.757  69.086  1.00  0.00    -0.177 C  
BRANCH  15  16
HETATM   16  C   UNL     1     -11.750   6.622  70.511  1.00  0.00    -0.394 C  
BRANCH  16  17
HETATM   17  N   UNL     1     -12.716   7.644  70.878  1.00  0.00    -0.548 N  
HETATM   18  C   UNL     1     -12.427   8.567  71.853  1.00  0.00    -0.352 C  
HETATM   19  H   UNL     1     -13.619   7.676  70.406  1.00  0.00     0.000 HD 
HETATM   20  O   UNL     1     -11.413   8.526  72.543  1.00  0.00    -0.371 OA 
BRANCH  18  21
HETATM   21  C   UNL     1     -13.487   9.618  72.110  1.00  0.00    -0.429 C  
BRANCH  21  22
HETATM   22  N   UNL     1     -13.012  10.919  71.594  1.00  0.00    -0.464 NA 
HETATM   23  C   UNL     1     -12.192  10.955  70.513  1.00  0.00    -0.367 A  
HETATM   24  C   UNL     1     -11.717  12.166  70.027  1.00  0.00    -0.330 A  
HETATM   25  C   UNL     1     -12.103  13.347  70.644  1.00  0.00    -0.374 A  
HETATM   26  C   UNL     1     -12.956  13.297  71.739  1.00  0.00    -0.430 A  
HETATM   27  C   UNL     1     -13.401  12.064  72.199  1.00  0.00    -0.290 A  
ENDBRANCH  21  22
ENDBRANCH  18  21
ENDBRANCH  16  17
ENDBRANCH  15  16
ENDBRANCH  14  15
ENDBRANCH  12  14
ENDBRANCH  11  12
ENDBRANCH  10  11
ENDBRANCH   9  10
ENDBRANCH   8   9
ENDBRANCH   7   8
ENDBRANCH   6   7
ENDBRANCH   5   6
ENDBRANCH   4   5
ENDBRANCH   3   4
ENDBRANCH   2   3
TORSDOF 16
ENDMDL
MODEL       36
REMARK 921   NORMALIZED FREE ENERGY PREDICTED BY IDOCK:   -4.69 KCAL/MOL
REMARK 922        TOTAL FREE ENERGY PREDICTED BY IDOCK:  -11.16 KCAL/MOL
REMARK 923 INTER-LIGAND FREE ENERGY PREDICTED BY IDOCK:   -9.86 KCAL/MOL
REMARK 924 INTRA-LIGAND FREE ENERGY PREDICTED BY IDOCK:   -1.30 KCAL/MOL
REMARK 927      BINDING AFFINITY PREDICTED BY RF-SCORE:    0.00 PKD
ROOT
HETATM    1  C   UNL     1     -11.921  16.192  72.654  1.00  0.00    -0.653 C  
HETATM    2  C   UNL     1     -13.352  15.837  73.016  1.00  0.00    -0.679 C  
ENDROOT
BRANCH   2   3
HETATM    3  C   UNL     1     -14.026  15.055  71.890  1.00  0.00    -0.604 C  
BRANCH   3   4
HETATM    4  C   UNL     1     -14.158  13.577  72.245  1.00  0.00    -0.564 C  
BRANCH   4   5
HETATM    5  C   UNL     1     -13.068  12.755  71.557  1.00  0.00    -0.380 C  
BRANCH   5   6
HETATM    6  C   UNL     1     -13.180  11.286  71.944  1.00  0.00    -0.491 C  
BRANCH   6   7
HETATM    7  C   UNL     1     -12.895  10.369  70.758  1.00  0.00    -0.450 C  
BRANCH   7   8
HETATM    8  C   UNL     1     -11.462   9.851  70.844  1.00  0.00    -0.456 C  
BRANCH   8   9
HETATM    9  C   UNL     1     -10.761   9.895  69.494  1.00  0.00    -0.265 C  
BRANCH   9  10
HETATM   10  C   UNL     1     -11.442  10.871  68.522  1.00  0.00    -0.380 C  
BRANCH  10  11
HETATM   11  C   UNL     1     -10.659  12.170  68.284  1.00  0.00    -0.236 C  
BRANCH  11  12
HETATM   12  C   UNL     1     -11.571  13.242  67.744  1.00  0.00    -0.342 C  
HETATM   13  O   UNL     1     -11.986  14.199  68.379  1.00  0.00    -0.347 OA 
BRANCH  12  14
HETATM   14  O   UNL     1     -11.710  13.084  66.398  1.00  0.00    -0.351 OA 
BRANCH  14  15
HETATM   15  C   UNL     1     -12.500  14.099  65.767  1.00  0.00    -0.466 C  
BRANCH  15  16
HETATM   16  C   UNL     1     -12.113  14.080  64.284  1.00  0.00    -0.445 C  
BRANCH  16  17
HETATM   17  N   UNL     1     -10.861  13.397  64.002  1.00  0.00    -0.553 N  
HETATM   18  C   UNL     1     -10.856  12.137  63.455  1.00  0.00    -0.458 C  
HETATM   19  H   UNL     1      -9.977  13.858  64.213  1.00  0.00     0.000 HD 
HETATM   20  O   UNL     1     -11.872  11.473  63.278  1.00  0.00    -0.300 OA 
BRANCH  18  21
HETATM   21  C   UNL     1      -9.493  11.548  63.153  1.00  0.00    -0.311 C  
BRANCH  21  22
HETATM   22  N   UNL     1      -9.274  10.369  64.017  1.00  0.00    -0.239 NA 
HETATM   23  C   UNL     1      -9.697  10.392  65.307  1.00  0.00    -0.278 A  
HETATM   24  C   UNL     1      -9.481   9.303  66.140  1.00  0.00    -0.298 A  
HETATM   25  C   UNL     1      -8.844   8.177  65.639  1.00  0.00    -0.160 A  
HETATM   26  C   UNL     1      -8.432   8.160  64.313  1.00  0.00     0.041 A  
HETATM   27  C   UNL     1      -8.659   9.275  63.515  1.00  0.00    -0.191 A  
ENDBRANCH  21  22
ENDBRANCH  18  21
ENDBRANCH  16  17
ENDBRANCH  15  16
ENDBRANCH  14  15
ENDBRANCH  12  14
ENDBRANCH  11  12
ENDBRANCH  10  11
ENDBRANCH   9  10
ENDBRANCH   8   9
ENDBRANCH   7   8
ENDBRANCH   6   7
ENDBRANCH   5   6
ENDBRANCH   4   5
ENDBRANCH   3   4
ENDBRANCH   2   3
TORSDOF 16
ENDMDL
MODEL       37
REMARK 921   NORMALIZED FREE ENERGY PREDICTED BY IDOCK:   -4.69 KCAL/MOL
REMARK 922        TOTAL FREE ENERGY PREDICTED BY IDOCK:  -11.15 KCAL/MOL
REMARK 923 INTER-LIGAND FREE ENERGY PREDICTED BY IDOCK:  -10.07 KCAL/MOL
REMARK 924 INTRA-LIGAND FREE ENERGY PREDICTED BY IDOCK:   -1.08 KCAL/MOL
REMARK 927      BINDING AFFINITY PREDICTED BY RF-SCORE:    0.00 PKD
ROOT
HETATM    1  C   UNL     1     -12.320  16.247  73.535  1.00  0.00    -0.635 C  
HETATM    2  C   UNL     1     -12.540  15.750  72.116  1.00  0.00    -0.528 C  
ENDROOT
BRANCH   2   3
HETATM    3  C   UNL     1     -13.968  15.243  71.928  1.00  0.00    -0.644 C  
BRANCH   3   4
HETATM    4  C   UNL     1     -14.085  13.767  72.297  1.00  0.00    -0.627 C  
BRANCH   4   5
HETATM    5  C   UNL     1     -13.000  12.947  71.601  1.00  0.00    -0.410 C  
BRANCH   5   6
HETATM    6  C   UNL     1     -13.160  11.466  71.918  1.00  0.00    -0.505 C  
BRANCH   6   7
HETATM    7  C   UNL     1     -12.510  10.588  70.852  1.00  0.00    -0.488 C  
BRANCH   7   8
HETATM    8  C   UNL     1     -11.574   9.583  71.517  1.00  0.00    -0.465 C  
BRANCH   8   9
HETATM    9  C   UNL     1     -12.330   8.381  72.065  1.00  0.00    -0.413 C  
BRANCH   9  10
HETATM   10  C   UNL     1     -11.663   7.053  71.676  1.00  0.00    -0.332 C  
BRANCH  10  11
HETATM   11  C   UNL     1     -11.838   6.670  70.200  1.00  0.00    -0.347 C  
BRANCH  11  12
HETATM   12  C   UNL     1     -10.603   5.971  69.689  1.00  0.00    -0.300 C  
HETATM   13  O   UNL     1     -10.258   4.840  69.994  1.00  0.00    -0.251 OA 
BRANCH  12  14
HETATM   14  O   UNL     1     -10.038   6.715  68.697  1.00  0.00    -0.150 OA 
BRANCH  14  15
HETATM   15  C   UNL     1     -10.849   6.839  67.522  1.00  0.00    -0.318 C  
BRANCH  15  16
HETATM   16  C   UNL     1     -10.427   8.149  66.850  1.00  0.00    -0.309 C  
BRANCH  16  17
HETATM   17  N   UNL     1     -11.133   9.324  67.333  1.00  0.00    -0.355 N  
HETATM   18  C   UNL     1     -10.579  10.575  67.220  1.00  0.00    -0.264 C  
HETATM   19  H   UNL     1     -12.053   9.217  67.762  1.00  0.00     0.000 HD 
HETATM   20  O   UNL     1      -9.435  10.773  66.821  1.00  0.00    -0.169 OA 
BRANCH  18  21
HETATM   21  C   UNL     1     -11.432  11.728  67.706  1.00  0.00    -0.311 C  
BRANCH  21  22
HETATM   22  N   UNL     1     -11.507  12.754  66.645  1.00  0.00    -0.330 NA 
HETATM   23  C   UNL     1     -11.188  14.042  66.930  1.00  0.00    -0.313 A  
HETATM   24  C   UNL     1     -11.275  15.024  65.952  1.00  0.00    -0.313 A  
HETATM   25  C   UNL     1     -11.672  14.675  64.670  1.00  0.00    -0.431 A  
HETATM   26  C   UNL     1     -11.980  13.351  64.387  1.00  0.00    -0.460 A  
HETATM   27  C   UNL     1     -11.889  12.401  65.397  1.00  0.00    -0.406 A  
ENDBRANCH  21  22
ENDBRANCH  18  21
ENDBRANCH  16  17
ENDBRANCH  15  16
ENDBRANCH  14  15
ENDBRANCH  12  14
ENDBRANCH  11  12
ENDBRANCH  10  11
ENDBRANCH   9  10
ENDBRANCH   8   9
ENDBRANCH   7   8
ENDBRANCH   6   7
ENDBRANCH   5   6
ENDBRANCH   4   5
ENDBRANCH   3   4
ENDBRANCH   2   3
TORSDOF 16
ENDMDL
MODEL       38
REMARK 921   NORMALIZED FREE ENERGY PREDICTED BY IDOCK:   -4.67 KCAL/MOL
REMARK 922        TOTAL FREE ENERGY PREDICTED BY IDOCK:  -11.13 KCAL/MOL
REMARK 923 INTER-LIGAND FREE ENERGY PREDICTED BY IDOCK:   -8.97 KCAL/MOL
REMARK 924 INTRA-LIGAND FREE ENERGY PREDICTED BY IDOCK:   -2.15 KCAL/MOL
REMARK 927      BINDING AFFINITY PREDICTED BY RF-SCORE:    0.00 PKD
ROOT
HETATM    1  C   UNL     1     -12.509   6.971  71.604  1.00  0.00    -0.413 C  
HETATM    2  C   UNL     1     -11.192   7.673  71.323  1.00  0.00    -0.277 C  
ENDROOT
BRANCH   2   3
HETATM    3  C   UNL     1     -11.250   9.139  71.747  1.00  0.00    -0.451 C  
BRANCH   3   4
HETATM    4  C   UNL     1     -12.675   9.681  71.672  1.00  0.00    -0.499 C  
BRANCH   4   5
HETATM    5  C   UNL     1     -12.705  11.033  70.961  1.00  0.00    -0.485 C  
BRANCH   5   6
HETATM    6  C   UNL     1     -13.159  12.130  71.914  1.00  0.00    -0.475 C  
BRANCH   6   7
HETATM    7  C   UNL     1     -12.799  13.517  71.387  1.00  0.00    -0.440 C  
BRANCH   7   8
HETATM    8  C   UNL     1     -11.985  13.381  70.103  1.00  0.00    -0.396 C  
BRANCH   8   9
HETATM    9  C   UNL     1     -11.898  14.697  69.345  1.00  0.00    -0.368 C  
BRANCH   9  10
HETATM   10  C   UNL     1     -10.973  14.599  68.121  1.00  0.00    -0.269 C  
BRANCH  10  11
HETATM   11  C   UNL     1     -11.695  14.238  66.816  1.00  0.00    -0.424 C  
BRANCH  11  12
HETATM   12  C   UNL     1     -11.031  14.917  65.644  1.00  0.00    -0.344 C  
HETATM   13  O   UNL     1     -10.417  15.971  65.698  1.00  0.00    -0.358 OA 
BRANCH  12  14
HETATM   14  O   UNL     1     -11.058  14.088  64.564  1.00  0.00    -0.381 OA 
BRANCH  14  15
HETATM   15  C   UNL     1     -12.372  13.663  64.183  1.00  0.00    -0.330 C  
BRANCH  15  16
HETATM   16  C   UNL     1     -12.185  12.380  63.366  1.00  0.00    -0.523 C  
BRANCH  16  17
HETATM   17  N   UNL     1     -11.481  11.321  64.069  1.00  0.00    -0.347 N  
HETATM   18  C   UNL     1     -10.167  11.040  63.783  1.00  0.00    -0.364 C  
HETATM   19  H   UNL     1     -11.968  10.780  64.783  1.00  0.00     0.000 HD 
HETATM   20  O   UNL     1      -9.548  11.568  62.864  1.00  0.00    -0.380 OA 
BRANCH  18  21
HETATM   21  C   UNL     1      -9.521   9.955  64.619  1.00  0.00    -0.278 C  
BRANCH  21  22
HETATM   22  N   UNL     1      -9.573  10.347  66.043  1.00  0.00    -0.190 NA 
HETATM   23  C   UNL     1      -8.731  11.305  66.508  1.00  0.00    -0.178 A  
HETATM   24  C   UNL     1      -8.749  11.671  67.847  1.00  0.00    -0.154 A  
HETATM   25  C   UNL     1      -9.651  11.063  68.708  1.00  0.00    -0.194 A  
HETATM   26  C   UNL     1     -10.519  10.097  68.216  1.00  0.00    -0.244 A  
HETATM   27  C   UNL     1     -10.461   9.753  66.871  1.00  0.00    -0.211 A  
ENDBRANCH  21  22
ENDBRANCH  18  21
ENDBRANCH  16  17
ENDBRANCH  15  16
ENDBRANCH  14  15
ENDBRANCH  12  14
ENDBRANCH  11  12
ENDBRANCH  10  11
ENDBRANCH   9  10
ENDBRANCH   8   9
ENDBRANCH   7   8
ENDBRANCH   6   7
ENDBRANCH   5   6
ENDBRANCH   4   5
ENDBRANCH   3   4
ENDBRANCH   2   3
TORSDOF 16
ENDMDL
MODEL       39
REMARK 921   NORMALIZED FREE ENERGY PREDICTED BY IDOCK:   -4.67 KCAL/MOL
REMARK 922        TOTAL FREE ENERGY PREDICTED BY IDOCK:  -11.12 KCAL/MOL
REMARK 923 INTER-LIGAND FREE ENERGY PREDICTED BY IDOCK:   -8.63 KCAL/MOL
REMARK 924 INTRA-LIGAND FREE ENERGY PREDICTED BY IDOCK:   -2.49 KCAL/MOL
REMARK 927      BINDING AFFINITY PREDICTED BY RF-SCORE:    0.00 PKD
ROOT
HETATM    1  C   UNL     1     -10.776  14.999  65.099  1.00  0.00    -0.434 C  
HETATM    2  C   UNL     1     -12.129  14.360  64.839  1.00  0.00    -0.442 C  
ENDROOT
BRANCH   2   3
HETATM    3  C   UNL     1     -12.104  13.520  63.563  1.00  0.00    -0.425 C  
BRANCH   3   4
HETATM    4  C   UNL     1     -11.973  12.034  63.882  1.00  0.00    -0.542 C  
BRANCH   4   5
HETATM    5  C   UNL     1     -10.626  11.493  63.405  1.00  0.00    -0.460 C  
BRANCH   5   6
HETATM    6  C   UNL     1      -9.799  10.996  64.584  1.00  0.00    -0.338 C  
BRANCH   6   7
HETATM    7  C   UNL     1     -10.532  11.195  65.908  1.00  0.00    -0.310 C  
BRANCH   7   8
HETATM    8  C   UNL     1      -9.586  11.829  66.925  1.00  0.00    -0.204 C  
BRANCH   8   9
HETATM    9  C   UNL     1     -10.337  12.659  67.957  1.00  0.00    -0.231 C  
BRANCH   9  10
HETATM   10  C   UNL     1     -11.756  12.124  68.207  1.00  0.00    -0.401 C  
BRANCH  10  11
HETATM   11  C   UNL     1     -11.915  11.358  69.527  1.00  0.00    -0.409 C  
BRANCH  11  12
HETATM   12  C   UNL     1     -12.349  12.293  70.628  1.00  0.00    -0.286 C  
HETATM   13  O   UNL     1     -12.461  13.504  70.518  1.00  0.00    -0.332 OA 
BRANCH  12  14
HETATM   14  O   UNL     1     -12.774  11.567  71.699  1.00  0.00    -0.353 OA 
BRANCH  14  15
HETATM   15  C   UNL     1     -13.341  10.296  71.359  1.00  0.00    -0.304 C  
BRANCH  15  16
HETATM   16  C   UNL     1     -12.810   9.301  72.396  1.00  0.00    -0.346 C  
BRANCH  16  17
HETATM   17  N   UNL     1     -11.701   8.486  71.928  1.00  0.00    -0.316 N  
HETATM   18  C   UNL     1     -11.923   7.254  71.362  1.00  0.00    -0.320 C  
HETATM   19  H   UNL     1     -10.746   8.833  72.021  1.00  0.00     0.000 HD 
HETATM   20  O   UNL     1     -13.027   6.720  71.318  1.00  0.00    -0.301 OA 
BRANCH  18  21
HETATM   21  C   UNL     1     -10.696   6.521  70.861  1.00  0.00    -0.242 C  
BRANCH  21  22
HETATM   22  N   UNL     1     -10.441   6.911  69.458  1.00  0.00    -0.213 NA 
HETATM   23  C   UNL     1      -9.612   7.953  69.190  1.00  0.00    -0.153 A  
HETATM   24  C   UNL     1      -9.378   8.349  67.880  1.00  0.00    -0.147 A  
HETATM   25  C   UNL     1      -9.983   7.658  66.840  1.00  0.00    -0.325 A  
HETATM   26  C   UNL     1     -10.814   6.584  67.128  1.00  0.00    -0.472 A  
HETATM   27  C   UNL     1     -11.030   6.226  68.453  1.00  0.00    -0.325 A  
ENDBRANCH  21  22
ENDBRANCH  18  21
ENDBRANCH  16  17
ENDBRANCH  15  16
ENDBRANCH  14  15
ENDBRANCH  12  14
ENDBRANCH  11  12
ENDBRANCH  10  11
ENDBRANCH   9  10
ENDBRANCH   8   9
ENDBRANCH   7   8
ENDBRANCH   6   7
ENDBRANCH   5   6
ENDBRANCH   4   5
ENDBRANCH   3   4
ENDBRANCH   2   3
TORSDOF 16
ENDMDL
MODEL       40
REMARK 921   NORMALIZED FREE ENERGY PREDICTED BY IDOCK:   -4.66 KCAL/MOL
REMARK 922        TOTAL FREE ENERGY PREDICTED BY IDOCK:  -11.11 KCAL/MOL
REMARK 923 INTER-LIGAND FREE ENERGY PREDICTED BY IDOCK:   -9.01 KCAL/MOL
REMARK 924 INTRA-LIGAND FREE ENERGY PREDICTED BY IDOCK:   -2.10 KCAL/MOL
REMARK 927      BINDING AFFINITY PREDICTED BY RF-SCORE:    0.00 PKD
ROOT
HETATM    1  C   UNL     1      -7.796   5.427  70.117  1.00  0.00    -0.081 C  
HETATM    2  C   UNL     1      -8.932   5.617  69.127  1.00  0.00    -0.120 C  
ENDROOT
BRANCH   2   3
HETATM    3  C   UNL     1     -10.279   5.292  69.769  1.00  0.00    -0.364 C  
BRANCH   3   4
HETATM    4  C   UNL     1     -11.309   6.379  69.475  1.00  0.00    -0.460 C  
BRANCH   4   5
HETATM    5  C   UNL     1     -12.039   6.795  70.751  1.00  0.00    -0.402 C  
BRANCH   5   6
HETATM    6  C   UNL     1     -11.050   7.018  71.888  1.00  0.00    -0.274 C  
BRANCH   6   7
HETATM    7  C   UNL     1     -10.619   8.479  71.979  1.00  0.00    -0.408 C  
BRANCH   7   8
HETATM    8  C   UNL     1      -9.197   8.628  71.446  1.00  0.00    -0.303 C  
BRANCH   8   9
HETATM    9  C   UNL     1      -9.155   9.447  70.164  1.00  0.00    -0.262 C  
BRANCH   9  10
HETATM   10  C   UNL     1     -10.523  10.057  69.823  1.00  0.00    -0.291 C  
BRANCH  10  11
HETATM   11  C   UNL     1     -10.918   9.928  68.345  1.00  0.00    -0.235 C  
BRANCH  11  12
HETATM   12  C   UNL     1     -10.738  11.248  67.637  1.00  0.00    -0.226 C  
HETATM   13  O   UNL     1      -9.663  11.779  67.403  1.00  0.00    -0.177 OA 
BRANCH  12  14
HETATM   14  O   UNL     1     -11.934  11.661  67.135  1.00  0.00    -0.614 OA 
BRANCH  14  15
HETATM   15  C   UNL     1     -11.830  12.448  65.943  1.00  0.00    -0.405 C  
BRANCH  15  16
HETATM   16  C   UNL     1     -12.062  13.902  66.370  1.00  0.00    -0.455 C  
BRANCH  16  17
HETATM   17  N   UNL     1     -10.842  14.660  66.594  1.00  0.00    -0.306 N  
HETATM   18  C   UNL     1     -10.445  15.632  65.708  1.00  0.00    -0.366 C  
HETATM   19  H   UNL     1     -10.275  14.470  67.419  1.00  0.00     0.000 HD 
HETATM   20  O   UNL     1     -11.010  15.842  64.639  1.00  0.00    -0.528 OA 
BRANCH  18  21
HETATM   21  C   UNL     1      -9.189  16.395  66.075  1.00  0.00    -0.293 C  
BRANCH  21  22
HETATM   22  N   UNL     1      -9.567  17.616  66.818  1.00  0.00    -0.283 NA 
HETATM   23  C   UNL     1      -9.491  17.630  68.173  1.00  0.00    -0.286 A  
HETATM   24  C   UNL     1      -9.862  18.760  68.889  1.00  0.00    -0.415 A  
HETATM   25  C   UNL     1     -10.296  19.888  68.207  1.00  0.00    -0.526 A  
HETATM   26  C   UNL     1     -10.352  19.865  66.820  1.00  0.00    -0.599 A  
HETATM   27  C   UNL     1      -9.980  18.712  66.142  1.00  0.00    -0.330 A  
ENDBRANCH  21  22
ENDBRANCH  18  21
ENDBRANCH  16  17
ENDBRANCH  15  16
ENDBRANCH  14  15
ENDBRANCH  12  14
ENDBRANCH  11  12
ENDBRANCH  10  11
ENDBRANCH   9  10
ENDBRANCH   8   9
ENDBRANCH   7   8
ENDBRANCH   6   7
ENDBRANCH   5   6
ENDBRANCH   4   5
ENDBRANCH   3   4
ENDBRANCH   2   3
TORSDOF 16
ENDMDL
MODEL       41
REMARK 921   NORMALIZED FREE ENERGY PREDICTED BY IDOCK:   -4.66 KCAL/MOL
REMARK 922        TOTAL FREE ENERGY PREDICTED BY IDOCK:  -11.10 KCAL/MOL
REMARK 923 INTER-LIGAND FREE ENERGY PREDICTED BY IDOCK:   -9.39 KCAL/MOL
REMARK 924 INTRA-LIGAND FREE ENERGY PREDICTED BY IDOCK:   -1.71 KCAL/MOL
REMARK 927      BINDING AFFINITY PREDICTED BY RF-SCORE:    0.00 PKD
ROOT
HETATM    1  C   UNL     1     -10.668  18.716  67.437  1.00  0.00    -0.456 C  
HETATM    2  C   UNL     1     -10.420  17.591  68.427  1.00  0.00    -0.372 C  
ENDROOT
BRANCH   2   3
HETATM    3  C   UNL     1     -11.034  16.281  67.936  1.00  0.00    -0.310 C  
BRANCH   3   4
HETATM    4  C   UNL     1     -11.709  15.525  69.076  1.00  0.00    -0.392 C  
BRANCH   4   5
HETATM    5  C   UNL     1     -11.228  16.043  70.431  1.00  0.00    -0.401 C  
BRANCH   5   6
HETATM    6  C   UNL     1     -12.193  15.632  71.536  1.00  0.00    -0.487 C  
BRANCH   6   7
HETATM    7  C   UNL     1     -13.596  15.377  70.991  1.00  0.00    -0.465 C  
BRANCH   7   8
HETATM    8  C   UNL     1     -14.353  14.450  71.939  1.00  0.00    -0.627 C  
BRANCH   8   9
HETATM    9  C   UNL     1     -13.443  13.389  72.540  1.00  0.00    -0.640 C  
BRANCH   9  10
HETATM   10  C   UNL     1     -13.637  12.017  71.876  1.00  0.00    -0.145 C  
BRANCH  10  11
HETATM   11  C   UNL     1     -12.428  11.537  71.062  1.00  0.00    -0.458 C  
BRANCH  11  12
HETATM   12  C   UNL     1     -12.084  10.113  71.423  1.00  0.00    -0.382 C  
HETATM   13  O   UNL     1     -12.783   9.370  72.094  1.00  0.00    -0.384 OA 
BRANCH  12  14
HETATM   14  O   UNL     1     -10.975   9.725  70.735  1.00  0.00    -0.291 OA 
BRANCH  14  15
HETATM   15  C   UNL     1     -10.686  10.531  69.586  1.00  0.00    -0.259 C  
BRANCH  15  16
HETATM   16  C   UNL     1      -9.488   9.872  68.894  1.00  0.00    -0.170 C  
BRANCH  16  17
HETATM   17  N   UNL     1      -9.051  10.548  67.683  1.00  0.00    -0.141 N  
HETATM   18  C   UNL     1      -9.499  10.143  66.450  1.00  0.00    -0.176 C  
HETATM   19  H   UNL     1      -8.403  11.333  67.751  1.00  0.00     0.000 HD 
HETATM   20  O   UNL     1     -10.187   9.142  66.277  1.00  0.00    -0.276 OA 
BRANCH  18  21
HETATM   21  C   UNL     1      -9.021  10.959  65.267  1.00  0.00    -0.186 C  
BRANCH  21  22
HETATM   22  N   UNL     1     -10.101  11.874  64.842  1.00  0.00    -0.260 NA 
HETATM   23  C   UNL     1     -10.262  13.064  65.475  1.00  0.00    -0.285 A  
HETATM   24  C   UNL     1     -11.285  13.927  65.106  1.00  0.00    -0.326 A  
HETATM   25  C   UNL     1     -12.135  13.572  64.068  1.00  0.00    -0.494 A  
HETATM   26  C   UNL     1     -11.948  12.359  63.418  1.00  0.00    -0.595 A  
HETATM   27  C   UNL     1     -10.918  11.521  63.825  1.00  0.00    -0.409 A  
ENDBRANCH  21  22
ENDBRANCH  18  21
ENDBRANCH  16  17
ENDBRANCH  15  16
ENDBRANCH  14  15
ENDBRANCH  12  14
ENDBRANCH  11  12
ENDBRANCH  10  11
ENDBRANCH   9  10
ENDBRANCH   8   9
ENDBRANCH   7   8
ENDBRANCH   6   7
ENDBRANCH   5   6
ENDBRANCH   4   5
ENDBRANCH   3   4
ENDBRANCH   2   3
TORSDOF 16
ENDMDL
MODEL       42
REMARK 921   NORMALIZED FREE ENERGY PREDICTED BY IDOCK:   -4.65 KCAL/MOL
REMARK 922        TOTAL FREE ENERGY PREDICTED BY IDOCK:  -11.09 KCAL/MOL
REMARK 923 INTER-LIGAND FREE ENERGY PREDICTED BY IDOCK:  -10.25 KCAL/MOL
REMARK 924 INTRA-LIGAND FREE ENERGY PREDICTED BY IDOCK:   -0.84 KCAL/MOL
REMARK 927      BINDING AFFINITY PREDICTED BY RF-SCORE:    0.00 PKD
ROOT
HETATM    1  C   UNL     1     -10.479   4.298  72.672  1.00  0.00    -0.241 C  
HETATM    2  C   UNL     1     -11.250   5.564  73.002  1.00  0.00    -0.346 C  
ENDROOT
BRANCH   2   3
HETATM    3  C   UNL     1     -10.324   6.640  73.564  1.00  0.00    -0.318 C  
BRANCH   3   4
HETATM    4  C   UNL     1     -10.490   7.959  72.815  1.00  0.00    -0.412 C  
BRANCH   4   5
HETATM    5  C   UNL     1     -11.856   8.029  72.135  1.00  0.00    -0.401 C  
BRANCH   5   6
HETATM    6  C   UNL     1     -11.962   9.278  71.269  1.00  0.00    -0.414 C  
BRANCH   6   7
HETATM    7  C   UNL     1     -13.118  10.171  71.711  1.00  0.00    -0.568 C  
BRANCH   7   8
HETATM    8  C   UNL     1     -12.847  11.610  71.276  1.00  0.00    -0.430 C  
BRANCH   8   9
HETATM    9  C   UNL     1     -13.370  12.616  72.291  1.00  0.00    -0.527 C  
BRANCH   9  10
HETATM   10  C   UNL     1     -13.631  13.992  71.658  1.00  0.00    -0.430 C  
BRANCH  10  11
HETATM   11  C   UNL     1     -13.550  15.164  72.646  1.00  0.00    -0.594 C  
BRANCH  11  12
HETATM   12  C   UNL     1     -12.203  15.836  72.553  1.00  0.00    -0.472 C  
HETATM   13  O   UNL     1     -11.790  16.693  73.319  1.00  0.00    -0.451 OA 
BRANCH  12  14
HETATM   14  O   UNL     1     -11.449  15.212  71.606  1.00  0.00    -0.377 OA 
BRANCH  14  15
HETATM   15  C   UNL     1     -11.090  16.047  70.498  1.00  0.00    -0.353 C  
BRANCH  15  16
HETATM   16  C   UNL     1     -10.447  15.122  69.459  1.00  0.00    -0.260 C  
BRANCH  16  17
HETATM   17  N   UNL     1     -11.391  14.511  68.538  1.00  0.00    -0.271 N  
HETATM   18  C   UNL     1     -11.314  14.752  67.188  1.00  0.00    -0.356 C  
HETATM   19  H   UNL     1     -12.119  13.894  68.899  1.00  0.00     0.000 HD 
HETATM   20  O   UNL     1     -10.542  15.566  66.691  1.00  0.00    -0.299 OA 
BRANCH  18  21
HETATM   21  C   UNL     1     -12.315  14.016  66.322  1.00  0.00    -0.448 C  
BRANCH  21  22
HETATM   22  N   UNL     1     -11.607  12.980  65.540  1.00  0.00    -0.332 NA 
HETATM   23  C   UNL     1     -11.569  13.067  64.186  1.00  0.00    -0.407 A  
HETATM   24  C   UNL     1     -10.928  12.093  63.434  1.00  0.00    -0.480 A  
HETATM   25  C   UNL     1     -10.306  11.033  64.078  1.00  0.00    -0.436 A  
HETATM   26  C   UNL     1     -10.337  10.965  65.465  1.00  0.00    -0.316 A  
HETATM   27  C   UNL     1     -10.997  11.957  66.180  1.00  0.00    -0.308 A  
ENDBRANCH  21  22
ENDBRANCH  18  21
ENDBRANCH  16  17
ENDBRANCH  15  16
ENDBRANCH  14  15
ENDBRANCH  12  14
ENDBRANCH  11  12
ENDBRANCH  10  11
ENDBRANCH   9  10
ENDBRANCH   8   9
ENDBRANCH   7   8
ENDBRANCH   6   7
ENDBRANCH   5   6
ENDBRANCH   4   5
ENDBRANCH   3   4
ENDBRANCH   2   3
TORSDOF 16
ENDMDL
MODEL       43
REMARK 921   NORMALIZED FREE ENERGY PREDICTED BY IDOCK:   -4.65 KCAL/MOL
REMARK 922        TOTAL FREE ENERGY PREDICTED BY IDOCK:  -11.09 KCAL/MOL
REMARK 923 INTER-LIGAND FREE ENERGY PREDICTED BY IDOCK:   -9.64 KCAL/MOL
REMARK 924 INTRA-LIGAND FREE ENERGY PREDICTED BY IDOCK:   -1.45 KCAL/MOL
REMARK 927      BINDING AFFINITY PREDICTED BY RF-SCORE:    0.00 PKD
ROOT
HETATM    1  C   UNL     1     -12.345  15.873  74.296  1.00  0.00    -0.755 C  
HETATM    2  C   UNL     1     -12.639  16.078  72.820  1.00  0.00    -0.565 C  
ENDROOT
BRANCH   2   3
HETATM    3  C   UNL     1     -13.995  15.483  72.443  1.00  0.00    -0.653 C  
BRANCH   3   4
HETATM    4  C   UNL     1     -13.899  13.974  72.240  1.00  0.00    -0.655 C  
BRANCH   4   5
HETATM    5  C   UNL     1     -12.595  13.602  71.535  1.00  0.00    -0.385 C  
BRANCH   5   6
HETATM    6  C   UNL     1     -12.515  14.269  70.168  1.00  0.00    -0.393 C  
BRANCH   6   7
HETATM    7  C   UNL     1     -11.124  14.839  69.902  1.00  0.00    -0.266 C  
BRANCH   7   8
HETATM    8  C   UNL     1     -10.697  14.499  68.476  1.00  0.00    -0.253 C  
BRANCH   8   9
HETATM    9  C   UNL     1     -11.796  14.804  67.467  1.00  0.00    -0.326 C  
BRANCH   9  10
HETATM   10  C   UNL     1     -12.203  13.559  66.663  1.00  0.00    -0.411 C  
BRANCH  10  11
HETATM   11  C   UNL     1     -12.634  13.857  65.220  1.00  0.00    -0.508 C  
BRANCH  11  12
HETATM   12  C   UNL     1     -12.125  12.786  64.288  1.00  0.00    -0.425 C  
HETATM   13  O   UNL     1     -12.558  12.565  63.168  1.00  0.00    -0.598 OA 
BRANCH  12  14
HETATM   14  O   UNL     1     -10.993  12.235  64.807  1.00  0.00    -0.284 OA 
BRANCH  14  15
HETATM   15  C   UNL     1     -10.639  10.971  64.231  1.00  0.00    -0.331 C  
BRANCH  15  16
HETATM   16  C   UNL     1      -9.264  10.612  64.803  1.00  0.00    -0.220 C  
BRANCH  16  17
HETATM   17  N   UNL     1      -9.062  11.028  66.181  1.00  0.00    -0.186 N  
HETATM   18  C   UNL     1      -9.130  10.119  67.208  1.00  0.00    -0.138 C  
HETATM   19  H   UNL     1      -8.868  12.008  66.388  1.00  0.00     0.000 HD 
HETATM   20  O   UNL     1      -9.469   8.950  67.053  1.00  0.00    -0.150 OA 
BRANCH  18  21
HETATM   21  C   UNL     1      -8.847  10.659  68.595  1.00  0.00    -0.151 C  
BRANCH  21  22
HETATM   22  N   UNL     1      -9.998  10.360  69.473  1.00  0.00    -0.224 NA 
HETATM   23  C   UNL     1      -9.829   9.561  70.556  1.00  0.00    -0.269 A  
HETATM   24  C   UNL     1     -10.902   9.251  71.380  1.00  0.00    -0.434 A  
HETATM   25  C   UNL     1     -12.153   9.782  71.099  1.00  0.00    -0.460 A  
HETATM   26  C   UNL     1     -12.309  10.612  69.997  1.00  0.00    -0.341 A  
HETATM   27  C   UNL     1     -11.210  10.890  69.193  1.00  0.00    -0.256 A  
ENDBRANCH  21  22
ENDBRANCH  18  21
ENDBRANCH  16  17
ENDBRANCH  15  16
ENDBRANCH  14  15
ENDBRANCH  12  14
ENDBRANCH  11  12
ENDBRANCH  10  11
ENDBRANCH   9  10
ENDBRANCH   8   9
ENDBRANCH   7   8
ENDBRANCH   6   7
ENDBRANCH   5   6
ENDBRANCH   4   5
ENDBRANCH   3   4
ENDBRANCH   2   3
TORSDOF 16
ENDMDL
MODEL       44
REMARK 921   NORMALIZED FREE ENERGY PREDICTED BY IDOCK:   -4.65 KCAL/MOL
REMARK 922        TOTAL FREE ENERGY PREDICTED BY IDOCK:  -11.09 KCAL/MOL
REMARK 923 INTER-LIGAND FREE ENERGY PREDICTED BY IDOCK:   -9.51 KCAL/MOL
REMARK 924 INTRA-LIGAND FREE ENERGY PREDICTED BY IDOCK:   -1.58 KCAL/MOL
REMARK 927      BINDING AFFINITY PREDICTED BY RF-SCORE:    0.00 PKD
ROOT
HETATM    1  C   UNL     1     -11.725  10.386  70.951  1.00  0.00    -0.455 C  
HETATM    2  C   UNL     1     -13.050  10.363  71.695  1.00  0.00    -0.553 C  
ENDROOT
BRANCH   2   3
HETATM    3  C   UNL     1     -13.423   8.940  72.107  1.00  0.00    -0.497 C  
BRANCH   3   4
HETATM    4  C   UNL     1     -12.186   8.052  72.213  1.00  0.00    -0.366 C  
BRANCH   4   5
HETATM    5  C   UNL     1     -12.349   6.791  71.366  1.00  0.00    -0.403 C  
BRANCH   5   6
HETATM    6  C   UNL     1     -11.090   5.936  71.430  1.00  0.00    -0.313 C  
BRANCH   6   7
HETATM    7  C   UNL     1     -10.558   5.613  70.036  1.00  0.00    -0.388 C  
BRANCH   7   8
HETATM    8  C   UNL     1     -11.170   6.574  69.020  1.00  0.00    -0.354 C  
BRANCH   8   9
HETATM    9  C   UNL     1     -10.176   7.638  68.577  1.00  0.00    -0.220 C  
BRANCH   9  10
HETATM   10  C   UNL     1     -10.579   8.284  67.242  1.00  0.00    -0.335 C  
BRANCH  10  11
HETATM   11  C   UNL     1      -9.831   9.586  66.923  1.00  0.00    -0.262 C  
BRANCH  11  12
HETATM   12  C   UNL     1     -10.738  10.774  67.122  1.00  0.00    -0.272 C  
HETATM   13  O   UNL     1     -11.795  10.757  67.734  1.00  0.00    -0.538 OA 
BRANCH  12  14
HETATM   14  O   UNL     1     -10.112  11.901  66.683  1.00  0.00    -0.197 OA 
BRANCH  14  15
HETATM   15  C   UNL     1      -8.792  12.083  67.210  1.00  0.00    -0.183 C  
BRANCH  15  16
HETATM   16  C   UNL     1      -8.967  12.764  68.571  1.00  0.00    -0.046 C  
BRANCH  16  17
HETATM   17  N   UNL     1     -10.251  13.420  68.751  1.00  0.00    -0.396 N  
HETATM   18  C   UNL     1     -10.326  14.773  68.973  1.00  0.00    -0.243 C  
HETATM   19  H   UNL     1     -11.108  12.868  68.712  1.00  0.00     0.000 HD 
HETATM   20  O   UNL     1      -9.340  15.484  69.145  1.00  0.00    -0.214 OA 
BRANCH  18  21
HETATM   21  C   UNL     1     -11.720  15.354  69.088  1.00  0.00    -0.345 C  
BRANCH  21  22
HETATM   22  N   UNL     1     -12.175  15.240  70.490  1.00  0.00    -0.343 NA 
HETATM   23  C   UNL     1     -11.757  16.148  71.408  1.00  0.00    -0.444 A  
HETATM   24  C   UNL     1     -12.155  16.045  72.734  1.00  0.00    -0.635 A  
HETATM   25  C   UNL     1     -13.005  15.015  73.113  1.00  0.00    -0.631 A  
HETATM   26  C   UNL     1     -13.439  14.104  72.160  1.00  0.00    -0.545 A  
HETATM   27  C   UNL     1     -13.009  14.237  70.845  1.00  0.00    -0.329 A  
ENDBRANCH  21  22
ENDBRANCH  18  21
ENDBRANCH  16  17
ENDBRANCH  15  16
ENDBRANCH  14  15
ENDBRANCH  12  14
ENDBRANCH  11  12
ENDBRANCH  10  11
ENDBRANCH   9  10
ENDBRANCH   8   9
ENDBRANCH   7   8
ENDBRANCH   6   7
ENDBRANCH   5   6
ENDBRANCH   4   5
ENDBRANCH   3   4
ENDBRANCH   2   3
TORSDOF 16
ENDMDL
MODEL       45
REMARK 921   NORMALIZED FREE ENERGY PREDICTED BY IDOCK:   -4.64 KCAL/MOL
REMARK 922        TOTAL FREE ENERGY PREDICTED BY IDOCK:  -11.06 KCAL/MOL
REMARK 923 INTER-LIGAND FREE ENERGY PREDICTED BY IDOCK:   -9.51 KCAL/MOL
REMARK 924 INTRA-LIGAND FREE ENERGY PREDICTED BY IDOCK:   -1.55 KCAL/MOL
REMARK 927      BINDING AFFINITY PREDICTED BY RF-SCORE:    0.00 PKD
ROOT
HETATM    1  C   UNL     1     -14.210   7.822  71.599  1.00  0.00    -0.572 C  
HETATM    2  C   UNL     1     -13.137   8.842  71.939  1.00  0.00    -0.436 C  
ENDROOT
BRANCH   2   3
HETATM    3  C   UNL     1     -11.842   8.155  72.368  1.00  0.00    -0.448 C  
BRANCH   3   4
HETATM    4  C   UNL     1     -11.860   6.671  72.015  1.00  0.00    -0.365 C  
BRANCH   4   5
HETATM    5  C   UNL     1     -10.459   6.183  71.648  1.00  0.00    -0.267 C  
BRANCH   5   6
HETATM    6  C   UNL     1     -10.468   5.502  70.286  1.00  0.00    -0.365 C  
BRANCH   6   7
HETATM    7  C   UNL     1     -11.359   6.243  69.292  1.00  0.00    -0.411 C  
BRANCH   7   8
HETATM    8  C   UNL     1     -10.851   6.003  67.872  1.00  0.00    -0.378 C  
BRANCH   8   9
HETATM    9  C   UNL     1     -10.178   7.239  67.294  1.00  0.00    -0.323 C  
BRANCH   9  10
HETATM   10  C   UNL     1     -10.459   8.496  68.133  1.00  0.00    -0.236 C  
BRANCH  10  11
HETATM   11  C   UNL     1      -9.796   9.771  67.595  1.00  0.00    -0.202 C  
BRANCH  11  12
HETATM   12  C   UNL     1     -10.831  10.685  66.988  1.00  0.00    -0.238 C  
HETATM   13  O   UNL     1     -11.923  10.934  67.477  1.00  0.00    -0.442 OA 
BRANCH  12  14
HETATM   14  O   UNL     1     -10.294  11.333  65.918  1.00  0.00    -0.239 OA 
BRANCH  14  15
HETATM   15  C   UNL     1     -10.092  10.501  64.769  1.00  0.00    -0.336 C  
BRANCH  15  16
HETATM   16  C   UNL     1     -10.395  11.378  63.549  1.00  0.00    -0.423 C  
BRANCH  16  17
HETATM   17  N   UNL     1     -10.552  12.791  63.854  1.00  0.00    -0.430 N  
HETATM   18  C   UNL     1     -11.800  13.362  63.919  1.00  0.00    -0.439 C  
HETATM   19  H   UNL     1      -9.726  13.365  64.021  1.00  0.00     0.000 HD 
HETATM   20  O   UNL     1     -12.831  12.768  63.620  1.00  0.00    -0.701 OA 
BRANCH  18  21
HETATM   21  C   UNL     1     -11.842  14.828  64.300  1.00  0.00    -0.319 C  
BRANCH  21  22
HETATM   22  N   UNL     1     -11.374  14.978  65.694  1.00  0.00    -0.330 NA 
HETATM   23  C   UNL     1     -12.015  14.321  66.693  1.00  0.00    -0.430 A  
HETATM   24  C   UNL     1     -11.605  14.466  68.011  1.00  0.00    -0.357 A  
HETATM   25  C   UNL     1     -10.516  15.276  68.300  1.00  0.00    -0.244 A  
HETATM   26  C   UNL     1      -9.858  15.929  67.267  1.00  0.00    -0.234 A  
HETATM   27  C   UNL     1     -10.307  15.763  65.962  1.00  0.00    -0.340 A  
ENDBRANCH  21  22
ENDBRANCH  18  21
ENDBRANCH  16  17
ENDBRANCH  15  16
ENDBRANCH  14  15
ENDBRANCH  12  14
ENDBRANCH  11  12
ENDBRANCH  10  11
ENDBRANCH   9  10
ENDBRANCH   8   9
ENDBRANCH   7   8
ENDBRANCH   6   7
ENDBRANCH   5   6
ENDBRANCH   4   5
ENDBRANCH   3   4
ENDBRANCH   2   3
TORSDOF 16
ENDMDL
MODEL       46
REMARK 921   NORMALIZED FREE ENERGY PREDICTED BY IDOCK:   -4.64 KCAL/MOL
REMARK 922        TOTAL FREE ENERGY PREDICTED BY IDOCK:  -11.06 KCAL/MOL
REMARK 923 INTER-LIGAND FREE ENERGY PREDICTED BY IDOCK:   -8.74 KCAL/MOL
REMARK 924 INTRA-LIGAND FREE ENERGY PREDICTED BY IDOCK:   -2.32 KCAL/MOL
REMARK 927      BINDING AFFINITY PREDICTED BY RF-SCORE:    0.00 PKD
ROOT
HETATM    1  C   UNL     1     -12.877  10.164  71.425  1.00  0.00    -0.530 C  
HETATM    2  C   UNL     1     -13.234   8.999  72.331  1.00  0.00    -0.507 C  
ENDROOT
BRANCH   2   3
HETATM    3  C   UNL     1     -12.951   7.664  71.646  1.00  0.00    -0.385 C  
BRANCH   3   4
HETATM    4  C   UNL     1     -11.746   7.764  70.714  1.00  0.00    -0.242 C  
BRANCH   4   5
HETATM    5  C   UNL     1     -10.493   7.202  71.385  1.00  0.00    -0.220 C  
BRANCH   5   6
HETATM    6  C   UNL     1      -9.465   6.791  70.339  1.00  0.00    -0.168 C  
BRANCH   6   7
HETATM    7  C   UNL     1     -10.122   6.469  69.000  1.00  0.00    -0.186 C  
BRANCH   7   8
HETATM    8  C   UNL     1      -9.440   7.265  67.891  1.00  0.00    -0.142 C  
BRANCH   8   9
HETATM    9  C   UNL     1     -10.450   7.946  66.978  1.00  0.00    -0.419 C  
BRANCH   9  10
HETATM   10  C   UNL     1     -10.251   9.469  66.931  1.00  0.00    -0.317 C  
BRANCH  10  11
HETATM   11  C   UNL     1     -10.629  10.192  68.231  1.00  0.00    -0.262 C  
BRANCH  11  12
HETATM   12  C   UNL     1     -11.275  11.520  67.924  1.00  0.00    -0.279 C  
HETATM   13  O   UNL     1     -12.145  11.702  67.085  1.00  0.00    -0.575 OA 
BRANCH  12  14
HETATM   14  O   UNL     1     -10.881  12.441  68.846  1.00  0.00    -0.230 OA 
BRANCH  14  15
HETATM   15  C   UNL     1     -11.954  13.211  69.402  1.00  0.00    -0.291 C  
BRANCH  15  16
HETATM   16  C   UNL     1     -11.743  14.649  68.917  1.00  0.00    -0.309 C  
BRANCH  16  17
HETATM   17  N   UNL     1     -11.939  14.832  67.488  1.00  0.00    -0.508 N  
HETATM   18  C   UNL     1     -10.902  15.234  66.681  1.00  0.00    -0.310 C  
HETATM   19  H   UNL     1     -12.857  14.659  67.079  1.00  0.00     0.000 HD 
HETATM   20  O   UNL     1      -9.803  15.568  67.111  1.00  0.00    -0.231 OA 
BRANCH  18  21
HETATM   21  C   UNL     1     -11.211  15.335  65.202  1.00  0.00    -0.370 C  
BRANCH  21  22
HETATM   22  N   UNL     1     -11.223  13.977  64.617  1.00  0.00    -0.373 NA 
HETATM   23  C   UNL     1     -12.354  13.507  64.030  1.00  0.00    -0.330 A  
HETATM   24  C   UNL     1     -12.392  12.227  63.496  1.00  0.00    -0.670 A  
HETATM   25  C   UNL     1     -11.256  11.432  63.548  1.00  0.00    -0.322 A  
HETATM   26  C   UNL     1     -10.101  11.931  64.136  1.00  0.00    -0.338 A  
HETATM   27  C   UNL     1     -10.108  13.215  64.667  1.00  0.00    -0.226 A  
ENDBRANCH  21  22
ENDBRANCH  18  21
ENDBRANCH  16  17
ENDBRANCH  15  16
ENDBRANCH  14  15
ENDBRANCH  12  14
ENDBRANCH  11  12
ENDBRANCH  10  11
ENDBRANCH   9  10
ENDBRANCH   8   9
ENDBRANCH   7   8
ENDBRANCH   6   7
ENDBRANCH   5   6
ENDBRANCH   4   5
ENDBRANCH   3   4
ENDBRANCH   2   3
TORSDOF 16
ENDMDL
MODEL       47
REMARK 921   NORMALIZED FREE ENERGY PREDICTED BY IDOCK:   -4.63 KCAL/MOL
REMARK 922        TOTAL FREE ENERGY PREDICTED BY IDOCK:  -11.05 KCAL/MOL
REMARK 923 INTER-LIGAND FREE ENERGY PREDICTED BY IDOCK:   -9.58 KCAL/MOL
REMARK 924 INTRA-LIGAND FREE ENERGY PREDICTED BY IDOCK:   -1.46 KCAL/MOL
REMARK 927      BINDING AFFINITY PREDICTED BY RF-SCORE:    0.00 PKD
ROOT
HETATM    1  C   UNL     1     -10.053   6.593  73.900  1.00  0.00    -0.349 C  
HETATM    2  C   UNL     1      -9.390   7.470  72.852  1.00  0.00    -0.232 C  
ENDROOT
BRANCH   2   3
HETATM    3  C   UNL     1      -9.904   7.138  71.453  1.00  0.00    -0.178 C  
BRANCH   3   4
HETATM    4  C   UNL     1     -11.230   6.385  71.515  1.00  0.00    -0.334 C  
BRANCH   4   5
HETATM    5  C   UNL     1     -12.305   7.112  70.708  1.00  0.00    -0.273 C  
BRANCH   5   6
HETATM    6  C   UNL     1     -13.621   7.142  71.473  1.00  0.00    -0.408 C  
BRANCH   6   7
HETATM    7  C   UNL     1     -13.968   8.554  71.940  1.00  0.00    -0.498 C  
BRANCH   7   8
HETATM    8  C   UNL     1     -12.710   9.419  71.929  1.00  0.00    -0.484 C  
BRANCH   8   9
HETATM    9  C   UNL     1     -13.016  10.859  71.543  1.00  0.00    -0.556 C  
BRANCH   9  10
HETATM   10  C   UNL     1     -12.225  11.306  70.304  1.00  0.00    -0.428 C  
BRANCH  10  11
HETATM   11  C   UNL     1     -11.139  10.315  69.862  1.00  0.00    -0.362 C  
BRANCH  11  12
HETATM   12  C   UNL     1     -11.117  10.197  68.358  1.00  0.00    -0.218 C  
HETATM   13  O   UNL     1     -10.578   9.298  67.732  1.00  0.00    -0.254 OA 
BRANCH  12  14
HETATM   14  O   UNL     1     -11.944  11.134  67.817  1.00  0.00    -0.630 OA 
BRANCH  14  15
HETATM   15  C   UNL     1     -11.346  11.909  66.771  1.00  0.00    -0.330 C  
BRANCH  15  16
HETATM   16  C   UNL     1     -11.759  13.362  67.028  1.00  0.00    -0.381 C  
BRANCH  16  17
HETATM   17  N   UNL     1     -10.647  14.296  67.100  1.00  0.00    -0.277 N  
HETATM   18  C   UNL     1     -10.706  15.399  67.917  1.00  0.00    -0.286 C  
HETATM   19  H   UNL     1      -9.813  14.130  66.538  1.00  0.00     0.000 HD 
HETATM   20  O   UNL     1     -11.713  15.728  68.536  1.00  0.00    -0.383 OA 
BRANCH  18  21
HETATM   21  C   UNL     1      -9.466  16.268  67.952  1.00  0.00    -0.218 C  
BRANCH  21  22
HETATM   22  N   UNL     1      -9.823  17.635  67.519  1.00  0.00    -0.290 NA 
HETATM   23  C   UNL     1      -9.663  18.676  68.376  1.00  0.00    -0.367 A  
HETATM   24  C   UNL     1     -10.013  19.964  67.996  1.00  0.00    -0.556 A  
HETATM   25  C   UNL     1     -10.512  20.186  66.720  1.00  0.00    -0.438 A  
HETATM   26  C   UNL     1     -10.655  19.115  65.848  1.00  0.00    -0.495 A  
HETATM   27  C   UNL     1     -10.301  17.841  66.272  1.00  0.00    -0.358 A  
ENDBRANCH  21  22
ENDBRANCH  18  21
ENDBRANCH  16  17
ENDBRANCH  15  16
ENDBRANCH  14  15
ENDBRANCH  12  14
ENDBRANCH  11  12
ENDBRANCH  10  11
ENDBRANCH   9  10
ENDBRANCH   8   9
ENDBRANCH   7   8
ENDBRANCH   6   7
ENDBRANCH   5   6
ENDBRANCH   4   5
ENDBRANCH   3   4
ENDBRANCH   2   3
TORSDOF 16
ENDMDL
MODEL       48
REMARK 921   NORMALIZED FREE ENERGY PREDICTED BY IDOCK:   -4.63 KCAL/MOL
REMARK 922        TOTAL FREE ENERGY PREDICTED BY IDOCK:  -11.04 KCAL/MOL
REMARK 923 INTER-LIGAND FREE ENERGY PREDICTED BY IDOCK:   -8.87 KCAL/MOL
REMARK 924 INTRA-LIGAND FREE ENERGY PREDICTED BY IDOCK:   -2.17 KCAL/MOL
REMARK 927      BINDING AFFINITY PREDICTED BY RF-SCORE:    0.00 PKD
ROOT
HETATM    1  C   UNL     1      -7.028  20.509  67.065  1.00  0.00    -0.346 C  
HETATM    2  C   UNL     1      -8.311  19.863  66.571  1.00  0.00    -0.372 C  
ENDROOT
BRANCH   2   3
HETATM    3  C   UNL     1      -9.537  20.596  67.111  1.00  0.00    -0.534 C  
BRANCH   3   4
HETATM    4  C   UNL     1     -10.733  19.655  67.236  1.00  0.00    -0.583 C  
BRANCH   4   5
HETATM    5  C   UNL     1     -10.322  18.213  66.941  1.00  0.00    -0.386 C  
BRANCH   5   6
HETATM    6  C   UNL     1     -10.900  17.266  67.984  1.00  0.00    -0.297 C  
BRANCH   6   7
HETATM    7  C   UNL     1      -9.824  16.760  68.941  1.00  0.00    -0.264 C  
BRANCH   7   8
HETATM    8  C   UNL     1     -10.430  15.734  69.895  1.00  0.00    -0.324 C  
BRANCH   8   9
HETATM    9  C   UNL     1     -11.918  15.536  69.645  1.00  0.00    -0.380 C  
BRANCH   9  10
HETATM   10  C   UNL     1     -12.550  14.565  70.655  1.00  0.00    -0.416 C  
BRANCH  10  11
HETATM   11  C   UNL     1     -12.208  13.089  70.406  1.00  0.00    -0.386 C  
BRANCH  11  12
HETATM   12  C   UNL     1     -12.994  12.204  71.340  1.00  0.00    -0.257 C  
HETATM   13  O   UNL     1     -13.602  12.588  72.328  1.00  0.00    -0.530 OA 
BRANCH  12  14
HETATM   14  O   UNL     1     -13.079  10.951  70.814  1.00  0.00    -0.272 OA 
BRANCH  14  15
HETATM   15  C   UNL     1     -12.507   9.928  71.639  1.00  0.00    -0.415 C  
BRANCH  15  16
HETATM   16  C   UNL     1     -11.294   9.392  70.873  1.00  0.00    -0.319 C  
BRANCH  16  17
HETATM   17  N   UNL     1     -11.362   9.586  69.434  1.00  0.00    -0.443 N  
HETATM   18  C   UNL     1     -10.280  10.065  68.736  1.00  0.00    -0.186 C  
HETATM   19  H   UNL     1     -12.224   9.365  68.936  1.00  0.00     0.000 HD 
HETATM   20  O   UNL     1      -9.250  10.459  69.275  1.00  0.00    -0.194 OA 
BRANCH  18  21
HETATM   21  C   UNL     1     -10.450  10.172  67.235  1.00  0.00    -0.256 C  
BRANCH  21  22
HETATM   22  N   UNL     1     -10.654  11.591  66.872  1.00  0.00    -0.235 NA 
HETATM   23  C   UNL     1      -9.579  12.392  66.661  1.00  0.00    -0.229 A  
HETATM   24  C   UNL     1      -9.749  13.732  66.342  1.00  0.00    -0.304 A  
HETATM   25  C   UNL     1     -11.032  14.246  66.220  1.00  0.00    -0.317 A  
HETATM   26  C   UNL     1     -12.123  13.411  66.423  1.00  0.00    -0.464 A  
HETATM   27  C   UNL     1     -11.908  12.078  66.749  1.00  0.00    -0.164 A  
ENDBRANCH  21  22
ENDBRANCH  18  21
ENDBRANCH  16  17
ENDBRANCH  15  16
ENDBRANCH  14  15
ENDBRANCH  12  14
ENDBRANCH  11  12
ENDBRANCH  10  11
ENDBRANCH   9  10
ENDBRANCH   8   9
ENDBRANCH   7   8
ENDBRANCH   6   7
ENDBRANCH   5   6
ENDBRANCH   4   5
ENDBRANCH   3   4
ENDBRANCH   2   3
TORSDOF 16
ENDMDL
MODEL       49
REMARK 921   NORMALIZED FREE ENERGY PREDICTED BY IDOCK:   -4.63 KCAL/MOL
REMARK 922        TOTAL FREE ENERGY PREDICTED BY IDOCK:  -11.04 KCAL/MOL
REMARK 923 INTER-LIGAND FREE ENERGY PREDICTED BY IDOCK:   -9.65 KCAL/MOL
REMARK 924 INTRA-LIGAND FREE ENERGY PREDICTED BY IDOCK:   -1.39 KCAL/MOL
REMARK 927      BINDING AFFINITY PREDICTED BY RF-SCORE:    0.00 PKD
ROOT
HETATM    1  C   UNL     1     -12.528  15.517  74.228  1.00  0.00    -0.792 C  
HETATM    2  C   UNL     1     -13.374  15.345  72.978  1.00  0.00    -0.632 C  
ENDROOT
BRANCH   2   3
HETATM    3  C   UNL     1     -13.304  13.910  72.460  1.00  0.00    -0.656 C  
BRANCH   3   4
HETATM    4  C   UNL     1     -12.698  13.856  71.061  1.00  0.00    -0.428 C  
BRANCH   4   5
HETATM    5  C   UNL     1     -12.237  15.243  70.615  1.00  0.00    -0.412 C  
BRANCH   5   6
HETATM    6  C   UNL     1     -11.617  15.181  69.225  1.00  0.00    -0.344 C  
BRANCH   6   7
HETATM    7  C   UNL     1     -11.830  13.817  68.575  1.00  0.00    -0.406 C  
BRANCH   7   8
HETATM    8  C   UNL     1     -12.208  14.003  67.107  1.00  0.00    -0.356 C  
BRANCH   8   9
HETATM    9  C   UNL     1     -11.874  12.773  66.275  1.00  0.00    -0.485 C  
BRANCH   9  10
HETATM   10  C   UNL     1     -10.490  12.880  65.617  1.00  0.00    -0.292 C  
BRANCH  10  11
HETATM   11  C   UNL     1      -9.557  11.699  65.920  1.00  0.00    -0.250 C  
BRANCH  11  12
HETATM   12  C   UNL     1      -9.803  10.573  64.947  1.00  0.00    -0.315 C  
HETATM   13  O   UNL     1     -10.083  10.712  63.767  1.00  0.00    -0.330 OA 
BRANCH  12  14
HETATM   14  O   UNL     1      -9.481   9.387  65.535  1.00  0.00    -0.245 OA 
BRANCH  14  15
HETATM   15  C   UNL     1     -10.251   9.085  66.705  1.00  0.00    -0.271 C  
BRANCH  15  16
HETATM   16  C   UNL     1      -9.532   7.923  67.399  1.00  0.00    -0.144 C  
BRANCH  16  17
HETATM   17  N   UNL     1      -9.756   7.853  68.834  1.00  0.00    -0.156 N  
HETATM   18  C   UNL     1     -10.551   6.873  69.376  1.00  0.00    -0.229 C  
HETATM   19  H   UNL     1      -9.317   8.541  69.446  1.00  0.00     0.000 HD 
HETATM   20  O   UNL     1     -11.202   6.082  68.700  1.00  0.00    -0.307 OA 
BRANCH  18  21
HETATM   21  C   UNL     1     -10.664   6.867  70.886  1.00  0.00    -0.230 C  
BRANCH  21  22
HETATM   22  N   UNL     1     -11.822   7.694  71.287  1.00  0.00    -0.286 NA 
HETATM   23  C   UNL     1     -11.638   9.002  71.598  1.00  0.00    -0.356 A  
HETATM   24  C   UNL     1     -12.709   9.790  71.998  1.00  0.00    -0.463 A  
HETATM   25  C   UNL     1     -13.979   9.233  72.060  1.00  0.00    -0.392 A  
HETATM   26  C   UNL     1     -14.155   7.898  71.722  1.00  0.00    -0.520 A  
HETATM   27  C   UNL     1     -13.055   7.143  71.336  1.00  0.00    -0.352 A  
ENDBRANCH  21  22
ENDBRANCH  18  21
ENDBRANCH  16  17
ENDBRANCH  15  16
ENDBRANCH  14  15
ENDBRANCH  12  14
ENDBRANCH  11  12
ENDBRANCH  10  11
ENDBRANCH   9  10
ENDBRANCH   8   9
ENDBRANCH   7   8
ENDBRANCH   6   7
ENDBRANCH   5   6
ENDBRANCH   4   5
ENDBRANCH   3   4
ENDBRANCH   2   3
TORSDOF 16
ENDMDL
MODEL       50
REMARK 921   NORMALIZED FREE ENERGY PREDICTED BY IDOCK:   -4.63 KCAL/MOL
REMARK 922        TOTAL FREE ENERGY PREDICTED BY IDOCK:  -11.03 KCAL/MOL
REMARK 923 INTER-LIGAND FREE ENERGY PREDICTED BY IDOCK:   -9.78 KCAL/MOL
REMARK 924 INTRA-LIGAND FREE ENERGY PREDICTED BY IDOCK:   -1.25 KCAL/MOL
REMARK 927      BINDING AFFINITY PREDICTED BY RF-SCORE:    0.00 PKD
ROOT
HETATM    1  C   UNL     1      -7.504   6.315  68.678  1.00  0.00    -0.088 C  
HETATM    2  C   UNL     1      -8.428   5.872  67.557  1.00  0.00    -0.103 C  
ENDROOT
BRANCH   2   3
HETATM    3  C   UNL     1      -9.742   5.327  68.112  1.00  0.00    -0.184 C  
BRANCH   3   4
HETATM    4  C   UNL     1     -10.812   6.414  68.169  1.00  0.00    -0.386 C  
BRANCH   4   5
HETATM    5  C   UNL     1     -10.650   7.395  67.009  1.00  0.00    -0.414 C  
BRANCH   5   6
HETATM    6  C   UNL     1     -10.448   8.812  67.530  1.00  0.00    -0.340 C  
BRANCH   6   7
HETATM    7  C   UNL     1      -9.307   9.520  66.803  1.00  0.00    -0.196 C  
BRANCH   7   8
HETATM    8  C   UNL     1      -9.221   9.011  65.367  1.00  0.00    -0.241 C  
BRANCH   8   9
HETATM    9  C   UNL     1      -9.351  10.142  64.356  1.00  0.00    -0.348 C  
BRANCH   9  10
HETATM   10  C   UNL     1     -10.553  11.050  64.657  1.00  0.00    -0.369 C  
BRANCH  10  11
HETATM   11  C   UNL     1     -10.811  12.125  63.591  1.00  0.00    -0.523 C  
BRANCH  11  12
HETATM   12  C   UNL     1     -12.247  12.581  63.643  1.00  0.00    -0.550 C  
HETATM   13  O   UNL     1     -13.221  11.856  63.509  1.00  0.00    -0.676 OA 
BRANCH  12  14
HETATM   14  O   UNL     1     -12.297  13.881  64.047  1.00  0.00    -0.637 OA 
BRANCH  14  15
HETATM   15  C   UNL     1     -12.741  14.058  65.398  1.00  0.00    -0.471 C  
BRANCH  15  16
HETATM   16  C   UNL     1     -11.517  14.531  66.190  1.00  0.00    -0.357 C  
BRANCH  16  17
HETATM   17  N   UNL     1     -11.361  13.892  67.486  1.00  0.00    -0.303 N  
HETATM   18  C   UNL     1     -11.601  14.586  68.647  1.00  0.00    -0.315 C  
HETATM   19  H   UNL     1     -11.069  12.916  67.535  1.00  0.00     0.000 HD 
HETATM   20  O   UNL     1     -11.844  15.789  68.676  1.00  0.00    -0.385 OA 
BRANCH  18  21
HETATM   21  C   UNL     1     -11.461  13.800  69.934  1.00  0.00    -0.160 C  
BRANCH  21  22
HETATM   22  N   UNL     1     -12.235  14.474  70.998  1.00  0.00    -0.318 NA 
HETATM   23  C   UNL     1     -13.577  14.284  71.077  1.00  0.00    -0.159 A  
HETATM   24  C   UNL     1     -14.324  14.927  72.055  1.00  0.00    -0.651 A  
HETATM   25  C   UNL     1     -13.685  15.753  72.968  1.00  0.00    -0.583 A  
HETATM   26  C   UNL     1     -12.310  15.925  72.887  1.00  0.00    -0.593 A  
HETATM   27  C   UNL     1     -11.600  15.271  71.887  1.00  0.00    -0.437 A  
ENDBRANCH  21  22
ENDBRANCH  18  21
ENDBRANCH  16  17
ENDBRANCH  15  16
ENDBRANCH  14  15
ENDBRANCH  12  14
ENDBRANCH  11  12
ENDBRANCH  10  11
ENDBRANCH   9  10
ENDBRANCH   8   9
ENDBRANCH   7   8
ENDBRANCH   6   7
ENDBRANCH   5   6
ENDBRANCH   4   5
ENDBRANCH   3   4
ENDBRANCH   2   3
TORSDOF 16
ENDMDL
MODEL       51
REMARK 921   NORMALIZED FREE ENERGY PREDICTED BY IDOCK:   -4.62 KCAL/MOL
REMARK 922        TOTAL FREE ENERGY PREDICTED BY IDOCK:  -11.02 KCAL/MOL
REMARK 923 INTER-LIGAND FREE ENERGY PREDICTED BY IDOCK:   -9.55 KCAL/MOL
REMARK 924 INTRA-LIGAND FREE ENERGY PREDICTED BY IDOCK:   -1.47 KCAL/MOL
REMARK 927      BINDING AFFINITY PREDICTED BY RF-SCORE:    0.00 PKD
ROOT
HETATM    1  C   UNL     1     -10.797   7.584  71.154  1.00  0.00    -0.254 C  
HETATM    2  C   UNL     1      -9.972   8.791  71.568  1.00  0.00    -0.370 C  
ENDROOT
BRANCH   2   3
HETATM    3  C   UNL     1      -8.646   8.835  70.811  1.00  0.00    -0.218 C  
BRANCH   3   4
HETATM    4  C   UNL     1      -8.566  10.061  69.906  1.00  0.00    -0.171 C  
BRANCH   4   5
HETATM    5  C   UNL     1      -9.530   9.929  68.727  1.00  0.00    -0.157 C  
BRANCH   5   6
HETATM    6  C   UNL     1      -9.145   8.745  67.850  1.00  0.00    -0.145 C  
BRANCH   6   7
HETATM    7  C   UNL     1      -9.982   8.694  66.575  1.00  0.00    -0.353 C  
BRANCH   7   8
HETATM    8  C   UNL     1      -9.096   8.993  65.369  1.00  0.00    -0.250 C  
BRANCH   8   9
HETATM    9  C   UNL     1      -9.087  10.476  65.025  1.00  0.00    -0.231 C  
BRANCH   9  10
HETATM   10  C   UNL     1     -10.506  11.032  64.829  1.00  0.00    -0.384 C  
BRANCH  10  11
HETATM   11  C   UNL     1     -10.672  11.902  63.576  1.00  0.00    -0.504 C  
BRANCH  11  12
HETATM   12  C   UNL     1     -12.062  12.485  63.522  1.00  0.00    -0.562 C  
HETATM   13  O   UNL     1     -13.074  11.863  63.235  1.00  0.00    -0.674 OA 
BRANCH  12  14
HETATM   14  O   UNL     1     -12.044  13.751  64.021  1.00  0.00    -0.461 OA 
BRANCH  14  15
HETATM   15  C   UNL     1     -12.762  13.907  65.251  1.00  0.00    -0.449 C  
BRANCH  15  16
HETATM   16  C   UNL     1     -11.746  14.427  66.274  1.00  0.00    -0.385 C  
BRANCH  16  17
HETATM   17  N   UNL     1     -12.281  14.592  67.616  1.00  0.00    -0.587 N  
HETATM   18  C   UNL     1     -11.461  14.940  68.662  1.00  0.00    -0.306 C  
HETATM   19  H   UNL     1     -13.276  14.448  67.783  1.00  0.00     0.000 HD 
HETATM   20  O   UNL     1     -10.240  15.020  68.566  1.00  0.00    -0.217 OA 
BRANCH  18  21
HETATM   21  C   UNL     1     -12.140  15.140  70.002  1.00  0.00    -0.345 C  
BRANCH  21  22
HETATM   22  N   UNL     1     -12.454  13.818  70.585  1.00  0.00    -0.357 NA 
HETATM   23  C   UNL     1     -13.248  13.739  71.683  1.00  0.00    -0.371 A  
HETATM   24  C   UNL     1     -13.536  12.509  72.258  1.00  0.00    -0.490 A  
HETATM   25  C   UNL     1     -13.021  11.353  71.690  1.00  0.00    -0.523 A  
HETATM   26  C   UNL     1     -12.225  11.447  70.556  1.00  0.00    -0.478 A  
HETATM   27  C   UNL     1     -11.953  12.698  70.017  1.00  0.00    -0.306 A  
ENDBRANCH  21  22
ENDBRANCH  18  21
ENDBRANCH  16  17
ENDBRANCH  15  16
ENDBRANCH  14  15
ENDBRANCH  12  14
ENDBRANCH  11  12
ENDBRANCH  10  11
ENDBRANCH   9  10
ENDBRANCH   8   9
ENDBRANCH   7   8
ENDBRANCH   6   7
ENDBRANCH   5   6
ENDBRANCH   4   5
ENDBRANCH   3   4
ENDBRANCH   2   3
TORSDOF 16
ENDMDL
MODEL       52
REMARK 921   NORMALIZED FREE ENERGY PREDICTED BY IDOCK:   -4.61 KCAL/MOL
REMARK 922        TOTAL FREE ENERGY PREDICTED BY IDOCK:  -11.00 KCAL/MOL
REMARK 923 INTER-LIGAND FREE ENERGY PREDICTED BY IDOCK:   -9.66 KCAL/MOL
REMARK 924 INTRA-LIGAND FREE ENERGY PREDICTED BY IDOCK:   -1.34 KCAL/MOL
REMARK 927      BINDING AFFINITY PREDICTED BY RF-SCORE:    0.00 PKD
ROOT
HETATM    1  C   UNL     1     -12.805  15.861  72.529  1.00  0.00    -0.524 C  
HETATM    2  C   UNL     1     -13.644  14.677  72.981  1.00  0.00    -0.338 C  
ENDROOT
BRANCH   2   3
HETATM    3  C   UNL     1     -13.308  13.426  72.173  1.00  0.00    -0.613 C  
BRANCH   3   4
HETATM    4  C   UNL     1     -12.883  13.783  70.751  1.00  0.00    -0.302 C  
BRANCH   4   5
HETATM    5  C   UNL     1     -11.927  12.731  70.190  1.00  0.00    -0.371 C  
BRANCH   5   6
HETATM    6  C   UNL     1     -12.376  11.331  70.588  1.00  0.00    -0.477 C  
BRANCH   6   7
HETATM    7  C   UNL     1     -11.579  10.255  69.856  1.00  0.00    -0.326 C  
BRANCH   7   8
HETATM    8  C   UNL     1     -10.436  10.905  69.080  1.00  0.00    -0.244 C  
BRANCH   8   9
HETATM    9  C   UNL     1     -10.172  10.196  67.759  1.00  0.00    -0.232 C  
BRANCH   9  10
HETATM   10  C   UNL     1     -10.733  10.979  66.561  1.00  0.00    -0.298 C  
BRANCH  10  11
HETATM   11  C   UNL     1      -9.658  11.558  65.630  1.00  0.00    -0.256 C  
BRANCH  11  12
HETATM   12  C   UNL     1     -10.237  11.825  64.264  1.00  0.00    -0.302 C  
HETATM   13  O   UNL     1      -9.616  11.766  63.214  1.00  0.00    -0.349 OA 
BRANCH  12  14
HETATM   14  O   UNL     1     -11.589  11.957  64.361  1.00  0.00    -0.331 OA 
BRANCH  14  15
HETATM   15  C   UNL     1     -12.097  13.191  63.839  1.00  0.00    -0.470 C  
BRANCH  15  16
HETATM   16  C   UNL     1     -12.348  14.094  65.052  1.00  0.00    -0.440 C  
BRANCH  16  17
HETATM   17  N   UNL     1     -11.169  14.800  65.525  1.00  0.00    -0.337 N  
HETATM   18  C   UNL     1     -11.025  15.118  66.853  1.00  0.00    -0.323 C  
HETATM   19  H   UNL     1     -10.439  15.062  64.863  1.00  0.00     0.000 HD 
HETATM   20  O   UNL     1     -11.905  14.939  67.690  1.00  0.00    -0.352 OA 
BRANCH  18  21
HETATM   21  C   UNL     1      -9.729  15.803  67.238  1.00  0.00    -0.223 C  
BRANCH  21  22
HETATM   22  N   UNL     1      -9.947  17.264  67.271  1.00  0.00    -0.274 NA 
HETATM   23  C   UNL     1     -10.012  17.908  68.465  1.00  0.00    -0.379 A  
HETATM   24  C   UNL     1     -10.239  19.276  68.518  1.00  0.00    -0.471 A  
HETATM   25  C   UNL     1     -10.380  19.990  67.336  1.00  0.00    -0.533 A  
HETATM   26  C   UNL     1     -10.294  19.322  66.122  1.00  0.00    -0.578 A  
HETATM   27  C   UNL     1     -10.076  17.950  66.114  1.00  0.00    -0.320 A  
ENDBRANCH  21  22
ENDBRANCH  18  21
ENDBRANCH  16  17
ENDBRANCH  15  16
ENDBRANCH  14  15
ENDBRANCH  12  14
ENDBRANCH  11  12
ENDBRANCH  10  11
ENDBRANCH   9  10
ENDBRANCH   8   9
ENDBRANCH   7   8
ENDBRANCH   6   7
ENDBRANCH   5   6
ENDBRANCH   4   5
ENDBRANCH   3   4
ENDBRANCH   2   3
TORSDOF 16
ENDMDL
MODEL       53
REMARK 921   NORMALIZED FREE ENERGY PREDICTED BY IDOCK:   -4.61 KCAL/MOL
REMARK 922        TOTAL FREE ENERGY PREDICTED BY IDOCK:  -10.99 KCAL/MOL
REMARK 923 INTER-LIGAND FREE ENERGY PREDICTED BY IDOCK:   -9.28 KCAL/MOL
REMARK 924 INTRA-LIGAND FREE ENERGY PREDICTED BY IDOCK:   -1.72 KCAL/MOL
REMARK 927      BINDING AFFINITY PREDICTED BY RF-SCORE:    0.00 PKD
ROOT
HETATM    1  C   UNL     1      -9.628  10.113  68.884  1.00  0.00    -0.186 C  
HETATM    2  C   UNL     1     -10.451   8.879  68.555  1.00  0.00    -0.218 C  
ENDROOT
BRANCH   2   3
HETATM    3  C   UNL     1      -9.557   7.652  68.386  1.00  0.00    -0.155 C  
BRANCH   3   4
HETATM    4  C   UNL     1      -9.737   6.673  69.543  1.00  0.00    -0.156 C  
BRANCH   4   5
HETATM    5  C   UNL     1     -11.164   6.127  69.575  1.00  0.00    -0.482 C  
BRANCH   5   6
HETATM    6  C   UNL     1     -11.894   6.607  70.822  1.00  0.00    -0.441 C  
BRANCH   6   7
HETATM    7  C   UNL     1     -10.938   7.259  71.817  1.00  0.00    -0.256 C  
BRANCH   7   8
HETATM    8  C   UNL     1     -11.431   8.664  72.155  1.00  0.00    -0.443 C  
BRANCH   8   9
HETATM    9  C   UNL     1     -12.839   8.912  71.632  1.00  0.00    -0.401 C  
BRANCH   9  10
HETATM   10  C   UNL     1     -13.338  10.327  71.965  1.00  0.00    -0.466 C  
BRANCH  10  11
HETATM   11  C   UNL     1     -12.592  11.446  71.225  1.00  0.00    -0.480 C  
BRANCH  11  12
HETATM   12  C   UNL     1     -13.068  12.796  71.698  1.00  0.00    -0.331 C  
HETATM   13  O   UNL     1     -13.881  12.982  72.591  1.00  0.00    -0.653 OA 
BRANCH  12  14
HETATM   14  O   UNL     1     -12.319  13.772  71.114  1.00  0.00    -0.355 OA 
BRANCH  14  15
HETATM   15  C   UNL     1     -12.142  13.609  69.702  1.00  0.00    -0.321 C  
BRANCH  15  16
HETATM   16  C   UNL     1     -11.528  14.919  69.196  1.00  0.00    -0.302 C  
BRANCH  16  17
HETATM   17  N   UNL     1     -11.690  15.143  67.769  1.00  0.00    -0.370 N  
HETATM   18  C   UNL     1     -10.604  15.404  66.969  1.00  0.00    -0.309 C  
HETATM   19  H   UNL     1     -12.622  15.106  67.356  1.00  0.00     0.000 HD 
HETATM   20  O   UNL     1      -9.470  15.577  67.406  1.00  0.00    -0.209 OA 
BRANCH  18  21
HETATM   21  C   UNL     1     -10.889  15.564  65.490  1.00  0.00    -0.361 C  
BRANCH  21  22
HETATM   22  N   UNL     1     -11.101  14.228  64.893  1.00  0.00    -0.370 NA 
HETATM   23  C   UNL     1     -12.246  13.972  64.209  1.00  0.00    -0.418 A  
HETATM   24  C   UNL     1     -12.473  12.717  63.661  1.00  0.00    -0.523 A  
HETATM   25  C   UNL     1     -11.511  11.727  63.799  1.00  0.00    -0.510 A  
HETATM   26  C   UNL     1     -10.338  12.009  64.486  1.00  0.00    -0.334 A  
HETATM   27  C   UNL     1     -10.153  13.275  65.028  1.00  0.00    -0.227 A  
ENDBRANCH  21  22
ENDBRANCH  18  21
ENDBRANCH  16  17
ENDBRANCH  15  16
ENDBRANCH  14  15
ENDBRANCH  12  14
ENDBRANCH  11  12
ENDBRANCH  10  11
ENDBRANCH   9  10
ENDBRANCH   8   9
ENDBRANCH   7   8
ENDBRANCH   6   7
ENDBRANCH   5   6
ENDBRANCH   4   5
ENDBRANCH   3   4
ENDBRANCH   2   3
TORSDOF 16
ENDMDL
MODEL       54
REMARK 921   NORMALIZED FREE ENERGY PREDICTED BY IDOCK:   -4.58 KCAL/MOL
REMARK 922        TOTAL FREE ENERGY PREDICTED BY IDOCK:  -10.95 KCAL/MOL
REMARK 923 INTER-LIGAND FREE ENERGY PREDICTED BY IDOCK:   -8.88 KCAL/MOL
REMARK 924 INTRA-LIGAND FREE ENERGY PREDICTED BY IDOCK:   -2.07 KCAL/MOL
REMARK 927      BINDING AFFINITY PREDICTED BY RF-SCORE:    0.00 PKD
ROOT
HETATM    1  C   UNL     1     -10.140   5.525  69.363  1.00  0.00    -0.306 C  
HETATM    2  C   UNL     1     -11.427   6.229  69.758  1.00  0.00    -0.449 C  
ENDROOT
BRANCH   2   3
HETATM    3  C   UNL     1     -11.458   6.514  71.258  1.00  0.00    -0.371 C  
BRANCH   3   4
HETATM    4  C   UNL     1     -12.203   7.811  71.559  1.00  0.00    -0.344 C  
BRANCH   4   5
HETATM    5  C   UNL     1     -11.250   9.005  71.523  1.00  0.00    -0.418 C  
BRANCH   5   6
HETATM    6  C   UNL     1      -9.940   8.668  72.223  1.00  0.00    -0.361 C  
BRANCH   6   7
HETATM    7  C   UNL     1      -8.737   8.923  71.320  1.00  0.00    -0.279 C  
BRANCH   7   8
HETATM    8  C   UNL     1      -9.186   9.680  70.073  1.00  0.00    -0.275 C  
BRANCH   8   9
HETATM    9  C   UNL     1      -8.460   9.197  68.825  1.00  0.00    -0.130 C  
BRANCH   9  10
HETATM   10  C   UNL     1      -9.345   9.287  67.571  1.00  0.00    -0.148 C  
BRANCH  10  11
HETATM   11  C   UNL     1     -10.747   9.857  67.831  1.00  0.00    -0.316 C  
BRANCH  11  12
HETATM   12  C   UNL     1     -10.953  11.124  67.040  1.00  0.00    -0.289 C  
HETATM   13  O   UNL     1     -10.333  11.433  66.034  1.00  0.00    -0.235 OA 
BRANCH  12  14
HETATM   14  O   UNL     1     -12.054  11.776  67.505  1.00  0.00    -0.599 OA 
BRANCH  14  15
HETATM   15  C   UNL     1     -11.766  12.813  68.451  1.00  0.00    -0.339 C  
BRANCH  15  16
HETATM   16  C   UNL     1     -11.941  14.137  67.699  1.00  0.00    -0.370 C  
BRANCH  16  17
HETATM   17  N   UNL     1     -10.731  14.937  67.608  1.00  0.00    -0.265 N  
HETATM   18  C   UNL     1     -10.234  15.325  66.388  1.00  0.00    -0.277 C  
HETATM   19  H   UNL     1     -10.245  15.214  68.461  1.00  0.00     0.000 HD 
HETATM   20  O   UNL     1     -10.694  14.939  65.318  1.00  0.00    -0.336 OA 
BRANCH  18  21
HETATM   21  C   UNL     1      -9.000  16.204  66.421  1.00  0.00    -0.318 C  
BRANCH  21  22
HETATM   22  N   UNL     1      -9.347  17.498  67.046  1.00  0.00    -0.252 NA 
HETATM   23  C   UNL     1     -10.295  18.286  66.479  1.00  0.00    -0.392 A  
HETATM   24  C   UNL     1     -10.618  19.515  67.038  1.00  0.00    -0.607 A  
HETATM   25  C   UNL     1      -9.976  19.926  68.198  1.00  0.00    -0.551 A  
HETATM   26  C   UNL     1      -9.020  19.102  68.777  1.00  0.00    -0.388 A  
HETATM   27  C   UNL     1      -8.720  17.884  68.180  1.00  0.00    -0.268 A  
ENDBRANCH  21  22
ENDBRANCH  18  21
ENDBRANCH  16  17
ENDBRANCH  15  16
ENDBRANCH  14  15
ENDBRANCH  12  14
ENDBRANCH  11  12
ENDBRANCH  10  11
ENDBRANCH   9  10
ENDBRANCH   8   9
ENDBRANCH   7   8
ENDBRANCH   6   7
ENDBRANCH   5   6
ENDBRANCH   4   5
ENDBRANCH   3   4
ENDBRANCH   2   3
TORSDOF 16
ENDMDL
MODEL       55
REMARK 921   NORMALIZED FREE ENERGY PREDICTED BY IDOCK:   -4.58 KCAL/MOL
REMARK 922        TOTAL FREE ENERGY PREDICTED BY IDOCK:  -10.95 KCAL/MOL
REMARK 923 INTER-LIGAND FREE ENERGY PREDICTED BY IDOCK:   -9.48 KCAL/MOL
REMARK 924 INTRA-LIGAND FREE ENERGY PREDICTED BY IDOCK:   -1.47 KCAL/MOL
REMARK 927      BINDING AFFINITY PREDICTED BY RF-SCORE:    0.00 PKD
ROOT
HETATM    1  C   UNL     1      -6.510   9.845  67.838  1.00  0.00    -0.059 C  
HETATM    2  C   UNL     1      -7.345  10.764  68.713  1.00  0.00    -0.104 C  
ENDROOT
BRANCH   2   3
HETATM    3  C   UNL     1      -8.832  10.442  68.586  1.00  0.00    -0.142 C  
BRANCH   3   4
HETATM    4  C   UNL     1      -9.419  10.001  69.924  1.00  0.00    -0.221 C  
BRANCH   4   5
HETATM    5  C   UNL     1     -10.845   9.481  69.746  1.00  0.00    -0.264 C  
BRANCH   5   6
HETATM    6  C   UNL     1     -11.262   8.638  70.944  1.00  0.00    -0.311 C  
BRANCH   6   7
HETATM    7  C   UNL     1     -12.221   9.395  71.858  1.00  0.00    -0.440 C  
BRANCH   7   8
HETATM    8  C   UNL     1     -12.762  10.622  71.128  1.00  0.00    -0.522 C  
BRANCH   8   9
HETATM    9  C   UNL     1     -13.465  11.583  72.077  1.00  0.00    -0.298 C  
BRANCH   9  10
HETATM   10  C   UNL     1     -13.039  13.040  71.842  1.00  0.00    -0.483 C  
BRANCH  10  11
HETATM   11  C   UNL     1     -14.158  14.066  72.071  1.00  0.00    -0.600 C  
BRANCH  11  12
HETATM   12  C   UNL     1     -13.575  15.442  72.274  1.00  0.00    -0.503 C  
HETATM   13  O   UNL     1     -13.343  15.953  73.359  1.00  0.00    -0.567 OA 
BRANCH  12  14
HETATM   14  O   UNL     1     -13.175  15.948  71.075  1.00  0.00    -0.519 OA 
BRANCH  14  15
HETATM   15  C   UNL     1     -11.756  16.103  70.949  1.00  0.00    -0.334 C  
BRANCH  15  16
HETATM   16  C   UNL     1     -11.432  15.870  69.470  1.00  0.00    -0.342 C  
BRANCH  16  17
HETATM   17  N   UNL     1     -12.045  14.680  68.904  1.00  0.00    -0.528 N  
HETATM   18  C   UNL     1     -11.274  13.666  68.390  1.00  0.00    -0.276 C  
HETATM   19  H   UNL     1     -13.062  14.596  68.889  1.00  0.00     0.000 HD 
HETATM   20  O   UNL     1     -10.055  13.741  68.269  1.00  0.00    -0.227 OA 
BRANCH  18  21
HETATM   21  C   UNL     1     -12.023  12.452  67.880  1.00  0.00    -0.196 C  
BRANCH  21  22
HETATM   22  N   UNL     1     -11.773  12.304  66.431  1.00  0.00    -0.526 NA 
HETATM   23  C   UNL     1     -11.021  11.268  65.980  1.00  0.00    -0.174 A  
HETATM   24  C   UNL     1     -10.756  11.125  64.625  1.00  0.00    -0.350 A  
HETATM   25  C   UNL     1     -11.284  12.041  63.727  1.00  0.00    -0.516 A  
HETATM   26  C   UNL     1     -12.065  13.087  64.200  1.00  0.00    -0.497 A  
HETATM   27  C   UNL     1     -12.298  13.199  65.565  1.00  0.00    -0.474 A  
ENDBRANCH  21  22
ENDBRANCH  18  21
ENDBRANCH  16  17
ENDBRANCH  15  16
ENDBRANCH  14  15
ENDBRANCH  12  14
ENDBRANCH  11  12
ENDBRANCH  10  11
ENDBRANCH   9  10
ENDBRANCH   8   9
ENDBRANCH   7   8
ENDBRANCH   6   7
ENDBRANCH   5   6
ENDBRANCH   4   5
ENDBRANCH   3   4
ENDBRANCH   2   3
TORSDOF 16
ENDMDL
MODEL       56
REMARK 921   NORMALIZED FREE ENERGY PREDICTED BY IDOCK:   -4.56 KCAL/MOL
REMARK 922        TOTAL FREE ENERGY PREDICTED BY IDOCK:  -10.92 KCAL/MOL
REMARK 923 INTER-LIGAND FREE ENERGY PREDICTED BY IDOCK:   -8.70 KCAL/MOL
REMARK 924 INTRA-LIGAND FREE ENERGY PREDICTED BY IDOCK:   -2.22 KCAL/MOL
REMARK 927      BINDING AFFINITY PREDICTED BY RF-SCORE:    0.00 PKD
ROOT
HETATM    1  C   UNL     1     -10.272   5.351  70.209  1.00  0.00    -0.338 C  
HETATM    2  C   UNL     1     -11.346   6.219  69.574  1.00  0.00    -0.475 C  
ENDROOT
BRANCH   2   3
HETATM    3  C   UNL     1     -11.522   7.525  70.344  1.00  0.00    -0.219 C  
BRANCH   3   4
HETATM    4  C   UNL     1     -10.740   7.505  71.654  1.00  0.00    -0.242 C  
BRANCH   4   5
HETATM    5  C   UNL     1      -9.954   8.803  71.837  1.00  0.00    -0.401 C  
BRANCH   5   6
HETATM    6  C   UNL     1      -9.486   9.340  70.490  1.00  0.00    -0.317 C  
BRANCH   6   7
HETATM    7  C   UNL     1      -8.192   8.669  70.037  1.00  0.00    -0.122 C  
BRANCH   7   8
HETATM    8  C   UNL     1      -7.951   8.969  68.560  1.00  0.00    -0.103 C  
BRANCH   8   9
HETATM    9  C   UNL     1      -8.706   8.006  67.655  1.00  0.00    -0.126 C  
BRANCH   9  10
HETATM   10  C   UNL     1      -9.757   8.726  66.795  1.00  0.00    -0.286 C  
BRANCH  10  11
HETATM   11  C   UNL     1      -9.546  10.242  66.683  1.00  0.00    -0.220 C  
BRANCH  11  12
HETATM   12  C   UNL     1     -10.871  10.961  66.716  1.00  0.00    -0.224 C  
HETATM   13  O   UNL     1     -11.763  10.753  67.524  1.00  0.00    -0.510 OA 
BRANCH  12  14
HETATM   14  O   UNL     1     -10.848  11.998  65.834  1.00  0.00    -0.268 OA 
BRANCH  14  15
HETATM   15  C   UNL     1     -12.100  12.680  65.697  1.00  0.00    -0.443 C  
BRANCH  15  16
HETATM   16  C   UNL     1     -11.828  14.146  66.053  1.00  0.00    -0.398 C  
BRANCH  16  17
HETATM   17  N   UNL     1     -12.280  14.533  67.379  1.00  0.00    -0.597 N  
HETATM   18  C   UNL     1     -11.390  14.653  68.419  1.00  0.00    -0.292 C  
HETATM   19  H   UNL     1     -13.270  14.718  67.540  1.00  0.00     0.000 HD 
HETATM   20  O   UNL     1     -10.207  14.340  68.334  1.00  0.00    -0.232 OA 
BRANCH  18  21
HETATM   21  C   UNL     1     -11.969  15.117  69.739  1.00  0.00    -0.334 C  
BRANCH  21  22
HETATM   22  N   UNL     1     -12.426  13.940  70.507  1.00  0.00    -0.351 NA 
HETATM   23  C   UNL     1     -13.234  14.111  71.584  1.00  0.00    -0.353 A  
HETATM   24  C   UNL     1     -13.656  13.020  72.331  1.00  0.00    -0.628 A  
HETATM   25  C   UNL     1     -13.261  11.744  71.956  1.00  0.00    -0.460 A  
HETATM   26  C   UNL     1     -12.449  11.581  70.841  1.00  0.00    -0.464 A  
HETATM   27  C   UNL     1     -12.042  12.701  70.127  1.00  0.00    -0.294 A  
ENDBRANCH  21  22
ENDBRANCH  18  21
ENDBRANCH  16  17
ENDBRANCH  15  16
ENDBRANCH  14  15
ENDBRANCH  12  14
ENDBRANCH  11  12
ENDBRANCH  10  11
ENDBRANCH   9  10
ENDBRANCH   8   9
ENDBRANCH   7   8
ENDBRANCH   6   7
ENDBRANCH   5   6
ENDBRANCH   4   5
ENDBRANCH   3   4
ENDBRANCH   2   3
TORSDOF 16
ENDMDL
MODEL       57
REMARK 921   NORMALIZED FREE ENERGY PREDICTED BY IDOCK:   -4.56 KCAL/MOL
REMARK 922        TOTAL FREE ENERGY PREDICTED BY IDOCK:  -10.92 KCAL/MOL
REMARK 923 INTER-LIGAND FREE ENERGY PREDICTED BY IDOCK:   -9.77 KCAL/MOL
REMARK 924 INTRA-LIGAND FREE ENERGY PREDICTED BY IDOCK:   -1.15 KCAL/MOL
REMARK 927      BINDING AFFINITY PREDICTED BY RF-SCORE:    0.00 PKD
ROOT
HETATM    1  C   UNL     1     -10.580  11.651  63.551  1.00  0.00    -0.496 C  
HETATM    2  C   UNL     1     -10.617  12.250  64.947  1.00  0.00    -0.329 C  
ENDROOT
BRANCH   2   3
HETATM    3  C   UNL     1     -10.541  11.160  66.014  1.00  0.00    -0.298 C  
BRANCH   3   4
HETATM    4  C   UNL     1      -9.888   9.894  65.466  1.00  0.00    -0.381 C  
BRANCH   4   5
HETATM    5  C   UNL     1      -9.416   8.991  66.605  1.00  0.00    -0.251 C  
BRANCH   5   6
HETATM    6  C   UNL     1     -10.593   8.246  67.222  1.00  0.00    -0.335 C  
BRANCH   6   7
HETATM    7  C   UNL     1     -10.211   7.590  68.546  1.00  0.00    -0.216 C  
BRANCH   7   8
HETATM    8  C   UNL     1     -11.154   6.424  68.830  1.00  0.00    -0.420 C  
BRANCH   8   9
HETATM    9  C   UNL     1     -11.634   6.421  70.274  1.00  0.00    -0.451 C  
BRANCH   9  10
HETATM   10  C   UNL     1     -10.725   7.260  71.186  1.00  0.00    -0.244 C  
BRANCH  10  11
HETATM   11  C   UNL     1     -11.432   7.830  72.424  1.00  0.00    -0.418 C  
BRANCH  11  12
HETATM   12  C   UNL     1     -12.419   8.896  72.020  1.00  0.00    -0.392 C  
HETATM   13  O   UNL     1     -13.609   8.894  72.296  1.00  0.00    -0.411 OA 
BRANCH  12  14
HETATM   14  O   UNL     1     -11.752   9.947  71.468  1.00  0.00    -0.380 OA 
BRANCH  14  15
HETATM   15  C   UNL     1     -12.308  10.411  70.231  1.00  0.00    -0.250 C  
BRANCH  15  16
HETATM   16  C   UNL     1     -11.352  11.489  69.712  1.00  0.00    -0.226 C  
BRANCH  16  17
HETATM   17  N   UNL     1     -11.884  12.841  69.775  1.00  0.00    -0.379 N  
HETATM   18  C   UNL     1     -11.242  13.880  69.147  1.00  0.00    -0.269 C  
HETATM   19  H   UNL     1     -12.745  13.019  70.291  1.00  0.00     0.000 HD 
HETATM   20  O   UNL     1     -10.147  13.768  68.604  1.00  0.00    -0.231 OA 
BRANCH  18  21
HETATM   21  C   UNL     1     -11.921  15.231  69.234  1.00  0.00    -0.299 C  
BRANCH  21  22
HETATM   22  N   UNL     1     -12.399  15.443  70.616  1.00  0.00    -0.373 NA 
HETATM   23  C   UNL     1     -11.541  15.900  71.563  1.00  0.00    -0.465 A  
HETATM   24  C   UNL     1     -11.965  16.083  72.872  1.00  0.00    -0.611 A  
HETATM   25  C   UNL     1     -13.285  15.815  73.204  1.00  0.00    -0.694 A  
HETATM   26  C   UNL     1     -14.158  15.365  72.222  1.00  0.00    -0.660 A  
HETATM   27  C   UNL     1     -13.690  15.185  70.926  1.00  0.00    -0.288 A  
ENDBRANCH  21  22
ENDBRANCH  18  21
ENDBRANCH  16  17
ENDBRANCH  15  16
ENDBRANCH  14  15
ENDBRANCH  12  14
ENDBRANCH  11  12
ENDBRANCH  10  11
ENDBRANCH   9  10
ENDBRANCH   8   9
ENDBRANCH   7   8
ENDBRANCH   6   7
ENDBRANCH   5   6
ENDBRANCH   4   5
ENDBRANCH   3   4
ENDBRANCH   2   3
TORSDOF 16
ENDMDL
MODEL       58
REMARK 921   NORMALIZED FREE ENERGY PREDICTED BY IDOCK:   -4.56 KCAL/MOL
REMARK 922        TOTAL FREE ENERGY PREDICTED BY IDOCK:  -10.90 KCAL/MOL
REMARK 923 INTER-LIGAND FREE ENERGY PREDICTED BY IDOCK:   -9.73 KCAL/MOL
REMARK 924 INTRA-LIGAND FREE ENERGY PREDICTED BY IDOCK:   -1.17 KCAL/MOL
REMARK 927      BINDING AFFINITY PREDICTED BY RF-SCORE:    0.00 PKD
ROOT
HETATM    1  C   UNL     1     -12.584  15.597  73.858  1.00  0.00    -0.767 C  
HETATM    2  C   UNL     1     -13.517  15.306  72.695  1.00  0.00    -0.610 C  
ENDROOT
BRANCH   2   3
HETATM    3  C   UNL     1     -13.481  13.826  72.319  1.00  0.00    -0.638 C  
BRANCH   3   4
HETATM    4  C   UNL     1     -12.626  13.592  71.076  1.00  0.00    -0.441 C  
BRANCH   4   5
HETATM    5  C   UNL     1     -12.543  14.861  70.228  1.00  0.00    -0.361 C  
BRANCH   5   6
HETATM    6  C   UNL     1     -11.437  14.739  69.188  1.00  0.00    -0.323 C  
BRANCH   6   7
HETATM    7  C   UNL     1     -11.803  13.742  68.092  1.00  0.00    -0.411 C  
BRANCH   7   8
HETATM    8  C   UNL     1     -11.530  14.362  66.724  1.00  0.00    -0.381 C  
BRANCH   8   9
HETATM    9  C   UNL     1     -12.649  14.069  65.734  1.00  0.00    -0.512 C  
BRANCH   9  10
HETATM   10  C   UNL     1     -12.418  12.753  64.976  1.00  0.00    -0.572 C  
BRANCH  10  11
HETATM   11  C   UNL     1     -11.548  12.896  63.719  1.00  0.00    -0.538 C  
BRANCH  11  12
HETATM   12  C   UNL     1     -10.364  11.964  63.792  1.00  0.00    -0.415 C  
HETATM   13  O   UNL     1      -9.704  11.590  62.835  1.00  0.00    -0.372 OA 
BRANCH  12  14
HETATM   14  O   UNL     1     -10.030  11.755  65.096  1.00  0.00    -0.244 OA 
BRANCH  14  15
HETATM   15  C   UNL     1      -9.619  10.414  65.388  1.00  0.00    -0.246 C  
BRANCH  15  16
HETATM   16  C   UNL     1      -9.060  10.442  66.815  1.00  0.00    -0.143 C  
BRANCH  16  17
HETATM   17  N   UNL     1     -10.075  10.433  67.855  1.00  0.00    -0.166 N  
HETATM   18  C   UNL     1      -9.757  10.090  69.146  1.00  0.00    -0.209 C  
HETATM   19  H   UNL     1     -11.036  10.686  67.623  1.00  0.00     0.000 HD 
HETATM   20  O   UNL     1      -8.655   9.667  69.480  1.00  0.00    -0.143 OA 
BRANCH  18  21
HETATM   21  C   UNL     1     -10.885  10.172  70.154  1.00  0.00    -0.311 C  
BRANCH  21  22
HETATM   22  N   UNL     1     -11.091   8.839  70.758  1.00  0.00    -0.253 NA 
HETATM   23  C   UNL     1     -11.248   7.754  69.957  1.00  0.00    -0.117 A  
HETATM   24  C   UNL     1     -11.465   6.498  70.505  1.00  0.00    -0.448 A  
HETATM   25  C   UNL     1     -11.501   6.352  71.884  1.00  0.00    -0.352 A  
HETATM   26  C   UNL     1     -11.322   7.467  72.692  1.00  0.00    -0.395 A  
HETATM   27  C   UNL     1     -11.116   8.708  72.103  1.00  0.00    -0.364 A  
ENDBRANCH  21  22
ENDBRANCH  18  21
ENDBRANCH  16  17
ENDBRANCH  15  16
ENDBRANCH  14  15
ENDBRANCH  12  14
ENDBRANCH  11  12
ENDBRANCH  10  11
ENDBRANCH   9  10
ENDBRANCH   8   9
ENDBRANCH   7   8
ENDBRANCH   6   7
ENDBRANCH   5   6
ENDBRANCH   4   5
ENDBRANCH   3   4
ENDBRANCH   2   3
TORSDOF 16
ENDMDL
MODEL       59
REMARK 921   NORMALIZED FREE ENERGY PREDICTED BY IDOCK:   -4.55 KCAL/MOL
REMARK 922        TOTAL FREE ENERGY PREDICTED BY IDOCK:  -10.90 KCAL/MOL
REMARK 923 INTER-LIGAND FREE ENERGY PREDICTED BY IDOCK:   -9.62 KCAL/MOL
REMARK 924 INTRA-LIGAND FREE ENERGY PREDICTED BY IDOCK:   -1.28 KCAL/MOL
REMARK 927      BINDING AFFINITY PREDICTED BY RF-SCORE:    0.00 PKD
ROOT
HETATM    1  C   UNL     1     -10.551   6.315  67.989  1.00  0.00    -0.326 C  
HETATM    2  C   UNL     1     -11.321   6.368  69.298  1.00  0.00    -0.405 C  
ENDROOT
BRANCH   2   3
HETATM    3  C   UNL     1     -10.639   5.522  70.370  1.00  0.00    -0.350 C  
BRANCH   3   4
HETATM    4  C   UNL     1     -10.932   6.059  71.768  1.00  0.00    -0.323 C  
BRANCH   4   5
HETATM    5  C   UNL     1     -12.121   7.019  71.742  1.00  0.00    -0.371 C  
BRANCH   5   6
HETATM    6  C   UNL     1     -11.762   8.334  72.423  1.00  0.00    -0.463 C  
BRANCH   6   7
HETATM    7  C   UNL     1     -10.355   8.794  72.052  1.00  0.00    -0.411 C  
BRANCH   7   8
HETATM    8  C   UNL     1     -10.417   9.675  70.808  1.00  0.00    -0.375 C  
BRANCH   8   9
HETATM    9  C   UNL     1     -11.717  10.462  70.733  1.00  0.00    -0.464 C  
BRANCH   9  10
HETATM   10  C   UNL     1     -12.080  10.844  69.290  1.00  0.00    -0.332 C  
BRANCH  10  11
HETATM   11  C   UNL     1     -11.517  12.199  68.838  1.00  0.00    -0.350 C  
BRANCH  11  12
HETATM   12  C   UNL     1     -11.653  12.351  67.344  1.00  0.00    -0.365 C  
HETATM   13  O   UNL     1     -11.575  11.440  66.534  1.00  0.00    -0.408 OA 
BRANCH  12  14
HETATM   14  O   UNL     1     -12.060  13.617  67.051  1.00  0.00    -0.398 OA 
BRANCH  14  15
HETATM   15  C   UNL     1     -11.290  14.643  67.690  1.00  0.00    -0.336 C  
BRANCH  15  16
HETATM   16  C   UNL     1     -10.590  15.414  66.566  1.00  0.00    -0.306 C  
BRANCH  16  17
HETATM   17  N   UNL     1     -10.310  16.805  66.879  1.00  0.00    -0.299 N  
HETATM   18  C   UNL     1     -10.584  17.800  65.973  1.00  0.00    -0.229 C  
HETATM   19  H   UNL     1      -9.904  17.046  67.784  1.00  0.00     0.000 HD 
HETATM   20  O   UNL     1     -10.965  17.583  64.827  1.00  0.00    -0.950 OA 
BRANCH  18  21
HETATM   21  C   UNL     1     -10.302  19.216  66.433  1.00  0.00    -0.455 C  
BRANCH  21  22
HETATM   22  N   UNL     1      -8.897  19.306  66.884  1.00  0.00    -0.292 NA 
HETATM   23  C   UNL     1      -8.622  19.452  68.205  1.00  0.00    -0.336 A  
HETATM   24  C   UNL     1      -7.310  19.561  68.645  1.00  0.00    -0.381 A  
HETATM   25  C   UNL     1      -6.275  19.500  67.723  1.00  0.00    -0.229 A  
HETATM   26  C   UNL     1      -6.570  19.334  66.377  1.00  0.00    -0.205 A  
HETATM   27  C   UNL     1      -7.897  19.238  65.977  1.00  0.00    -0.258 A  
ENDBRANCH  21  22
ENDBRANCH  18  21
ENDBRANCH  16  17
ENDBRANCH  15  16
ENDBRANCH  14  15
ENDBRANCH  12  14
ENDBRANCH  11  12
ENDBRANCH  10  11
ENDBRANCH   9  10
ENDBRANCH   8   9
ENDBRANCH   7   8
ENDBRANCH   6   7
ENDBRANCH   5   6
ENDBRANCH   4   5
ENDBRANCH   3   4
ENDBRANCH   2   3
TORSDOF 16
ENDMDL
MODEL       60
REMARK 921   NORMALIZED FREE ENERGY PREDICTED BY IDOCK:   -4.55 KCAL/MOL
REMARK 922        TOTAL FREE ENERGY PREDICTED BY IDOCK:  -10.89 KCAL/MOL
REMARK 923 INTER-LIGAND FREE ENERGY PREDICTED BY IDOCK:   -9.38 KCAL/MOL
REMARK 924 INTRA-LIGAND FREE ENERGY PREDICTED BY IDOCK:   -1.52 KCAL/MOL
REMARK 927      BINDING AFFINITY PREDICTED BY RF-SCORE:    0.00 PKD
ROOT
HETATM    1  C   UNL     1     -13.865   7.076  71.534  1.00  0.00    -0.359 C  
HETATM    2  C   UNL     1     -14.252   8.542  71.442  1.00  0.00    -0.378 C  
ENDROOT
BRANCH   2   3
HETATM    3  C   UNL     1     -13.355   9.404  72.327  1.00  0.00    -0.539 C  
BRANCH   3   4
HETATM    4  C   UNL     1     -12.734  10.551  71.535  1.00  0.00    -0.558 C  
BRANCH   4   5
HETATM    5  C   UNL     1     -11.506  10.074  70.761  1.00  0.00    -0.438 C  
BRANCH   5   6
HETATM    6  C   UNL     1     -10.688   9.101  71.599  1.00  0.00    -0.441 C  
BRANCH   6   7
HETATM    7  C   UNL     1      -9.895   8.134  70.724  1.00  0.00    -0.201 C  
BRANCH   7   8
HETATM    8  C   UNL     1     -10.784   7.620  69.595  1.00  0.00    -0.230 C  
BRANCH   8   9
HETATM    9  C   UNL     1      -9.978   7.271  68.352  1.00  0.00    -0.172 C  
BRANCH   9  10
HETATM   10  C   UNL     1     -10.490   8.009  67.105  1.00  0.00    -0.408 C  
BRANCH  10  11
HETATM   11  C   UNL     1      -9.547   9.107  66.593  1.00  0.00    -0.263 C  
BRANCH  11  12
HETATM   12  C   UNL     1     -10.255  10.438  66.570  1.00  0.00    -0.229 C  
HETATM   13  O   UNL     1     -10.891  10.913  67.498  1.00  0.00    -0.233 OA 
BRANCH  12  14
HETATM   14  O   UNL     1      -9.924  11.109  65.432  1.00  0.00    -0.232 OA 
BRANCH  14  15
HETATM   15  C   UNL     1     -10.924  11.057  64.407  1.00  0.00    -0.087 C  
BRANCH  15  16
HETATM   16  C   UNL     1     -10.735  12.322  63.563  1.00  0.00    -0.451 C  
BRANCH  16  17
HETATM   17  N   UNL     1     -10.369  13.502  64.328  1.00  0.00    -0.656 N  
HETATM   18  C   UNL     1     -11.324  14.403  64.731  1.00  0.00    -0.388 C  
HETATM   19  H   UNL     1      -9.391  13.663  64.569  1.00  0.00     0.000 HD 
HETATM   20  O   UNL     1     -12.500  14.340  64.386  1.00  0.00    -0.630 OA 
BRANCH  18  21
HETATM   21  C   UNL     1     -10.832  15.564  65.571  1.00  0.00    -0.361 C  
BRANCH  21  22
HETATM   22  N   UNL     1     -11.128  15.290  66.993  1.00  0.00    -0.325 NA 
HETATM   23  C   UNL     1     -10.817  16.215  67.936  1.00  0.00    -0.332 A  
HETATM   24  C   UNL     1     -11.067  15.967  69.279  1.00  0.00    -0.331 A  
HETATM   25  C   UNL     1     -11.658  14.769  69.652  1.00  0.00    -0.342 A  
HETATM   26  C   UNL     1     -11.987  13.838  68.676  1.00  0.00    -0.401 A  
HETATM   27  C   UNL     1     -11.712  14.122  67.344  1.00  0.00    -0.391 A  
ENDBRANCH  21  22
ENDBRANCH  18  21
ENDBRANCH  16  17
ENDBRANCH  15  16
ENDBRANCH  14  15
ENDBRANCH  12  14
ENDBRANCH  11  12
ENDBRANCH  10  11
ENDBRANCH   9  10
ENDBRANCH   8   9
ENDBRANCH   7   8
ENDBRANCH   6   7
ENDBRANCH   5   6
ENDBRANCH   4   5
ENDBRANCH   3   4
ENDBRANCH   2   3
TORSDOF 16
ENDMDL
MODEL       61
REMARK 921   NORMALIZED FREE ENERGY PREDICTED BY IDOCK:   -4.55 KCAL/MOL
REMARK 922        TOTAL FREE ENERGY PREDICTED BY IDOCK:  -10.89 KCAL/MOL
REMARK 923 INTER-LIGAND FREE ENERGY PREDICTED BY IDOCK:   -8.55 KCAL/MOL
REMARK 924 INTRA-LIGAND FREE ENERGY PREDICTED BY IDOCK:   -2.33 KCAL/MOL
REMARK 927      BINDING AFFINITY PREDICTED BY RF-SCORE:    0.00 PKD
ROOT
HETATM    1  C   UNL     1      -6.789  11.391  69.431  1.00  0.00    -0.112 C  
HETATM    2  C   UNL     1      -8.164  11.126  68.842  1.00  0.00    -0.104 C  
ENDROOT
BRANCH   2   3
HETATM    3  C   UNL     1      -8.393  11.961  67.584  1.00  0.00    -0.152 C  
BRANCH   3   4
HETATM    4  C   UNL     1      -8.109  11.150  66.323  1.00  0.00    -0.142 C  
BRANCH   4   5
HETATM    5  C   UNL     1      -8.651   9.728  66.457  1.00  0.00    -0.135 C  
BRANCH   5   6
HETATM    6  C   UNL     1      -9.826   9.511  65.512  1.00  0.00    -0.304 C  
BRANCH   6   7
HETATM    7  C   UNL     1      -9.767  10.457  64.316  1.00  0.00    -0.389 C  
BRANCH   7   8
HETATM    8  C   UNL     1     -11.022  11.327  64.290  1.00  0.00    -0.358 C  
BRANCH   8   9
HETATM    9  C   UNL     1     -10.740  12.711  63.723  1.00  0.00    -0.454 C  
BRANCH   9  10
HETATM   10  C   UNL     1     -11.305  13.827  64.616  1.00  0.00    -0.382 C  
BRANCH  10  11
HETATM   11  C   UNL     1     -10.250  14.817  65.127  1.00  0.00    -0.410 C  
BRANCH  11  12
HETATM   12  C   UNL     1     -10.825  16.210  65.193  1.00  0.00    -0.361 C  
HETATM   13  O   UNL     1     -11.242  16.844  64.236  1.00  0.00    -1.204 OA 
BRANCH  12  14
HETATM   14  O   UNL     1     -10.983  16.575  66.495  1.00  0.00    -0.119 OA 
BRANCH  14  15
HETATM   15  C   UNL     1     -10.039  17.554  66.948  1.00  0.00    -0.324 C  
BRANCH  15  16
HETATM   16  C   UNL     1     -10.258  17.689  68.459  1.00  0.00    -0.386 C  
BRANCH  16  17
HETATM   17  N   UNL     1     -11.280  16.806  68.996  1.00  0.00    -0.229 N  
HETATM   18  C   UNL     1     -10.939  15.721  69.767  1.00  0.00    -0.316 C  
HETATM   19  H   UNL     1     -12.263  16.994  68.798  1.00  0.00     0.000 HD 
HETATM   20  O   UNL     1      -9.780  15.364  69.955  1.00  0.00    -0.267 OA 
BRANCH  18  21
HETATM   21  C   UNL     1     -12.092  14.907  70.318  1.00  0.00    -0.325 C  
BRANCH  21  22
HETATM   22  N   UNL     1     -11.964  13.511  69.849  1.00  0.00    -0.335 NA 
HETATM   23  C   UNL     1     -12.038  12.492  70.743  1.00  0.00    -0.146 A  
HETATM   24  C   UNL     1     -11.897  11.176  70.325  1.00  0.00    -0.455 A  
HETATM   25  C   UNL     1     -11.700  10.905  68.979  1.00  0.00    -0.391 A  
HETATM   26  C   UNL     1     -11.644  11.956  68.073  1.00  0.00    -0.401 A  
HETATM   27  C   UNL     1     -11.780  13.259  68.534  1.00  0.00    -0.352 A  
ENDBRANCH  21  22
ENDBRANCH  18  21
ENDBRANCH  16  17
ENDBRANCH  15  16
ENDBRANCH  14  15
ENDBRANCH  12  14
ENDBRANCH  11  12
ENDBRANCH  10  11
ENDBRANCH   9  10
ENDBRANCH   8   9
ENDBRANCH   7   8
ENDBRANCH   6   7
ENDBRANCH   5   6
ENDBRANCH   4   5
ENDBRANCH   3   4
ENDBRANCH   2   3
TORSDOF 16
ENDMDL
MODEL       62
REMARK 921   NORMALIZED FREE ENERGY PREDICTED BY IDOCK:   -4.55 KCAL/MOL
REMARK 922        TOTAL FREE ENERGY PREDICTED BY IDOCK:  -10.88 KCAL/MOL
REMARK 923 INTER-LIGAND FREE ENERGY PREDICTED BY IDOCK:   -9.45 KCAL/MOL
REMARK 924 INTRA-LIGAND FREE ENERGY PREDICTED BY IDOCK:   -1.43 KCAL/MOL
REMARK 927      BINDING AFFINITY PREDICTED BY RF-SCORE:    0.00 PKD
ROOT
HETATM    1  C   UNL     1     -13.206  12.030  71.920  1.00  0.00    -0.469 C  
HETATM    2  C   UNL     1     -12.529  10.743  71.482  1.00  0.00    -0.447 C  
ENDROOT
BRANCH   2   3
HETATM    3  C   UNL     1     -13.208   9.526  72.106  1.00  0.00    -0.539 C  
BRANCH   3   4
HETATM    4  C   UNL     1     -12.214   8.388  72.323  1.00  0.00    -0.449 C  
BRANCH   4   5
HETATM    5  C   UNL     1     -12.544   7.199  71.422  1.00  0.00    -0.432 C  
BRANCH   5   6
HETATM    6  C   UNL     1     -11.357   6.856  70.532  1.00  0.00    -0.374 C  
BRANCH   6   7
HETATM    7  C   UNL     1     -10.182   7.799  70.772  1.00  0.00    -0.200 C  
BRANCH   7   8
HETATM    8  C   UNL     1      -9.696   8.361  69.439  1.00  0.00    -0.177 C  
BRANCH   8   9
HETATM    9  C   UNL     1     -10.430   7.739  68.260  1.00  0.00    -0.215 C  
BRANCH   9  10
HETATM   10  C   UNL     1     -10.644   8.744  67.117  1.00  0.00    -0.303 C  
BRANCH  10  11
HETATM   11  C   UNL     1     -10.133  10.159  67.421  1.00  0.00    -0.251 C  
BRANCH  11  12
HETATM   12  C   UNL     1     -10.752  11.155  66.473  1.00  0.00    -0.260 C  
HETATM   13  O   UNL     1     -10.360  11.383  65.339  1.00  0.00    -0.258 OA 
BRANCH  12  14
HETATM   14  O   UNL     1     -11.918  11.621  67.000  1.00  0.00    -0.593 OA 
BRANCH  14  15
HETATM   15  C   UNL     1     -11.747  12.642  67.991  1.00  0.00    -0.350 C  
BRANCH  15  16
HETATM   16  C   UNL     1     -11.994  13.975  67.276  1.00  0.00    -0.413 C  
BRANCH  16  17
HETATM   17  N   UNL     1     -11.839  15.145  68.124  1.00  0.00    -0.491 N  
HETATM   18  C   UNL     1     -10.636  15.802  68.204  1.00  0.00    -0.275 C  
HETATM   19  H   UNL     1     -12.634  15.483  68.666  1.00  0.00     0.000 HD 
HETATM   20  O   UNL     1      -9.607  15.394  67.673  1.00  0.00    -0.209 OA 
BRANCH  18  21
HETATM   21  C   UNL     1     -10.610  17.042  69.074  1.00  0.00    -0.314 C  
BRANCH  21  22
HETATM   22  N   UNL     1     -10.051  18.167  68.296  1.00  0.00    -0.366 NA 
HETATM   23  C   UNL     1      -8.819  18.649  68.601  1.00  0.00    -0.302 A  
HETATM   24  C   UNL     1      -8.285  19.719  67.896  1.00  0.00    -0.336 A  
HETATM   25  C   UNL     1      -9.015  20.284  66.860  1.00  0.00    -0.424 A  
HETATM   26  C   UNL     1     -10.266  19.771  66.547  1.00  0.00    -0.606 A  
HETATM   27  C   UNL     1     -10.767  18.704  67.283  1.00  0.00    -0.394 A  
ENDBRANCH  21  22
ENDBRANCH  18  21
ENDBRANCH  16  17
ENDBRANCH  15  16
ENDBRANCH  14  15
ENDBRANCH  12  14
ENDBRANCH  11  12
ENDBRANCH  10  11
ENDBRANCH   9  10
ENDBRANCH   8   9
ENDBRANCH   7   8
ENDBRANCH   6   7
ENDBRANCH   5   6
ENDBRANCH   4   5
ENDBRANCH   3   4
ENDBRANCH   2   3
TORSDOF 16
ENDMDL
MODEL       63
REMARK 921   NORMALIZED FREE ENERGY PREDICTED BY IDOCK:   -4.54 KCAL/MOL
REMARK 922        TOTAL FREE ENERGY PREDICTED BY IDOCK:  -10.87 KCAL/MOL
REMARK 923 INTER-LIGAND FREE ENERGY PREDICTED BY IDOCK:   -8.90 KCAL/MOL
REMARK 924 INTRA-LIGAND FREE ENERGY PREDICTED BY IDOCK:   -1.97 KCAL/MOL
REMARK 927      BINDING AFFINITY PREDICTED BY RF-SCORE:    0.00 PKD
ROOT
HETATM    1  C   UNL     1     -10.230  18.431  68.051  1.00  0.00    -0.406 C  
HETATM    2  C   UNL     1     -10.358  17.305  69.062  1.00  0.00    -0.330 C  
ENDROOT
BRANCH   2   3
HETATM    3  C   UNL     1     -11.248  16.185  68.528  1.00  0.00    -0.365 C  
BRANCH   3   4
HETATM    4  C   UNL     1     -12.034  15.518  69.653  1.00  0.00    -0.380 C  
BRANCH   4   5
HETATM    5  C   UNL     1     -11.253  15.571  70.966  1.00  0.00    -0.419 C  
BRANCH   5   6
HETATM    6  C   UNL     1     -12.133  15.137  72.131  1.00  0.00    -0.472 C  
BRANCH   6   7
HETATM    7  C   UNL     1     -13.498  14.649  71.653  1.00  0.00    -0.452 C  
BRANCH   7   8
HETATM    8  C   UNL     1     -13.774  13.261  72.224  1.00  0.00    -0.686 C  
BRANCH   8   9
HETATM    9  C   UNL     1     -12.674  12.272  71.867  1.00  0.00    -0.197 C  
BRANCH   9  10
HETATM   10  C   UNL     1     -13.236  10.978  71.256  1.00  0.00    -0.253 C  
BRANCH  10  11
HETATM   11  C   UNL     1     -13.057   9.737  72.141  1.00  0.00    -0.513 C  
BRANCH  11  12
HETATM   12  C   UNL     1     -11.917   8.890  71.633  1.00  0.00    -0.345 C  
HETATM   13  O   UNL     1     -10.733   9.109  71.838  1.00  0.00    -0.357 OA 
BRANCH  12  14
HETATM   14  O   UNL     1     -12.412   7.750  71.076  1.00  0.00    -0.258 OA 
BRANCH  14  15
HETATM   15  C   UNL     1     -11.550   6.612  71.206  1.00  0.00    -0.323 C  
BRANCH  15  16
HETATM   16  C   UNL     1     -11.056   6.289  69.792  1.00  0.00    -0.406 C  
BRANCH  16  17
HETATM   17  N   UNL     1     -10.179   7.297  69.220  1.00  0.00    -0.187 N  
HETATM   18  C   UNL     1     -10.333   7.707  67.918  1.00  0.00    -0.212 C  
HETATM   19  H   UNL     1      -9.441   7.706  69.792  1.00  0.00     0.000 HD 
HETATM   20  O   UNL     1     -11.120   7.185  67.134  1.00  0.00    -0.326 OA 
BRANCH  18  21
HETATM   21  C   UNL     1      -9.399   8.804  67.450  1.00  0.00    -0.137 C  
BRANCH  21  22
HETATM   22  N   UNL     1     -10.171  10.050  67.267  1.00  0.00    -0.208 NA 
HETATM   23  C   UNL     1     -10.170  10.672  66.060  1.00  0.00    -0.247 A  
HETATM   24  C   UNL     1     -10.871  11.855  65.875  1.00  0.00    -0.342 A  
HETATM   25  C   UNL     1     -11.593  12.392  66.931  1.00  0.00    -0.437 A  
HETATM   26  C   UNL     1     -11.600  11.738  68.155  1.00  0.00    -0.391 A  
HETATM   27  C   UNL     1     -10.877  10.560  68.301  1.00  0.00    -0.248 A  
ENDBRANCH  21  22
ENDBRANCH  18  21
ENDBRANCH  16  17
ENDBRANCH  15  16
ENDBRANCH  14  15
ENDBRANCH  12  14
ENDBRANCH  11  12
ENDBRANCH  10  11
ENDBRANCH   9  10
ENDBRANCH   8   9
ENDBRANCH   7   8
ENDBRANCH   6   7
ENDBRANCH   5   6
ENDBRANCH   4   5
ENDBRANCH   3   4
ENDBRANCH   2   3
TORSDOF 16
ENDMDL
MODEL       64
REMARK 921   NORMALIZED FREE ENERGY PREDICTED BY IDOCK:   -4.54 KCAL/MOL
REMARK 922        TOTAL FREE ENERGY PREDICTED BY IDOCK:  -10.86 KCAL/MOL
REMARK 923 INTER-LIGAND FREE ENERGY PREDICTED BY IDOCK:   -9.30 KCAL/MOL
REMARK 924 INTRA-LIGAND FREE ENERGY PREDICTED BY IDOCK:   -1.56 KCAL/MOL
REMARK 927      BINDING AFFINITY PREDICTED BY RF-SCORE:    0.00 PKD
ROOT
HETATM    1  C   UNL     1     -12.315  12.044  70.802  1.00  0.00    -0.403 C  
HETATM    2  C   UNL     1     -12.778  10.599  70.878  1.00  0.00    -0.498 C  
ENDROOT
BRANCH   2   3
HETATM    3  C   UNL     1     -11.589   9.644  70.957  1.00  0.00    -0.436 C  
BRANCH   3   4
HETATM    4  C   UNL     1     -11.783   8.607  72.059  1.00  0.00    -0.439 C  
BRANCH   4   5
HETATM    5  C   UNL     1     -11.791   7.194  71.480  1.00  0.00    -0.348 C  
BRANCH   5   6
HETATM    6  C   UNL     1     -10.486   6.475  71.798  1.00  0.00    -0.239 C  
BRANCH   6   7
HETATM    7  C   UNL     1      -9.984   5.667  70.605  1.00  0.00    -0.260 C  
BRANCH   7   8
HETATM    8  C   UNL     1      -9.987   6.543  69.356  1.00  0.00    -0.178 C  
BRANCH   8   9
HETATM    9  C   UNL     1     -10.689   5.864  68.188  1.00  0.00    -0.329 C  
BRANCH   9  10
HETATM   10  C   UNL     1     -11.000   6.847  67.050  1.00  0.00    -0.404 C  
BRANCH  10  11
HETATM   11  C   UNL     1     -10.430   8.256  67.264  1.00  0.00    -0.373 C  
BRANCH  11  12
HETATM   12  C   UNL     1      -9.593   8.669  66.079  1.00  0.00    -0.195 C  
HETATM   13  O   UNL     1      -8.680   8.014  65.601  1.00  0.00    -0.154 OA 
BRANCH  12  14
HETATM   14  O   UNL     1     -10.128   9.786  65.512  1.00  0.00    -0.301 OA 
BRANCH  14  15
HETATM   15  C   UNL     1      -9.277  10.419  64.549  1.00  0.00    -0.246 C  
BRANCH  15  16
HETATM   16  C   UNL     1     -10.202  10.966  63.457  1.00  0.00    -0.317 C  
BRANCH  16  17
HETATM   17  N   UNL     1     -10.626  12.340  63.666  1.00  0.00    -0.444 N  
HETATM   18  C   UNL     1     -11.960  12.671  63.682  1.00  0.00    -0.535 C  
HETATM   19  H   UNL     1      -9.926  13.069  63.802  1.00  0.00     0.000 HD 
HETATM   20  O   UNL     1     -12.855  11.876  63.414  1.00  0.00    -0.715 OA 
BRANCH  18  21
HETATM   21  C   UNL     1     -12.282  14.124  63.965  1.00  0.00    -0.332 C  
BRANCH  21  22
HETATM   22  N   UNL     1     -11.820  14.464  65.327  1.00  0.00    -0.363 NA 
HETATM   23  C   UNL     1     -12.391  13.861  66.401  1.00  0.00    -0.426 A  
HETATM   24  C   UNL     1     -11.987  14.184  67.689  1.00  0.00    -0.405 A  
HETATM   25  C   UNL     1     -10.976  15.117  67.873  1.00  0.00    -0.302 A  
HETATM   26  C   UNL     1     -10.389  15.713  66.765  1.00  0.00    -0.287 A  
HETATM   27  C   UNL     1     -10.830  15.369  65.493  1.00  0.00    -0.374 A  
ENDBRANCH  21  22
ENDBRANCH  18  21
ENDBRANCH  16  17
ENDBRANCH  15  16
ENDBRANCH  14  15
ENDBRANCH  12  14
ENDBRANCH  11  12
ENDBRANCH  10  11
ENDBRANCH   9  10
ENDBRANCH   8   9
ENDBRANCH   7   8
ENDBRANCH   6   7
ENDBRANCH   5   6
ENDBRANCH   4   5
ENDBRANCH   3   4
ENDBRANCH   2   3
TORSDOF 16
ENDMDL
MODEL       65
REMARK 921   NORMALIZED FREE ENERGY PREDICTED BY IDOCK:   -4.53 KCAL/MOL
REMARK 922        TOTAL FREE ENERGY PREDICTED BY IDOCK:  -10.84 KCAL/MOL
REMARK 923 INTER-LIGAND FREE ENERGY PREDICTED BY IDOCK:   -9.17 KCAL/MOL
REMARK 924 INTRA-LIGAND FREE ENERGY PREDICTED BY IDOCK:   -1.67 KCAL/MOL
REMARK 927      BINDING AFFINITY PREDICTED BY RF-SCORE:    0.00 PKD
ROOT
HETATM    1  C   UNL     1      -7.972  10.582  65.656  1.00  0.00    -0.158 C  
HETATM    2  C   UNL     1      -9.384  11.053  65.352  1.00  0.00    -0.244 C  
ENDROOT
BRANCH   2   3
HETATM    3  C   UNL     1      -9.845  10.560  63.982  1.00  0.00    -0.387 C  
BRANCH   3   4
HETATM    4  C   UNL     1     -10.923  11.469  63.401  1.00  0.00    -0.397 C  
BRANCH   4   5
HETATM    5  C   UNL     1     -10.903  12.838  64.079  1.00  0.00    -0.458 C  
BRANCH   5   6
HETATM    6  C   UNL     1     -12.275  13.495  64.003  1.00  0.00    -0.458 C  
BRANCH   6   7
HETATM    7  C   UNL     1     -12.742  13.981  65.373  1.00  0.00    -0.499 C  
BRANCH   7   8
HETATM    8  C   UNL     1     -11.761  13.512  66.444  1.00  0.00    -0.405 C  
BRANCH   8   9
HETATM    9  C   UNL     1     -11.578  14.552  67.540  1.00  0.00    -0.403 C  
BRANCH   9  10
HETATM   10  C   UNL     1     -11.786  13.956  68.941  1.00  0.00    -0.393 C  
BRANCH  10  11
HETATM   11  C   UNL     1     -12.224  14.979  70.000  1.00  0.00    -0.373 C  
BRANCH  11  12
HETATM   12  C   UNL     1     -13.062  14.309  71.060  1.00  0.00    -0.328 C  
HETATM   13  O   UNL     1     -14.018  14.817  71.626  1.00  0.00    -0.395 OA 
BRANCH  12  14
HETATM   14  O   UNL     1     -12.711  12.997  71.156  1.00  0.00    -0.354 OA 
BRANCH  14  15
HETATM   15  C   UNL     1     -13.427  12.269  72.161  1.00  0.00    -0.327 C  
BRANCH  15  16
HETATM   16  C   UNL     1     -13.285  10.788  71.797  1.00  0.00    -0.418 C  
BRANCH  16  17
HETATM   17  N   UNL     1     -12.016  10.444  71.176  1.00  0.00    -0.366 N  
HETATM   18  C   UNL     1     -11.353   9.292  71.522  1.00  0.00    -0.385 C  
HETATM   19  H   UNL     1     -11.613  11.066  70.476  1.00  0.00     0.000 HD 
HETATM   20  O   UNL     1     -11.714   8.552  72.433  1.00  0.00    -0.375 OA 
BRANCH  18  21
HETATM   21  C   UNL     1     -10.069   9.010  70.769  1.00  0.00    -0.241 C  
BRANCH  21  22
HETATM   22  N   UNL     1     -10.384   8.227  69.555  1.00  0.00    -0.215 NA 
HETATM   23  C   UNL     1     -10.292   8.813  68.334  1.00  0.00    -0.204 A  
HETATM   24  C   UNL     1     -10.606   8.100  67.185  1.00  0.00    -0.355 A  
HETATM   25  C   UNL     1     -10.996   6.773  67.290  1.00  0.00    -0.433 A  
HETATM   26  C   UNL     1     -11.069   6.182  68.544  1.00  0.00    -0.352 A  
HETATM   27  C   UNL     1     -10.756   6.933  69.670  1.00  0.00    -0.245 A  
ENDBRANCH  21  22
ENDBRANCH  18  21
ENDBRANCH  16  17
ENDBRANCH  15  16
ENDBRANCH  14  15
ENDBRANCH  12  14
ENDBRANCH  11  12
ENDBRANCH  10  11
ENDBRANCH   9  10
ENDBRANCH   8   9
ENDBRANCH   7   8
ENDBRANCH   6   7
ENDBRANCH   5   6
ENDBRANCH   4   5
ENDBRANCH   3   4
ENDBRANCH   2   3
TORSDOF 16
ENDMDL
MODEL       66
REMARK 921   NORMALIZED FREE ENERGY PREDICTED BY IDOCK:   -4.52 KCAL/MOL
REMARK 922        TOTAL FREE ENERGY PREDICTED BY IDOCK:  -10.83 KCAL/MOL
REMARK 923 INTER-LIGAND FREE ENERGY PREDICTED BY IDOCK:   -9.92 KCAL/MOL
REMARK 924 INTRA-LIGAND FREE ENERGY PREDICTED BY IDOCK:   -0.91 KCAL/MOL
REMARK 927      BINDING AFFINITY PREDICTED BY RF-SCORE:    0.00 PKD
ROOT
HETATM    1  C   UNL     1      -9.355   3.310  68.016  1.00  0.00    -0.245 C  
HETATM    2  C   UNL     1      -9.311   4.047  69.343  1.00  0.00    -0.243 C  
ENDROOT
BRANCH   2   3
HETATM    3  C   UNL     1     -10.173   5.307  69.301  1.00  0.00    -0.301 C  
BRANCH   3   4
HETATM    4  C   UNL     1     -10.764   5.619  70.673  1.00  0.00    -0.333 C  
BRANCH   4   5
HETATM    5  C   UNL     1     -11.911   6.621  70.555  1.00  0.00    -0.377 C  
BRANCH   5   6
HETATM    6  C   UNL     1     -12.375   7.071  71.934  1.00  0.00    -0.358 C  
BRANCH   6   7
HETATM    7  C   UNL     1     -12.453   8.593  72.032  1.00  0.00    -0.433 C  
BRANCH   7   8
HETATM    8  C   UNL     1     -11.170   9.207  71.477  1.00  0.00    -0.430 C  
BRANCH   8   9
HETATM    9  C   UNL     1     -11.460  10.295  70.452  1.00  0.00    -0.415 C  
BRANCH   9  10
HETATM   10  C   UNL     1     -12.657  11.168  70.860  1.00  0.00    -0.483 C  
BRANCH  10  11
HETATM   11  C   UNL     1     -12.378  12.677  70.813  1.00  0.00    -0.372 C  
BRANCH  11  12
HETATM   12  C   UNL     1     -13.404  13.426  71.626  1.00  0.00    -0.338 C  
HETATM   13  O   UNL     1     -13.939  13.007  72.641  1.00  0.00    -0.657 OA 
BRANCH  12  14
HETATM   14  O   UNL     1     -13.502  14.704  71.167  1.00  0.00    -0.371 OA 
BRANCH  14  15
HETATM   15  C   UNL     1     -13.100  15.701  72.115  1.00  0.00    -0.458 C  
BRANCH  15  16
HETATM   16  C   UNL     1     -11.710  16.172  71.673  1.00  0.00    -0.484 C  
BRANCH  16  17
HETATM   17  N   UNL     1     -11.600  16.461  70.253  1.00  0.00    -0.421 N  
HETATM   18  C   UNL     1     -10.549  15.975  69.514  1.00  0.00    -0.290 C  
HETATM   19  H   UNL     1     -12.313  17.032  69.798  1.00  0.00     0.000 HD 
HETATM   20  O   UNL     1      -9.596  15.379  70.008  1.00  0.00    -0.217 OA 
BRANCH  18  21
HETATM   21  C   UNL     1     -10.571  16.293  68.034  1.00  0.00    -0.308 C  
BRANCH  21  22
HETATM   22  N   UNL     1     -10.184  17.706  67.838  1.00  0.00    -0.339 NA 
HETATM   23  C   UNL     1      -9.142  18.221  68.540  1.00  0.00    -0.311 A  
HETATM   24  C   UNL     1      -8.777  19.552  68.387  1.00  0.00    -0.389 A  
HETATM   25  C   UNL     1      -9.475  20.352  67.493  1.00  0.00    -0.532 A  
HETATM   26  C   UNL     1     -10.527  19.808  66.770  1.00  0.00    -0.610 A  
HETATM   27  C   UNL     1     -10.866  18.474  66.959  1.00  0.00    -0.207 A  
ENDBRANCH  21  22
ENDBRANCH  18  21
ENDBRANCH  16  17
ENDBRANCH  15  16
ENDBRANCH  14  15
ENDBRANCH  12  14
ENDBRANCH  11  12
ENDBRANCH  10  11
ENDBRANCH   9  10
ENDBRANCH   8   9
ENDBRANCH   7   8
ENDBRANCH   6   7
ENDBRANCH   5   6
ENDBRANCH   4   5
ENDBRANCH   3   4
ENDBRANCH   2   3
TORSDOF 16
ENDMDL
MODEL       67
REMARK 921   NORMALIZED FREE ENERGY PREDICTED BY IDOCK:   -4.51 KCAL/MOL
REMARK 922        TOTAL FREE ENERGY PREDICTED BY IDOCK:  -10.81 KCAL/MOL
REMARK 923 INTER-LIGAND FREE ENERGY PREDICTED BY IDOCK:   -9.42 KCAL/MOL
REMARK 924 INTRA-LIGAND FREE ENERGY PREDICTED BY IDOCK:   -1.40 KCAL/MOL
REMARK 927      BINDING AFFINITY PREDICTED BY RF-SCORE:    0.00 PKD
ROOT
HETATM    1  C   UNL     1     -12.207  12.294  63.597  1.00  0.00    -0.665 C  
HETATM    2  C   UNL     1     -10.740  11.920  63.467  1.00  0.00    -0.504 C  
ENDROOT
BRANCH   2   3
HETATM    3  C   UNL     1     -10.334  10.910  64.538  1.00  0.00    -0.417 C  
BRANCH   3   4
HETATM    4  C   UNL     1     -10.429  11.516  65.935  1.00  0.00    -0.303 C  
BRANCH   4   5
HETATM    5  C   UNL     1     -10.184  10.454  67.005  1.00  0.00    -0.277 C  
BRANCH   5   6
HETATM    6  C   UNL     1      -9.836   9.117  66.364  1.00  0.00    -0.350 C  
BRANCH   6   7
HETATM    7  C   UNL     1     -10.193   7.946  67.277  1.00  0.00    -0.343 C  
BRANCH   7   8
HETATM    8  C   UNL     1      -9.959   8.342  68.732  1.00  0.00    -0.197 C  
BRANCH   8   9
HETATM    9  C   UNL     1     -10.714   7.436  69.695  1.00  0.00    -0.245 C  
BRANCH   9  10
HETATM   10  C   UNL     1     -11.180   8.189  70.951  1.00  0.00    -0.286 C  
BRANCH  10  11
HETATM   11  C   UNL     1     -10.944   9.705  70.898  1.00  0.00    -0.412 C  
BRANCH  11  12
HETATM   12  C   UNL     1     -12.261  10.439  70.856  1.00  0.00    -0.383 C  
HETATM   13  O   UNL     1     -13.104  10.423  71.739  1.00  0.00    -0.420 OA 
BRANCH  12  14
HETATM   14  O   UNL     1     -12.284  11.268  69.775  1.00  0.00    -0.300 OA 
BRANCH  14  15
HETATM   15  C   UNL     1     -12.030  12.644  70.085  1.00  0.00    -0.299 C  
BRANCH  15  16
HETATM   16  C   UNL     1     -11.975  13.380  68.742  1.00  0.00    -0.324 C  
BRANCH  16  17
HETATM   17  N   UNL     1     -10.848  14.287  68.604  1.00  0.00    -0.246 N  
HETATM   18  C   UNL     1     -10.847  15.508  69.234  1.00  0.00    -0.252 C  
HETATM   19  H   UNL     1     -10.049  14.015  68.032  1.00  0.00     0.000 HD 
HETATM   20  O   UNL     1     -11.814  15.955  69.843  1.00  0.00    -0.336 OA 
BRANCH  18  21
HETATM   21  C   UNL     1      -9.595  16.344  69.063  1.00  0.00    -0.264 C  
BRANCH  21  22
HETATM   22  N   UNL     1      -9.917  17.535  68.249  1.00  0.00    -0.310 NA 
HETATM   23  C   UNL     1     -10.106  17.405  66.912  1.00  0.00    -0.314 A  
HETATM   24  C   UNL     1     -10.387  18.515  66.127  1.00  0.00    -0.457 A  
HETATM   25  C   UNL     1     -10.493  19.763  66.725  1.00  0.00    -0.610 A  
HETATM   26  C   UNL     1     -10.314  19.879  68.097  1.00  0.00    -0.533 A  
HETATM   27  C   UNL     1     -10.025  18.744  68.844  1.00  0.00    -0.371 A  
ENDBRANCH  21  22
ENDBRANCH  18  21
ENDBRANCH  16  17
ENDBRANCH  15  16
ENDBRANCH  14  15
ENDBRANCH  12  14
ENDBRANCH  11  12
ENDBRANCH  10  11
ENDBRANCH   9  10
ENDBRANCH   8   9
ENDBRANCH   7   8
ENDBRANCH   6   7
ENDBRANCH   5   6
ENDBRANCH   4   5
ENDBRANCH   3   4
ENDBRANCH   2   3
TORSDOF 16
ENDMDL
MODEL       68
REMARK 921   NORMALIZED FREE ENERGY PREDICTED BY IDOCK:   -4.50 KCAL/MOL
REMARK 922        TOTAL FREE ENERGY PREDICTED BY IDOCK:  -10.78 KCAL/MOL
REMARK 923 INTER-LIGAND FREE ENERGY PREDICTED BY IDOCK:   -8.68 KCAL/MOL
REMARK 924 INTRA-LIGAND FREE ENERGY PREDICTED BY IDOCK:   -2.10 KCAL/MOL
REMARK 927      BINDING AFFINITY PREDICTED BY RF-SCORE:    0.00 PKD
ROOT
HETATM    1  C   UNL     1     -13.069  11.321  71.481  1.00  0.00    -0.459 C  
HETATM    2  C   UNL     1     -13.314   9.842  71.241  1.00  0.00    -0.413 C  
ENDROOT
BRANCH   2   3
HETATM    3  C   UNL     1     -12.924   9.015  72.465  1.00  0.00    -0.429 C  
BRANCH   3   4
HETATM    4  C   UNL     1     -11.962   7.892  72.090  1.00  0.00    -0.379 C  
BRANCH   4   5
HETATM    5  C   UNL     1     -10.529   8.251  72.482  1.00  0.00    -0.406 C  
BRANCH   5   6
HETATM    6  C   UNL     1      -9.762   8.785  71.279  1.00  0.00    -0.335 C  
BRANCH   6   7
HETATM    7  C   UNL     1     -10.214   8.118  69.983  1.00  0.00    -0.202 C  
BRANCH   7   8
HETATM    8  C   UNL     1     -10.355   9.172  68.887  1.00  0.00    -0.232 C  
BRANCH   8   9
HETATM    9  C   UNL     1      -9.848  10.533  69.342  1.00  0.00    -0.205 C  
BRANCH   9  10
HETATM   10  C   UNL     1      -8.463  10.857  68.761  1.00  0.00    -0.150 C  
BRANCH  10  11
HETATM   11  C   UNL     1      -8.292  10.463  67.287  1.00  0.00    -0.122 C  
BRANCH  11  12
HETATM   12  C   UNL     1      -8.731  11.591  66.387  1.00  0.00    -0.179 C  
HETATM   13  O   UNL     1      -8.861  12.755  66.733  1.00  0.00    -0.212 OA 
BRANCH  12  14
HETATM   14  O   UNL     1      -8.777  11.153  65.099  1.00  0.00    -0.121 OA 
BRANCH  14  15
HETATM   15  C   UNL     1     -10.039  10.592  64.714  1.00  0.00    -0.344 C  
BRANCH  15  16
HETATM   16  C   UNL     1     -10.483  11.360  63.465  1.00  0.00    -0.417 C  
BRANCH  16  17
HETATM   17  N   UNL     1     -10.766  12.767  63.697  1.00  0.00    -0.509 N  
HETATM   18  C   UNL     1     -12.046  13.194  63.953  1.00  0.00    -0.470 C  
HETATM   19  H   UNL     1     -10.005  13.445  63.670  1.00  0.00     0.000 HD 
HETATM   20  O   UNL     1     -13.028  12.460  63.892  1.00  0.00    -0.754 OA 
BRANCH  18  21
HETATM   21  C   UNL     1     -12.210  14.673  64.236  1.00  0.00    -0.408 C  
BRANCH  21  22
HETATM   22  N   UNL     1     -11.558  14.994  65.523  1.00  0.00    -0.267 NA 
HETATM   23  C   UNL     1     -12.016  14.427  66.669  1.00  0.00    -0.392 A  
HETATM   24  C   UNL     1     -11.431  14.733  67.890  1.00  0.00    -0.361 A  
HETATM   25  C   UNL     1     -10.358  15.611  67.931  1.00  0.00    -0.259 A  
HETATM   26  C   UNL     1      -9.889  16.171  66.750  1.00  0.00    -0.255 A  
HETATM   27  C   UNL     1     -10.509  15.845  65.550  1.00  0.00    -0.404 A  
ENDBRANCH  21  22
ENDBRANCH  18  21
ENDBRANCH  16  17
ENDBRANCH  15  16
ENDBRANCH  14  15
ENDBRANCH  12  14
ENDBRANCH  11  12
ENDBRANCH  10  11
ENDBRANCH   9  10
ENDBRANCH   8   9
ENDBRANCH   7   8
ENDBRANCH   6   7
ENDBRANCH   5   6
ENDBRANCH   4   5
ENDBRANCH   3   4
ENDBRANCH   2   3
TORSDOF 16
ENDMDL
MODEL       69
REMARK 921   NORMALIZED FREE ENERGY PREDICTED BY IDOCK:   -4.49 KCAL/MOL
REMARK 922        TOTAL FREE ENERGY PREDICTED BY IDOCK:  -10.76 KCAL/MOL
REMARK 923 INTER-LIGAND FREE ENERGY PREDICTED BY IDOCK:   -8.56 KCAL/MOL
REMARK 924 INTRA-LIGAND FREE ENERGY PREDICTED BY IDOCK:   -2.21 KCAL/MOL
REMARK 927      BINDING AFFINITY PREDICTED BY RF-SCORE:    0.00 PKD
ROOT
HETATM    1  C   UNL     1      -7.055  19.383  65.752  1.00  0.00    -0.313 C  
HETATM    2  C   UNL     1      -7.048  20.371  66.906  1.00  0.00    -0.328 C  
ENDROOT
BRANCH   2   3
HETATM    3  C   UNL     1      -7.968  19.907  68.032  1.00  0.00    -0.314 C  
BRANCH   3   4
HETATM    4  C   UNL     1      -7.932  18.389  68.186  1.00  0.00    -0.303 C  
BRANCH   4   5
HETATM    5  C   UNL     1      -9.345  17.824  68.329  1.00  0.00    -0.288 C  
BRANCH   5   6
HETATM    6  C   UNL     1     -10.357  18.730  67.640  1.00  0.00    -0.476 C  
BRANCH   6   7
HETATM    7  C   UNL     1     -10.537  18.356  66.172  1.00  0.00    -0.346 C  
BRANCH   7   8
HETATM    8  C   UNL     1     -10.130  16.900  65.960  1.00  0.00    -0.336 C  
BRANCH   8   9
HETATM    9  C   UNL     1     -11.018  16.205  64.938  1.00  0.00    -0.364 C  
BRANCH   9  10
HETATM   10  C   UNL     1     -10.756  14.693  64.879  1.00  0.00    -0.447 C  
BRANCH  10  11
HETATM   11  C   UNL     1     -12.021  13.831  64.986  1.00  0.00    -0.401 C  
BRANCH  11  12
HETATM   12  C   UNL     1     -11.987  12.719  63.968  1.00  0.00    -0.447 C  
HETATM   13  O   UNL     1     -12.965  12.246  63.410  1.00  0.00    -0.753 OA 
BRANCH  12  14
HETATM   14  O   UNL     1     -10.695  12.454  63.629  1.00  0.00    -0.417 OA 
BRANCH  14  15
HETATM   15  C   UNL     1     -10.411  11.061  63.445  1.00  0.00    -0.312 C  
BRANCH  15  16
HETATM   16  C   UNL     1      -9.051  10.814  64.107  1.00  0.00    -0.196 C  
BRANCH  16  17
HETATM   17  N   UNL     1      -8.822  11.593  65.313  1.00  0.00    -0.390 N  
HETATM   18  C   UNL     1      -8.443  10.982  66.484  1.00  0.00    -0.161 C  
HETATM   19  H   UNL     1      -8.946  12.605  65.290  1.00  0.00     0.000 HD 
HETATM   20  O   UNL     1      -8.383   9.764  66.622  1.00  0.00    -0.122 OA 
BRANCH  18  21
HETATM   21  C   UNL     1      -8.179  11.901  67.658  1.00  0.00    -0.148 C  
BRANCH  21  22
HETATM   22  N   UNL     1      -9.455  12.508  68.092  1.00  0.00    -0.211 NA 
HETATM   23  C   UNL     1     -10.518  11.712  68.370  1.00  0.00    -0.213 A  
HETATM   24  C   UNL     1     -11.732  12.265  68.757  1.00  0.00    -0.390 A  
HETATM   25  C   UNL     1     -11.846  13.642  68.878  1.00  0.00    -0.402 A  
HETATM   26  C   UNL     1     -10.745  14.444  68.607  1.00  0.00    -0.258 A  
HETATM   27  C   UNL     1      -9.552  13.851  68.214  1.00  0.00    -0.218 A  
ENDBRANCH  21  22
ENDBRANCH  18  21
ENDBRANCH  16  17
ENDBRANCH  15  16
ENDBRANCH  14  15
ENDBRANCH  12  14
ENDBRANCH  11  12
ENDBRANCH  10  11
ENDBRANCH   9  10
ENDBRANCH   8   9
ENDBRANCH   7   8
ENDBRANCH   6   7
ENDBRANCH   5   6
ENDBRANCH   4   5
ENDBRANCH   3   4
ENDBRANCH   2   3
TORSDOF 16
ENDMDL
MODEL       70
REMARK 921   NORMALIZED FREE ENERGY PREDICTED BY IDOCK:   -4.48 KCAL/MOL
REMARK 922        TOTAL FREE ENERGY PREDICTED BY IDOCK:  -10.76 KCAL/MOL
REMARK 923 INTER-LIGAND FREE ENERGY PREDICTED BY IDOCK:   -9.10 KCAL/MOL
REMARK 924 INTRA-LIGAND FREE ENERGY PREDICTED BY IDOCK:   -1.66 KCAL/MOL
REMARK 927      BINDING AFFINITY PREDICTED BY RF-SCORE:    0.00 PKD
ROOT
HETATM    1  C   UNL     1      -6.052  20.065  70.667  1.00  0.00    -0.350 C  
HETATM    2  C   UNL     1      -6.288  20.057  69.166  1.00  0.00    -0.360 C  
ENDROOT
BRANCH   2   3
HETATM    3  C   UNL     1      -7.536  19.252  68.811  1.00  0.00    -0.393 C  
BRANCH   3   4
HETATM    4  C   UNL     1      -7.270  18.305  67.644  1.00  0.00    -0.210 C  
BRANCH   4   5
HETATM    5  C   UNL     1      -8.459  18.281  66.684  1.00  0.00    -0.281 C  
BRANCH   5   6
HETATM    6  C   UNL     1      -9.751  18.607  67.421  1.00  0.00    -0.330 C  
BRANCH   6   7
HETATM    7  C   UNL     1     -10.685  17.401  67.479  1.00  0.00    -0.278 C  
BRANCH   7   8
HETATM    8  C   UNL     1     -10.552  16.717  68.837  1.00  0.00    -0.337 C  
BRANCH   8   9
HETATM    9  C   UNL     1     -11.732  15.799  69.127  1.00  0.00    -0.398 C  
BRANCH   9  10
HETATM   10  C   UNL     1     -11.620  15.134  70.508  1.00  0.00    -0.340 C  
BRANCH  10  11
HETATM   11  C   UNL     1     -12.954  15.019  71.259  1.00  0.00    -0.448 C  
BRANCH  11  12
HETATM   12  C   UNL     1     -13.171  13.603  71.730  1.00  0.00    -0.394 C  
HETATM   13  O   UNL     1     -14.012  13.253  72.543  1.00  0.00    -0.701 OA 
BRANCH  12  14
HETATM   14  O   UNL     1     -12.418  12.754  70.976  1.00  0.00    -0.376 OA 
BRANCH  14  15
HETATM   15  C   UNL     1     -12.764  11.371  71.128  1.00  0.00    -0.377 C  
BRANCH  15  16
HETATM   16  C   UNL     1     -11.617  10.574  70.498  1.00  0.00    -0.350 C  
BRANCH  16  17
HETATM   17  N   UNL     1     -11.678  10.486  69.048  1.00  0.00    -0.487 N  
HETATM   18  C   UNL     1     -10.754  11.135  68.265  1.00  0.00    -0.196 C  
HETATM   19  H   UNL     1     -12.414   9.936  68.606  1.00  0.00     0.000 HD 
HETATM   20  O   UNL     1      -9.910  11.904  68.713  1.00  0.00    -0.169 OA 
BRANCH  18  21
HETATM   21  C   UNL     1     -10.883  10.924  66.770  1.00  0.00    -0.224 C  
BRANCH  21  22
HETATM   22  N   UNL     1     -11.138  12.227  66.119  1.00  0.00    -0.297 NA 
HETATM   23  C   UNL     1     -12.268  12.918  66.418  1.00  0.00    -0.231 A  
HETATM   24  C   UNL     1     -12.536  14.132  65.800  1.00  0.00    -0.475 A  
HETATM   25  C   UNL     1     -11.628  14.647  64.886  1.00  0.00    -0.405 A  
HETATM   26  C   UNL     1     -10.469  13.938  64.603  1.00  0.00    -0.419 A  
HETATM   27  C   UNL     1     -10.243  12.722  65.236  1.00  0.00    -0.279 A  
ENDBRANCH  21  22
ENDBRANCH  18  21
ENDBRANCH  16  17
ENDBRANCH  15  16
ENDBRANCH  14  15
ENDBRANCH  12  14
ENDBRANCH  11  12
ENDBRANCH  10  11
ENDBRANCH   9  10
ENDBRANCH   8   9
ENDBRANCH   7   8
ENDBRANCH   6   7
ENDBRANCH   5   6
ENDBRANCH   4   5
ENDBRANCH   3   4
ENDBRANCH   2   3
TORSDOF 16
ENDMDL
MODEL       71
REMARK 921   NORMALIZED FREE ENERGY PREDICTED BY IDOCK:   -4.48 KCAL/MOL
REMARK 922        TOTAL FREE ENERGY PREDICTED BY IDOCK:  -10.75 KCAL/MOL
REMARK 923 INTER-LIGAND FREE ENERGY PREDICTED BY IDOCK:   -9.16 KCAL/MOL
REMARK 924 INTRA-LIGAND FREE ENERGY PREDICTED BY IDOCK:   -1.59 KCAL/MOL
REMARK 927      BINDING AFFINITY PREDICTED BY RF-SCORE:    0.00 PKD
ROOT
HETATM    1  C   UNL     1     -10.264  19.425  66.319  1.00  0.00    -0.566 C  
HETATM    2  C   UNL     1     -10.400  17.928  66.104  1.00  0.00    -0.352 C  
ENDROOT
BRANCH   2   3
HETATM    3  C   UNL     1      -9.740  17.147  67.238  1.00  0.00    -0.254 C  
BRANCH   3   4
HETATM    4  C   UNL     1     -10.761  16.302  67.995  1.00  0.00    -0.331 C  
BRANCH   4   5
HETATM    5  C   UNL     1     -10.742  14.856  67.500  1.00  0.00    -0.276 C  
BRANCH   5   6
HETATM    6  C   UNL     1     -12.145  14.401  67.122  1.00  0.00    -0.367 C  
BRANCH   6   7
HETATM    7  C   UNL     1     -12.246  14.066  65.636  1.00  0.00    -0.462 C  
BRANCH   7   8
HETATM    8  C   UNL     1     -10.850  14.043  65.021  1.00  0.00    -0.401 C  
BRANCH   8   9
HETATM    9  C   UNL     1     -10.554  12.717  64.335  1.00  0.00    -0.388 C  
BRANCH   9  10
HETATM   10  C   UNL     1     -11.009  11.516  65.179  1.00  0.00    -0.298 C  
BRANCH  10  11
HETATM   11  C   UNL     1     -10.236  11.344  66.494  1.00  0.00    -0.259 C  
BRANCH  11  12
HETATM   12  C   UNL     1     -10.872  10.270  67.340  1.00  0.00    -0.277 C  
HETATM   13  O   UNL     1     -10.471   9.120  67.436  1.00  0.00    -0.249 OA 
BRANCH  12  14
HETATM   14  O   UNL     1     -11.842  10.822  68.121  1.00  0.00    -0.533 OA 
BRANCH  14  15
HETATM   15  C   UNL     1     -11.349  11.457  69.307  1.00  0.00    -0.289 C  
BRANCH  15  16
HETATM   16  C   UNL     1     -12.385  11.178  70.401  1.00  0.00    -0.344 C  
BRANCH  16  17
HETATM   17  N   UNL     1     -12.816   9.791  70.477  1.00  0.00    -0.545 N  
HETATM   18  C   UNL     1     -12.202   8.909  71.331  1.00  0.00    -0.318 C  
HETATM   19  H   UNL     1     -13.584   9.470  69.888  1.00  0.00     0.000 HD 
HETATM   20  O   UNL     1     -11.202   9.188  71.986  1.00  0.00    -0.364 OA 
BRANCH  18  21
HETATM   21  C   UNL     1     -12.774   7.506  71.364  1.00  0.00    -0.348 C  
BRANCH  21  22
HETATM   22  N   UNL     1     -11.727   6.548  70.950  1.00  0.00    -0.363 NA 
HETATM   23  C   UNL     1     -11.396   6.439  69.638  1.00  0.00    -0.412 A  
HETATM   24  C   UNL     1     -10.431   5.529  69.227  1.00  0.00    -0.336 A  
HETATM   25  C   UNL     1      -9.790   4.742  70.173  1.00  0.00    -0.308 A  
HETATM   26  C   UNL     1     -10.126   4.876  71.513  1.00  0.00    -0.266 A  
HETATM   27  C   UNL     1     -11.103   5.792  71.881  1.00  0.00    -0.248 A  
ENDBRANCH  21  22
ENDBRANCH  18  21
ENDBRANCH  16  17
ENDBRANCH  15  16
ENDBRANCH  14  15
ENDBRANCH  12  14
ENDBRANCH  11  12
ENDBRANCH  10  11
ENDBRANCH   9  10
ENDBRANCH   8   9
ENDBRANCH   7   8
ENDBRANCH   6   7
ENDBRANCH   5   6
ENDBRANCH   4   5
ENDBRANCH   3   4
ENDBRANCH   2   3
TORSDOF 16
ENDMDL
MODEL       72
REMARK 921   NORMALIZED FREE ENERGY PREDICTED BY IDOCK:   -4.47 KCAL/MOL
REMARK 922        TOTAL FREE ENERGY PREDICTED BY IDOCK:  -10.73 KCAL/MOL
REMARK 923 INTER-LIGAND FREE ENERGY PREDICTED BY IDOCK:   -9.49 KCAL/MOL
REMARK 924 INTRA-LIGAND FREE ENERGY PREDICTED BY IDOCK:   -1.24 KCAL/MOL
REMARK 927      BINDING AFFINITY PREDICTED BY RF-SCORE:    0.00 PKD
ROOT
HETATM    1  C   UNL     1     -10.783   7.873  67.988  1.00  0.00    -0.119 C  
HETATM    2  C   UNL     1     -10.878   6.404  67.613  1.00  0.00    -0.425 C  
ENDROOT
BRANCH   2   3
HETATM    3  C   UNL     1     -10.083   5.537  68.586  1.00  0.00    -0.246 C  
BRANCH   3   4
HETATM    4  C   UNL     1     -10.735   5.514  69.966  1.00  0.00    -0.356 C  
BRANCH   4   5
HETATM    5  C   UNL     1      -9.754   5.988  71.037  1.00  0.00    -0.208 C  
BRANCH   5   6
HETATM    6  C   UNL     1     -10.436   6.954  71.999  1.00  0.00    -0.229 C  
BRANCH   6   7
HETATM    7  C   UNL     1     -11.956   6.893  71.874  1.00  0.00    -0.363 C  
BRANCH   7   8
HETATM    8  C   UNL     1     -12.534   8.302  71.967  1.00  0.00    -0.393 C  
BRANCH   8   9
HETATM    9  C   UNL     1     -11.550   9.352  71.470  1.00  0.00    -0.467 C  
BRANCH   9  10
HETATM   10  C   UNL     1     -12.260  10.633  71.003  1.00  0.00    -0.498 C  
BRANCH  10  11
HETATM   11  C   UNL     1     -11.722  11.202  69.682  1.00  0.00    -0.410 C  
BRANCH  11  12
HETATM   12  C   UNL     1     -11.924  12.696  69.634  1.00  0.00    -0.286 C  
HETATM   13  O   UNL     1     -12.408  13.369  70.531  1.00  0.00    -0.342 OA 
BRANCH  12  14
HETATM   14  O   UNL     1     -11.315  13.201  68.526  1.00  0.00    -0.248 OA 
BRANCH  14  15
HETATM   15  C   UNL     1     -12.004  12.924  67.300  1.00  0.00    -0.309 C  
BRANCH  15  16
HETATM   16  C   UNL     1     -11.793  14.150  66.406  1.00  0.00    -0.423 C  
BRANCH  16  17
HETATM   17  N   UNL     1     -10.542  14.852  66.640  1.00  0.00    -0.299 N  
HETATM   18  C   UNL     1     -10.115  15.835  65.781  1.00  0.00    -0.371 C  
HETATM   19  H   UNL     1      -9.974  14.613  67.453  1.00  0.00     0.000 HD 
HETATM   20  O   UNL     1     -10.681  16.102  64.725  1.00  0.00    -0.648 OA 
BRANCH  18  21
HETATM   21  C   UNL     1      -8.826  16.536  66.158  1.00  0.00    -0.306 C  
BRANCH  21  22
HETATM   22  N   UNL     1      -9.129  17.932  66.537  1.00  0.00    -0.286 NA 
HETATM   23  C   UNL     1      -8.183  18.893  66.378  1.00  0.00    -0.294 A  
HETATM   24  C   UNL     1      -8.441  20.205  66.750  1.00  0.00    -0.365 A  
HETATM   25  C   UNL     1      -9.685  20.535  67.268  1.00  0.00    -0.600 A  
HETATM   26  C   UNL     1     -10.649  19.546  67.410  1.00  0.00    -0.607 A  
HETATM   27  C   UNL     1     -10.347  18.243  67.035  1.00  0.00    -0.389 A  
ENDBRANCH  21  22
ENDBRANCH  18  21
ENDBRANCH  16  17
ENDBRANCH  15  16
ENDBRANCH  14  15
ENDBRANCH  12  14
ENDBRANCH  11  12
ENDBRANCH  10  11
ENDBRANCH   9  10
ENDBRANCH   8   9
ENDBRANCH   7   8
ENDBRANCH   6   7
ENDBRANCH   5   6
ENDBRANCH   4   5
ENDBRANCH   3   4
ENDBRANCH   2   3
TORSDOF 16
ENDMDL
MODEL       73
REMARK 921   NORMALIZED FREE ENERGY PREDICTED BY IDOCK:   -4.46 KCAL/MOL
REMARK 922        TOTAL FREE ENERGY PREDICTED BY IDOCK:  -10.72 KCAL/MOL
REMARK 923 INTER-LIGAND FREE ENERGY PREDICTED BY IDOCK:   -9.94 KCAL/MOL
REMARK 924 INTRA-LIGAND FREE ENERGY PREDICTED BY IDOCK:   -0.78 KCAL/MOL
REMARK 927      BINDING AFFINITY PREDICTED BY RF-SCORE:    0.00 PKD
ROOT
HETATM    1  C   UNL     1     -10.952   2.117  73.335  1.00  0.00    -0.290 C  
HETATM    2  C   UNL     1     -10.340   3.470  73.657  1.00  0.00    -0.234 C  
ENDROOT
BRANCH   2   3
HETATM    3  C   UNL     1     -11.325   4.601  73.369  1.00  0.00    -0.394 C  
BRANCH   3   4
HETATM    4  C   UNL     1     -10.813   5.510  72.256  1.00  0.00    -0.297 C  
BRANCH   4   5
HETATM    5  C   UNL     1     -11.871   6.543  71.870  1.00  0.00    -0.381 C  
BRANCH   5   6
HETATM    6  C   UNL     1     -11.777   6.879  70.387  1.00  0.00    -0.377 C  
BRANCH   6   7
HETATM    7  C   UNL     1     -10.802   5.955  69.662  1.00  0.00    -0.444 C  
BRANCH   7   8
HETATM    8  C   UNL     1     -10.074   6.734  68.570  1.00  0.00    -0.166 C  
BRANCH   8   9
HETATM    9  C   UNL     1     -10.121   8.235  68.817  1.00  0.00    -0.212 C  
BRANCH   9  10
HETATM   10  C   UNL     1     -10.523   9.016  67.556  1.00  0.00    -0.338 C  
BRANCH  10  11
HETATM   11  C   UNL     1     -10.897  10.482  67.817  1.00  0.00    -0.347 C  
BRANCH  11  12
HETATM   12  C   UNL     1     -10.989  11.239  66.517  1.00  0.00    -0.245 C  
HETATM   13  O   UNL     1     -10.310  11.020  65.525  1.00  0.00    -0.255 OA 
BRANCH  12  14
HETATM   14  O   UNL     1     -12.065  12.073  66.552  1.00  0.00    -0.617 OA 
BRANCH  14  15
HETATM   15  C   UNL     1     -12.366  12.697  65.298  1.00  0.00    -0.466 C  
BRANCH  15  16
HETATM   16  C   UNL     1     -12.407  14.204  65.571  1.00  0.00    -0.458 C  
BRANCH  16  17
HETATM   17  N   UNL     1     -11.135  14.772  65.985  1.00  0.00    -0.327 N  
HETATM   18  C   UNL     1     -10.654  15.921  65.405  1.00  0.00    -0.419 C  
HETATM   19  H   UNL     1     -10.592  14.312  66.716  1.00  0.00     0.000 HD 
HETATM   20  O   UNL     1     -11.190  16.468  64.447  1.00  0.00    -0.919 OA 
BRANCH  18  21
HETATM   21  C   UNL     1      -9.347  16.449  65.958  1.00  0.00    -0.300 C  
BRANCH  21  22
HETATM   22  N   UNL     1      -9.618  17.651  66.774  1.00  0.00    -0.283 NA 
HETATM   23  C   UNL     1      -9.981  18.809  66.165  1.00  0.00    -0.345 A  
HETATM   24  C   UNL     1     -10.218  19.955  66.912  1.00  0.00    -0.600 A  
HETATM   25  C   UNL     1     -10.101  19.904  68.293  1.00  0.00    -0.571 A  
HETATM   26  C   UNL     1      -9.746  18.709  68.904  1.00  0.00    -0.363 A  
HETATM   27  C   UNL     1      -9.509  17.588  68.119  1.00  0.00    -0.291 A  
ENDBRANCH  21  22
ENDBRANCH  18  21
ENDBRANCH  16  17
ENDBRANCH  15  16
ENDBRANCH  14  15
ENDBRANCH  12  14
ENDBRANCH  11  12
ENDBRANCH  10  11
ENDBRANCH   9  10
ENDBRANCH   8   9
ENDBRANCH   7   8
ENDBRANCH   6   7
ENDBRANCH   5   6
ENDBRANCH   4   5
ENDBRANCH   3   4
ENDBRANCH   2   3
TORSDOF 16
ENDMDL
MODEL       74
REMARK 921   NORMALIZED FREE ENERGY PREDICTED BY IDOCK:   -4.46 KCAL/MOL
REMARK 922        TOTAL FREE ENERGY PREDICTED BY IDOCK:  -10.72 KCAL/MOL
REMARK 923 INTER-LIGAND FREE ENERGY PREDICTED BY IDOCK:   -9.04 KCAL/MOL
REMARK 924 INTRA-LIGAND FREE ENERGY PREDICTED BY IDOCK:   -1.67 KCAL/MOL
REMARK 927      BINDING AFFINITY PREDICTED BY RF-SCORE:    0.00 PKD
ROOT
HETATM    1  C   UNL     1      -9.505   5.311  68.914  1.00  0.00    -0.173 C  
HETATM    2  C   UNL     1      -9.688   6.402  69.955  1.00  0.00    -0.183 C  
ENDROOT
BRANCH   2   3
HETATM    3  C   UNL     1     -11.125   6.920  69.961  1.00  0.00    -0.344 C  
BRANCH   3   4
HETATM    4  C   UNL     1     -11.847   6.533  71.249  1.00  0.00    -0.385 C  
BRANCH   4   5
HETATM    5  C   UNL     1     -12.875   7.596  71.634  1.00  0.00    -0.378 C  
BRANCH   5   6
HETATM    6  C   UNL     1     -12.301   8.993  71.440  1.00  0.00    -0.380 C  
BRANCH   6   7
HETATM    7  C   UNL     1     -13.282  10.072  71.891  1.00  0.00    -0.557 C  
BRANCH   7   8
HETATM    8  C   UNL     1     -12.731  11.448  71.528  1.00  0.00    -0.462 C  
BRANCH   8   9
HETATM    9  C   UNL     1     -13.526  12.568  72.184  1.00  0.00    -0.523 C  
BRANCH   9  10
HETATM   10  C   UNL     1     -12.918  13.950  71.901  1.00  0.00    -0.440 C  
BRANCH  10  11
HETATM   11  C   UNL     1     -12.260  14.076  70.520  1.00  0.00    -0.435 C  
BRANCH  11  12
HETATM   12  C   UNL     1     -11.923  15.517  70.229  1.00  0.00    -0.374 C  
HETATM   13  O   UNL     1     -11.508  16.322  71.049  1.00  0.00    -0.407 OA 
BRANCH  12  14
HETATM   14  O   UNL     1     -11.971  15.732  68.885  1.00  0.00    -0.382 OA 
BRANCH  14  15
HETATM   15  C   UNL     1     -10.753  16.240  68.328  1.00  0.00    -0.322 C  
BRANCH  15  16
HETATM   16  C   UNL     1     -10.750  15.818  66.855  1.00  0.00    -0.299 C  
BRANCH  16  17
HETATM   17  N   UNL     1     -11.490  14.597  66.581  1.00  0.00    -0.358 N  
HETATM   18  C   UNL     1     -11.120  13.765  65.553  1.00  0.00    -0.298 C  
HETATM   19  H   UNL     1     -12.295  14.355  67.160  1.00  0.00     0.000 HD 
HETATM   20  O   UNL     1     -10.238  14.040  64.746  1.00  0.00    -0.416 OA 
BRANCH  18  21
HETATM   21  C   UNL     1     -11.931  12.494  65.400  1.00  0.00    -0.437 C  
BRANCH  21  22
HETATM   22  N   UNL     1     -11.261  11.403  66.138  1.00  0.00    -0.207 NA 
HETATM   23  C   UNL     1     -11.507  11.236  67.463  1.00  0.00    -0.246 A  
HETATM   24  C   UNL     1     -10.870  10.231  68.178  1.00  0.00    -0.312 A  
HETATM   25  C   UNL     1      -9.991   9.380  67.523  1.00  0.00    -0.250 A  
HETATM   26  C   UNL     1      -9.761   9.551  66.165  1.00  0.00    -0.324 A  
HETATM   27  C   UNL     1     -10.412  10.576  65.488  1.00  0.00    -0.150 A  
ENDBRANCH  21  22
ENDBRANCH  18  21
ENDBRANCH  16  17
ENDBRANCH  15  16
ENDBRANCH  14  15
ENDBRANCH  12  14
ENDBRANCH  11  12
ENDBRANCH  10  11
ENDBRANCH   9  10
ENDBRANCH   8   9
ENDBRANCH   7   8
ENDBRANCH   6   7
ENDBRANCH   5   6
ENDBRANCH   4   5
ENDBRANCH   3   4
ENDBRANCH   2   3
TORSDOF 16
ENDMDL
MODEL       75
REMARK 921   NORMALIZED FREE ENERGY PREDICTED BY IDOCK:   -4.42 KCAL/MOL
REMARK 922        TOTAL FREE ENERGY PREDICTED BY IDOCK:  -10.64 KCAL/MOL
REMARK 923 INTER-LIGAND FREE ENERGY PREDICTED BY IDOCK:   -8.50 KCAL/MOL
REMARK 924 INTRA-LIGAND FREE ENERGY PREDICTED BY IDOCK:   -2.14 KCAL/MOL
REMARK 927      BINDING AFFINITY PREDICTED BY RF-SCORE:    0.00 PKD
ROOT
HETATM    1  C   UNL     1     -10.621  18.559  67.341  1.00  0.00    -0.463 C  
HETATM    2  C   UNL     1     -10.477  17.048  67.412  1.00  0.00    -0.322 C  
ENDROOT
BRANCH   2   3
HETATM    3  C   UNL     1      -9.660  16.519  66.235  1.00  0.00    -0.333 C  
BRANCH   3   4
HETATM    4  C   UNL     1     -10.424  15.441  65.471  1.00  0.00    -0.402 C  
BRANCH   4   5
HETATM    5  C   UNL     1     -11.244  14.576  66.427  1.00  0.00    -0.341 C  
BRANCH   5   6
HETATM    6  C   UNL     1     -12.448  13.979  65.711  1.00  0.00    -0.523 C  
BRANCH   6   7
HETATM    7  C   UNL     1     -12.190  13.820  64.215  1.00  0.00    -0.444 C  
BRANCH   7   8
HETATM    8  C   UNL     1     -11.970  12.345  63.888  1.00  0.00    -0.572 C  
BRANCH   8   9
HETATM    9  C   UNL     1     -10.503  12.037  63.622  1.00  0.00    -0.494 C  
BRANCH   9  10
HETATM   10  C   UNL     1      -9.777  11.552  64.887  1.00  0.00    -0.264 C  
BRANCH  10  11
HETATM   11  C   UNL     1     -10.652  10.720  65.834  1.00  0.00    -0.216 C  
BRANCH  11  12
HETATM   12  C   UNL     1     -10.438  11.153  67.263  1.00  0.00    -0.226 C  
HETATM   13  O   UNL     1      -9.414  11.655  67.699  1.00  0.00    -0.172 OA 
BRANCH  12  14
HETATM   14  O   UNL     1     -11.616  11.075  67.943  1.00  0.00    -0.483 OA 
BRANCH  14  15
HETATM   15  C   UNL     1     -11.678  11.910  69.105  1.00  0.00    -0.319 C  
BRANCH  15  16
HETATM   16  C   UNL     1     -12.139  11.007  70.254  1.00  0.00    -0.362 C  
BRANCH  16  17
HETATM   17  N   UNL     1     -11.925   9.588  70.021  1.00  0.00    -0.455 N  
HETATM   18  C   UNL     1     -11.051   8.870  70.800  1.00  0.00    -0.261 C  
HETATM   19  H   UNL     1     -12.431   9.119  69.269  1.00  0.00     0.000 HD 
HETATM   20  O   UNL     1     -10.325   9.382  71.647  1.00  0.00    -0.309 OA 
BRANCH  18  21
HETATM   21  C   UNL     1     -10.954   7.388  70.501  1.00  0.00    -0.253 C  
BRANCH  21  22
HETATM   22  N   UNL     1     -10.491   7.207  69.109  1.00  0.00    -0.207 NA 
HETATM   23  C   UNL     1     -11.200   6.419  68.261  1.00  0.00    -0.176 A  
HETATM   24  C   UNL     1     -10.769   6.218  66.957  1.00  0.00    -0.435 A  
HETATM   25  C   UNL     1      -9.613   6.847  66.517  1.00  0.00    -0.197 A  
HETATM   26  C   UNL     1      -8.907   7.665  67.389  1.00  0.00    -0.124 A  
HETATM   27  C   UNL     1      -9.368   7.831  68.689  1.00  0.00    -0.148 A  
ENDBRANCH  21  22
ENDBRANCH  18  21
ENDBRANCH  16  17
ENDBRANCH  15  16
ENDBRANCH  14  15
ENDBRANCH  12  14
ENDBRANCH  11  12
ENDBRANCH  10  11
ENDBRANCH   9  10
ENDBRANCH   8   9
ENDBRANCH   7   8
ENDBRANCH   6   7
ENDBRANCH   5   6
ENDBRANCH   4   5
ENDBRANCH   3   4
ENDBRANCH   2   3
TORSDOF 16
ENDMDL
MODEL       76
REMARK 921   NORMALIZED FREE ENERGY PREDICTED BY IDOCK:   -4.42 KCAL/MOL
REMARK 922        TOTAL FREE ENERGY PREDICTED BY IDOCK:  -10.64 KCAL/MOL
REMARK 923 INTER-LIGAND FREE ENERGY PREDICTED BY IDOCK:   -9.36 KCAL/MOL
REMARK 924 INTRA-LIGAND FREE ENERGY PREDICTED BY IDOCK:   -1.27 KCAL/MOL
REMARK 927      BINDING AFFINITY PREDICTED BY RF-SCORE:    0.00 PKD
ROOT
HETATM    1  C   UNL     1     -11.068   5.974  69.529  1.00  0.00    -0.468 C  
HETATM    2  C   UNL     1     -11.198   6.302  71.007  1.00  0.00    -0.372 C  
ENDROOT
BRANCH   2   3
HETATM    3  C   UNL     1     -12.414   7.189  71.267  1.00  0.00    -0.425 C  
BRANCH   3   4
HETATM    4  C   UNL     1     -12.080   8.662  71.053  1.00  0.00    -0.247 C  
BRANCH   4   5
HETATM    5  C   UNL     1     -10.692   8.989  71.602  1.00  0.00    -0.441 C  
BRANCH   5   6
HETATM    6  C   UNL     1      -9.822   9.617  70.520  1.00  0.00    -0.294 C  
BRANCH   6   7
HETATM    7  C   UNL     1     -10.531   9.633  69.168  1.00  0.00    -0.230 C  
BRANCH   7   8
HETATM    8  C   UNL     1      -9.644   8.970  68.118  1.00  0.00    -0.164 C  
BRANCH   8   9
HETATM    9  C   UNL     1     -10.391   8.733  66.813  1.00  0.00    -0.328 C  
BRANCH   9  10
HETATM   10  C   UNL     1      -9.620   9.274  65.599  1.00  0.00    -0.324 C  
BRANCH  10  11
HETATM   11  C   UNL     1     -10.187  10.580  65.025  1.00  0.00    -0.365 C  
BRANCH  11  12
HETATM   12  C   UNL     1      -9.839  10.706  63.563  1.00  0.00    -0.326 C  
HETATM   13  O   UNL     1      -9.311   9.835  62.889  1.00  0.00    -0.273 OA 
BRANCH  12  14
HETATM   14  O   UNL     1     -10.369  11.858  63.068  1.00  0.00    -0.347 OA 
BRANCH  14  15
HETATM   15  C   UNL     1     -11.765  12.028  63.345  1.00  0.00    -0.426 C  
BRANCH  15  16
HETATM   16  C   UNL     1     -11.996  13.539  63.455  1.00  0.00    -0.332 C  
BRANCH  16  17
HETATM   17  N   UNL     1     -11.190  14.194  64.473  1.00  0.00    -0.520 N  
HETATM   18  C   UNL     1     -11.255  15.554  64.654  1.00  0.00    -0.371 C  
HETATM   19  H   UNL     1     -10.568  13.636  65.059  1.00  0.00     0.000 HD 
HETATM   20  O   UNL     1     -11.889  16.303  63.919  1.00  0.00    -0.994 OA 
BRANCH  18  21
HETATM   21  C   UNL     1     -10.413  16.116  65.781  1.00  0.00    -0.367 C  
BRANCH  21  22
HETATM   22  N   UNL     1     -10.669  15.335  67.010  1.00  0.00    -0.308 NA 
HETATM   23  C   UNL     1     -10.249  14.047  67.088  1.00  0.00    -0.258 A  
HETATM   24  C   UNL     1     -10.499  13.290  68.225  1.00  0.00    -0.257 A  
HETATM   25  C   UNL     1     -11.168  13.868  69.295  1.00  0.00    -0.296 A  
HETATM   26  C   UNL     1     -11.576  15.192  69.208  1.00  0.00    -0.344 A  
HETATM   27  C   UNL     1     -11.314  15.911  68.049  1.00  0.00    -0.284 A  
ENDBRANCH  21  22
ENDBRANCH  18  21
ENDBRANCH  16  17
ENDBRANCH  15  16
ENDBRANCH  14  15
ENDBRANCH  12  14
ENDBRANCH  11  12
ENDBRANCH  10  11
ENDBRANCH   9  10
ENDBRANCH   8   9
ENDBRANCH   7   8
ENDBRANCH   6   7
ENDBRANCH   5   6
ENDBRANCH   4   5
ENDBRANCH   3   4
ENDBRANCH   2   3
TORSDOF 16
ENDMDL
MODEL       77
REMARK 921   NORMALIZED FREE ENERGY PREDICTED BY IDOCK:   -4.41 KCAL/MOL
REMARK 922        TOTAL FREE ENERGY PREDICTED BY IDOCK:  -10.62 KCAL/MOL
REMARK 923 INTER-LIGAND FREE ENERGY PREDICTED BY IDOCK:   -9.09 KCAL/MOL
REMARK 924 INTRA-LIGAND FREE ENERGY PREDICTED BY IDOCK:   -1.53 KCAL/MOL
REMARK 927      BINDING AFFINITY PREDICTED BY RF-SCORE:    0.00 PKD
ROOT
HETATM    1  C   UNL     1      -9.403   2.595  68.717  1.00  0.00    -0.230 C  
HETATM    2  C   UNL     1      -9.612   3.091  70.138  1.00  0.00    -0.154 C  
ENDROOT
BRANCH   2   3
HETATM    3  C   UNL     1      -9.706   4.615  70.179  1.00  0.00    -0.285 C  
BRANCH   3   4
HETATM    4  C   UNL     1      -9.072   5.174  71.449  1.00  0.00    -0.171 C  
BRANCH   4   5
HETATM    5  C   UNL     1      -9.691   4.535  72.692  1.00  0.00    -0.189 C  
BRANCH   5   6
HETATM    6  C   UNL     1     -10.926   5.308  73.134  1.00  0.00    -0.362 C  
BRANCH   6   7
HETATM    7  C   UNL     1     -10.554   6.636  73.788  1.00  0.00    -0.302 C  
BRANCH   7   8
HETATM    8  C   UNL     1     -11.192   7.785  73.011  1.00  0.00    -0.380 C  
BRANCH   8   9
HETATM    9  C   UNL     1     -12.062   7.283  71.867  1.00  0.00    -0.349 C  
BRANCH   9  10
HETATM   10  C   UNL     1     -13.124   8.313  71.454  1.00  0.00    -0.240 C  
BRANCH  10  11
HETATM   11  C   UNL     1     -13.102   9.605  72.283  1.00  0.00    -0.468 C  
BRANCH  11  12
HETATM   12  C   UNL     1     -12.730  10.780  71.414  1.00  0.00    -0.439 C  
HETATM   13  O   UNL     1     -13.029  11.943  71.639  1.00  0.00    -0.412 OA 
BRANCH  12  14
HETATM   14  O   UNL     1     -11.857  10.374  70.451  1.00  0.00    -0.278 OA 
BRANCH  14  15
HETATM   15  C   UNL     1     -12.075  10.979  69.170  1.00  0.00    -0.263 C  
BRANCH  15  16
HETATM   16  C   UNL     1     -10.805  11.777  68.855  1.00  0.00    -0.223 C  
BRANCH  16  17
HETATM   17  N   UNL     1     -10.838  13.156  69.312  1.00  0.00    -0.440 N  
HETATM   18  C   UNL     1     -11.536  14.112  68.616  1.00  0.00    -0.317 C  
HETATM   19  H   UNL     1     -10.336  13.418  70.160  1.00  0.00     0.000 HD 
HETATM   20  O   UNL     1     -12.070  13.902  67.531  1.00  0.00    -0.389 OA 
BRANCH  18  21
HETATM   21  C   UNL     1     -11.545  15.502  69.219  1.00  0.00    -0.357 C  
BRANCH  21  22
HETATM   22  N   UNL     1     -12.184  15.446  70.551  1.00  0.00    -0.365 NA 
HETATM   23  C   UNL     1     -11.421  15.557  71.668  1.00  0.00    -0.423 A  
HETATM   24  C   UNL     1     -11.999  15.484  72.928  1.00  0.00    -0.575 A  
HETATM   25  C   UNL     1     -13.372  15.315  73.039  1.00  0.00    -0.610 A  
HETATM   26  C   UNL     1     -14.142  15.220  71.888  1.00  0.00    -0.656 A  
HETATM   27  C   UNL     1     -13.523  15.289  70.647  1.00  0.00    -0.208 A  
ENDBRANCH  21  22
ENDBRANCH  18  21
ENDBRANCH  16  17
ENDBRANCH  15  16
ENDBRANCH  14  15
ENDBRANCH  12  14
ENDBRANCH  11  12
ENDBRANCH  10  11
ENDBRANCH   9  10
ENDBRANCH   8   9
ENDBRANCH   7   8
ENDBRANCH   6   7
ENDBRANCH   5   6
ENDBRANCH   4   5
ENDBRANCH   3   4
ENDBRANCH   2   3
TORSDOF 16
ENDMDL
MODEL       78
REMARK 921   NORMALIZED FREE ENERGY PREDICTED BY IDOCK:   -4.41 KCAL/MOL
REMARK 922        TOTAL FREE ENERGY PREDICTED BY IDOCK:  -10.61 KCAL/MOL
REMARK 923 INTER-LIGAND FREE ENERGY PREDICTED BY IDOCK:   -9.03 KCAL/MOL
REMARK 924 INTRA-LIGAND FREE ENERGY PREDICTED BY IDOCK:   -1.58 KCAL/MOL
REMARK 927      BINDING AFFINITY PREDICTED BY RF-SCORE:    0.00 PKD
ROOT
HETATM    1  C   UNL     1     -10.477  17.165  68.341  1.00  0.00    -0.376 C  
HETATM    2  C   UNL     1     -10.272  17.964  67.065  1.00  0.00    -0.359 C  
ENDROOT
BRANCH   2   3
HETATM    3  C   UNL     1     -10.785  19.393  67.224  1.00  0.00    -0.603 C  
BRANCH   3   4
HETATM    4  C   UNL     1      -9.644  20.359  67.533  1.00  0.00    -0.560 C  
BRANCH   4   5
HETATM    5  C   UNL     1      -8.402  20.011  66.714  1.00  0.00    -0.372 C  
BRANCH   5   6
HETATM    6  C   UNL     1      -7.166  19.974  67.604  1.00  0.00    -0.316 C  
BRANCH   6   7
HETATM    7  C   UNL     1      -7.471  19.350  68.963  1.00  0.00    -0.385 C  
BRANCH   7   8
HETATM    8  C   UNL     1      -6.862  17.952  69.033  1.00  0.00    -0.242 C  
BRANCH   8   9
HETATM    9  C   UNL     1      -5.713  17.785  68.049  1.00  0.00    -0.152 C  
BRANCH   9  10
HETATM   10  C   UNL     1      -5.605  16.344  67.526  1.00  0.00    -0.174 C  
BRANCH  10  11
HETATM   11  C   UNL     1      -6.954  15.626  67.383  1.00  0.00    -0.234 C  
BRANCH  11  12
HETATM   12  C   UNL     1      -6.898  14.268  68.037  1.00  0.00    -0.144 C  
HETATM   13  O   UNL     1      -6.559  14.057  69.191  1.00  0.00    -0.102 OA 
BRANCH  12  14
HETATM   14  O   UNL     1      -7.458  13.342  67.210  1.00  0.00    -0.145 OA 
BRANCH  14  15
HETATM   15  C   UNL     1      -8.131  12.277  67.893  1.00  0.00    -0.155 C  
BRANCH  15  16
HETATM   16  C   UNL     1      -9.627  12.601  67.817  1.00  0.00    -0.197 C  
BRANCH  16  17
HETATM   17  N   UNL     1     -10.339  12.428  69.072  1.00  0.00    -0.427 N  
HETATM   18  C   UNL     1     -11.587  11.853  69.099  1.00  0.00    -0.312 C  
HETATM   19  H   UNL     1      -9.908  12.736  69.943  1.00  0.00     0.000 HD 
HETATM   20  O   UNL     1     -12.217  11.560  68.088  1.00  0.00    -0.576 OA 
BRANCH  18  21
HETATM   21  C   UNL     1     -12.207  11.672  70.470  1.00  0.00    -0.361 C  
BRANCH  21  22
HETATM   22  N   UNL     1     -12.655  12.988  70.973  1.00  0.00    -0.349 NA 
HETATM   23  C   UNL     1     -12.421  14.105  70.238  1.00  0.00    -0.353 A  
HETATM   24  C   UNL     1     -12.814  15.352  70.705  1.00  0.00    -0.484 A  
HETATM   25  C   UNL     1     -13.467  15.449  71.925  1.00  0.00    -0.571 A  
HETATM   26  C   UNL     1     -13.715  14.297  72.659  1.00  0.00    -0.555 A  
HETATM   27  C   UNL     1     -13.297  13.069  72.160  1.00  0.00    -0.524 A  
ENDBRANCH  21  22
ENDBRANCH  18  21
ENDBRANCH  16  17
ENDBRANCH  15  16
ENDBRANCH  14  15
ENDBRANCH  12  14
ENDBRANCH  11  12
ENDBRANCH  10  11
ENDBRANCH   9  10
ENDBRANCH   8   9
ENDBRANCH   7   8
ENDBRANCH   6   7
ENDBRANCH   5   6
ENDBRANCH   4   5
ENDBRANCH   3   4
ENDBRANCH   2   3
TORSDOF 16
ENDMDL
MODEL       79
REMARK 921   NORMALIZED FREE ENERGY PREDICTED BY IDOCK:   -4.41 KCAL/MOL
REMARK 922        TOTAL FREE ENERGY PREDICTED BY IDOCK:  -10.61 KCAL/MOL
REMARK 923 INTER-LIGAND FREE ENERGY PREDICTED BY IDOCK:   -8.45 KCAL/MOL
REMARK 924 INTRA-LIGAND FREE ENERGY PREDICTED BY IDOCK:   -2.16 KCAL/MOL
REMARK 927      BINDING AFFINITY PREDICTED BY RF-SCORE:    0.00 PKD
ROOT
HETATM    1  C   UNL     1     -11.072   6.460  67.429  1.00  0.00    -0.412 C  
HETATM    2  C   UNL     1      -9.961   5.453  67.672  1.00  0.00    -0.195 C  
ENDROOT
BRANCH   2   3
HETATM    3  C   UNL     1      -9.986   4.945  69.112  1.00  0.00    -0.252 C  
BRANCH   3   4
HETATM    4  C   UNL     1     -10.143   6.095  70.103  1.00  0.00    -0.233 C  
BRANCH   4   5
HETATM    5  C   UNL     1     -10.578   5.576  71.472  1.00  0.00    -0.302 C  
BRANCH   5   6
HETATM    6  C   UNL     1     -11.432   6.613  72.192  1.00  0.00    -0.323 C  
BRANCH   6   7
HETATM    7  C   UNL     1     -12.218   7.475  71.208  1.00  0.00    -0.357 C  
BRANCH   7   8
HETATM    8  C   UNL     1     -12.252   8.917  71.707  1.00  0.00    -0.429 C  
BRANCH   8   9
HETATM    9  C   UNL     1     -10.998   9.684  71.311  1.00  0.00    -0.399 C  
BRANCH   9  10
HETATM   10  C   UNL     1     -11.148  10.371  69.945  1.00  0.00    -0.367 C  
BRANCH  10  11
HETATM   11  C   UNL     1     -10.318   9.728  68.825  1.00  0.00    -0.227 C  
BRANCH  11  12
HETATM   12  C   UNL     1     -10.666  10.347  67.494  1.00  0.00    -0.287 C  
HETATM   13  O   UNL     1     -11.679  10.986  67.258  1.00  0.00    -0.504 OA 
BRANCH  12  14
HETATM   14  O   UNL     1      -9.598  10.246  66.654  1.00  0.00    -0.165 OA 
BRANCH  14  15
HETATM   15  C   UNL     1      -9.850   9.472  65.475  1.00  0.00    -0.234 C  
BRANCH  15  16
HETATM   16  C   UNL     1      -9.726  10.442  64.295  1.00  0.00    -0.326 C  
BRANCH  16  17
HETATM   17  N   UNL     1      -9.629  11.841  64.678  1.00  0.00    -0.418 N  
HETATM   18  C   UNL     1     -10.592  12.744  64.296  1.00  0.00    -0.400 C  
HETATM   19  H   UNL     1      -8.837  12.156  65.238  1.00  0.00     0.000 HD 
HETATM   20  O   UNL     1     -11.511  12.468  63.531  1.00  0.00    -0.452 OA 
BRANCH  18  21
HETATM   21  C   UNL     1     -10.414  14.160  64.803  1.00  0.00    -0.408 C  
BRANCH  21  22
HETATM   22  N   UNL     1     -10.596  14.174  66.270  1.00  0.00    -0.281 NA 
HETATM   23  C   UNL     1     -11.837  14.343  66.792  1.00  0.00    -0.410 A  
HETATM   24  C   UNL     1     -12.025  14.382  68.167  1.00  0.00    -0.320 A  
HETATM   25  C   UNL     1     -10.933  14.226  69.009  1.00  0.00    -0.282 A  
HETATM   26  C   UNL     1      -9.672  14.037  68.461  1.00  0.00    -0.215 A  
HETATM   27  C   UNL     1      -9.526  14.013  67.080  1.00  0.00    -0.250 A  
ENDBRANCH  21  22
ENDBRANCH  18  21
ENDBRANCH  16  17
ENDBRANCH  15  16
ENDBRANCH  14  15
ENDBRANCH  12  14
ENDBRANCH  11  12
ENDBRANCH  10  11
ENDBRANCH   9  10
ENDBRANCH   8   9
ENDBRANCH   7   8
ENDBRANCH   6   7
ENDBRANCH   5   6
ENDBRANCH   4   5
ENDBRANCH   3   4
ENDBRANCH   2   3
TORSDOF 16
ENDMDL
MODEL       80
REMARK 921   NORMALIZED FREE ENERGY PREDICTED BY IDOCK:   -4.41 KCAL/MOL
REMARK 922        TOTAL FREE ENERGY PREDICTED BY IDOCK:  -10.61 KCAL/MOL
REMARK 923 INTER-LIGAND FREE ENERGY PREDICTED BY IDOCK:   -8.52 KCAL/MOL
REMARK 924 INTRA-LIGAND FREE ENERGY PREDICTED BY IDOCK:   -2.09 KCAL/MOL
REMARK 927      BINDING AFFINITY PREDICTED BY RF-SCORE:    0.00 PKD
ROOT
HETATM    1  C   UNL     1      -8.614   5.952  72.637  1.00  0.00    -0.119 C  
HETATM    2  C   UNL     1      -9.747   6.524  73.472  1.00  0.00    -0.197 C  
ENDROOT
BRANCH   2   3
HETATM    3  C   UNL     1     -10.147   7.912  72.977  1.00  0.00    -0.384 C  
BRANCH   3   4
HETATM    4  C   UNL     1     -11.603   7.937  72.518  1.00  0.00    -0.443 C  
BRANCH   4   5
HETATM    5  C   UNL     1     -12.003   6.594  71.909  1.00  0.00    -0.386 C  
BRANCH   5   6
HETATM    6  C   UNL     1     -12.119   6.705  70.394  1.00  0.00    -0.251 C  
BRANCH   6   7
HETATM    7  C   UNL     1     -10.833   6.267  69.698  1.00  0.00    -0.403 C  
BRANCH   7   8
HETATM    8  C   UNL     1     -10.290   7.418  68.855  1.00  0.00    -0.214 C  
BRANCH   8   9
HETATM    9  C   UNL     1      -9.195   8.185  69.583  1.00  0.00    -0.155 C  
BRANCH   9  10
HETATM   10  C   UNL     1      -9.539   9.675  69.736  1.00  0.00    -0.242 C  
BRANCH  10  11
HETATM   11  C   UNL     1     -10.992  10.024  69.384  1.00  0.00    -0.280 C  
BRANCH  11  12
HETATM   12  C   UNL     1     -11.056  10.713  68.044  1.00  0.00    -0.301 C  
HETATM   13  O   UNL     1     -10.656  10.241  66.991  1.00  0.00    -0.248 OA 
BRANCH  12  14
HETATM   14  O   UNL     1     -11.793  11.853  68.154  1.00  0.00    -0.424 OA 
BRANCH  14  15
HETATM   15  C   UNL     1     -11.550  12.594  69.356  1.00  0.00    -0.306 C  
BRANCH  15  16
HETATM   16  C   UNL     1     -12.130  13.993  69.118  1.00  0.00    -0.337 C  
BRANCH  16  17
HETATM   17  N   UNL     1     -12.084  14.430  67.732  1.00  0.00    -0.596 N  
HETATM   18  C   UNL     1     -10.977  15.072  67.233  1.00  0.00    -0.326 C  
HETATM   19  H   UNL     1     -12.884  14.259  67.123  1.00  0.00     0.000 HD 
HETATM   20  O   UNL     1     -10.024  15.414  67.927  1.00  0.00    -0.220 OA 
BRANCH  18  21
HETATM   21  C   UNL     1     -11.022  15.430  65.762  1.00  0.00    -0.309 C  
BRANCH  21  22
HETATM   22  N   UNL     1     -11.091  14.186  64.965  1.00  0.00    -0.350 NA 
HETATM   23  C   UNL     1     -10.063  13.301  65.009  1.00  0.00    -0.227 A  
HETATM   24  C   UNL     1     -10.099  12.139  64.250  1.00  0.00    -0.317 A  
HETATM   25  C   UNL     1     -11.207  11.877  63.458  1.00  0.00    -0.501 A  
HETATM   26  C   UNL     1     -12.259  12.782  63.435  1.00  0.00    -0.594 A  
HETATM   27  C   UNL     1     -12.179  13.938  64.202  1.00  0.00    -0.393 A  
ENDBRANCH  21  22
ENDBRANCH  18  21
ENDBRANCH  16  17
ENDBRANCH  15  16
ENDBRANCH  14  15
ENDBRANCH  12  14
ENDBRANCH  11  12
ENDBRANCH  10  11
ENDBRANCH   9  10
ENDBRANCH   8   9
ENDBRANCH   7   8
ENDBRANCH   6   7
ENDBRANCH   5   6
ENDBRANCH   4   5
ENDBRANCH   3   4
ENDBRANCH   2   3
TORSDOF 16
ENDMDL
MODEL       81
REMARK 921   NORMALIZED FREE ENERGY PREDICTED BY IDOCK:   -4.40 KCAL/MOL
REMARK 922        TOTAL FREE ENERGY PREDICTED BY IDOCK:  -10.59 KCAL/MOL
REMARK 923 INTER-LIGAND FREE ENERGY PREDICTED BY IDOCK:   -9.35 KCAL/MOL
REMARK 924 INTRA-LIGAND FREE ENERGY PREDICTED BY IDOCK:   -1.24 KCAL/MOL
REMARK 927      BINDING AFFINITY PREDICTED BY RF-SCORE:    0.00 PKD
ROOT
HETATM    1  C   UNL     1      -9.882   6.367  71.024  1.00  0.00    -0.200 C  
HETATM    2  C   UNL     1      -8.945   7.544  71.231  1.00  0.00    -0.142 C  
ENDROOT
BRANCH   2   3
HETATM    3  C   UNL     1      -9.680   8.728  71.855  1.00  0.00    -0.386 C  
BRANCH   3   4
HETATM    4  C   UNL     1     -10.635   9.375  70.856  1.00  0.00    -0.390 C  
BRANCH   4   5
HETATM    5  C   UNL     1      -9.872   9.916  69.647  1.00  0.00    -0.255 C  
BRANCH   5   6
HETATM    6  C   UNL     1     -10.789  10.021  68.436  1.00  0.00    -0.277 C  
BRANCH   6   7
HETATM    7  C   UNL     1     -10.169   9.367  67.204  1.00  0.00    -0.319 C  
BRANCH   7   8
HETATM    8  C   UNL     1      -9.639  10.447  66.264  1.00  0.00    -0.230 C  
BRANCH   8   9
HETATM    9  C   UNL     1     -10.192  10.295  64.855  1.00  0.00    -0.261 C  
BRANCH   9  10
HETATM   10  C   UNL     1     -10.157  11.618  64.074  1.00  0.00    -0.362 C  
BRANCH  10  11
HETATM   11  C   UNL     1     -11.508  12.029  63.473  1.00  0.00    -0.536 C  
BRANCH  11  12
HETATM   12  C   UNL     1     -11.892  13.410  63.941  1.00  0.00    -0.439 C  
HETATM   13  O   UNL     1     -12.637  14.173  63.345  1.00  0.00    -0.818 OA 
BRANCH  12  14
HETATM   14  O   UNL     1     -11.438  13.602  65.210  1.00  0.00    -0.301 OA 
BRANCH  14  15
HETATM   15  C   UNL     1     -12.450  13.489  66.219  1.00  0.00    -0.326 C  
BRANCH  15  16
HETATM   16  C   UNL     1     -11.708  13.321  67.549  1.00  0.00    -0.366 C  
BRANCH  16  17
HETATM   17  N   UNL     1     -10.636  14.280  67.760  1.00  0.00    -0.251 N  
HETATM   18  C   UNL     1     -10.857  15.440  68.463  1.00  0.00    -0.264 C  
HETATM   19  H   UNL     1      -9.708  14.090  67.382  1.00  0.00     0.000 HD 
HETATM   20  O   UNL     1     -11.966  15.793  68.851  1.00  0.00    -0.382 OA 
BRANCH  18  21
HETATM   21  C   UNL     1      -9.652  16.334  68.668  1.00  0.00    -0.237 C  
BRANCH  21  22
HETATM   22  N   UNL     1      -9.897  17.633  68.005  1.00  0.00    -0.295 NA 
HETATM   23  C   UNL     1     -10.144  17.671  66.671  1.00  0.00    -0.335 A  
HETATM   24  C   UNL     1     -10.354  18.882  66.026  1.00  0.00    -0.485 A  
HETATM   25  C   UNL     1     -10.329  20.059  66.761  1.00  0.00    -0.564 A  
HETATM   26  C   UNL     1     -10.093  20.004  68.128  1.00  0.00    -0.547 A  
HETATM   27  C   UNL     1      -9.878  18.772  68.733  1.00  0.00    -0.384 A  
ENDBRANCH  21  22
ENDBRANCH  18  21
ENDBRANCH  16  17
ENDBRANCH  15  16
ENDBRANCH  14  15
ENDBRANCH  12  14
ENDBRANCH  11  12
ENDBRANCH  10  11
ENDBRANCH   9  10
ENDBRANCH   8   9
ENDBRANCH   7   8
ENDBRANCH   6   7
ENDBRANCH   5   6
ENDBRANCH   4   5
ENDBRANCH   3   4
ENDBRANCH   2   3
TORSDOF 16
ENDMDL
MODEL       82
REMARK 921   NORMALIZED FREE ENERGY PREDICTED BY IDOCK:   -4.40 KCAL/MOL
REMARK 922        TOTAL FREE ENERGY PREDICTED BY IDOCK:  -10.59 KCAL/MOL
REMARK 923 INTER-LIGAND FREE ENERGY PREDICTED BY IDOCK:   -8.60 KCAL/MOL
REMARK 924 INTRA-LIGAND FREE ENERGY PREDICTED BY IDOCK:   -1.99 KCAL/MOL
REMARK 927      BINDING AFFINITY PREDICTED BY RF-SCORE:    0.00 PKD
ROOT
HETATM    1  C   UNL     1      -9.762   4.268  66.890  1.00  0.00    -0.239 C  
HETATM    2  C   UNL     1      -9.943   5.733  66.530  1.00  0.00    -0.202 C  
ENDROOT
BRANCH   2   3
HETATM    3  C   UNL     1     -11.009   6.385  67.407  1.00  0.00    -0.463 C  
BRANCH   3   4
HETATM    4  C   UNL     1     -10.612   7.807  67.794  1.00  0.00    -0.254 C  
BRANCH   4   5
HETATM    5  C   UNL     1      -9.095   7.930  67.928  1.00  0.00    -0.133 C  
BRANCH   5   6
HETATM    6  C   UNL     1      -8.710   8.280  69.359  1.00  0.00    -0.142 C  
BRANCH   6   7
HETATM    7  C   UNL     1      -8.822   7.071  70.284  1.00  0.00    -0.148 C  
BRANCH   7   8
HETATM    8  C   UNL     1      -9.577   7.465  71.551  1.00  0.00    -0.163 C  
BRANCH   8   9
HETATM    9  C   UNL     1      -9.863   8.959  71.600  1.00  0.00    -0.387 C  
BRANCH   9  10
HETATM   10  C   UNL     1     -11.337   9.255  71.915  1.00  0.00    -0.359 C  
BRANCH  10  11
HETATM   11  C   UNL     1     -12.115   9.881  70.749  1.00  0.00    -0.396 C  
BRANCH  11  12
HETATM   12  C   UNL     1     -12.581  11.268  71.114  1.00  0.00    -0.397 C  
HETATM   13  O   UNL     1     -13.180  11.562  72.137  1.00  0.00    -0.505 OA 
BRANCH  12  14
HETATM   14  O   UNL     1     -12.071  12.167  70.226  1.00  0.00    -0.339 OA 
BRANCH  14  15
HETATM   15  C   UNL     1     -12.240  13.535  70.615  1.00  0.00    -0.358 C  
BRANCH  15  16
HETATM   16  C   UNL     1     -11.872  14.376  69.387  1.00  0.00    -0.325 C  
BRANCH  16  17
HETATM   17  N   UNL     1     -12.405  13.867  68.134  1.00  0.00    -0.456 N  
HETATM   18  C   UNL     1     -11.738  14.072  66.951  1.00  0.00    -0.410 C  
HETATM   19  H   UNL     1     -13.285  13.352  68.133  1.00  0.00     0.000 HD 
HETATM   20  O   UNL     1     -10.737  14.775  66.854  1.00  0.00    -0.296 OA 
BRANCH  18  21
HETATM   21  C   UNL     1     -12.359  13.447  65.719  1.00  0.00    -0.460 C  
BRANCH  21  22
HETATM   22  N   UNL     1     -11.438  12.425  65.179  1.00  0.00    -0.323 NA 
HETATM   23  C   UNL     1     -11.140  12.420  63.855  1.00  0.00    -0.415 A  
HETATM   24  C   UNL     1     -10.295  11.455  63.325  1.00  0.00    -0.422 A  
HETATM   25  C   UNL     1      -9.737  10.502  64.165  1.00  0.00    -0.388 A  
HETATM   26  C   UNL     1     -10.036  10.529  65.521  1.00  0.00    -0.342 A  
HETATM   27  C   UNL     1     -10.894  11.507  66.009  1.00  0.00    -0.276 A  
ENDBRANCH  21  22
ENDBRANCH  18  21
ENDBRANCH  16  17
ENDBRANCH  15  16
ENDBRANCH  14  15
ENDBRANCH  12  14
ENDBRANCH  11  12
ENDBRANCH  10  11
ENDBRANCH   9  10
ENDBRANCH   8   9
ENDBRANCH   7   8
ENDBRANCH   6   7
ENDBRANCH   5   6
ENDBRANCH   4   5
ENDBRANCH   3   4
ENDBRANCH   2   3
TORSDOF 16
ENDMDL
MODEL       83
REMARK 921   NORMALIZED FREE ENERGY PREDICTED BY IDOCK:   -4.37 KCAL/MOL
REMARK 922        TOTAL FREE ENERGY PREDICTED BY IDOCK:  -10.54 KCAL/MOL
REMARK 923 INTER-LIGAND FREE ENERGY PREDICTED BY IDOCK:   -9.56 KCAL/MOL
REMARK 924 INTRA-LIGAND FREE ENERGY PREDICTED BY IDOCK:   -0.98 KCAL/MOL
REMARK 927      BINDING AFFINITY PREDICTED BY RF-SCORE:    0.00 PKD
ROOT
HETATM    1  C   UNL     1     -13.064  14.120  71.343  1.00  0.00    -0.428 C  
HETATM    2  C   UNL     1     -12.439  12.790  70.961  1.00  0.00    -0.369 C  
ENDROOT
BRANCH   2   3
HETATM    3  C   UNL     1     -13.068  11.642  71.747  1.00  0.00    -0.487 C  
BRANCH   3   4
HETATM    4  C   UNL     1     -12.945  10.321  70.992  1.00  0.00    -0.488 C  
BRANCH   4   5
HETATM    5  C   UNL     1     -11.703   9.552  71.441  1.00  0.00    -0.465 C  
BRANCH   5   6
HETATM    6  C   UNL     1     -10.539   9.813  70.495  1.00  0.00    -0.376 C  
BRANCH   6   7
HETATM    7  C   UNL     1     -10.492   8.787  69.365  1.00  0.00    -0.228 C  
BRANCH   7   8
HETATM    8  C   UNL     1     -10.475   9.508  68.020  1.00  0.00    -0.279 C  
BRANCH   8   9
HETATM    9  C   UNL     1     -10.581  11.018  68.184  1.00  0.00    -0.226 C  
BRANCH   9  10
HETATM   10  C   UNL     1     -11.240  11.686  66.968  1.00  0.00    -0.376 C  
BRANCH  10  11
HETATM   11  C   UNL     1     -12.035  12.956  67.303  1.00  0.00    -0.371 C  
BRANCH  11  12
HETATM   12  C   UNL     1     -12.146  13.842  66.087  1.00  0.00    -0.441 C  
HETATM   13  O   UNL     1     -12.924  13.671  65.161  1.00  0.00    -0.734 OA 
BRANCH  12  14
HETATM   14  O   UNL     1     -11.386  14.957  66.267  1.00  0.00    -0.343 OA 
BRANCH  14  15
HETATM   15  C   UNL     1     -10.722  15.412  65.082  1.00  0.00    -0.440 C  
BRANCH  15  16
HETATM   16  C   UNL     1     -10.356  16.879  65.335  1.00  0.00    -0.104 C  
BRANCH  16  17
HETATM   17  N   UNL     1      -9.521  17.093  66.506  1.00  0.00    -0.262 N  
HETATM   18  C   UNL     1      -9.806  18.096  67.399  1.00  0.00    -0.313 C  
HETATM   19  H   UNL     1      -8.714  16.490  66.666  1.00  0.00     0.000 HD 
HETATM   20  O   UNL     1     -10.688  18.931  67.219  1.00  0.00    -0.445 OA 
BRANCH  18  21
HETATM   21  C   UNL     1      -8.900  18.186  68.610  1.00  0.00    -0.262 C  
BRANCH  21  22
HETATM   22  N   UNL     1      -7.875  19.224  68.370  1.00  0.00    -0.328 NA 
HETATM   23  C   UNL     1      -6.908  19.442  69.297  1.00  0.00    -0.332 A  
HETATM   24  C   UNL     1      -5.950  20.427  69.100  1.00  0.00    -0.381 A  
HETATM   25  C   UNL     1      -5.974  21.177  67.933  1.00  0.00    -0.406 A  
HETATM   26  C   UNL     1      -6.958  20.932  66.985  1.00  0.00    -0.393 A  
HETATM   27  C   UNL     1      -7.904  19.943  67.226  1.00  0.00    -0.284 A  
ENDBRANCH  21  22
ENDBRANCH  18  21
ENDBRANCH  16  17
ENDBRANCH  15  16
ENDBRANCH  14  15
ENDBRANCH  12  14
ENDBRANCH  11  12
ENDBRANCH  10  11
ENDBRANCH   9  10
ENDBRANCH   8   9
ENDBRANCH   7   8
ENDBRANCH   6   7
ENDBRANCH   5   6
ENDBRANCH   4   5
ENDBRANCH   3   4
ENDBRANCH   2   3
TORSDOF 16
ENDMDL
MODEL       84
REMARK 921   NORMALIZED FREE ENERGY PREDICTED BY IDOCK:   -4.34 KCAL/MOL
REMARK 922        TOTAL FREE ENERGY PREDICTED BY IDOCK:  -10.49 KCAL/MOL
REMARK 923 INTER-LIGAND FREE ENERGY PREDICTED BY IDOCK:   -9.87 KCAL/MOL
REMARK 924 INTRA-LIGAND FREE ENERGY PREDICTED BY IDOCK:   -0.61 KCAL/MOL
REMARK 927      BINDING AFFINITY PREDICTED BY RF-SCORE:    0.00 PKD
ROOT
HETATM    1  C   UNL     1      -9.882  11.412  63.013  1.00  0.00    -0.373 C  
HETATM    2  C   UNL     1     -10.776  11.771  64.188  1.00  0.00    -0.410 C  
ENDROOT
BRANCH   2   3
HETATM    3  C   UNL     1     -12.186  12.120  63.718  1.00  0.00    -0.630 C  
BRANCH   3   4
HETATM    4  C   UNL     1     -12.503  13.592  63.966  1.00  0.00    -0.285 C  
BRANCH   4   5
HETATM    5  C   UNL     1     -12.738  13.854  65.452  1.00  0.00    -0.525 C  
BRANCH   5   6
HETATM    6  C   UNL     1     -11.678  14.798  66.005  1.00  0.00    -0.248 C  
BRANCH   6   7
HETATM    7  C   UNL     1     -11.174  14.338  67.371  1.00  0.00    -0.330 C  
BRANCH   7   8
HETATM    8  C   UNL     1     -10.491  15.503  68.082  1.00  0.00    -0.259 C  
BRANCH   8   9
HETATM    9  C   UNL     1     -11.396  16.139  69.127  1.00  0.00    -0.323 C  
BRANCH   9  10
HETATM   10  C   UNL     1     -11.503  15.282  70.398  1.00  0.00    -0.330 C  
BRANCH  10  11
HETATM   11  C   UNL     1     -11.699  16.091  71.687  1.00  0.00    -0.583 C  
BRANCH  11  12
HETATM   12  C   UNL     1     -12.876  15.559  72.467  1.00  0.00    -0.420 C  
HETATM   13  O   UNL     1     -13.285  16.018  73.522  1.00  0.00    -0.565 OA 
BRANCH  12  14
HETATM   14  O   UNL     1     -13.523  14.617  71.726  1.00  0.00    -0.327 OA 
BRANCH  14  15
HETATM   15  C   UNL     1     -13.771  13.391  72.424  1.00  0.00    -0.597 C  
BRANCH  15  16
HETATM   16  C   UNL     1     -12.995  12.306  71.670  1.00  0.00    -0.311 C  
BRANCH  16  17
HETATM   17  N   UNL     1     -13.263  10.953  72.126  1.00  0.00    -0.586 N  
HETATM   18  C   UNL     1     -12.405   9.924  71.821  1.00  0.00    -0.368 C  
HETATM   19  H   UNL     1     -14.099  10.764  72.679  1.00  0.00     0.000 HD 
HETATM   20  O   UNL     1     -11.443  10.048  71.070  1.00  0.00    -0.348 OA 
BRANCH  18  21
HETATM   21  C   UNL     1     -12.759   8.569  72.399  1.00  0.00    -0.337 C  
BRANCH  21  22
HETATM   22  N   UNL     1     -11.719   7.593  72.011  1.00  0.00    -0.286 NA 
HETATM   23  C   UNL     1     -11.896   6.824  70.907  1.00  0.00    -0.385 A  
HETATM   24  C   UNL     1     -10.941   5.886  70.539  1.00  0.00    -0.362 A  
HETATM   25  C   UNL     1      -9.789   5.752  71.299  1.00  0.00    -0.223 A  
HETATM   26  C   UNL     1      -9.612   6.558  72.416  1.00  0.00    -0.148 A  
HETATM   27  C   UNL     1     -10.596   7.477  72.755  1.00  0.00    -0.313 A  
ENDBRANCH  21  22
ENDBRANCH  18  21
ENDBRANCH  16  17
ENDBRANCH  15  16
ENDBRANCH  14  15
ENDBRANCH  12  14
ENDBRANCH  11  12
ENDBRANCH  10  11
ENDBRANCH   9  10
ENDBRANCH   8   9
ENDBRANCH   7   8
ENDBRANCH   6   7
ENDBRANCH   5   6
ENDBRANCH   4   5
ENDBRANCH   3   4
ENDBRANCH   2   3
TORSDOF 16
ENDMDL
MODEL       85
REMARK 921   NORMALIZED FREE ENERGY PREDICTED BY IDOCK:   -4.34 KCAL/MOL
REMARK 922        TOTAL FREE ENERGY PREDICTED BY IDOCK:  -10.49 KCAL/MOL
REMARK 923 INTER-LIGAND FREE ENERGY PREDICTED BY IDOCK:   -8.54 KCAL/MOL
REMARK 924 INTRA-LIGAND FREE ENERGY PREDICTED BY IDOCK:   -1.94 KCAL/MOL
REMARK 927      BINDING AFFINITY PREDICTED BY RF-SCORE:    0.00 PKD
ROOT
HETATM    1  C   UNL     1     -11.997  12.225  63.782  1.00  0.00    -0.609 C  
HETATM    2  C   UNL     1     -10.539  11.800  63.741  1.00  0.00    -0.470 C  
ENDROOT
BRANCH   2   3
HETATM    3  C   UNL     1     -10.230  10.792  64.845  1.00  0.00    -0.388 C  
BRANCH   3   4
HETATM    4  C   UNL     1     -10.656  11.319  66.212  1.00  0.00    -0.315 C  
BRANCH   4   5
HETATM    5  C   UNL     1     -10.690  10.191  67.242  1.00  0.00    -0.316 C  
BRANCH   5   6
HETATM    6  C   UNL     1     -10.246   8.877  66.613  1.00  0.00    -0.338 C  
BRANCH   6   7
HETATM    7  C   UNL     1     -10.751   7.675  67.408  1.00  0.00    -0.318 C  
BRANCH   7   8
HETATM    8  C   UNL     1     -10.499   7.903  68.896  1.00  0.00    -0.205 C  
BRANCH   8   9
HETATM    9  C   UNL     1     -11.105   6.799  69.750  1.00  0.00    -0.368 C  
BRANCH   9  10
HETATM   10  C   UNL     1     -11.497   7.299  71.149  1.00  0.00    -0.312 C  
BRANCH  10  11
HETATM   11  C   UNL     1     -11.474   8.827  71.298  1.00  0.00    -0.355 C  
BRANCH  11  12
HETATM   12  C   UNL     1     -12.851   9.342  71.637  1.00  0.00    -0.372 C  
HETATM   13  O   UNL     1     -13.514   8.993  72.601  1.00  0.00    -0.463 OA 
BRANCH  12  14
HETATM   14  O   UNL     1     -13.160  10.384  70.817  1.00  0.00    -0.385 OA 
BRANCH  14  15
HETATM   15  C   UNL     1     -12.080  11.300  70.601  1.00  0.00    -0.383 C  
BRANCH  15  16
HETATM   16  C   UNL     1     -12.566  12.661  71.112  1.00  0.00    -0.258 C  
BRANCH  16  17
HETATM   17  N   UNL     1     -12.421  13.745  70.154  1.00  0.00    -0.303 N  
HETATM   18  C   UNL     1     -11.870  14.946  70.529  1.00  0.00    -0.303 C  
HETATM   19  H   UNL     1     -12.733  13.613  69.192  1.00  0.00     0.000 HD 
HETATM   20  O   UNL     1     -11.576  15.222  71.688  1.00  0.00    -0.351 OA 
BRANCH  18  21
HETATM   21  C   UNL     1     -11.718  15.980  69.433  1.00  0.00    -0.284 C  
BRANCH  21  22
HETATM   22  N   UNL     1     -10.766  15.475  68.422  1.00  0.00    -0.254 NA 
HETATM   23  C   UNL     1     -11.153  15.372  67.125  1.00  0.00    -0.291 A  
HETATM   24  C   UNL     1     -10.280  14.879  66.165  1.00  0.00    -0.314 A  
HETATM   25  C   UNL     1      -8.996  14.508  66.537  1.00  0.00    -0.211 A  
HETATM   26  C   UNL     1      -8.607  14.635  67.864  1.00  0.00    -0.165 A  
HETATM   27  C   UNL     1      -9.515  15.124  68.795  1.00  0.00    -0.209 A  
ENDBRANCH  21  22
ENDBRANCH  18  21
ENDBRANCH  16  17
ENDBRANCH  15  16
ENDBRANCH  14  15
ENDBRANCH  12  14
ENDBRANCH  11  12
ENDBRANCH  10  11
ENDBRANCH   9  10
ENDBRANCH   8   9
ENDBRANCH   7   8
ENDBRANCH   6   7
ENDBRANCH   5   6
ENDBRANCH   4   5
ENDBRANCH   3   4
ENDBRANCH   2   3
TORSDOF 16
ENDMDL
MODEL       86
REMARK 921   NORMALIZED FREE ENERGY PREDICTED BY IDOCK:   -4.34 KCAL/MOL
REMARK 922        TOTAL FREE ENERGY PREDICTED BY IDOCK:  -10.48 KCAL/MOL
REMARK 923 INTER-LIGAND FREE ENERGY PREDICTED BY IDOCK:   -9.23 KCAL/MOL
REMARK 924 INTRA-LIGAND FREE ENERGY PREDICTED BY IDOCK:   -1.26 KCAL/MOL
REMARK 927      BINDING AFFINITY PREDICTED BY RF-SCORE:    0.00 PKD
ROOT
HETATM    1  C   UNL     1      -9.564   7.791  66.335  1.00  0.00    -0.235 C  
HETATM    2  C   UNL     1      -8.730   6.918  67.257  1.00  0.00    -0.119 C  
ENDROOT
BRANCH   2   3
HETATM    3  C   UNL     1      -7.991   7.763  68.292  1.00  0.00    -0.122 C  
BRANCH   3   4
HETATM    4  C   UNL     1      -8.248   7.253  69.707  1.00  0.00    -0.130 C  
BRANCH   4   5
HETATM    5  C   UNL     1      -8.461   5.740  69.709  1.00  0.00    -0.123 C  
BRANCH   5   6
HETATM    6  C   UNL     1      -9.760   5.382  70.421  1.00  0.00    -0.254 C  
BRANCH   6   7
HETATM    7  C   UNL     1     -10.978   5.901  69.662  1.00  0.00    -0.447 C  
BRANCH   7   8
HETATM    8  C   UNL     1     -11.923   6.607  70.631  1.00  0.00    -0.404 C  
BRANCH   8   9
HETATM    9  C   UNL     1     -11.365   6.633  72.047  1.00  0.00    -0.317 C  
BRANCH   9  10
HETATM   10  C   UNL     1     -11.490   8.023  72.691  1.00  0.00    -0.465 C  
BRANCH  10  11
HETATM   11  C   UNL     1     -11.314   9.189  71.708  1.00  0.00    -0.451 C  
BRANCH  11  12
HETATM   12  C   UNL     1     -12.548  10.056  71.695  1.00  0.00    -0.427 C  
HETATM   13  O   UNL     1     -13.525   9.898  72.411  1.00  0.00    -0.391 OA 
BRANCH  12  14
HETATM   14  O   UNL     1     -12.330  11.144  70.906  1.00  0.00    -0.360 OA 
BRANCH  14  15
HETATM   15  C   UNL     1     -11.462  10.898  69.794  1.00  0.00    -0.313 C  
BRANCH  15  16
HETATM   16  C   UNL     1     -11.741  12.012  68.780  1.00  0.00    -0.321 C  
BRANCH  16  17
HETATM   17  N   UNL     1     -11.670  13.354  69.332  1.00  0.00    -0.307 N  
HETATM   18  C   UNL     1     -11.845  14.456  68.531  1.00  0.00    -0.334 C  
HETATM   19  H   UNL     1     -11.487  13.480  70.328  1.00  0.00     0.000 HD 
HETATM   20  O   UNL     1     -11.955  14.392  67.310  1.00  0.00    -0.399 OA 
BRANCH  18  21
HETATM   21  C   UNL     1     -11.806  15.800  69.228  1.00  0.00    -0.346 C  
BRANCH  21  22
HETATM   22  N   UNL     1     -12.311  15.643  70.608  1.00  0.00    -0.413 NA 
HETATM   23  C   UNL     1     -13.610  15.307  70.815  1.00  0.00    -0.254 A  
HETATM   24  C   UNL     1     -14.109  15.176  72.104  1.00  0.00    -0.654 A  
HETATM   25  C   UNL     1     -13.263  15.373  73.185  1.00  0.00    -0.636 A  
HETATM   26  C   UNL     1     -11.932  15.699  72.960  1.00  0.00    -0.590 A  
HETATM   27  C   UNL     1     -11.475  15.829  71.654  1.00  0.00    -0.415 A  
ENDBRANCH  21  22
ENDBRANCH  18  21
ENDBRANCH  16  17
ENDBRANCH  15  16
ENDBRANCH  14  15
ENDBRANCH  12  14
ENDBRANCH  11  12
ENDBRANCH  10  11
ENDBRANCH   9  10
ENDBRANCH   8   9
ENDBRANCH   7   8
ENDBRANCH   6   7
ENDBRANCH   5   6
ENDBRANCH   4   5
ENDBRANCH   3   4
ENDBRANCH   2   3
TORSDOF 16
ENDMDL
MODEL       87
REMARK 921   NORMALIZED FREE ENERGY PREDICTED BY IDOCK:   -4.34 KCAL/MOL
REMARK 922        TOTAL FREE ENERGY PREDICTED BY IDOCK:  -10.47 KCAL/MOL
REMARK 923 INTER-LIGAND FREE ENERGY PREDICTED BY IDOCK:   -8.55 KCAL/MOL
REMARK 924 INTRA-LIGAND FREE ENERGY PREDICTED BY IDOCK:   -1.93 KCAL/MOL
REMARK 927      BINDING AFFINITY PREDICTED BY RF-SCORE:    0.00 PKD
ROOT
HETATM    1  C   UNL     1      -8.524   9.224  68.556  1.00  0.00    -0.123 C  
HETATM    2  C   UNL     1      -8.257   8.345  67.346  1.00  0.00    -0.120 C  
ENDROOT
BRANCH   2   3
HETATM    3  C   UNL     1      -9.520   8.168  66.507  1.00  0.00    -0.286 C  
BRANCH   3   4
HETATM    4  C   UNL     1     -10.742   7.928  67.389  1.00  0.00    -0.278 C  
BRANCH   4   5
HETATM    5  C   UNL     1     -10.919   6.438  67.678  1.00  0.00    -0.441 C  
BRANCH   5   6
HETATM    6  C   UNL     1     -11.126   6.202  69.169  1.00  0.00    -0.448 C  
BRANCH   6   7
HETATM    7  C   UNL     1      -9.804   5.935  69.884  1.00  0.00    -0.223 C  
BRANCH   7   8
HETATM    8  C   UNL     1      -9.752   6.741  71.180  1.00  0.00    -0.181 C  
BRANCH   8   9
HETATM    9  C   UNL     1     -11.140   6.974  71.759  1.00  0.00    -0.270 C  
BRANCH   9  10
HETATM   10  C   UNL     1     -11.294   8.389  72.338  1.00  0.00    -0.448 C  
BRANCH  10  11
HETATM   11  C   UNL     1     -11.459   9.487  71.278  1.00  0.00    -0.447 C  
BRANCH  11  12
HETATM   12  C   UNL     1     -12.750  10.235  71.495  1.00  0.00    -0.452 C  
HETATM   13  O   UNL     1     -13.640   9.896  72.260  1.00  0.00    -0.402 OA 
BRANCH  12  14
HETATM   14  O   UNL     1     -12.691  11.437  70.856  1.00  0.00    -0.346 OA 
BRANCH  14  15
HETATM   15  C   UNL     1     -11.835  11.449  69.708  1.00  0.00    -0.364 C  
BRANCH  15  16
HETATM   16  C   UNL     1     -11.608  12.924  69.361  1.00  0.00    -0.302 C  
BRANCH  16  17
HETATM   17  N   UNL     1     -10.856  13.141  68.136  1.00  0.00    -0.243 N  
HETATM   18  C   UNL     1     -10.949  14.331  67.455  1.00  0.00    -0.295 C  
HETATM   19  H   UNL     1     -10.252  12.402  67.778  1.00  0.00     0.000 HD 
HETATM   20  O   UNL     1     -11.736  15.222  67.757  1.00  0.00    -0.319 OA 
BRANCH  18  21
HETATM   21  C   UNL     1     -10.076  14.462  66.224  1.00  0.00    -0.297 C  
BRANCH  21  22
HETATM   22  N   UNL     1     -10.569  13.537  65.182  1.00  0.00    -0.336 NA 
HETATM   23  C   UNL     1      -9.966  12.332  65.012  1.00  0.00    -0.205 A  
HETATM   24  C   UNL     1     -10.399  11.459  64.024  1.00  0.00    -0.418 A  
HETATM   25  C   UNL     1     -11.471  11.818  63.219  1.00  0.00    -0.332 A  
HETATM   26  C   UNL     1     -12.089  13.046  63.415  1.00  0.00    -0.591 A  
HETATM   27  C   UNL     1     -11.618  13.894  64.409  1.00  0.00    -0.382 A  
ENDBRANCH  21  22
ENDBRANCH  18  21
ENDBRANCH  16  17
ENDBRANCH  15  16
ENDBRANCH  14  15
ENDBRANCH  12  14
ENDBRANCH  11  12
ENDBRANCH  10  11
ENDBRANCH   9  10
ENDBRANCH   8   9
ENDBRANCH   7   8
ENDBRANCH   6   7
ENDBRANCH   5   6
ENDBRANCH   4   5
ENDBRANCH   3   4
ENDBRANCH   2   3
TORSDOF 16
ENDMDL
MODEL       88
REMARK 921   NORMALIZED FREE ENERGY PREDICTED BY IDOCK:   -4.34 KCAL/MOL
REMARK 922        TOTAL FREE ENERGY PREDICTED BY IDOCK:  -10.47 KCAL/MOL
REMARK 923 INTER-LIGAND FREE ENERGY PREDICTED BY IDOCK:   -8.12 KCAL/MOL
REMARK 924 INTRA-LIGAND FREE ENERGY PREDICTED BY IDOCK:   -2.35 KCAL/MOL
REMARK 927      BINDING AFFINITY PREDICTED BY RF-SCORE:    0.00 PKD
ROOT
HETATM    1  C   UNL     1      -8.800  10.365  64.372  1.00  0.00    -0.223 C  
HETATM    2  C   UNL     1     -10.161  10.984  64.645  1.00  0.00    -0.370 C  
ENDROOT
BRANCH   2   3
HETATM    3  C   UNL     1     -10.570  11.928  63.517  1.00  0.00    -0.507 C  
BRANCH   3   4
HETATM    4  C   UNL     1     -12.042  12.315  63.626  1.00  0.00    -0.648 C  
BRANCH   4   5
HETATM    5  C   UNL     1     -12.192  13.734  64.171  1.00  0.00    -0.443 C  
BRANCH   5   6
HETATM    6  C   UNL     1     -12.892  13.718  65.524  1.00  0.00    -0.464 C  
BRANCH   6   7
HETATM    7  C   UNL     1     -11.890  13.750  66.675  1.00  0.00    -0.445 C  
BRANCH   7   8
HETATM    8  C   UNL     1     -10.887  14.877  66.449  1.00  0.00    -0.325 C  
BRANCH   8   9
HETATM    9  C   UNL     1     -10.718  15.743  67.689  1.00  0.00    -0.310 C  
BRANCH   9  10
HETATM   10  C   UNL     1     -11.390  15.122  68.923  1.00  0.00    -0.314 C  
BRANCH  10  11
HETATM   11  C   UNL     1     -11.540  16.086  70.108  1.00  0.00    -0.324 C  
BRANCH  11  12
HETATM   12  C   UNL     1     -12.093  15.359  71.309  1.00  0.00    -0.366 C  
HETATM   13  O   UNL     1     -12.202  15.833  72.429  1.00  0.00    -0.382 OA 
BRANCH  12  14
HETATM   14  O   UNL     1     -12.624  14.169  70.914  1.00  0.00    -0.321 OA 
BRANCH  14  15
HETATM   15  C   UNL     1     -13.199  13.401  71.979  1.00  0.00    -0.438 C  
BRANCH  15  16
HETATM   16  C   UNL     1     -12.923  11.932  71.642  1.00  0.00    -0.342 C  
BRANCH  16  17
HETATM   17  N   UNL     1     -12.494  11.704  70.272  1.00  0.00    -0.223 N  
HETATM   18  C   UNL     1     -11.665  10.653  69.960  1.00  0.00    -0.324 C  
HETATM   19  H   UNL     1     -12.812  12.331  69.533  1.00  0.00     0.000 HD 
HETATM   20  O   UNL     1     -11.151   9.925  70.804  1.00  0.00    -0.303 OA 
BRANCH  18  21
HETATM   21  C   UNL     1     -11.331  10.482  68.493  1.00  0.00    -0.257 C  
BRANCH  21  22
HETATM   22  N   UNL     1      -9.881  10.691  68.300  1.00  0.00    -0.158 NA 
HETATM   23  C   UNL     1      -9.061   9.621  68.146  1.00  0.00    -0.122 A  
HETATM   24  C   UNL     1      -7.693   9.796  67.987  1.00  0.00    -0.083 A  
HETATM   25  C   UNL     1      -7.169  11.080  67.966  1.00  0.00    -0.086 A  
HETATM   26  C   UNL     1      -8.021  12.167  68.107  1.00  0.00    -0.151 A  
HETATM   27  C   UNL     1      -9.382  11.948  68.273  1.00  0.00    -0.193 A  
ENDBRANCH  21  22
ENDBRANCH  18  21
ENDBRANCH  16  17
ENDBRANCH  15  16
ENDBRANCH  14  15
ENDBRANCH  12  14
ENDBRANCH  11  12
ENDBRANCH  10  11
ENDBRANCH   9  10
ENDBRANCH   8   9
ENDBRANCH   7   8
ENDBRANCH   6   7
ENDBRANCH   5   6
ENDBRANCH   4   5
ENDBRANCH   3   4
ENDBRANCH   2   3
TORSDOF 16
ENDMDL
MODEL       89
REMARK 921   NORMALIZED FREE ENERGY PREDICTED BY IDOCK:   -4.33 KCAL/MOL
REMARK 922        TOTAL FREE ENERGY PREDICTED BY IDOCK:  -10.46 KCAL/MOL
REMARK 923 INTER-LIGAND FREE ENERGY PREDICTED BY IDOCK:   -8.27 KCAL/MOL
REMARK 924 INTRA-LIGAND FREE ENERGY PREDICTED BY IDOCK:   -2.18 KCAL/MOL
REMARK 927      BINDING AFFINITY PREDICTED BY RF-SCORE:    0.00 PKD
ROOT
HETATM    1  C   UNL     1     -12.725  12.497  64.635  1.00  0.00    -0.434 C  
HETATM    2  C   UNL     1     -11.703  12.517  63.511  1.00  0.00    -0.595 C  
ENDROOT
BRANCH   2   3
HETATM    3  C   UNL     1     -10.549  11.559  63.801  1.00  0.00    -0.465 C  
BRANCH   3   4
HETATM    4  C   UNL     1     -10.490  11.197  65.283  1.00  0.00    -0.326 C  
BRANCH   4   5
HETATM    5  C   UNL     1      -9.820   9.839  65.483  1.00  0.00    -0.378 C  
BRANCH   5   6
HETATM    6  C   UNL     1     -10.443   9.101  66.661  1.00  0.00    -0.237 C  
BRANCH   6   7
HETATM    7  C   UNL     1      -9.852   7.704  66.826  1.00  0.00    -0.307 C  
BRANCH   7   8
HETATM    8  C   UNL     1      -8.343   7.809  67.036  1.00  0.00    -0.117 C  
BRANCH   8   9
HETATM    9  C   UNL     1      -7.956   7.584  68.491  1.00  0.00    -0.123 C  
BRANCH   9  10
HETATM   10  C   UNL     1      -8.759   6.442  69.132  1.00  0.00    -0.127 C  
BRANCH  10  11
HETATM   11  C   UNL     1      -9.270   6.750  70.547  1.00  0.00    -0.156 C  
BRANCH  11  12
HETATM   12  C   UNL     1     -10.763   6.961  70.530  1.00  0.00    -0.235 C  
HETATM   13  O   UNL     1     -11.552   6.355  69.822  1.00  0.00    -0.431 OA 
BRANCH  12  14
HETATM   14  O   UNL     1     -11.116   7.790  71.552  1.00  0.00    -0.233 OA 
BRANCH  14  15
HETATM   15  C   UNL     1     -10.626   9.130  71.416  1.00  0.00    -0.341 C  
BRANCH  15  16
HETATM   16  C   UNL     1     -11.588   9.840  70.458  1.00  0.00    -0.292 C  
BRANCH  16  17
HETATM   17  N   UNL     1     -11.432  11.284  70.416  1.00  0.00    -0.482 N  
HETATM   18  C   UNL     1     -11.830  12.004  69.316  1.00  0.00    -0.318 C  
HETATM   19  H   UNL     1     -11.023  11.770  71.214  1.00  0.00     0.000 HD 
HETATM   20  O   UNL     1     -12.225  11.485  68.276  1.00  0.00    -0.561 OA 
BRANCH  18  21
HETATM   21  C   UNL     1     -11.671  13.507  69.410  1.00  0.00    -0.325 C  
BRANCH  21  22
HETATM   22  N   UNL     1     -10.968  13.995  68.205  1.00  0.00    -0.247 NA 
HETATM   23  C   UNL     1     -11.630  14.765  67.305  1.00  0.00    -0.369 A  
HETATM   24  C   UNL     1     -10.993  15.213  66.156  1.00  0.00    -0.331 A  
HETATM   25  C   UNL     1      -9.662  14.885  65.942  1.00  0.00    -0.366 A  
HETATM   26  C   UNL     1      -8.992  14.111  66.879  1.00  0.00    -0.247 A  
HETATM   27  C   UNL     1      -9.669  13.675  68.011  1.00  0.00    -0.226 A  
ENDBRANCH  21  22
ENDBRANCH  18  21
ENDBRANCH  16  17
ENDBRANCH  15  16
ENDBRANCH  14  15
ENDBRANCH  12  14
ENDBRANCH  11  12
ENDBRANCH  10  11
ENDBRANCH   9  10
ENDBRANCH   8   9
ENDBRANCH   7   8
ENDBRANCH   6   7
ENDBRANCH   5   6
ENDBRANCH   4   5
ENDBRANCH   3   4
ENDBRANCH   2   3
TORSDOF 16
ENDMDL
MODEL       90
REMARK 921   NORMALIZED FREE ENERGY PREDICTED BY IDOCK:   -4.33 KCAL/MOL
REMARK 922        TOTAL FREE ENERGY PREDICTED BY IDOCK:  -10.45 KCAL/MOL
REMARK 923 INTER-LIGAND FREE ENERGY PREDICTED BY IDOCK:   -8.35 KCAL/MOL
REMARK 924 INTRA-LIGAND FREE ENERGY PREDICTED BY IDOCK:   -2.10 KCAL/MOL
REMARK 927      BINDING AFFINITY PREDICTED BY RF-SCORE:    0.00 PKD
ROOT
HETATM    1  C   UNL     1      -9.982   8.712  66.494  1.00  0.00    -0.353 C  
HETATM    2  C   UNL     1      -8.986   7.896  67.300  1.00  0.00    -0.137 C  
ENDROOT
BRANCH   2   3
HETATM    3  C   UNL     1      -8.581   8.630  68.577  1.00  0.00    -0.135 C  
BRANCH   3   4
HETATM    4  C   UNL     1      -8.737   7.734  69.802  1.00  0.00    -0.139 C  
BRANCH   4   5
HETATM    5  C   UNL     1      -8.891   6.271  69.389  1.00  0.00    -0.127 C  
BRANCH   5   6
HETATM    6  C   UNL     1     -10.075   5.634  70.104  1.00  0.00    -0.293 C  
BRANCH   6   7
HETATM    7  C   UNL     1     -11.404   6.111  69.526  1.00  0.00    -0.426 C  
BRANCH   7   8
HETATM    8  C   UNL     1     -12.255   6.723  70.636  1.00  0.00    -0.312 C  
BRANCH   8   9
HETATM    9  C   UNL     1     -11.502   6.788  71.957  1.00  0.00    -0.317 C  
BRANCH   9  10
HETATM   10  C   UNL     1     -11.520   8.200  72.562  1.00  0.00    -0.470 C  
BRANCH  10  11
HETATM   11  C   UNL     1     -11.565   9.329  71.523  1.00  0.00    -0.452 C  
BRANCH  11  12
HETATM   12  C   UNL     1     -12.761  10.216  71.762  1.00  0.00    -0.434 C  
HETATM   13  O   UNL     1     -13.752   9.901  72.403  1.00  0.00    -0.338 OA 
BRANCH  12  14
HETATM   14  O   UNL     1     -12.489  11.475  71.320  1.00  0.00    -0.353 OA 
BRANCH  14  15
HETATM   15  C   UNL     1     -13.234  12.503  71.984  1.00  0.00    -0.419 C  
BRANCH  15  16
HETATM   16  C   UNL     1     -12.765  13.829  71.374  1.00  0.00    -0.367 C  
BRANCH  16  17
HETATM   17  N   UNL     1     -11.619  13.707  70.489  1.00  0.00    -0.517 N  
HETATM   18  C   UNL     1     -11.502  14.503  69.375  1.00  0.00    -0.285 C  
HETATM   19  H   UNL     1     -10.892  13.023  70.697  1.00  0.00     0.000 HD 
HETATM   20  O   UNL     1     -12.384  15.267  68.996  1.00  0.00    -0.162 OA 
BRANCH  18  21
HETATM   21  C   UNL     1     -10.238  14.326  68.560  1.00  0.00    -0.245 C  
BRANCH  21  22
HETATM   22  N   UNL     1     -10.597  13.829  67.215  1.00  0.00    -0.273 NA 
HETATM   23  C   UNL     1     -10.385  14.616  66.129  1.00  0.00    -0.300 A  
HETATM   24  C   UNL     1     -10.737  14.176  64.860  1.00  0.00    -0.444 A  
HETATM   25  C   UNL     1     -11.290  12.913  64.705  1.00  0.00    -0.361 A  
HETATM   26  C   UNL     1     -11.485  12.113  65.822  1.00  0.00    -0.414 A  
HETATM   27  C   UNL     1     -11.128  12.594  67.075  1.00  0.00    -0.281 A  
ENDBRANCH  21  22
ENDBRANCH  18  21
ENDBRANCH  16  17
ENDBRANCH  15  16
ENDBRANCH  14  15
ENDBRANCH  12  14
ENDBRANCH  11  12
ENDBRANCH  10  11
ENDBRANCH   9  10
ENDBRANCH   8   9
ENDBRANCH   7   8
ENDBRANCH   6   7
ENDBRANCH   5   6
ENDBRANCH   4   5
ENDBRANCH   3   4
ENDBRANCH   2   3
TORSDOF 16
ENDMDL
MODEL       91
REMARK 921   NORMALIZED FREE ENERGY PREDICTED BY IDOCK:   -4.32 KCAL/MOL
REMARK 922        TOTAL FREE ENERGY PREDICTED BY IDOCK:  -10.45 KCAL/MOL
REMARK 923 INTER-LIGAND FREE ENERGY PREDICTED BY IDOCK:   -9.41 KCAL/MOL
REMARK 924 INTRA-LIGAND FREE ENERGY PREDICTED BY IDOCK:   -1.04 KCAL/MOL
REMARK 927      BINDING AFFINITY PREDICTED BY RF-SCORE:    0.00 PKD
ROOT
HETATM    1  C   UNL     1     -10.732   5.847  67.044  1.00  0.00    -0.396 C  
HETATM    2  C   UNL     1     -11.024   6.460  68.402  1.00  0.00    -0.390 C  
ENDROOT
BRANCH   2   3
HETATM    3  C   UNL     1     -10.629   5.510  69.530  1.00  0.00    -0.366 C  
BRANCH   3   4
HETATM    4  C   UNL     1     -10.476   6.254  70.854  1.00  0.00    -0.274 C  
BRANCH   4   5
HETATM    5  C   UNL     1     -11.798   6.897  71.270  1.00  0.00    -0.385 C  
BRANCH   5   6
HETATM    6  C   UNL     1     -11.554   8.252  71.922  1.00  0.00    -0.377 C  
BRANCH   6   7
HETATM    7  C   UNL     1     -11.006   9.266  70.921  1.00  0.00    -0.368 C  
BRANCH   7   8
HETATM    8  C   UNL     1     -12.060  10.336  70.648  1.00  0.00    -0.433 C  
BRANCH   8   9
HETATM    9  C   UNL     1     -13.077  10.432  71.776  1.00  0.00    -0.567 C  
BRANCH   9  10
HETATM   10  C   UNL     1     -13.536  11.878  72.019  1.00  0.00    -0.336 C  
BRANCH  10  11
HETATM   11  C   UNL     1     -12.563  12.942  71.492  1.00  0.00    -0.269 C  
BRANCH  11  12
HETATM   12  C   UNL     1     -12.853  14.279  72.129  1.00  0.00    -0.344 C  
HETATM   13  O   UNL     1     -13.623  14.462  73.058  1.00  0.00    -0.619 OA 
BRANCH  12  14
HETATM   14  O   UNL     1     -11.990  15.211  71.639  1.00  0.00    -0.316 OA 
BRANCH  14  15
HETATM   15  C   UNL     1     -12.216  15.557  70.267  1.00  0.00    -0.400 C  
BRANCH  15  16
HETATM   16  C   UNL     1     -10.837  15.861  69.671  1.00  0.00    -0.314 C  
BRANCH  16  17
HETATM   17  N   UNL     1     -10.619  17.263  69.356  1.00  0.00    -0.359 N  
HETATM   18  C   UNL     1     -10.485  17.679  68.053  1.00  0.00    -0.394 C  
HETATM   19  H   UNL     1     -10.565  17.947  70.111  1.00  0.00     0.000 HD 
HETATM   20  O   UNL     1     -10.426  16.907  67.101  1.00  0.00    -0.318 OA 
BRANCH  18  21
HETATM   21  C   UNL     1     -10.319  19.170  67.844  1.00  0.00    -0.414 C  
BRANCH  21  22
HETATM   22  N   UNL     1      -8.903  19.458  67.534  1.00  0.00    -0.298 NA 
HETATM   23  C   UNL     1      -7.950  19.246  68.477  1.00  0.00    -0.361 A  
HETATM   24  C   UNL     1      -6.618  19.532  68.213  1.00  0.00    -0.296 A  
HETATM   25  C   UNL     1      -6.261  20.021  66.964  1.00  0.00    -0.205 A  
HETATM   26  C   UNL     1      -7.243  20.217  66.002  1.00  0.00    -0.278 A  
HETATM   27  C   UNL     1      -8.566  19.927  66.311  1.00  0.00    -0.337 A  
ENDBRANCH  21  22
ENDBRANCH  18  21
ENDBRANCH  16  17
ENDBRANCH  15  16
ENDBRANCH  14  15
ENDBRANCH  12  14
ENDBRANCH  11  12
ENDBRANCH  10  11
ENDBRANCH   9  10
ENDBRANCH   8   9
ENDBRANCH   7   8
ENDBRANCH   6   7
ENDBRANCH   5   6
ENDBRANCH   4   5
ENDBRANCH   3   4
ENDBRANCH   2   3
TORSDOF 16
ENDMDL
MODEL       92
REMARK 921   NORMALIZED FREE ENERGY PREDICTED BY IDOCK:   -4.32 KCAL/MOL
REMARK 922        TOTAL FREE ENERGY PREDICTED BY IDOCK:  -10.45 KCAL/MOL
REMARK 923 INTER-LIGAND FREE ENERGY PREDICTED BY IDOCK:   -9.01 KCAL/MOL
REMARK 924 INTRA-LIGAND FREE ENERGY PREDICTED BY IDOCK:   -1.44 KCAL/MOL
REMARK 927      BINDING AFFINITY PREDICTED BY RF-SCORE:    0.00 PKD
ROOT
HETATM    1  C   UNL     1      -9.498   8.566  72.105  1.00  0.00    -0.375 C  
HETATM    2  C   UNL     1     -10.952   8.249  72.408  1.00  0.00    -0.438 C  
ENDROOT
BRANCH   2   3
HETATM    3  C   UNL     1     -11.769   8.135  71.122  1.00  0.00    -0.309 C  
BRANCH   3   4
HETATM    4  C   UNL     1     -12.149   6.685  70.835  1.00  0.00    -0.379 C  
BRANCH   4   5
HETATM    5  C   UNL     1     -11.040   5.977  70.058  1.00  0.00    -0.451 C  
BRANCH   5   6
HETATM    6  C   UNL     1     -11.135   6.299  68.573  1.00  0.00    -0.397 C  
BRANCH   6   7
HETATM    7  C   UNL     1      -9.969   7.169  68.111  1.00  0.00    -0.172 C  
BRANCH   7   8
HETATM    8  C   UNL     1     -10.499   8.336  67.282  1.00  0.00    -0.373 C  
BRANCH   8   9
HETATM    9  C   UNL     1     -10.462   9.646  68.057  1.00  0.00    -0.276 C  
BRANCH   9  10
HETATM   10  C   UNL     1     -10.957  10.830  67.213  1.00  0.00    -0.359 C  
BRANCH  10  11
HETATM   11  C   UNL     1     -10.142  11.076  65.936  1.00  0.00    -0.301 C  
BRANCH  11  12
HETATM   12  C   UNL     1     -11.000  11.732  64.884  1.00  0.00    -0.300 C  
HETATM   13  O   UNL     1     -11.120  11.345  63.732  1.00  0.00    -0.392 OA 
BRANCH  12  14
HETATM   14  O   UNL     1     -11.761  12.704  65.460  1.00  0.00    -0.359 OA 
BRANCH  14  15
HETATM   15  C   UNL     1     -11.941  13.868  64.645  1.00  0.00    -0.419 C  
BRANCH  15  16
HETATM   16  C   UNL     1     -10.785  14.813  64.989  1.00  0.00    -0.433 C  
BRANCH  16  17
HETATM   17  N   UNL     1     -11.125  15.849  65.950  1.00  0.00    -0.134 N  
HETATM   18  C   UNL     1     -10.762  15.731  67.270  1.00  0.00    -0.313 C  
HETATM   19  H   UNL     1     -11.640  16.673  65.641  1.00  0.00     0.000 HD 
HETATM   20  O   UNL     1     -10.244  14.723  67.740  1.00  0.00    -0.230 OA 
BRANCH  18  21
HETATM   21  C   UNL     1     -11.121  16.899  68.165  1.00  0.00    -0.205 C  
BRANCH  21  22
HETATM   22  N   UNL     1     -10.188  18.014  67.901  1.00  0.00    -0.358 NA 
HETATM   23  C   UNL     1      -8.858  17.842  68.107  1.00  0.00    -0.265 A  
HETATM   24  C   UNL     1      -7.969  18.885  67.886  1.00  0.00    -0.297 A  
HETATM   25  C   UNL     1      -8.448  20.105  67.431  1.00  0.00    -0.398 A  
HETATM   26  C   UNL     1      -9.809  20.262  67.208  1.00  0.00    -0.593 A  
HETATM   27  C   UNL     1     -10.666  19.196  67.450  1.00  0.00    -0.481 A  
ENDBRANCH  21  22
ENDBRANCH  18  21
ENDBRANCH  16  17
ENDBRANCH  15  16
ENDBRANCH  14  15
ENDBRANCH  12  14
ENDBRANCH  11  12
ENDBRANCH  10  11
ENDBRANCH   9  10
ENDBRANCH   8   9
ENDBRANCH   7   8
ENDBRANCH   6   7
ENDBRANCH   5   6
ENDBRANCH   4   5
ENDBRANCH   3   4
ENDBRANCH   2   3
TORSDOF 16
ENDMDL
MODEL       93
REMARK 921   NORMALIZED FREE ENERGY PREDICTED BY IDOCK:   -4.32 KCAL/MOL
REMARK 922        TOTAL FREE ENERGY PREDICTED BY IDOCK:  -10.43 KCAL/MOL
REMARK 923 INTER-LIGAND FREE ENERGY PREDICTED BY IDOCK:   -9.18 KCAL/MOL
REMARK 924 INTRA-LIGAND FREE ENERGY PREDICTED BY IDOCK:   -1.25 KCAL/MOL
REMARK 927      BINDING AFFINITY PREDICTED BY RF-SCORE:    0.00 PKD
ROOT
HETATM    1  C   UNL     1     -13.896  15.259  71.709  1.00  0.00    -0.622 C  
HETATM    2  C   UNL     1     -14.078  13.827  72.182  1.00  0.00    -0.604 C  
ENDROOT
BRANCH   2   3
HETATM    3  C   UNL     1     -13.008  12.913  71.588  1.00  0.00    -0.410 C  
BRANCH   3   4
HETATM    4  C   UNL     1     -13.385  11.443  71.750  1.00  0.00    -0.368 C  
BRANCH   4   5
HETATM    5  C   UNL     1     -12.326  10.539  71.121  1.00  0.00    -0.510 C  
BRANCH   5   6
HETATM    6  C   UNL     1     -12.659   9.073  71.365  1.00  0.00    -0.370 C  
BRANCH   6   7
HETATM    7  C   UNL     1     -11.419   8.189  71.258  1.00  0.00    -0.299 C  
BRANCH   7   8
HETATM    8  C   UNL     1     -11.837   6.757  70.938  1.00  0.00    -0.438 C  
BRANCH   8   9
HETATM    9  C   UNL     1     -11.193   6.251  69.654  1.00  0.00    -0.506 C  
BRANCH   9  10
HETATM   10  C   UNL     1     -10.492   7.376  68.878  1.00  0.00    -0.213 C  
BRANCH  10  11
HETATM   11  C   UNL     1     -10.752   7.353  67.366  1.00  0.00    -0.348 C  
BRANCH  11  12
HETATM   12  C   UNL     1      -9.502   7.734  66.612  1.00  0.00    -0.205 C  
HETATM   13  O   UNL     1      -8.452   7.110  66.632  1.00  0.00    -0.113 OA 
BRANCH  12  14
HETATM   14  O   UNL     1      -9.778   8.764  65.765  1.00  0.00    -0.204 OA 
BRANCH  14  15
HETATM   15  C   UNL     1      -8.837   9.843  65.828  1.00  0.00    -0.147 C  
BRANCH  15  16
HETATM   16  C   UNL     1      -9.419  10.858  66.817  1.00  0.00    -0.177 C  
BRANCH  16  17
HETATM   17  N   UNL     1     -10.204  11.914  66.198  1.00  0.00    -0.220 N  
HETATM   18  C   UNL     1     -11.478  12.189  66.631  1.00  0.00    -0.365 C  
HETATM   19  H   UNL     1      -9.804  12.456  65.433  1.00  0.00     0.000 HD 
HETATM   20  O   UNL     1     -12.069  11.511  67.466  1.00  0.00    -0.614 OA 
BRANCH  18  21
HETATM   21  C   UNL     1     -12.177  13.347  65.949  1.00  0.00    -0.450 C  
BRANCH  21  22
HETATM   22  N   UNL     1     -11.504  14.608  66.329  1.00  0.00    -0.359 NA 
HETATM   23  C   UNL     1     -11.034  15.437  65.362  1.00  0.00    -0.368 A  
HETATM   24  C   UNL     1     -10.379  16.613  65.699  1.00  0.00    -0.310 A  
HETATM   25  C   UNL     1     -10.225  16.949  67.036  1.00  0.00    -0.297 A  
HETATM   26  C   UNL     1     -10.726  16.101  68.014  1.00  0.00    -0.321 A  
HETATM   27  C   UNL     1     -11.367  14.928  67.635  1.00  0.00    -0.337 A  
ENDBRANCH  21  22
ENDBRANCH  18  21
ENDBRANCH  16  17
ENDBRANCH  15  16
ENDBRANCH  14  15
ENDBRANCH  12  14
ENDBRANCH  11  12
ENDBRANCH  10  11
ENDBRANCH   9  10
ENDBRANCH   8   9
ENDBRANCH   7   8
ENDBRANCH   6   7
ENDBRANCH   5   6
ENDBRANCH   4   5
ENDBRANCH   3   4
ENDBRANCH   2   3
TORSDOF 16
ENDMDL
MODEL       94
REMARK 921   NORMALIZED FREE ENERGY PREDICTED BY IDOCK:   -4.31 KCAL/MOL
REMARK 922        TOTAL FREE ENERGY PREDICTED BY IDOCK:  -10.43 KCAL/MOL
REMARK 923 INTER-LIGAND FREE ENERGY PREDICTED BY IDOCK:   -8.35 KCAL/MOL
REMARK 924 INTRA-LIGAND FREE ENERGY PREDICTED BY IDOCK:   -2.07 KCAL/MOL
REMARK 927      BINDING AFFINITY PREDICTED BY RF-SCORE:    0.00 PKD
ROOT
HETATM    1  C   UNL     1      -7.819   8.175  68.126  1.00  0.00    -0.122 C  
HETATM    2  C   UNL     1      -7.314   9.352  68.942  1.00  0.00    -0.073 C  
ENDROOT
BRANCH   2   3
HETATM    3  C   UNL     1      -8.409   9.898  69.855  1.00  0.00    -0.200 C  
BRANCH   3   4
HETATM    4  C   UNL     1      -9.479   8.845  70.126  1.00  0.00    -0.198 C  
BRANCH   4   5
HETATM    5  C   UNL     1     -10.473   9.339  71.177  1.00  0.00    -0.401 C  
BRANCH   5   6
HETATM    6  C   UNL     1     -11.865   9.479  70.574  1.00  0.00    -0.246 C  
BRANCH   6   7
HETATM    7  C   UNL     1     -12.380  10.912  70.677  1.00  0.00    -0.470 C  
BRANCH   7   8
HETATM    8  C   UNL     1     -11.675  11.784  69.642  1.00  0.00    -0.413 C  
BRANCH   8   9
HETATM    9  C   UNL     1     -11.872  11.257  68.227  1.00  0.00    -0.299 C  
BRANCH   9  10
HETATM   10  C   UNL     1     -10.613  11.433  67.365  1.00  0.00    -0.257 C  
BRANCH  10  11
HETATM   11  C   UNL     1     -10.207  10.177  66.582  1.00  0.00    -0.287 C  
BRANCH  11  12
HETATM   12  C   UNL     1      -9.935  10.522  65.139  1.00  0.00    -0.309 C  
HETATM   13  O   UNL     1      -8.998  10.100  64.480  1.00  0.00    -0.183 OA 
BRANCH  12  14
HETATM   14  O   UNL     1     -10.989  11.220  64.633  1.00  0.00    -0.294 OA 
BRANCH  14  15
HETATM   15  C   UNL     1     -10.627  12.202  63.654  1.00  0.00    -0.461 C  
BRANCH  15  16
HETATM   16  C   UNL     1     -11.103  13.549  64.206  1.00  0.00    -0.351 C  
BRANCH  16  17
HETATM   17  N   UNL     1     -10.090  14.285  64.943  1.00  0.00    -0.548 N  
HETATM   18  C   UNL     1     -10.355  14.789  66.194  1.00  0.00    -0.304 C  
HETATM   19  H   UNL     1      -9.169  14.429  64.528  1.00  0.00     0.000 HD 
HETATM   20  O   UNL     1     -11.467  14.756  66.712  1.00  0.00    -0.351 OA 
BRANCH  18  21
HETATM   21  C   UNL     1      -9.204  15.488  66.888  1.00  0.00    -0.236 C  
BRANCH  21  22
HETATM   22  N   UNL     1      -9.596  16.881  67.187  1.00  0.00    -0.239 NA 
HETATM   23  C   UNL     1      -9.478  17.356  68.454  1.00  0.00    -0.293 A  
HETATM   24  C   UNL     1      -9.862  18.655  68.759  1.00  0.00    -0.422 A  
HETATM   25  C   UNL     1     -10.350  19.476  67.753  1.00  0.00    -0.575 A  
HETATM   26  C   UNL     1     -10.449  18.983  66.459  1.00  0.00    -0.522 A  
HETATM   27  C   UNL     1     -10.063  17.674  66.197  1.00  0.00    -0.301 A  
ENDBRANCH  21  22
ENDBRANCH  18  21
ENDBRANCH  16  17
ENDBRANCH  15  16
ENDBRANCH  14  15
ENDBRANCH  12  14
ENDBRANCH  11  12
ENDBRANCH  10  11
ENDBRANCH   9  10
ENDBRANCH   8   9
ENDBRANCH   7   8
ENDBRANCH   6   7
ENDBRANCH   5   6
ENDBRANCH   4   5
ENDBRANCH   3   4
ENDBRANCH   2   3
TORSDOF 16
ENDMDL
MODEL       95
REMARK 921   NORMALIZED FREE ENERGY PREDICTED BY IDOCK:   -4.29 KCAL/MOL
REMARK 922        TOTAL FREE ENERGY PREDICTED BY IDOCK:  -10.39 KCAL/MOL
REMARK 923 INTER-LIGAND FREE ENERGY PREDICTED BY IDOCK:   -8.50 KCAL/MOL
REMARK 924 INTRA-LIGAND FREE ENERGY PREDICTED BY IDOCK:   -1.89 KCAL/MOL
REMARK 927      BINDING AFFINITY PREDICTED BY RF-SCORE:    0.00 PKD
ROOT
HETATM    1  C   UNL     1     -11.034   6.299  68.288  1.00  0.00    -0.408 C  
HETATM    2  C   UNL     1     -10.676   5.484  69.519  1.00  0.00    -0.332 C  
ENDROOT
BRANCH   2   3
HETATM    3  C   UNL     1      -9.932   6.336  70.545  1.00  0.00    -0.221 C  
BRANCH   3   4
HETATM    4  C   UNL     1     -10.546   6.191  71.935  1.00  0.00    -0.263 C  
BRANCH   4   5
HETATM    5  C   UNL     1     -11.003   7.547  72.470  1.00  0.00    -0.362 C  
BRANCH   5   6
HETATM    6  C   UNL     1     -10.159   8.669  71.879  1.00  0.00    -0.398 C  
BRANCH   6   7
HETATM    7  C   UNL     1     -11.029   9.778  71.294  1.00  0.00    -0.331 C  
BRANCH   7   8
HETATM    8  C   UNL     1     -12.492   9.345  71.314  1.00  0.00    -0.416 C  
BRANCH   8   9
HETATM    9  C   UNL     1     -13.388  10.401  71.946  1.00  0.00    -0.469 C  
BRANCH   9  10
HETATM   10  C   UNL     1     -12.884  11.826  71.670  1.00  0.00    -0.433 C  
BRANCH  10  11
HETATM   11  C   UNL     1     -13.695  12.925  72.370  1.00  0.00    -0.530 C  
BRANCH  11  12
HETATM   12  C   UNL     1     -12.854  14.164  72.550  1.00  0.00    -0.343 C  
HETATM   13  O   UNL     1     -12.755  14.802  73.586  1.00  0.00    -0.519 OA 
BRANCH  12  14
HETATM   14  O   UNL     1     -12.080  14.352  71.445  1.00  0.00    -0.344 OA 
BRANCH  14  15
HETATM   15  C   UNL     1     -12.179  15.664  70.876  1.00  0.00    -0.419 C  
BRANCH  15  16
HETATM   16  C   UNL     1     -11.398  15.616  69.558  1.00  0.00    -0.327 C  
BRANCH  16  17
HETATM   17  N   UNL     1     -10.387  14.574  69.500  1.00  0.00    -0.425 N  
HETATM   18  C   UNL     1      -9.814  14.215  68.305  1.00  0.00    -0.235 C  
HETATM   19  H   UNL     1     -10.099  14.103  70.358  1.00  0.00     0.000 HD 
HETATM   20  O   UNL     1     -10.185  14.652  67.220  1.00  0.00    -0.239 OA 
BRANCH  18  21
HETATM   21  C   UNL     1      -8.731  13.157  68.376  1.00  0.00    -0.120 C  
BRANCH  21  22
HETATM   22  N   UNL     1      -9.233  11.911  67.759  1.00  0.00    -0.178 NA 
HETATM   23  C   UNL     1     -10.345  11.314  68.259  1.00  0.00    -0.183 A  
HETATM   24  C   UNL     1     -10.819  10.131  67.708  1.00  0.00    -0.346 A  
HETATM   25  C   UNL     1     -10.157   9.570  66.625  1.00  0.00    -0.321 A  
HETATM   26  C   UNL     1      -9.030  10.200  66.114  1.00  0.00    -0.171 A  
HETATM   27  C   UNL     1      -8.584  11.378  66.700  1.00  0.00    -0.170 A  
ENDBRANCH  21  22
ENDBRANCH  18  21
ENDBRANCH  16  17
ENDBRANCH  15  16
ENDBRANCH  14  15
ENDBRANCH  12  14
ENDBRANCH  11  12
ENDBRANCH  10  11
ENDBRANCH   9  10
ENDBRANCH   8   9
ENDBRANCH   7   8
ENDBRANCH   6   7
ENDBRANCH   5   6
ENDBRANCH   4   5
ENDBRANCH   3   4
ENDBRANCH   2   3
TORSDOF 16
ENDMDL
MODEL       96
REMARK 921   NORMALIZED FREE ENERGY PREDICTED BY IDOCK:   -4.29 KCAL/MOL
REMARK 922        TOTAL FREE ENERGY PREDICTED BY IDOCK:  -10.39 KCAL/MOL
REMARK 923 INTER-LIGAND FREE ENERGY PREDICTED BY IDOCK:   -8.91 KCAL/MOL
REMARK 924 INTRA-LIGAND FREE ENERGY PREDICTED BY IDOCK:   -1.47 KCAL/MOL
REMARK 927      BINDING AFFINITY PREDICTED BY RF-SCORE:    0.00 PKD
ROOT
HETATM    1  C   UNL     1      -9.342   4.204  69.266  1.00  0.00    -0.237 C  
HETATM    2  C   UNL     1      -9.396   5.348  70.265  1.00  0.00    -0.198 C  
ENDROOT
BRANCH   2   3
HETATM    3  C   UNL     1     -10.004   6.599  69.635  1.00  0.00    -0.191 C  
BRANCH   3   4
HETATM    4  C   UNL     1     -11.125   6.240  68.663  1.00  0.00    -0.409 C  
BRANCH   4   5
HETATM    5  C   UNL     1     -11.035   7.087  67.395  1.00  0.00    -0.336 C  
BRANCH   5   6
HETATM    6  C   UNL     1      -9.671   6.926  66.737  1.00  0.00    -0.232 C  
BRANCH   6   7
HETATM    7  C   UNL     1      -9.162   8.247  66.168  1.00  0.00    -0.250 C  
BRANCH   7   8
HETATM    8  C   UNL     1      -9.859   9.410  66.870  1.00  0.00    -0.261 C  
BRANCH   8   9
HETATM    9  C   UNL     1      -9.732  10.706  66.083  1.00  0.00    -0.253 C  
BRANCH   9  10
HETATM   10  C   UNL     1     -11.040  11.514  66.086  1.00  0.00    -0.302 C  
BRANCH  10  11
HETATM   11  C   UNL     1     -10.876  12.976  65.648  1.00  0.00    -0.293 C  
BRANCH  11  12
HETATM   12  C   UNL     1     -12.202  13.692  65.704  1.00  0.00    -0.454 C  
HETATM   13  O   UNL     1     -13.046  13.679  64.822  1.00  0.00    -0.658 OA 
BRANCH  12  14
HETATM   14  O   UNL     1     -12.393  14.196  66.955  1.00  0.00    -0.419 OA 
BRANCH  14  15
HETATM   15  C   UNL     1     -11.334  15.047  67.412  1.00  0.00    -0.332 C  
BRANCH  15  16
HETATM   16  C   UNL     1     -11.741  15.518  68.812  1.00  0.00    -0.357 C  
BRANCH  16  17
HETATM   17  N   UNL     1     -12.537  14.557  69.558  1.00  0.00    -0.560 N  
HETATM   18  C   UNL     1     -12.344  14.379  70.907  1.00  0.00    -0.349 C  
HETATM   19  H   UNL     1     -13.248  14.008  69.074  1.00  0.00     0.000 HD 
HETATM   20  O   UNL     1     -11.438  14.916  71.536  1.00  0.00    -0.340 OA 
BRANCH  18  21
HETATM   21  C   UNL     1     -13.271  13.392  71.587  1.00  0.00    -0.364 C  
BRANCH  21  22
HETATM   22  N   UNL     1     -12.806  12.018  71.301  1.00  0.00    -0.331 NA 
HETATM   23  C   UNL     1     -13.304  10.978  72.016  1.00  0.00    -0.288 A  
HETATM   24  C   UNL     1     -12.864   9.683  71.778  1.00  0.00    -0.514 A  
HETATM   25  C   UNL     1     -11.921   9.455  70.786  1.00  0.00    -0.298 A  
HETATM   26  C   UNL     1     -11.433  10.527  70.050  1.00  0.00    -0.393 A  
HETATM   27  C   UNL     1     -11.893  11.808  70.327  1.00  0.00    -0.295 A  
ENDBRANCH  21  22
ENDBRANCH  18  21
ENDBRANCH  16  17
ENDBRANCH  15  16
ENDBRANCH  14  15
ENDBRANCH  12  14
ENDBRANCH  11  12
ENDBRANCH  10  11
ENDBRANCH   9  10
ENDBRANCH   8   9
ENDBRANCH   7   8
ENDBRANCH   6   7
ENDBRANCH   5   6
ENDBRANCH   4   5
ENDBRANCH   3   4
ENDBRANCH   2   3
TORSDOF 16
ENDMDL
MODEL       97
REMARK 921   NORMALIZED FREE ENERGY PREDICTED BY IDOCK:   -4.29 KCAL/MOL
REMARK 922        TOTAL FREE ENERGY PREDICTED BY IDOCK:  -10.39 KCAL/MOL
REMARK 923 INTER-LIGAND FREE ENERGY PREDICTED BY IDOCK:   -7.99 KCAL/MOL
REMARK 924 INTRA-LIGAND FREE ENERGY PREDICTED BY IDOCK:   -2.39 KCAL/MOL
REMARK 927      BINDING AFFINITY PREDICTED BY RF-SCORE:    0.00 PKD
ROOT
HETATM    1  C   UNL     1     -10.243  11.528  63.503  1.00  0.00    -0.462 C  
HETATM    2  C   UNL     1     -11.722  11.770  63.753  1.00  0.00    -0.499 C  
ENDROOT
BRANCH   2   3
HETATM    3  C   UNL     1     -12.123  13.186  63.345  1.00  0.00    -0.558 C  
BRANCH   3   4
HETATM    4  C   UNL     1     -11.832  14.187  64.460  1.00  0.00    -0.451 C  
BRANCH   4   5
HETATM    5  C   UNL     1     -12.679  13.885  65.695  1.00  0.00    -0.534 C  
BRANCH   5   6
HETATM    6  C   UNL     1     -11.907  14.207  66.967  1.00  0.00    -0.458 C  
BRANCH   6   7
HETATM    7  C   UNL     1     -11.923  13.037  67.947  1.00  0.00    -0.338 C  
BRANCH   7   8
HETATM    8  C   UNL     1     -11.068  11.898  67.397  1.00  0.00    -0.336 C  
BRANCH   8   9
HETATM    9  C   UNL     1      -9.626  12.330  67.170  1.00  0.00    -0.200 C  
BRANCH   9  10
HETATM   10  C   UNL     1      -8.664  11.133  67.126  1.00  0.00    -0.141 C  
BRANCH  10  11
HETATM   11  C   UNL     1      -9.226   9.852  67.760  1.00  0.00    -0.141 C  
BRANCH  11  12
HETATM   12  C   UNL     1      -9.174   8.713  66.773  1.00  0.00    -0.169 C  
HETATM   13  O   UNL     1      -9.154   8.834  65.558  1.00  0.00    -0.203 OA 
BRANCH  12  14
HETATM   14  O   UNL     1      -8.963   7.544  67.441  1.00  0.00    -0.126 OA 
BRANCH  14  15
HETATM   15  C   UNL     1      -7.622   7.374  67.915  1.00  0.00    -0.114 C  
BRANCH  15  16
HETATM   16  C   UNL     1      -7.722   6.507  69.175  1.00  0.00    -0.102 C  
BRANCH  16  17
HETATM   17  N   UNL     1      -8.199   7.215  70.351  1.00  0.00    -0.124 N  
HETATM   18  C   UNL     1      -9.415   6.909  70.912  1.00  0.00    -0.157 C  
HETATM   19  H   UNL     1      -7.623   7.947  70.766  1.00  0.00     0.000 HD 
HETATM   20  O   UNL     1     -10.212   6.123  70.409  1.00  0.00    -0.188 OA 
BRANCH  18  21
HETATM   21  C   UNL     1      -9.780   7.673  72.168  1.00  0.00    -0.173 C  
BRANCH  21  22
HETATM   22  N   UNL     1     -10.917   8.570  71.875  1.00  0.00    -0.299 NA 
HETATM   23  C   UNL     1     -10.736   9.644  71.064  1.00  0.00    -0.323 A  
HETATM   24  C   UNL     1     -11.786  10.510  70.795  1.00  0.00    -0.465 A  
HETATM   25  C   UNL     1     -13.035  10.260  71.345  1.00  0.00    -0.540 A  
HETATM   26  C   UNL     1     -13.211   9.148  72.158  1.00  0.00    -0.524 A  
HETATM   27  C   UNL     1     -12.131   8.311  72.410  1.00  0.00    -0.369 A  
ENDBRANCH  21  22
ENDBRANCH  18  21
ENDBRANCH  16  17
ENDBRANCH  15  16
ENDBRANCH  14  15
ENDBRANCH  12  14
ENDBRANCH  11  12
ENDBRANCH  10  11
ENDBRANCH   9  10
ENDBRANCH   8   9
ENDBRANCH   7   8
ENDBRANCH   6   7
ENDBRANCH   5   6
ENDBRANCH   4   5
ENDBRANCH   3   4
ENDBRANCH   2   3
TORSDOF 16
ENDMDL
MODEL       98
REMARK 921   NORMALIZED FREE ENERGY PREDICTED BY IDOCK:   -4.26 KCAL/MOL
REMARK 922        TOTAL FREE ENERGY PREDICTED BY IDOCK:  -10.33 KCAL/MOL
REMARK 923 INTER-LIGAND FREE ENERGY PREDICTED BY IDOCK:   -9.24 KCAL/MOL
REMARK 924 INTRA-LIGAND FREE ENERGY PREDICTED BY IDOCK:   -1.09 KCAL/MOL
REMARK 927      BINDING AFFINITY PREDICTED BY RF-SCORE:    0.00 PKD
ROOT
HETATM    1  C   UNL     1     -10.779  19.076  67.296  1.00  0.00    -0.556 C  
HETATM    2  C   UNL     1     -10.551  18.137  66.124  1.00  0.00    -0.289 C  
ENDROOT
BRANCH   2   3
HETATM    3  C   UNL     1      -9.721  16.926  66.544  1.00  0.00    -0.295 C  
BRANCH   3   4
HETATM    4  C   UNL     1     -10.608  15.805  67.078  1.00  0.00    -0.316 C  
BRANCH   4   5
HETATM    5  C   UNL     1     -11.285  15.055  65.932  1.00  0.00    -0.313 C  
BRANCH   5   6
HETATM    6  C   UNL     1     -12.286  14.041  66.471  1.00  0.00    -0.485 C  
BRANCH   6   7
HETATM    7  C   UNL     1     -12.269  12.749  65.660  1.00  0.00    -0.503 C  
BRANCH   7   8
HETATM    8  C   UNL     1     -11.296  12.890  64.493  1.00  0.00    -0.382 C  
BRANCH   8   9
HETATM    9  C   UNL     1     -10.921  11.539  63.900  1.00  0.00    -0.474 C  
BRANCH   9  10
HETATM   10  C   UNL     1     -10.182  10.650  64.913  1.00  0.00    -0.395 C  
BRANCH  10  11
HETATM   11  C   UNL     1      -8.987  11.331  65.593  1.00  0.00    -0.173 C  
BRANCH  11  12
HETATM   12  C   UNL     1      -8.565  10.553  66.814  1.00  0.00    -0.126 C  
HETATM   13  O   UNL     1      -7.417  10.232  67.081  1.00  0.00    -0.090 OA 
BRANCH  12  14
HETATM   14  O   UNL     1      -9.623  10.429  67.662  1.00  0.00    -0.147 OA 
BRANCH  14  15
HETATM   15  C   UNL     1      -9.289  10.593  69.045  1.00  0.00    -0.180 C  
BRANCH  15  16
HETATM   16  C   UNL     1     -10.191   9.625  69.819  1.00  0.00    -0.237 C  
BRANCH  16  17
HETATM   17  N   UNL     1     -11.001  10.256  70.848  1.00  0.00    -0.356 N  
HETATM   18  C   UNL     1     -12.227  10.797  70.545  1.00  0.00    -0.366 C  
HETATM   19  H   UNL     1     -10.655  10.298  71.806  1.00  0.00     0.000 HD 
HETATM   20  O   UNL     1     -12.661  10.888  69.401  1.00  0.00    -0.284 OA 
BRANCH  18  21
HETATM   21  C   UNL     1     -13.005  11.376  71.709  1.00  0.00    -0.414 C  
BRANCH  21  22
HETATM   22  N   UNL     1     -13.060  12.847  71.568  1.00  0.00    -0.351 NA 
HETATM   23  C   UNL     1     -13.811  13.578  72.432  1.00  0.00    -0.586 A  
HETATM   24  C   UNL     1     -13.894  14.957  72.302  1.00  0.00    -0.588 A  
HETATM   25  C   UNL     1     -13.186  15.590  71.290  1.00  0.00    -0.588 A  
HETATM   26  C   UNL     1     -12.409  14.833  70.425  1.00  0.00    -0.402 A  
HETATM   27  C   UNL     1     -12.360  13.453  70.584  1.00  0.00    -0.348 A  
ENDBRANCH  21  22
ENDBRANCH  18  21
ENDBRANCH  16  17
ENDBRANCH  15  16
ENDBRANCH  14  15
ENDBRANCH  12  14
ENDBRANCH  11  12
ENDBRANCH  10  11
ENDBRANCH   9  10
ENDBRANCH   8   9
ENDBRANCH   7   8
ENDBRANCH   6   7
ENDBRANCH   5   6
ENDBRANCH   4   5
ENDBRANCH   3   4
ENDBRANCH   2   3
TORSDOF 16
ENDMDL
MODEL       99
REMARK 921   NORMALIZED FREE ENERGY PREDICTED BY IDOCK:   -4.26 KCAL/MOL
REMARK 922        TOTAL FREE ENERGY PREDICTED BY IDOCK:  -10.32 KCAL/MOL
REMARK 923 INTER-LIGAND FREE ENERGY PREDICTED BY IDOCK:   -8.99 KCAL/MOL
REMARK 924 INTRA-LIGAND FREE ENERGY PREDICTED BY IDOCK:   -1.33 KCAL/MOL
REMARK 927      BINDING AFFINITY PREDICTED BY RF-SCORE:    0.00 PKD
ROOT
HETATM    1  C   UNL     1      -8.931   8.948  71.319  1.00  0.00    -0.312 C  
HETATM    2  C   UNL     1      -9.419   8.404  72.651  1.00  0.00    -0.335 C  
ENDROOT
BRANCH   2   3
HETATM    3  C   UNL     1     -10.801   7.769  72.512  1.00  0.00    -0.386 C  
BRANCH   3   4
HETATM    4  C   UNL     1     -11.290   7.820  71.068  1.00  0.00    -0.287 C  
BRANCH   4   5
HETATM    5  C   UNL     1     -11.467   6.410  70.505  1.00  0.00    -0.444 C  
BRANCH   5   6
HETATM    6  C   UNL     1     -10.449   6.140  69.405  1.00  0.00    -0.316 C  
BRANCH   6   7
HETATM    7  C   UNL     1     -11.116   6.029  68.036  1.00  0.00    -0.233 C  
BRANCH   7   8
HETATM    8  C   UNL     1     -10.599   7.138  67.124  1.00  0.00    -0.417 C  
BRANCH   8   9
HETATM    9  C   UNL     1      -9.467   7.924  67.771  1.00  0.00    -0.165 C  
BRANCH   9  10
HETATM   10  C   UNL     1      -9.525   9.417  67.415  1.00  0.00    -0.163 C  
BRANCH  10  11
HETATM   11  C   UNL     1     -10.445   9.747  66.231  1.00  0.00    -0.160 C  
BRANCH  11  12
HETATM   12  C   UNL     1      -9.932  10.955  65.489  1.00  0.00    -0.260 C  
HETATM   13  O   UNL     1      -8.756  11.198  65.269  1.00  0.00    -0.142 OA 
BRANCH  12  14
HETATM   14  O   UNL     1     -10.980  11.630  64.941  1.00  0.00    -0.303 OA 
BRANCH  14  15
HETATM   15  C   UNL     1     -11.087  12.994  65.367  1.00  0.00    -0.275 C  
BRANCH  15  16
HETATM   16  C   UNL     1     -11.909  12.973  66.661  1.00  0.00    -0.393 C  
BRANCH  16  17
HETATM   17  N   UNL     1     -11.972  14.251  67.349  1.00  0.00    -0.489 N  
HETATM   18  C   UNL     1     -11.713  14.339  68.696  1.00  0.00    -0.345 C  
HETATM   19  H   UNL     1     -12.211  15.094  66.827  1.00  0.00     0.000 HD 
HETATM   20  O   UNL     1     -11.530  13.360  69.413  1.00  0.00    -0.272 OA 
BRANCH  18  21
HETATM   21  C   UNL     1     -11.753  15.731  69.292  1.00  0.00    -0.374 C  
BRANCH  21  22
HETATM   22  N   UNL     1     -12.386  15.666  70.626  1.00  0.00    -0.413 NA 
HETATM   23  C   UNL     1     -13.684  15.285  70.737  1.00  0.00    -0.189 A  
HETATM   24  C   UNL     1     -14.303  15.240  71.978  1.00  0.00    -0.689 A  
HETATM   25  C   UNL     1     -13.578  15.570  73.114  1.00  0.00    -0.514 A  
HETATM   26  C   UNL     1     -12.246  15.941  72.988  1.00  0.00    -0.609 A  
HETATM   27  C   UNL     1     -11.667  15.982  71.726  1.00  0.00    -0.509 A  
ENDBRANCH  21  22
ENDBRANCH  18  21
ENDBRANCH  16  17
ENDBRANCH  15  16
ENDBRANCH  14  15
ENDBRANCH  12  14
ENDBRANCH  11  12
ENDBRANCH  10  11
ENDBRANCH   9  10
ENDBRANCH   8   9
ENDBRANCH   7   8
ENDBRANCH   6   7
ENDBRANCH   5   6
ENDBRANCH   4   5
ENDBRANCH   3   4
ENDBRANCH   2   3
TORSDOF 16
ENDMDL
MODEL      100
REMARK 921   NORMALIZED FREE ENERGY PREDICTED BY IDOCK:   -4.25 KCAL/MOL
REMARK 922        TOTAL FREE ENERGY PREDICTED BY IDOCK:  -10.32 KCAL/MOL
REMARK 923 INTER-LIGAND FREE ENERGY PREDICTED BY IDOCK:   -8.41 KCAL/MOL
REMARK 924 INTRA-LIGAND FREE ENERGY PREDICTED BY IDOCK:   -1.91 KCAL/MOL
REMARK 927      BINDING AFFINITY PREDICTED BY RF-SCORE:    0.00 PKD
ROOT
HETATM    1  C   UNL     1      -9.140   3.072  69.536  1.00  0.00    -0.198 C  
HETATM    2  C   UNL     1      -9.371   4.518  69.133  1.00  0.00    -0.214 C  
ENDROOT
BRANCH   2   3
HETATM    3  C   UNL     1     -10.408   5.181  70.038  1.00  0.00    -0.347 C  
BRANCH   3   4
HETATM    4  C   UNL     1     -11.280   6.159  69.256  1.00  0.00    -0.438 C  
BRANCH   4   5
HETATM    5  C   UNL     1     -10.895   6.167  67.777  1.00  0.00    -0.413 C  
BRANCH   5   6
HETATM    6  C   UNL     1     -10.578   7.582  67.312  1.00  0.00    -0.394 C  
BRANCH   6   7
HETATM    7  C   UNL     1      -9.167   8.002  67.714  1.00  0.00    -0.142 C  
BRANCH   7   8
HETATM    8  C   UNL     1      -9.188   9.438  68.231  1.00  0.00    -0.133 C  
BRANCH   8   9
HETATM    9  C   UNL     1      -8.477   9.569  69.570  1.00  0.00    -0.156 C  
BRANCH   9  10
HETATM   10  C   UNL     1      -8.749   8.367  70.488  1.00  0.00    -0.152 C  
BRANCH  10  11
HETATM   11  C   UNL     1      -9.323   8.742  71.862  1.00  0.00    -0.343 C  
BRANCH  11  12
HETATM   12  C   UNL     1     -10.824   8.603  71.859  1.00  0.00    -0.348 C  
HETATM   13  O   UNL     1     -11.460   7.833  72.561  1.00  0.00    -0.329 OA 
BRANCH  12  14
HETATM   14  O   UNL     1     -11.370   9.592  71.098  1.00  0.00    -0.327 OA 
BRANCH  14  15
HETATM   15  C   UNL     1     -12.683   9.993  71.511  1.00  0.00    -0.429 C  
BRANCH  15  16
HETATM   16  C   UNL     1     -12.770  11.500  71.248  1.00  0.00    -0.364 C  
BRANCH  16  17
HETATM   17  N   UNL     1     -11.850  11.984  70.231  1.00  0.00    -0.502 N  
HETATM   18  C   UNL     1     -11.894  13.289  69.806  1.00  0.00    -0.325 C  
HETATM   19  H   UNL     1     -11.164  11.346  69.829  1.00  0.00     0.000 HD 
HETATM   20  O   UNL     1     -12.759  14.085  70.157  1.00  0.00    -0.302 OA 
BRANCH  18  21
HETATM   21  C   UNL     1     -10.849  13.692  68.785  1.00  0.00    -0.255 C  
BRANCH  21  22
HETATM   22  N   UNL     1     -11.339  13.349  67.433  1.00  0.00    -0.295 NA 
HETATM   23  C   UNL     1     -10.858  12.247  66.803  1.00  0.00    -0.253 A  
HETATM   24  C   UNL     1     -11.288  11.921  65.524  1.00  0.00    -0.334 A  
HETATM   25  C   UNL     1     -12.233  12.722  64.898  1.00  0.00    -0.519 A  
HETATM   26  C   UNL     1     -12.729  13.836  65.561  1.00  0.00    -0.530 A  
HETATM   27  C   UNL     1     -12.265  14.132  66.836  1.00  0.00    -0.365 A  
ENDBRANCH  21  22
ENDBRANCH  18  21
ENDBRANCH  16  17
ENDBRANCH  15  16
ENDBRANCH  14  15
ENDBRANCH  12  14
ENDBRANCH  11  12
ENDBRANCH  10  11
ENDBRANCH   9  10
ENDBRANCH   8   9
ENDBRANCH   7   8
ENDBRANCH   6   7
ENDBRANCH   5   6
ENDBRANCH   4   5
ENDBRANCH   3   4
ENDBRANCH   2   3
TORSDOF 16
ENDMDL
MODEL      101
REMARK 921   NORMALIZED FREE ENERGY PREDICTED BY IDOCK:   -4.25 KCAL/MOL
REMARK 922        TOTAL FREE ENERGY PREDICTED BY IDOCK:  -10.30 KCAL/MOL
REMARK 923 INTER-LIGAND FREE ENERGY PREDICTED BY IDOCK:   -8.04 KCAL/MOL
REMARK 924 INTRA-LIGAND FREE ENERGY PREDICTED BY IDOCK:   -2.26 KCAL/MOL
REMARK 927      BINDING AFFINITY PREDICTED BY RF-SCORE:    0.00 PKD
ROOT
HETATM    1  C   UNL     1      -8.779   9.238  62.888  1.00  0.00    -0.210 C  
HETATM    2  C   UNL     1      -8.951   9.711  64.322  1.00  0.00    -0.269 C  
ENDROOT
BRANCH   2   3
HETATM    3  C   UNL     1      -9.522  11.127  64.368  1.00  0.00    -0.251 C  
BRANCH   3   4
HETATM    4  C   UNL     1     -10.922  11.179  63.763  1.00  0.00    -0.256 C  
BRANCH   4   5
HETATM    5  C   UNL     1     -11.483  12.599  63.816  1.00  0.00    -0.539 C  
BRANCH   5   6
HETATM    6  C   UNL     1     -12.635  12.684  64.808  1.00  0.00    -0.530 C  
BRANCH   6   7
HETATM    7  C   UNL     1     -12.361  13.715  65.901  1.00  0.00    -0.516 C  
BRANCH   7   8
HETATM    8  C   UNL     1     -11.934  13.002  67.181  1.00  0.00    -0.389 C  
BRANCH   8   9
HETATM    9  C   UNL     1     -10.427  13.052  67.383  1.00  0.00    -0.235 C  
BRANCH   9  10
HETATM   10  C   UNL     1      -9.880  11.748  67.983  1.00  0.00    -0.184 C  
BRANCH  10  11
HETATM   11  C   UNL     1     -10.868  10.574  67.940  1.00  0.00    -0.333 C  
BRANCH  11  12
HETATM   12  C   UNL     1     -10.124   9.262  67.927  1.00  0.00    -0.200 C  
HETATM   13  O   UNL     1      -8.920   9.135  68.089  1.00  0.00    -0.129 OA 
BRANCH  12  14
HETATM   14  O   UNL     1     -11.016   8.234  67.898  1.00  0.00    -0.029 OA 
BRANCH  14  15
HETATM   15  C   UNL     1     -10.681   7.192  66.973  1.00  0.00    -0.350 C  
BRANCH  15  16
HETATM   16  C   UNL     1     -10.516   5.918  67.808  1.00  0.00    -0.238 C  
BRANCH  16  17
HETATM   17  N   UNL     1     -11.146   5.976  69.117  1.00  0.00    -0.370 N  
HETATM   18  C   UNL     1     -10.388   6.004  70.263  1.00  0.00    -0.222 C  
HETATM   19  H   UNL     1     -12.163   5.996  69.186  1.00  0.00     0.000 HD 
HETATM   20  O   UNL     1      -9.169   5.870  70.269  1.00  0.00    -0.150 OA 
BRANCH  18  21
HETATM   21  C   UNL     1     -11.154   6.122  71.564  1.00  0.00    -0.286 C  
BRANCH  21  22
HETATM   22  N   UNL     1     -11.925   7.383  71.558  1.00  0.00    -0.292 NA 
HETATM   23  C   UNL     1     -13.280   7.343  71.642  1.00  0.00    -0.362 A  
HETATM   24  C   UNL     1     -14.023   8.515  71.614  1.00  0.00    -0.463 A  
HETATM   25  C   UNL     1     -13.369   9.735  71.520  1.00  0.00    -0.468 A  
HETATM   26  C   UNL     1     -11.983   9.762  71.453  1.00  0.00    -0.493 A  
HETATM   27  C   UNL     1     -11.277   8.566  71.474  1.00  0.00    -0.279 A  
ENDBRANCH  21  22
ENDBRANCH  18  21
ENDBRANCH  16  17
ENDBRANCH  15  16
ENDBRANCH  14  15
ENDBRANCH  12  14
ENDBRANCH  11  12
ENDBRANCH  10  11
ENDBRANCH   9  10
ENDBRANCH   8   9
ENDBRANCH   7   8
ENDBRANCH   6   7
ENDBRANCH   5   6
ENDBRANCH   4   5
ENDBRANCH   3   4
ENDBRANCH   2   3
TORSDOF 16
ENDMDL
MODEL      102
REMARK 921   NORMALIZED FREE ENERGY PREDICTED BY IDOCK:   -4.25 KCAL/MOL
REMARK 922        TOTAL FREE ENERGY PREDICTED BY IDOCK:  -10.30 KCAL/MOL
REMARK 923 INTER-LIGAND FREE ENERGY PREDICTED BY IDOCK:   -9.31 KCAL/MOL
REMARK 924 INTRA-LIGAND FREE ENERGY PREDICTED BY IDOCK:   -0.99 KCAL/MOL
REMARK 927      BINDING AFFINITY PREDICTED BY RF-SCORE:    0.00 PKD
ROOT
HETATM    1  C   UNL     1      -6.220   8.268  63.951  1.00  0.00    -0.067 C  
HETATM    2  C   UNL     1      -7.084   9.400  63.421  1.00  0.00    -0.096 C  
ENDROOT
BRANCH   2   3
HETATM    3  C   UNL     1      -8.540   9.223  63.847  1.00  0.00    -0.208 C  
BRANCH   3   4
HETATM    4  C   UNL     1      -9.269  10.563  63.892  1.00  0.00    -0.287 C  
BRANCH   4   5
HETATM    5  C   UNL     1     -10.317  10.574  65.004  1.00  0.00    -0.310 C  
BRANCH   5   6
HETATM    6  C   UNL     1     -10.954  11.952  65.128  1.00  0.00    -0.365 C  
BRANCH   6   7
HETATM    7  C   UNL     1     -11.819  12.283  63.914  1.00  0.00    -0.553 C  
BRANCH   7   8
HETATM    8  C   UNL     1     -12.140  13.775  63.907  1.00  0.00    -0.423 C  
BRANCH   8   9
HETATM    9  C   UNL     1     -11.803  14.434  65.237  1.00  0.00    -0.373 C  
BRANCH   9  10
HETATM   10  C   UNL     1     -10.900  15.665  65.059  1.00  0.00    -0.468 C  
BRANCH  10  11
HETATM   11  C   UNL     1      -9.555  15.568  65.792  1.00  0.00    -0.367 C  
BRANCH  11  12
HETATM   12  C   UNL     1      -9.002  16.946  66.058  1.00  0.00    -0.163 C  
HETATM   13  O   UNL     1      -7.868  17.312  65.790  1.00  0.00    -0.495 OA 
BRANCH  12  14
HETATM   14  O   UNL     1     -10.008  17.768  66.465  1.00  0.00    -0.314 OA 
BRANCH  14  15
HETATM   15  C   UNL     1      -9.579  18.856  67.293  1.00  0.00    -0.307 C  
BRANCH  15  16
HETATM   16  C   UNL     1      -9.984  18.488  68.724  1.00  0.00    -0.380 C  
BRANCH  16  17
HETATM   17  N   UNL     1     -11.001  17.453  68.809  1.00  0.00    -0.247 N  
HETATM   18  C   UNL     1     -10.681  16.185  69.229  1.00  0.00    -0.295 C  
HETATM   19  H   UNL     1     -11.964  17.671  68.555  1.00  0.00     0.000 HD 
HETATM   20  O   UNL     1      -9.531  15.815  69.443  1.00  0.00    -0.254 OA 
BRANCH  18  21
HETATM   21  C   UNL     1     -11.834  15.208  69.333  1.00  0.00    -0.330 C  
BRANCH  21  22
HETATM   22  N   UNL     1     -12.243  15.092  70.748  1.00  0.00    -0.310 NA 
HETATM   23  C   UNL     1     -11.837  16.028  71.644  1.00  0.00    -0.507 A  
HETATM   24  C   UNL     1     -12.191  15.924  72.982  1.00  0.00    -0.609 A  
HETATM   25  C   UNL     1     -12.985  14.865  73.397  1.00  0.00    -0.597 A  
HETATM   26  C   UNL     1     -13.408  13.925  72.467  1.00  0.00    -0.656 A  
HETATM   27  C   UNL     1     -13.023  14.060  71.139  1.00  0.00    -0.332 A  
ENDBRANCH  21  22
ENDBRANCH  18  21
ENDBRANCH  16  17
ENDBRANCH  15  16
ENDBRANCH  14  15
ENDBRANCH  12  14
ENDBRANCH  11  12
ENDBRANCH  10  11
ENDBRANCH   9  10
ENDBRANCH   8   9
ENDBRANCH   7   8
ENDBRANCH   6   7
ENDBRANCH   5   6
ENDBRANCH   4   5
ENDBRANCH   3   4
ENDBRANCH   2   3
TORSDOF 16
ENDMDL
MODEL      103
REMARK 921   NORMALIZED FREE ENERGY PREDICTED BY IDOCK:   -4.24 KCAL/MOL
REMARK 922        TOTAL FREE ENERGY PREDICTED BY IDOCK:  -10.28 KCAL/MOL
REMARK 923 INTER-LIGAND FREE ENERGY PREDICTED BY IDOCK:   -9.11 KCAL/MOL
REMARK 924 INTRA-LIGAND FREE ENERGY PREDICTED BY IDOCK:   -1.17 KCAL/MOL
REMARK 927      BINDING AFFINITY PREDICTED BY RF-SCORE:    0.00 PKD
ROOT
HETATM    1  C   UNL     1     -11.956  14.061  64.252  1.00  0.00    -0.463 C  
HETATM    2  C   UNL     1     -12.328  12.765  64.953  1.00  0.00    -0.551 C  
ENDROOT
BRANCH   2   3
HETATM    3  C   UNL     1     -12.026  12.843  66.448  1.00  0.00    -0.462 C  
BRANCH   3   4
HETATM    4  C   UNL     1     -11.142  11.683  66.895  1.00  0.00    -0.365 C  
BRANCH   4   5
HETATM    5  C   UNL     1     -10.076  11.377  65.843  1.00  0.00    -0.286 C  
BRANCH   5   6
HETATM    6  C   UNL     1      -9.108  10.317  66.353  1.00  0.00    -0.174 C  
BRANCH   6   7
HETATM    7  C   UNL     1      -9.591   8.908  66.021  1.00  0.00    -0.320 C  
BRANCH   7   8
HETATM    8  C   UNL     1      -9.727   8.097  67.306  1.00  0.00    -0.233 C  
BRANCH   8   9
HETATM    9  C   UNL     1     -10.718   6.952  67.153  1.00  0.00    -0.436 C  
BRANCH   9  10
HETATM   10  C   UNL     1     -10.689   5.997  68.356  1.00  0.00    -0.351 C  
BRANCH  10  11
HETATM   11  C   UNL     1     -11.658   6.378  69.484  1.00  0.00    -0.303 C  
BRANCH  11  12
HETATM   12  C   UNL     1     -10.902   6.623  70.766  1.00  0.00    -0.252 C  
HETATM   13  O   UNL     1      -9.718   6.912  70.839  1.00  0.00    -0.178 OA 
BRANCH  12  14
HETATM   14  O   UNL     1     -11.776   6.659  71.809  1.00  0.00    -0.286 OA 
BRANCH  14  15
HETATM   15  C   UNL     1     -13.121   6.987  71.437  1.00  0.00    -0.314 C  
BRANCH  15  16
HETATM   16  C   UNL     1     -13.430   8.334  72.099  1.00  0.00    -0.269 C  
BRANCH  16  17
HETATM   17  N   UNL     1     -13.377   9.471  71.193  1.00  0.00    -0.538 N  
HETATM   18  C   UNL     1     -12.213  10.179  71.020  1.00  0.00    -0.374 C  
HETATM   19  H   UNL     1     -14.215   9.745  70.681  1.00  0.00     0.000 HD 
HETATM   20  O   UNL     1     -11.198   9.983  71.681  1.00  0.00    -0.162 OA 
BRANCH  18  21
HETATM   21  C   UNL     1     -12.264  11.306  70.009  1.00  0.00    -0.314 C  
BRANCH  21  22
HETATM   22  N   UNL     1     -12.552  12.573  70.714  1.00  0.00    -0.267 NA 
HETATM   23  C   UNL     1     -12.195  13.754  70.146  1.00  0.00    -0.356 A  
HETATM   24  C   UNL     1     -12.436  14.953  70.803  1.00  0.00    -0.401 A  
HETATM   25  C   UNL     1     -13.064  14.939  72.040  1.00  0.00    -0.426 A  
HETATM   26  C   UNL     1     -13.439  13.726  72.600  1.00  0.00    -0.638 A  
HETATM   27  C   UNL     1     -13.171  12.548  71.915  1.00  0.00    -0.392 A  
ENDBRANCH  21  22
ENDBRANCH  18  21
ENDBRANCH  16  17
ENDBRANCH  15  16
ENDBRANCH  14  15
ENDBRANCH  12  14
ENDBRANCH  11  12
ENDBRANCH  10  11
ENDBRANCH   9  10
ENDBRANCH   8   9
ENDBRANCH   7   8
ENDBRANCH   6   7
ENDBRANCH   5   6
ENDBRANCH   4   5
ENDBRANCH   3   4
ENDBRANCH   2   3
TORSDOF 16
ENDMDL
MODEL      104
REMARK 921   NORMALIZED FREE ENERGY PREDICTED BY IDOCK:   -4.24 KCAL/MOL
REMARK 922        TOTAL FREE ENERGY PREDICTED BY IDOCK:  -10.28 KCAL/MOL
REMARK 923 INTER-LIGAND FREE ENERGY PREDICTED BY IDOCK:   -8.66 KCAL/MOL
REMARK 924 INTRA-LIGAND FREE ENERGY PREDICTED BY IDOCK:   -1.63 KCAL/MOL
REMARK 927      BINDING AFFINITY PREDICTED BY RF-SCORE:    0.00 PKD
ROOT
HETATM    1  C   UNL     1     -12.276  14.962  64.409  1.00  0.00    -0.399 C  
HETATM    2  C   UNL     1     -12.707  13.864  65.367  1.00  0.00    -0.525 C  
ENDROOT
BRANCH   2   3
HETATM    3  C   UNL     1     -12.375  12.484  64.805  1.00  0.00    -0.544 C  
BRANCH   3   4
HETATM    4  C   UNL     1     -11.696  12.590  63.442  1.00  0.00    -0.567 C  
BRANCH   4   5
HETATM    5  C   UNL     1     -10.436  11.726  63.395  1.00  0.00    -0.485 C  
BRANCH   5   6
HETATM    6  C   UNL     1     -10.433  10.719  64.538  1.00  0.00    -0.351 C  
BRANCH   6   7
HETATM    7  C   UNL     1      -9.027  10.502  65.091  1.00  0.00    -0.214 C  
BRANCH   7   8
HETATM    8  C   UNL     1      -8.742   9.006  65.191  1.00  0.00    -0.223 C  
BRANCH   8   9
HETATM    9  C   UNL     1      -8.866   8.499  66.621  1.00  0.00    -0.157 C  
BRANCH   9  10
HETATM   10  C   UNL     1      -9.088   9.644  67.622  1.00  0.00    -0.141 C  
BRANCH  10  11
HETATM   11  C   UNL     1     -10.457   9.616  68.316  1.00  0.00    -0.259 C  
BRANCH  11  12
HETATM   12  C   UNL     1     -11.118  10.969  68.227  1.00  0.00    -0.257 C  
HETATM   13  O   UNL     1     -12.307  11.183  68.402  1.00  0.00    -0.556 OA 
BRANCH  12  14
HETATM   14  O   UNL     1     -10.164  11.934  68.111  1.00  0.00    -0.187 OA 
BRANCH  14  15
HETATM   15  C   UNL     1     -10.636  13.260  68.377  1.00  0.00    -0.252 C  
BRANCH  15  16
HETATM   16  C   UNL     1      -9.828  14.190  67.465  1.00  0.00    -0.235 C  
BRANCH  16  17
HETATM   17  N   UNL     1     -10.164  15.598  67.599  1.00  0.00    -0.256 N  
HETATM   18  C   UNL     1      -9.788  16.506  66.639  1.00  0.00    -0.268 C  
HETATM   19  H   UNL     1     -10.685  15.916  68.416  1.00  0.00     0.000 HD 
HETATM   20  O   UNL     1      -9.066  16.223  65.688  1.00  0.00    -0.428 OA 
BRANCH  18  21
HETATM   21  C   UNL     1     -10.244  17.934  66.858  1.00  0.00    -0.358 C  
BRANCH  21  22
HETATM   22  N   UNL     1      -9.077  18.759  67.236  1.00  0.00    -0.274 NA 
HETATM   23  C   UNL     1      -8.525  19.600  66.324  1.00  0.00    -0.360 A  
HETATM   24  C   UNL     1      -7.415  20.367  66.653  1.00  0.00    -0.297 A  
HETATM   25  C   UNL     1      -6.883  20.283  67.931  1.00  0.00    -0.326 A  
HETATM   26  C   UNL     1      -7.469  19.432  68.859  1.00  0.00    -0.399 A  
HETATM   27  C   UNL     1      -8.572  18.675  68.487  1.00  0.00    -0.340 A  
ENDBRANCH  21  22
ENDBRANCH  18  21
ENDBRANCH  16  17
ENDBRANCH  15  16
ENDBRANCH  14  15
ENDBRANCH  12  14
ENDBRANCH  11  12
ENDBRANCH  10  11
ENDBRANCH   9  10
ENDBRANCH   8   9
ENDBRANCH   7   8
ENDBRANCH   6   7
ENDBRANCH   5   6
ENDBRANCH   4   5
ENDBRANCH   3   4
ENDBRANCH   2   3
TORSDOF 16
ENDMDL
MODEL      105
REMARK 921   NORMALIZED FREE ENERGY PREDICTED BY IDOCK:   -4.23 KCAL/MOL
REMARK 922        TOTAL FREE ENERGY PREDICTED BY IDOCK:  -10.27 KCAL/MOL
REMARK 923 INTER-LIGAND FREE ENERGY PREDICTED BY IDOCK:   -8.42 KCAL/MOL
REMARK 924 INTRA-LIGAND FREE ENERGY PREDICTED BY IDOCK:   -1.85 KCAL/MOL
REMARK 927      BINDING AFFINITY PREDICTED BY RF-SCORE:    0.00 PKD
ROOT
HETATM    1  C   UNL     1     -12.251  13.100  63.392  1.00  0.00    -0.521 C  
HETATM    2  C   UNL     1     -11.670  11.726  63.680  1.00  0.00    -0.517 C  
ENDROOT
BRANCH   2   3
HETATM    3  C   UNL     1     -10.167  11.699  63.415  1.00  0.00    -0.471 C  
BRANCH   3   4
HETATM    4  C   UNL     1      -9.553  10.370  63.848  1.00  0.00    -0.370 C  
BRANCH   4   5
HETATM    5  C   UNL     1      -8.652  10.561  65.068  1.00  0.00    -0.184 C  
BRANCH   5   6
HETATM    6  C   UNL     1      -9.059   9.612  66.188  1.00  0.00    -0.201 C  
BRANCH   6   7
HETATM    7  C   UNL     1     -10.399  10.009  66.802  1.00  0.00    -0.283 C  
BRANCH   7   8
HETATM    8  C   UNL     1     -10.227  11.280  67.630  1.00  0.00    -0.206 C  
BRANCH   8   9
HETATM    9  C   UNL     1     -11.182  12.379  67.187  1.00  0.00    -0.353 C  
BRANCH   9  10
HETATM   10  C   UNL     1     -10.437  13.608  66.644  1.00  0.00    -0.272 C  
BRANCH  10  11
HETATM   11  C   UNL     1     -11.244  14.912  66.709  1.00  0.00    -0.338 C  
BRANCH  11  12
HETATM   12  C   UNL     1     -10.591  15.977  65.864  1.00  0.00    -0.328 C  
HETATM   13  O   UNL     1     -10.723  16.096  64.656  1.00  0.00    -0.637 OA 
BRANCH  12  14
HETATM   14  O   UNL     1      -9.987  16.891  66.673  1.00  0.00    -0.271 OA 
BRANCH  14  15
HETATM   15  C   UNL     1     -10.498  16.917  68.012  1.00  0.00    -0.347 C  
BRANCH  15  16
HETATM   16  C   UNL     1     -10.259  18.339  68.531  1.00  0.00    -0.379 C  
BRANCH  16  17
HETATM   17  N   UNL     1      -8.887  18.800  68.403  1.00  0.00    -0.333 N  
HETATM   18  C   UNL     1      -8.603  20.015  67.829  1.00  0.00    -0.289 C  
HETATM   19  H   UNL     1      -8.125  18.214  68.743  1.00  0.00     0.000 HD 
HETATM   20  O   UNL     1      -9.450  20.725  67.296  1.00  0.00    -0.432 OA 
BRANCH  18  21
HETATM   21  C   UNL     1      -7.142  20.414  67.802  1.00  0.00    -0.309 C  
BRANCH  21  22
HETATM   22  N   UNL     1      -6.597  20.161  66.452  1.00  0.00    -0.205 NA 
HETATM   23  C   UNL     1      -6.573  18.895  65.962  1.00  0.00    -0.232 A  
HETATM   24  C   UNL     1      -6.045  18.634  64.705  1.00  0.00    -0.152 A  
HETATM   25  C   UNL     1      -5.557  19.683  63.940  1.00  0.00    -0.312 A  
HETATM   26  C   UNL     1      -5.604  20.975  64.445  1.00  0.00    -0.270 A  
HETATM   27  C   UNL     1      -6.132  21.192  65.712  1.00  0.00    -0.211 A  
ENDBRANCH  21  22
ENDBRANCH  18  21
ENDBRANCH  16  17
ENDBRANCH  15  16
ENDBRANCH  14  15
ENDBRANCH  12  14
ENDBRANCH  11  12
ENDBRANCH  10  11
ENDBRANCH   9  10
ENDBRANCH   8   9
ENDBRANCH   7   8
ENDBRANCH   6   7
ENDBRANCH   5   6
ENDBRANCH   4   5
ENDBRANCH   3   4
ENDBRANCH   2   3
TORSDOF 16
ENDMDL
MODEL      106
REMARK 921   NORMALIZED FREE ENERGY PREDICTED BY IDOCK:   -4.23 KCAL/MOL
REMARK 922        TOTAL FREE ENERGY PREDICTED BY IDOCK:  -10.27 KCAL/MOL
REMARK 923 INTER-LIGAND FREE ENERGY PREDICTED BY IDOCK:   -9.19 KCAL/MOL
REMARK 924 INTRA-LIGAND FREE ENERGY PREDICTED BY IDOCK:   -1.07 KCAL/MOL
REMARK 927      BINDING AFFINITY PREDICTED BY RF-SCORE:    0.00 PKD
ROOT
HETATM    1  C   UNL     1     -10.072   6.000  73.467  1.00  0.00    -0.207 C  
HETATM    2  C   UNL     1     -10.156   5.835  71.959  1.00  0.00    -0.225 C  
ENDROOT
BRANCH   2   3
HETATM    3  C   UNL     1     -11.477   6.380  71.420  1.00  0.00    -0.363 C  
BRANCH   3   4
HETATM    4  C   UNL     1     -11.430   6.546  69.904  1.00  0.00    -0.467 C  
BRANCH   4   5
HETATM    5  C   UNL     1     -10.124   7.212  69.471  1.00  0.00    -0.182 C  
BRANCH   5   6
HETATM    6  C   UNL     1     -10.369   8.662  69.074  1.00  0.00    -0.226 C  
BRANCH   6   7
HETATM    7  C   UNL     1     -10.298   9.595  70.280  1.00  0.00    -0.336 C  
BRANCH   7   8
HETATM    8  C   UNL     1     -11.525  10.503  70.297  1.00  0.00    -0.416 C  
BRANCH   8   9
HETATM    9  C   UNL     1     -12.371  10.290  71.545  1.00  0.00    -0.488 C  
BRANCH   9  10
HETATM   10  C   UNL     1     -13.056  11.586  72.005  1.00  0.00    -0.430 C  
BRANCH  10  11
HETATM   11  C   UNL     1     -12.659  12.828  71.196  1.00  0.00    -0.365 C  
BRANCH  11  12
HETATM   12  C   UNL     1     -13.382  14.046  71.716  1.00  0.00    -0.386 C  
HETATM   13  O   UNL     1     -13.750  14.206  72.869  1.00  0.00    -0.658 OA 
BRANCH  12  14
HETATM   14  O   UNL     1     -13.393  15.012  70.756  1.00  0.00    -0.372 OA 
BRANCH  14  15
HETATM   15  C   UNL     1     -12.096  15.527  70.427  1.00  0.00    -0.392 C  
BRANCH  15  16
HETATM   16  C   UNL     1     -11.951  15.376  68.909  1.00  0.00    -0.273 C  
BRANCH  16  17
HETATM   17  N   UNL     1     -10.676  15.836  68.382  1.00  0.00    -0.269 N  
HETATM   18  C   UNL     1     -10.402  15.761  67.038  1.00  0.00    -0.292 C  
HETATM   19  H   UNL     1      -9.977  16.219  69.019  1.00  0.00     0.000 HD 
HETATM   20  O   UNL     1     -11.142  15.213  66.228  1.00  0.00    -0.337 OA 
BRANCH  18  21
HETATM   21  C   UNL     1      -9.065  16.323  66.600  1.00  0.00    -0.248 C  
BRANCH  21  22
HETATM   22  N   UNL     1      -9.091  17.794  66.739  1.00  0.00    -0.255 NA 
HETATM   23  C   UNL     1     -10.131  18.501  66.228  1.00  0.00    -0.398 A  
HETATM   24  C   UNL     1     -10.161  19.885  66.329  1.00  0.00    -0.614 A  
HETATM   25  C   UNL     1      -9.127  20.544  66.977  1.00  0.00    -0.416 A  
HETATM   26  C   UNL     1      -8.077  19.808  67.510  1.00  0.00    -0.337 A  
HETATM   27  C   UNL     1      -8.080  18.425  67.379  1.00  0.00    -0.240 A  
ENDBRANCH  21  22
ENDBRANCH  18  21
ENDBRANCH  16  17
ENDBRANCH  15  16
ENDBRANCH  14  15
ENDBRANCH  12  14
ENDBRANCH  11  12
ENDBRANCH  10  11
ENDBRANCH   9  10
ENDBRANCH   8   9
ENDBRANCH   7   8
ENDBRANCH   6   7
ENDBRANCH   5   6
ENDBRANCH   4   5
ENDBRANCH   3   4
ENDBRANCH   2   3
TORSDOF 16
ENDMDL
MODEL      107
REMARK 921   NORMALIZED FREE ENERGY PREDICTED BY IDOCK:   -4.23 KCAL/MOL
REMARK 922        TOTAL FREE ENERGY PREDICTED BY IDOCK:  -10.27 KCAL/MOL
REMARK 923 INTER-LIGAND FREE ENERGY PREDICTED BY IDOCK:   -8.78 KCAL/MOL
REMARK 924 INTRA-LIGAND FREE ENERGY PREDICTED BY IDOCK:   -1.48 KCAL/MOL
REMARK 927      BINDING AFFINITY PREDICTED BY RF-SCORE:    0.00 PKD
ROOT
HETATM    1  C   UNL     1     -14.204   8.627  71.995  1.00  0.00    -0.524 C  
HETATM    2  C   UNL     1     -12.986   9.481  72.300  1.00  0.00    -0.466 C  
ENDROOT
BRANCH   2   3
HETATM    3  C   UNL     1     -11.694   8.720  72.010  1.00  0.00    -0.442 C  
BRANCH   3   4
HETATM    4  C   UNL     1     -11.970   7.443  71.221  1.00  0.00    -0.343 C  
BRANCH   4   5
HETATM    5  C   UNL     1     -11.418   6.221  71.954  1.00  0.00    -0.360 C  
BRANCH   5   6
HETATM    6  C   UNL     1     -10.002   5.910  71.486  1.00  0.00    -0.221 C  
BRANCH   6   7
HETATM    7  C   UNL     1      -9.984   4.775  70.465  1.00  0.00    -0.306 C  
BRANCH   7   8
HETATM    8  C   UNL     1      -9.815   5.353  69.062  1.00  0.00    -0.231 C  
BRANCH   8   9
HETATM    9  C   UNL     1      -9.014   6.647  69.074  1.00  0.00    -0.130 C  
BRANCH   9  10
HETATM   10  C   UNL     1      -8.988   7.322  67.694  1.00  0.00    -0.126 C  
BRANCH  10  11
HETATM   11  C   UNL     1     -10.287   8.055  67.328  1.00  0.00    -0.371 C  
BRANCH  11  12
HETATM   12  C   UNL     1      -9.977   9.355  66.631  1.00  0.00    -0.258 C  
HETATM   13  O   UNL     1      -9.759   9.477  65.435  1.00  0.00    -0.294 OA 
BRANCH  12  14
HETATM   14  O   UNL     1     -10.163  10.390  67.496  1.00  0.00    -0.189 OA 
BRANCH  14  15
HETATM   15  C   UNL     1     -10.960  10.062  68.641  1.00  0.00    -0.204 C  
BRANCH  15  16
HETATM   16  C   UNL     1     -11.951  11.218  68.815  1.00  0.00    -0.282 C  
BRANCH  16  17
HETATM   17  N   UNL     1     -11.386  12.400  69.445  1.00  0.00    -0.401 N  
HETATM   18  C   UNL     1     -11.599  13.649  68.916  1.00  0.00    -0.322 C  
HETATM   19  H   UNL     1     -10.824  12.300  70.291  1.00  0.00     0.000 HD 
HETATM   20  O   UNL     1     -12.166  13.841  67.844  1.00  0.00    -0.327 OA 
BRANCH  18  21
HETATM   21  C   UNL     1     -11.009  14.810  69.690  1.00  0.00    -0.261 C  
BRANCH  21  22
HETATM   22  N   UNL     1     -11.855  15.083  70.871  1.00  0.00    -0.301 NA 
HETATM   23  C   UNL     1     -11.289  15.157  72.102  1.00  0.00    -0.242 A  
HETATM   24  C   UNL     1     -12.070  15.390  73.225  1.00  0.00    -0.591 A  
HETATM   25  C   UNL     1     -13.439  15.568  73.079  1.00  0.00    -0.632 A  
HETATM   26  C   UNL     1     -14.002  15.506  71.812  1.00  0.00    -0.569 A  
HETATM   27  C   UNL     1     -13.186  15.261  70.715  1.00  0.00    -0.390 A  
ENDBRANCH  21  22
ENDBRANCH  18  21
ENDBRANCH  16  17
ENDBRANCH  15  16
ENDBRANCH  14  15
ENDBRANCH  12  14
ENDBRANCH  11  12
ENDBRANCH  10  11
ENDBRANCH   9  10
ENDBRANCH   8   9
ENDBRANCH   7   8
ENDBRANCH   6   7
ENDBRANCH   5   6
ENDBRANCH   4   5
ENDBRANCH   3   4
ENDBRANCH   2   3
TORSDOF 16
ENDMDL
MODEL      108
REMARK 921   NORMALIZED FREE ENERGY PREDICTED BY IDOCK:   -4.21 KCAL/MOL
REMARK 922        TOTAL FREE ENERGY PREDICTED BY IDOCK:  -10.24 KCAL/MOL
REMARK 923 INTER-LIGAND FREE ENERGY PREDICTED BY IDOCK:   -9.08 KCAL/MOL
REMARK 924 INTRA-LIGAND FREE ENERGY PREDICTED BY IDOCK:   -1.16 KCAL/MOL
REMARK 927      BINDING AFFINITY PREDICTED BY RF-SCORE:    0.00 PKD
ROOT
HETATM    1  C   UNL     1     -12.438   6.820  71.210  1.00  0.00    -0.365 C  
HETATM    2  C   UNL     1     -11.819   8.102  71.739  1.00  0.00    -0.346 C  
ENDROOT
BRANCH   2   3
HETATM    3  C   UNL     1     -10.308   8.115  71.518  1.00  0.00    -0.265 C  
BRANCH   3   4
HETATM    4  C   UNL     1      -9.864   9.389  70.805  1.00  0.00    -0.348 C  
BRANCH   4   5
HETATM    5  C   UNL     1     -10.522   9.499  69.430  1.00  0.00    -0.231 C  
BRANCH   5   6
HETATM    6  C   UNL     1      -9.870   8.539  68.445  1.00  0.00    -0.189 C  
BRANCH   6   7
HETATM    7  C   UNL     1     -10.577   8.555  67.092  1.00  0.00    -0.314 C  
BRANCH   7   8
HETATM    8  C   UNL     1      -9.570   8.881  65.992  1.00  0.00    -0.320 C  
BRANCH   8   9
HETATM    9  C   UNL     1      -9.414  10.382  65.794  1.00  0.00    -0.247 C  
BRANCH   9  10
HETATM   10  C   UNL     1     -10.755  11.067  65.491  1.00  0.00    -0.218 C  
BRANCH  10  11
HETATM   11  C   UNL     1     -10.998  11.343  64.001  1.00  0.00    -0.428 C  
BRANCH  11  12
HETATM   12  C   UNL     1     -12.201  12.235  63.821  1.00  0.00    -0.546 C  
HETATM   13  O   UNL     1     -13.356  11.913  64.054  1.00  0.00    -0.646 OA 
BRANCH  12  14
HETATM   14  O   UNL     1     -11.789  13.503  63.543  1.00  0.00    -0.401 OA 
BRANCH  14  15
HETATM   15  C   UNL     1     -12.141  14.467  64.544  1.00  0.00    -0.481 C  
BRANCH  15  16
HETATM   16  C   UNL     1     -10.858  15.245  64.856  1.00  0.00    -0.425 C  
BRANCH  16  17
HETATM   17  N   UNL     1     -10.779  15.744  66.218  1.00  0.00    -0.306 N  
HETATM   18  C   UNL     1     -10.516  17.069  66.468  1.00  0.00    -0.250 C  
HETATM   19  H   UNL     1     -10.921  15.103  66.999  1.00  0.00     0.000 HD 
HETATM   20  O   UNL     1     -10.223  17.876  65.591  1.00  0.00    -0.589 OA 
BRANCH  18  21
HETATM   21  C   UNL     1     -10.514  17.484  67.925  1.00  0.00    -0.384 C  
BRANCH  21  22
HETATM   22  N   UNL     1      -9.129  17.798  68.336  1.00  0.00    -0.273 NA 
HETATM   23  C   UNL     1      -8.257  16.788  68.586  1.00  0.00    -0.252 A  
HETATM   24  C   UNL     1      -6.959  17.062  68.995  1.00  0.00    -0.229 A  
HETATM   25  C   UNL     1      -6.550  18.381  69.127  1.00  0.00    -0.280 A  
HETATM   26  C   UNL     1      -7.447  19.404  68.851  1.00  0.00    -0.399 A  
HETATM   27  C   UNL     1      -8.740  19.087  68.454  1.00  0.00    -0.346 A  
ENDBRANCH  21  22
ENDBRANCH  18  21
ENDBRANCH  16  17
ENDBRANCH  15  16
ENDBRANCH  14  15
ENDBRANCH  12  14
ENDBRANCH  11  12
ENDBRANCH  10  11
ENDBRANCH   9  10
ENDBRANCH   8   9
ENDBRANCH   7   8
ENDBRANCH   6   7
ENDBRANCH   5   6
ENDBRANCH   4   5
ENDBRANCH   3   4
ENDBRANCH   2   3
TORSDOF 16
ENDMDL
MODEL      109
REMARK 921   NORMALIZED FREE ENERGY PREDICTED BY IDOCK:   -4.21 KCAL/MOL
REMARK 922        TOTAL FREE ENERGY PREDICTED BY IDOCK:  -10.23 KCAL/MOL
REMARK 923 INTER-LIGAND FREE ENERGY PREDICTED BY IDOCK:   -8.74 KCAL/MOL
REMARK 924 INTRA-LIGAND FREE ENERGY PREDICTED BY IDOCK:   -1.49 KCAL/MOL
REMARK 927      BINDING AFFINITY PREDICTED BY RF-SCORE:    0.00 PKD
ROOT
HETATM    1  C   UNL     1      -8.304   9.449  65.255  1.00  0.00    -0.147 C  
HETATM    2  C   UNL     1      -9.764   9.319  65.655  1.00  0.00    -0.302 C  
ENDROOT
BRANCH   2   3
HETATM    3  C   UNL     1     -10.014   9.939  67.028  1.00  0.00    -0.254 C  
BRANCH   3   4
HETATM    4  C   UNL     1     -10.354   8.871  68.064  1.00  0.00    -0.271 C  
BRANCH   4   5
HETATM    5  C   UNL     1     -10.727   7.554  67.383  1.00  0.00    -0.331 C  
BRANCH   5   6
HETATM    6  C   UNL     1     -10.958   6.462  68.419  1.00  0.00    -0.390 C  
BRANCH   6   7
HETATM    7  C   UNL     1      -9.851   6.440  69.470  1.00  0.00    -0.176 C  
BRANCH   7   8
HETATM    8  C   UNL     1     -10.470   6.393  70.864  1.00  0.00    -0.275 C  
BRANCH   8   9
HETATM    9  C   UNL     1     -11.938   6.795  70.847  1.00  0.00    -0.437 C  
BRANCH   9  10
HETATM   10  C   UNL     1     -12.246   7.901  71.868  1.00  0.00    -0.351 C  
BRANCH  10  11
HETATM   11  C   UNL     1     -11.453   9.197  71.648  1.00  0.00    -0.451 C  
BRANCH  11  12
HETATM   12  C   UNL     1     -12.314  10.228  70.961  1.00  0.00    -0.381 C  
HETATM   13  O   UNL     1     -13.524  10.152  70.819  1.00  0.00    -0.311 OA 
BRANCH  12  14
HETATM   14  O   UNL     1     -11.569  11.336  70.695  1.00  0.00    -0.262 OA 
BRANCH  14  15
HETATM   15  C   UNL     1     -11.949  12.025  69.497  1.00  0.00    -0.283 C  
BRANCH  15  16
HETATM   16  C   UNL     1     -11.977  13.515  69.853  1.00  0.00    -0.348 C  
BRANCH  16  17
HETATM   17  N   UNL     1     -10.851  14.274  69.336  1.00  0.00    -0.375 N  
HETATM   18  C   UNL     1     -10.642  15.576  69.723  1.00  0.00    -0.295 C  
HETATM   19  H   UNL     1     -10.207  13.835  68.677  1.00  0.00     0.000 HD 
HETATM   20  O   UNL     1     -11.430  16.207  70.419  1.00  0.00    -0.360 OA 
BRANCH  18  21
HETATM   21  C   UNL     1      -9.405  16.246  69.163  1.00  0.00    -0.236 C  
BRANCH  21  22
HETATM   22  N   UNL     1      -9.817  17.351  68.271  1.00  0.00    -0.293 NA 
HETATM   23  C   UNL     1      -9.915  18.612  68.763  1.00  0.00    -0.383 A  
HETATM   24  C   UNL     1     -10.322  19.659  67.947  1.00  0.00    -0.583 A  
HETATM   25  C   UNL     1     -10.610  19.410  66.613  1.00  0.00    -0.566 A  
HETATM   26  C   UNL     1     -10.489  18.118  66.118  1.00  0.00    -0.377 A  
HETATM   27  C   UNL     1     -10.088  17.098  66.971  1.00  0.00    -0.297 A  
ENDBRANCH  21  22
ENDBRANCH  18  21
ENDBRANCH  16  17
ENDBRANCH  15  16
ENDBRANCH  14  15
ENDBRANCH  12  14
ENDBRANCH  11  12
ENDBRANCH  10  11
ENDBRANCH   9  10
ENDBRANCH   8   9
ENDBRANCH   7   8
ENDBRANCH   6   7
ENDBRANCH   5   6
ENDBRANCH   4   5
ENDBRANCH   3   4
ENDBRANCH   2   3
TORSDOF 16
ENDMDL
MODEL      110
REMARK 921   NORMALIZED FREE ENERGY PREDICTED BY IDOCK:   -4.21 KCAL/MOL
REMARK 922        TOTAL FREE ENERGY PREDICTED BY IDOCK:  -10.23 KCAL/MOL
REMARK 923 INTER-LIGAND FREE ENERGY PREDICTED BY IDOCK:   -9.39 KCAL/MOL
REMARK 924 INTRA-LIGAND FREE ENERGY PREDICTED BY IDOCK:   -0.83 KCAL/MOL
REMARK 927      BINDING AFFINITY PREDICTED BY RF-SCORE:    0.00 PKD
ROOT
HETATM    1  C   UNL     1      -9.908   2.848  73.777  1.00  0.00    -0.148 C  
HETATM    2  C   UNL     1     -10.234   3.951  72.785  1.00  0.00    -0.233 C  
ENDROOT
BRANCH   2   3
HETATM    3  C   UNL     1     -11.048   5.061  73.447  1.00  0.00    -0.404 C  
BRANCH   3   4
HETATM    4  C   UNL     1     -11.779   5.906  72.407  1.00  0.00    -0.307 C  
BRANCH   4   5
HETATM    5  C   UNL     1     -10.854   6.251  71.241  1.00  0.00    -0.317 C  
BRANCH   5   6
HETATM    6  C   UNL     1     -10.090   7.538  71.526  1.00  0.00    -0.201 C  
BRANCH   6   7
HETATM    7  C   UNL     1     -10.660   8.716  70.741  1.00  0.00    -0.254 C  
BRANCH   7   8
HETATM    8  C   UNL     1     -11.571   9.541  71.647  1.00  0.00    -0.451 C  
BRANCH   8   9
HETATM    9  C   UNL     1     -12.258  10.667  70.887  1.00  0.00    -0.497 C  
BRANCH   9  10
HETATM   10  C   UNL     1     -11.298  11.382  69.924  1.00  0.00    -0.300 C  
BRANCH  10  11
HETATM   11  C   UNL     1     -11.913  12.593  69.208  1.00  0.00    -0.301 C  
BRANCH  11  12
HETATM   12  C   UNL     1     -11.829  12.418  67.713  1.00  0.00    -0.298 C  
HETATM   13  O   UNL     1     -11.826  11.344  67.130  1.00  0.00    -0.566 OA 
BRANCH  12  14
HETATM   14  O   UNL     1     -11.948  13.631  67.106  1.00  0.00    -0.382 OA 
BRANCH  14  15
HETATM   15  C   UNL     1     -12.640  13.594  65.852  1.00  0.00    -0.425 C  
BRANCH  15  16
HETATM   16  C   UNL     1     -11.624  14.030  64.791  1.00  0.00    -0.381 C  
BRANCH  16  17
HETATM   17  N   UNL     1     -10.443  14.685  65.329  1.00  0.00    -0.369 N  
HETATM   18  C   UNL     1     -10.314  16.052  65.284  1.00  0.00    -0.290 C  
HETATM   19  H   UNL     1      -9.701  14.122  65.745  1.00  0.00     0.000 HD 
HETATM   20  O   UNL     1     -11.107  16.786  64.702  1.00  0.00    -0.844 OA 
BRANCH  18  21
HETATM   21  C   UNL     1      -9.067  16.624  65.927  1.00  0.00    -0.120 C  
BRANCH  21  22
HETATM   22  N   UNL     1      -9.457  17.708  66.853  1.00  0.00    -0.267 NA 
HETATM   23  C   UNL     1      -9.673  17.428  68.164  1.00  0.00    -0.291 A  
HETATM   24  C   UNL     1     -10.061  18.428  69.045  1.00  0.00    -0.274 A  
HETATM   25  C   UNL     1     -10.208  19.727  68.580  1.00  0.00    -0.547 A  
HETATM   26  C   UNL     1      -9.967  20.003  67.241  1.00  0.00    -0.574 A  
HETATM   27  C   UNL     1      -9.589  18.971  66.390  1.00  0.00    -0.353 A  
ENDBRANCH  21  22
ENDBRANCH  18  21
ENDBRANCH  16  17
ENDBRANCH  15  16
ENDBRANCH  14  15
ENDBRANCH  12  14
ENDBRANCH  11  12
ENDBRANCH  10  11
ENDBRANCH   9  10
ENDBRANCH   8   9
ENDBRANCH   7   8
ENDBRANCH   6   7
ENDBRANCH   5   6
ENDBRANCH   4   5
ENDBRANCH   3   4
ENDBRANCH   2   3
TORSDOF 16
ENDMDL
MODEL      111
REMARK 921   NORMALIZED FREE ENERGY PREDICTED BY IDOCK:   -4.21 KCAL/MOL
REMARK 922        TOTAL FREE ENERGY PREDICTED BY IDOCK:  -10.22 KCAL/MOL
REMARK 923 INTER-LIGAND FREE ENERGY PREDICTED BY IDOCK:   -8.76 KCAL/MOL
REMARK 924 INTRA-LIGAND FREE ENERGY PREDICTED BY IDOCK:   -1.46 KCAL/MOL
REMARK 927      BINDING AFFINITY PREDICTED BY RF-SCORE:    0.00 PKD
ROOT
HETATM    1  C   UNL     1      -9.011   3.772  70.997  1.00  0.00    -0.158 C  
HETATM    2  C   UNL     1      -9.869   4.380  69.900  1.00  0.00    -0.290 C  
ENDROOT
BRANCH   2   3
HETATM    3  C   UNL     1     -10.554   5.656  70.383  1.00  0.00    -0.364 C  
BRANCH   3   4
HETATM    4  C   UNL     1     -11.534   6.187  69.341  1.00  0.00    -0.256 C  
BRANCH   4   5
HETATM    5  C   UNL     1     -10.907   6.166  67.947  1.00  0.00    -0.406 C  
BRANCH   5   6
HETATM    6  C   UNL     1     -10.571   7.580  67.490  1.00  0.00    -0.331 C  
BRANCH   6   7
HETATM    7  C   UNL     1      -9.239   8.054  68.064  1.00  0.00    -0.139 C  
BRANCH   7   8
HETATM    8  C   UNL     1      -9.438   9.384  68.787  1.00  0.00    -0.150 C  
BRANCH   8   9
HETATM    9  C   UNL     1      -9.309   9.234  70.296  1.00  0.00    -0.277 C  
BRANCH   9  10
HETATM   10  C   UNL     1     -10.642   9.486  71.018  1.00  0.00    -0.392 C  
BRANCH  10  11
HETATM   11  C   UNL     1     -11.582  10.450  70.282  1.00  0.00    -0.410 C  
BRANCH  11  12
HETATM   12  C   UNL     1     -12.553  11.078  71.251  1.00  0.00    -0.412 C  
HETATM   13  O   UNL     1     -13.143  10.484  72.139  1.00  0.00    -0.459 OA 
BRANCH  12  14
HETATM   14  O   UNL     1     -12.527  12.432  71.106  1.00  0.00    -0.343 OA 
BRANCH  14  15
HETATM   15  C   UNL     1     -11.963  12.879  69.867  1.00  0.00    -0.307 C  
BRANCH  15  16
HETATM   16  C   UNL     1     -11.969  14.410  69.924  1.00  0.00    -0.335 C  
BRANCH  16  17
HETATM   17  N   UNL     1     -10.850  15.038  69.241  1.00  0.00    -0.251 N  
HETATM   18  C   UNL     1     -10.881  15.246  67.883  1.00  0.00    -0.288 C  
HETATM   19  H   UNL     1     -10.031  15.327  69.776  1.00  0.00     0.000 HD 
HETATM   20  O   UNL     1     -11.776  14.827  67.156  1.00  0.00    -0.376 OA 
BRANCH  18  21
HETATM   21  C   UNL     1      -9.682  15.960  67.292  1.00  0.00    -0.224 C  
BRANCH  21  22
HETATM   22  N   UNL     1      -9.883  17.420  67.411  1.00  0.00    -0.273 NA 
HETATM   23  C   UNL     1     -10.403  18.115  66.368  1.00  0.00    -0.394 A  
HETATM   24  C   UNL     1     -10.578  19.489  66.452  1.00  0.00    -0.571 A  
HETATM   25  C   UNL     1     -10.234  20.149  67.623  1.00  0.00    -0.516 A  
HETATM   26  C   UNL     1      -9.719  19.424  68.689  1.00  0.00    -0.504 A  
HETATM   27  C   UNL     1      -9.551  18.051  68.560  1.00  0.00    -0.336 A  
ENDBRANCH  21  22
ENDBRANCH  18  21
ENDBRANCH  16  17
ENDBRANCH  15  16
ENDBRANCH  14  15
ENDBRANCH  12  14
ENDBRANCH  11  12
ENDBRANCH  10  11
ENDBRANCH   9  10
ENDBRANCH   8   9
ENDBRANCH   7   8
ENDBRANCH   6   7
ENDBRANCH   5   6
ENDBRANCH   4   5
ENDBRANCH   3   4
ENDBRANCH   2   3
TORSDOF 16
ENDMDL
MODEL      112
REMARK 921   NORMALIZED FREE ENERGY PREDICTED BY IDOCK:   -4.21 KCAL/MOL
REMARK 922        TOTAL FREE ENERGY PREDICTED BY IDOCK:  -10.22 KCAL/MOL
REMARK 923 INTER-LIGAND FREE ENERGY PREDICTED BY IDOCK:   -9.23 KCAL/MOL
REMARK 924 INTRA-LIGAND FREE ENERGY PREDICTED BY IDOCK:   -0.99 KCAL/MOL
REMARK 927      BINDING AFFINITY PREDICTED BY RF-SCORE:    0.00 PKD
ROOT
HETATM    1  C   UNL     1      -6.104  20.500  65.841  1.00  0.00    -0.246 C  
HETATM    2  C   UNL     1      -7.452  20.227  66.487  1.00  0.00    -0.300 C  
ENDROOT
BRANCH   2   3
HETATM    3  C   UNL     1      -7.297  19.368  67.739  1.00  0.00    -0.288 C  
BRANCH   3   4
HETATM    4  C   UNL     1      -8.544  19.438  68.617  1.00  0.00    -0.394 C  
BRANCH   4   5
HETATM    5  C   UNL     1      -9.775  19.787  67.782  1.00  0.00    -0.495 C  
BRANCH   5   6
HETATM    6  C   UNL     1     -10.595  18.537  67.487  1.00  0.00    -0.461 C  
BRANCH   6   7
HETATM    7  C   UNL     1     -10.481  18.123  66.022  1.00  0.00    -0.346 C  
BRANCH   7   8
HETATM    8  C   UNL     1     -10.456  16.600  65.921  1.00  0.00    -0.324 C  
BRANCH   8   9
HETATM    9  C   UNL     1     -11.106  16.106  64.637  1.00  0.00    -0.310 C  
BRANCH   9  10
HETATM   10  C   UNL     1     -11.763  14.729  64.815  1.00  0.00    -0.422 C  
BRANCH  10  11
HETATM   11  C   UNL     1     -10.848  13.546  64.470  1.00  0.00    -0.422 C  
BRANCH  11  12
HETATM   12  C   UNL     1     -11.646  12.429  63.845  1.00  0.00    -0.441 C  
HETATM   13  O   UNL     1     -12.680  12.574  63.212  1.00  0.00    -0.678 OA 
BRANCH  12  14
HETATM   14  O   UNL     1     -10.944  11.266  63.933  1.00  0.00    -0.386 OA 
BRANCH  14  15
HETATM   15  C   UNL     1      -9.952  11.255  64.967  1.00  0.00    -0.274 C  
BRANCH  15  16
HETATM   16  C   UNL     1     -10.035   9.873  65.623  1.00  0.00    -0.283 C  
BRANCH  16  17
HETATM   17  N   UNL     1      -9.648   9.852  67.024  1.00  0.00    -0.169 N  
HETATM   18  C   UNL     1     -10.547  10.184  68.008  1.00  0.00    -0.231 C  
HETATM   19  H   UNL     1      -8.697   9.588  67.280  1.00  0.00     0.000 HD 
HETATM   20  O   UNL     1     -11.671  10.620  67.777  1.00  0.00    -0.503 OA 
BRANCH  18  21
HETATM   21  C   UNL     1     -10.046  10.071  69.433  1.00  0.00    -0.219 C  
BRANCH  21  22
HETATM   22  N   UNL     1     -10.858   9.067  70.152  1.00  0.00    -0.234 NA 
HETATM   23  C   UNL     1     -11.623   9.449  71.206  1.00  0.00    -0.364 A  
HETATM   24  C   UNL     1     -12.375   8.516  71.907  1.00  0.00    -0.407 A  
HETATM   25  C   UNL     1     -12.356   7.187  71.510  1.00  0.00    -0.406 A  
HETATM   26  C   UNL     1     -11.583   6.813  70.419  1.00  0.00    -0.422 A  
HETATM   27  C   UNL     1     -10.838   7.776  69.750  1.00  0.00    -0.209 A  
ENDBRANCH  21  22
ENDBRANCH  18  21
ENDBRANCH  16  17
ENDBRANCH  15  16
ENDBRANCH  14  15
ENDBRANCH  12  14
ENDBRANCH  11  12
ENDBRANCH  10  11
ENDBRANCH   9  10
ENDBRANCH   8   9
ENDBRANCH   7   8
ENDBRANCH   6   7
ENDBRANCH   5   6
ENDBRANCH   4   5
ENDBRANCH   3   4
ENDBRANCH   2   3
TORSDOF 16
ENDMDL
MODEL      113
REMARK 921   NORMALIZED FREE ENERGY PREDICTED BY IDOCK:   -4.21 KCAL/MOL
REMARK 922        TOTAL FREE ENERGY PREDICTED BY IDOCK:  -10.22 KCAL/MOL
REMARK 923 INTER-LIGAND FREE ENERGY PREDICTED BY IDOCK:   -9.08 KCAL/MOL
REMARK 924 INTRA-LIGAND FREE ENERGY PREDICTED BY IDOCK:   -1.14 KCAL/MOL
REMARK 927      BINDING AFFINITY PREDICTED BY RF-SCORE:    0.00 PKD
ROOT
HETATM    1  C   UNL     1      -6.382  18.327  65.940  1.00  0.00    -0.285 C  
HETATM    2  C   UNL     1      -6.618  19.696  65.325  1.00  0.00    -0.317 C  
ENDROOT
BRANCH   2   3
HETATM    3  C   UNL     1      -7.203  20.665  66.350  1.00  0.00    -0.207 C  
BRANCH   3   4
HETATM    4  C   UNL     1      -8.069  19.933  67.371  1.00  0.00    -0.348 C  
BRANCH   4   5
HETATM    5  C   UNL     1      -9.510  20.440  67.323  1.00  0.00    -0.568 C  
BRANCH   5   6
HETATM    6  C   UNL     1     -10.491  19.276  67.385  1.00  0.00    -0.564 C  
BRANCH   6   7
HETATM    7  C   UNL     1     -10.366  18.372  66.162  1.00  0.00    -0.431 C  
BRANCH   7   8
HETATM    8  C   UNL     1     -10.439  16.910  66.597  1.00  0.00    -0.257 C  
BRANCH   8   9
HETATM    9  C   UNL     1     -10.510  15.967  65.405  1.00  0.00    -0.429 C  
BRANCH   9  10
HETATM   10  C   UNL     1     -11.643  14.939  65.548  1.00  0.00    -0.263 C  
BRANCH  10  11
HETATM   11  C   UNL     1     -11.175  13.548  66.000  1.00  0.00    -0.305 C  
BRANCH  11  12
HETATM   12  C   UNL     1     -12.153  12.493  65.545  1.00  0.00    -0.419 C  
HETATM   13  O   UNL     1     -13.161  12.704  64.889  1.00  0.00    -0.850 OA 
BRANCH  12  14
HETATM   14  O   UNL     1     -11.646  11.258  65.814  1.00  0.00    -0.078 OA 
BRANCH  14  15
HETATM   15  C   UNL     1     -11.450  10.995  67.209  1.00  0.00    -0.081 C  
BRANCH  15  16
HETATM   16  C   UNL     1     -10.411   9.871  67.289  1.00  0.00    -0.245 C  
BRANCH  16  17
HETATM   17  N   UNL     1     -10.572   8.989  68.432  1.00  0.00    -0.347 N  
HETATM   18  C   UNL     1      -9.968   9.274  69.633  1.00  0.00    -0.191 C  
HETATM   19  H   UNL     1     -11.141   8.147  68.343  1.00  0.00     0.000 HD 
HETATM   20  O   UNL     1      -9.181  10.203  69.788  1.00  0.00    -0.208 OA 
BRANCH  18  21
HETATM   21  C   UNL     1     -10.255   8.313  70.767  1.00  0.00    -0.192 C  
BRANCH  21  22
HETATM   22  N   UNL     1     -11.658   8.482  71.201  1.00  0.00    -0.276 NA 
HETATM   23  C   UNL     1     -12.518   7.435  71.121  1.00  0.00    -0.308 A  
HETATM   24  C   UNL     1     -13.845   7.581  71.502  1.00  0.00    -0.487 A  
HETATM   25  C   UNL     1     -14.284   8.804  71.986  1.00  0.00    -0.493 A  
HETATM   26  C   UNL     1     -13.390   9.862  72.079  1.00  0.00    -0.532 A  
HETATM   27  C   UNL     1     -12.072   9.677  71.679  1.00  0.00    -0.402 A  
ENDBRANCH  21  22
ENDBRANCH  18  21
ENDBRANCH  16  17
ENDBRANCH  15  16
ENDBRANCH  14  15
ENDBRANCH  12  14
ENDBRANCH  11  12
ENDBRANCH  10  11
ENDBRANCH   9  10
ENDBRANCH   8   9
ENDBRANCH   7   8
ENDBRANCH   6   7
ENDBRANCH   5   6
ENDBRANCH   4   5
ENDBRANCH   3   4
ENDBRANCH   2   3
TORSDOF 16
ENDMDL
MODEL      114
REMARK 921   NORMALIZED FREE ENERGY PREDICTED BY IDOCK:   -4.20 KCAL/MOL
REMARK 922        TOTAL FREE ENERGY PREDICTED BY IDOCK:  -10.21 KCAL/MOL
REMARK 923 INTER-LIGAND FREE ENERGY PREDICTED BY IDOCK:   -8.32 KCAL/MOL
REMARK 924 INTRA-LIGAND FREE ENERGY PREDICTED BY IDOCK:   -1.89 KCAL/MOL
REMARK 927      BINDING AFFINITY PREDICTED BY RF-SCORE:    0.00 PKD
ROOT
HETATM    1  C   UNL     1     -12.968  15.265  71.104  1.00  0.00    -0.521 C  
HETATM    2  C   UNL     1     -12.274  13.951  70.785  1.00  0.00    -0.441 C  
ENDROOT
BRANCH   2   3
HETATM    3  C   UNL     1     -11.531  14.032  69.453  1.00  0.00    -0.343 C  
BRANCH   3   4
HETATM    4  C   UNL     1     -11.732  15.391  68.789  1.00  0.00    -0.369 C  
BRANCH   4   5
HETATM    5  C   UNL     1     -11.558  15.287  67.275  1.00  0.00    -0.164 C  
BRANCH   5   6
HETATM    6  C   UNL     1     -12.397  14.145  66.716  1.00  0.00    -0.333 C  
BRANCH   6   7
HETATM    7  C   UNL     1     -12.268  14.043  65.198  1.00  0.00    -0.446 C  
BRANCH   7   8
HETATM    8  C   UNL     1     -12.732  12.664  64.737  1.00  0.00    -0.460 C  
BRANCH   8   9
HETATM    9  C   UNL     1     -11.751  12.035  63.757  1.00  0.00    -0.575 C  
BRANCH   9  10
HETATM   10  C   UNL     1     -10.291  12.321  64.139  1.00  0.00    -0.396 C  
BRANCH  10  11
HETATM   11  C   UNL     1      -9.616  11.192  64.931  1.00  0.00    -0.279 C  
BRANCH  11  12
HETATM   12  C   UNL     1      -9.670  11.484  66.410  1.00  0.00    -0.207 C  
HETATM   13  O   UNL     1     -10.548  11.104  67.169  1.00  0.00    -0.219 OA 
BRANCH  12  14
HETATM   14  O   UNL     1      -8.504  12.069  66.801  1.00  0.00    -0.183 OA 
BRANCH  14  15
HETATM   15  C   UNL     1      -8.630  13.453  67.149  1.00  0.00    -0.195 C  
BRANCH  15  16
HETATM   16  C   UNL     1      -7.600  13.709  68.254  1.00  0.00    -0.130 C  
BRANCH  16  17
HETATM   17  N   UNL     1      -7.589  15.073  68.756  1.00  0.00    -0.128 N  
HETATM   18  C   UNL     1      -6.958  16.074  68.058  1.00  0.00    -0.127 C  
HETATM   19  H   UNL     1      -8.055  15.290  69.637  1.00  0.00     0.000 HD 
HETATM   20  O   UNL     1      -6.282  15.875  67.053  1.00  0.00    -0.319 OA 
BRANCH  18  21
HETATM   21  C   UNL     1      -7.061  17.465  68.649  1.00  0.00    -0.237 C  
BRANCH  21  22
HETATM   22  N   UNL     1      -8.175  18.185  67.996  1.00  0.00    -0.253 NA 
HETATM   23  C   UNL     1      -7.943  18.898  66.865  1.00  0.00    -0.256 A  
HETATM   24  C   UNL     1      -8.971  19.600  66.250  1.00  0.00    -0.420 A  
HETATM   25  C   UNL     1     -10.248  19.552  66.790  1.00  0.00    -0.543 A  
HETATM   26  C   UNL     1     -10.475  18.804  67.938  1.00  0.00    -0.448 A  
HETATM   27  C   UNL     1      -9.416  18.125  68.528  1.00  0.00    -0.329 A  
ENDBRANCH  21  22
ENDBRANCH  18  21
ENDBRANCH  16  17
ENDBRANCH  15  16
ENDBRANCH  14  15
ENDBRANCH  12  14
ENDBRANCH  11  12
ENDBRANCH  10  11
ENDBRANCH   9  10
ENDBRANCH   8   9
ENDBRANCH   7   8
ENDBRANCH   6   7
ENDBRANCH   5   6
ENDBRANCH   4   5
ENDBRANCH   3   4
ENDBRANCH   2   3
TORSDOF 16
ENDMDL
MODEL      115
REMARK 921   NORMALIZED FREE ENERGY PREDICTED BY IDOCK:   -4.19 KCAL/MOL
REMARK 922        TOTAL FREE ENERGY PREDICTED BY IDOCK:  -10.19 KCAL/MOL
REMARK 923 INTER-LIGAND FREE ENERGY PREDICTED BY IDOCK:   -9.27 KCAL/MOL
REMARK 924 INTRA-LIGAND FREE ENERGY PREDICTED BY IDOCK:   -0.92 KCAL/MOL
REMARK 927      BINDING AFFINITY PREDICTED BY RF-SCORE:    0.00 PKD
ROOT
HETATM    1  C   UNL     1     -10.491   6.047  66.844  1.00  0.00    -0.344 C  
HETATM    2  C   UNL     1     -10.566   7.565  66.841  1.00  0.00    -0.367 C  
ENDROOT
BRANCH   2   3
HETATM    3  C   UNL     1      -9.562   8.166  67.821  1.00  0.00    -0.180 C  
BRANCH   3   4
HETATM    4  C   UNL     1     -10.236   8.559  69.132  1.00  0.00    -0.218 C  
BRANCH   4   5
HETATM    5  C   UNL     1     -10.052   7.467  70.185  1.00  0.00    -0.197 C  
BRANCH   5   6
HETATM    6  C   UNL     1     -11.360   6.721  70.418  1.00  0.00    -0.399 C  
BRANCH   6   7
HETATM    7  C   UNL     1     -11.736   6.694  71.897  1.00  0.00    -0.355 C  
BRANCH   7   8
HETATM    8  C   UNL     1     -11.935   8.121  72.401  1.00  0.00    -0.431 C  
BRANCH   8   9
HETATM    9  C   UNL     1     -13.073   8.825  71.675  1.00  0.00    -0.394 C  
BRANCH   9  10
HETATM   10  C   UNL     1     -13.290  10.256  72.192  1.00  0.00    -0.404 C  
BRANCH  10  11
HETATM   11  C   UNL     1     -12.647  11.343  71.320  1.00  0.00    -0.480 C  
BRANCH  11  12
HETATM   12  C   UNL     1     -13.273  12.685  71.607  1.00  0.00    -0.298 C  
HETATM   13  O   UNL     1     -14.146  12.890  72.436  1.00  0.00    -0.476 OA 
BRANCH  12  14
HETATM   14  O   UNL     1     -12.590  13.656  70.941  1.00  0.00    -0.341 OA 
BRANCH  14  15
HETATM   15  C   UNL     1     -11.984  14.637  71.793  1.00  0.00    -0.285 C  
BRANCH  15  16
HETATM   16  C   UNL     1     -12.054  15.964  71.031  1.00  0.00    -0.395 C  
BRANCH  16  17
HETATM   17  N   UNL     1     -10.926  16.205  70.146  1.00  0.00    -0.358 N  
HETATM   18  C   UNL     1     -10.988  15.862  68.817  1.00  0.00    -0.301 C  
HETATM   19  H   UNL     1     -10.078  16.634  70.516  1.00  0.00     0.000 HD 
HETATM   20  O   UNL     1     -11.925  15.243  68.323  1.00  0.00    -0.297 OA 
BRANCH  18  21
HETATM   21  C   UNL     1      -9.775  16.213  67.982  1.00  0.00    -0.229 C  
BRANCH  21  22
HETATM   22  N   UNL     1      -9.853  17.637  67.592  1.00  0.00    -0.284 NA 
HETATM   23  C   UNL     1     -10.183  17.969  66.317  1.00  0.00    -0.381 A  
HETATM   24  C   UNL     1     -10.239  19.299  65.926  1.00  0.00    -0.436 A  
HETATM   25  C   UNL     1      -9.974  20.295  66.856  1.00  0.00    -0.592 A  
HETATM   26  C   UNL     1      -9.655  19.942  68.160  1.00  0.00    -0.463 A  
HETATM   27  C   UNL     1      -9.600  18.598  68.508  1.00  0.00    -0.361 A  
ENDBRANCH  21  22
ENDBRANCH  18  21
ENDBRANCH  16  17
ENDBRANCH  15  16
ENDBRANCH  14  15
ENDBRANCH  12  14
ENDBRANCH  11  12
ENDBRANCH  10  11
ENDBRANCH   9  10
ENDBRANCH   8   9
ENDBRANCH   7   8
ENDBRANCH   6   7
ENDBRANCH   5   6
ENDBRANCH   4   5
ENDBRANCH   3   4
ENDBRANCH   2   3
TORSDOF 16
ENDMDL
MODEL      116
REMARK 921   NORMALIZED FREE ENERGY PREDICTED BY IDOCK:   -4.18 KCAL/MOL
REMARK 922        TOTAL FREE ENERGY PREDICTED BY IDOCK:  -10.17 KCAL/MOL
REMARK 923 INTER-LIGAND FREE ENERGY PREDICTED BY IDOCK:   -7.49 KCAL/MOL
REMARK 924 INTRA-LIGAND FREE ENERGY PREDICTED BY IDOCK:   -2.68 KCAL/MOL
REMARK 927      BINDING AFFINITY PREDICTED BY RF-SCORE:    0.00 PKD
ROOT
HETATM    1  C   UNL     1      -8.365   9.131  70.891  1.00  0.00    -0.231 C  
HETATM    2  C   UNL     1      -7.726   8.215  71.921  1.00  0.00    -0.129 C  
ENDROOT
BRANCH   2   3
HETATM    3  C   UNL     1      -8.761   7.712  72.925  1.00  0.00    -0.202 C  
BRANCH   3   4
HETATM    4  C   UNL     1     -10.128   8.342  72.673  1.00  0.00    -0.365 C  
BRANCH   4   5
HETATM    5  C   UNL     1     -11.248   7.346  72.972  1.00  0.00    -0.345 C  
BRANCH   5   6
HETATM    6  C   UNL     1     -11.356   6.311  71.860  1.00  0.00    -0.348 C  
BRANCH   6   7
HETATM    7  C   UNL     1     -11.788   6.946  70.541  1.00  0.00    -0.385 C  
BRANCH   7   8
HETATM    8  C   UNL     1     -11.021   6.302  69.388  1.00  0.00    -0.440 C  
BRANCH   8   9
HETATM    9  C   UNL     1      -9.814   5.515  69.880  1.00  0.00    -0.259 C  
BRANCH   9  10
HETATM   10  C   UNL     1      -8.514   5.962  69.193  1.00  0.00    -0.112 C  
BRANCH  10  11
HETATM   11  C   UNL     1      -8.685   6.355  67.719  1.00  0.00    -0.114 C  
BRANCH  11  12
HETATM   12  C   UNL     1      -8.272   7.790  67.507  1.00  0.00    -0.124 C  
HETATM   13  O   UNL     1      -7.122   8.201  67.529  1.00  0.00    -0.079 OA 
BRANCH  12  14
HETATM   14  O   UNL     1      -9.350   8.518  67.102  1.00  0.00    -0.143 OA 
BRANCH  14  15
HETATM   15  C   UNL     1      -9.205   9.108  65.805  1.00  0.00    -0.234 C  
BRANCH  15  16
HETATM   16  C   UNL     1     -10.155  10.311  65.776  1.00  0.00    -0.255 C  
BRANCH  16  17
HETATM   17  N   UNL     1     -10.010  11.213  66.907  1.00  0.00    -0.193 N  
HETATM   18  C   UNL     1     -11.067  11.977  67.338  1.00  0.00    -0.281 C  
HETATM   19  H   UNL     1      -9.112  11.280  67.386  1.00  0.00     0.000 HD 
HETATM   20  O   UNL     1     -12.141  12.037  66.747  1.00  0.00    -0.613 OA 
BRANCH  18  21
HETATM   21  C   UNL     1     -10.814  12.836  68.559  1.00  0.00    -0.253 C  
BRANCH  21  22
HETATM   22  N   UNL     1     -11.617  12.320  69.687  1.00  0.00    -0.295 NA 
HETATM   23  C   UNL     1     -12.230  13.190  70.530  1.00  0.00    -0.328 A  
HETATM   24  C   UNL     1     -12.970  12.724  71.609  1.00  0.00    -0.402 A  
HETATM   25  C   UNL     1     -13.096  11.358  71.810  1.00  0.00    -0.523 A  
HETATM   26  C   UNL     1     -12.478  10.479  70.931  1.00  0.00    -0.488 A  
HETATM   27  C   UNL     1     -11.739  10.986  69.869  1.00  0.00    -0.346 A  
ENDBRANCH  21  22
ENDBRANCH  18  21
ENDBRANCH  16  17
ENDBRANCH  15  16
ENDBRANCH  14  15
ENDBRANCH  12  14
ENDBRANCH  11  12
ENDBRANCH  10  11
ENDBRANCH   9  10
ENDBRANCH   8   9
ENDBRANCH   7   8
ENDBRANCH   6   7
ENDBRANCH   5   6
ENDBRANCH   4   5
ENDBRANCH   3   4
ENDBRANCH   2   3
TORSDOF 16
ENDMDL
MODEL      117
REMARK 921   NORMALIZED FREE ENERGY PREDICTED BY IDOCK:   -4.18 KCAL/MOL
REMARK 922        TOTAL FREE ENERGY PREDICTED BY IDOCK:  -10.17 KCAL/MOL
REMARK 923 INTER-LIGAND FREE ENERGY PREDICTED BY IDOCK:   -7.81 KCAL/MOL
REMARK 924 INTRA-LIGAND FREE ENERGY PREDICTED BY IDOCK:   -2.36 KCAL/MOL
REMARK 927      BINDING AFFINITY PREDICTED BY RF-SCORE:    0.00 PKD
ROOT
HETATM    1  C   UNL     1      -6.404  12.381  67.713  1.00  0.00    -0.109 C  
HETATM    2  C   UNL     1      -7.741  12.948  67.269  1.00  0.00    -0.122 C  
ENDROOT
BRANCH   2   3
HETATM    3  C   UNL     1      -8.898  12.245  67.975  1.00  0.00    -0.182 C  
BRANCH   3   4
HETATM    4  C   UNL     1      -8.413  11.019  68.745  1.00  0.00    -0.144 C  
BRANCH   4   5
HETATM    5  C   UNL     1      -9.449   9.897  68.687  1.00  0.00    -0.153 C  
BRANCH   5   6
HETATM    6  C   UNL     1      -9.016   8.818  67.703  1.00  0.00    -0.141 C  
BRANCH   6   7
HETATM    7  C   UNL     1      -7.496   8.738  67.590  1.00  0.00    -0.093 C  
BRANCH   7   8
HETATM    8  C   UNL     1      -7.084   8.877  66.127  1.00  0.00    -0.085 C  
BRANCH   8   9
HETATM    9  C   UNL     1      -8.291   8.952  65.203  1.00  0.00    -0.170 C  
BRANCH   9  10
HETATM   10  C   UNL     1      -8.327  10.266  64.407  1.00  0.00    -0.166 C  
BRANCH  10  11
HETATM   11  C   UNL     1      -9.642  10.506  63.652  1.00  0.00    -0.370 C  
BRANCH  11  12
HETATM   12  C   UNL     1     -10.540  11.427  64.441  1.00  0.00    -0.341 C  
HETATM   13  O   UNL     1     -10.990  11.188  65.551  1.00  0.00    -0.189 OA 
BRANCH  12  14
HETATM   14  O   UNL     1     -10.617  12.633  63.814  1.00  0.00    -0.417 OA 
BRANCH  14  15
HETATM   15  C   UNL     1     -11.953  13.058  63.521  1.00  0.00    -0.545 C  
BRANCH  15  16
HETATM   16  C   UNL     1     -12.200  14.307  64.373  1.00  0.00    -0.447 C  
BRANCH  16  17
HETATM   17  N   UNL     1     -11.008  15.096  64.635  1.00  0.00    -0.634 N  
HETATM   18  C   UNL     1     -10.597  15.343  65.922  1.00  0.00    -0.339 C  
HETATM   19  H   UNL     1     -10.470  15.472  63.854  1.00  0.00     0.000 HD 
HETATM   20  O   UNL     1     -11.248  15.024  66.912  1.00  0.00    -0.333 OA 
BRANCH  18  21
HETATM   21  C   UNL     1      -9.310  16.128  66.071  1.00  0.00    -0.333 C  
BRANCH  21  22
HETATM   22  N   UNL     1      -9.598  17.398  66.771  1.00  0.00    -0.266 NA 
HETATM   23  C   UNL     1      -9.158  17.580  68.043  1.00  0.00    -0.269 A  
HETATM   24  C   UNL     1      -9.438  18.756  68.725  1.00  0.00    -0.380 A  
HETATM   25  C   UNL     1     -10.156  19.758  68.089  1.00  0.00    -0.574 A  
HETATM   26  C   UNL     1     -10.585  19.566  66.783  1.00  0.00    -0.597 A  
HETATM   27  C   UNL     1     -10.292  18.371  66.139  1.00  0.00    -0.407 A  
ENDBRANCH  21  22
ENDBRANCH  18  21
ENDBRANCH  16  17
ENDBRANCH  15  16
ENDBRANCH  14  15
ENDBRANCH  12  14
ENDBRANCH  11  12
ENDBRANCH  10  11
ENDBRANCH   9  10
ENDBRANCH   8   9
ENDBRANCH   7   8
ENDBRANCH   6   7
ENDBRANCH   5   6
ENDBRANCH   4   5
ENDBRANCH   3   4
ENDBRANCH   2   3
TORSDOF 16
ENDMDL
MODEL      118
REMARK 921   NORMALIZED FREE ENERGY PREDICTED BY IDOCK:   -4.17 KCAL/MOL
REMARK 922        TOTAL FREE ENERGY PREDICTED BY IDOCK:  -10.16 KCAL/MOL
REMARK 923 INTER-LIGAND FREE ENERGY PREDICTED BY IDOCK:   -8.15 KCAL/MOL
REMARK 924 INTRA-LIGAND FREE ENERGY PREDICTED BY IDOCK:   -2.00 KCAL/MOL
REMARK 927      BINDING AFFINITY PREDICTED BY RF-SCORE:    0.00 PKD
ROOT
HETATM    1  C   UNL     1     -11.444   6.236  72.161  1.00  0.00    -0.354 C  
HETATM    2  C   UNL     1     -12.361   6.794  71.086  1.00  0.00    -0.386 C  
ENDROOT
BRANCH   2   3
HETATM    3  C   UNL     1     -13.685   7.264  71.684  1.00  0.00    -0.446 C  
BRANCH   3   4
HETATM    4  C   UNL     1     -13.988   8.708  71.291  1.00  0.00    -0.239 C  
BRANCH   4   5
HETATM    5  C   UNL     1     -13.233   9.685  72.192  1.00  0.00    -0.535 C  
BRANCH   5   6
HETATM    6  C   UNL     1     -12.074  10.324  71.439  1.00  0.00    -0.457 C  
BRANCH   6   7
HETATM    7  C   UNL     1     -12.515  10.862  70.080  1.00  0.00    -0.356 C  
BRANCH   7   8
HETATM    8  C   UNL     1     -11.365  11.633  69.438  1.00  0.00    -0.342 C  
BRANCH   8   9
HETATM    9  C   UNL     1     -11.757  13.067  69.111  1.00  0.00    -0.378 C  
BRANCH   9  10
HETATM   10  C   UNL     1     -11.760  13.334  67.597  1.00  0.00    -0.408 C  
BRANCH  10  11
HETATM   11  C   UNL     1     -11.570  12.076  66.737  1.00  0.00    -0.391 C  
BRANCH  11  12
HETATM   12  C   UNL     1     -11.879  12.377  65.292  1.00  0.00    -0.399 C  
HETATM   13  O   UNL     1     -12.982  12.662  64.854  1.00  0.00    -0.830 OA 
BRANCH  12  14
HETATM   14  O   UNL     1     -10.716  12.468  64.589  1.00  0.00    -0.282 OA 
BRANCH  14  15
HETATM   15  C   UNL     1     -10.448  11.336  63.751  1.00  0.00    -0.399 C  
BRANCH  15  16
HETATM   16  C   UNL     1      -9.302  10.572  64.422  1.00  0.00    -0.262 C  
BRANCH  16  17
HETATM   17  N   UNL     1      -9.713   9.357  65.105  1.00  0.00    -0.449 N  
HETATM   18  C   UNL     1      -8.792   8.563  65.745  1.00  0.00    -0.190 C  
HETATM   19  H   UNL     1     -10.697   9.089  65.109  1.00  0.00     0.000 HD 
HETATM   20  O   UNL     1      -7.581   8.755  65.690  1.00  0.00    -0.084 OA 
BRANCH  18  21
HETATM   21  C   UNL     1      -9.345   7.353  66.469  1.00  0.00    -0.173 C  
BRANCH  21  22
HETATM   22  N   UNL     1      -9.032   7.469  67.909  1.00  0.00    -0.132 NA 
HETATM   23  C   UNL     1      -8.346   6.476  68.530  1.00  0.00    -0.121 A  
HETATM   24  C   UNL     1      -8.063   6.555  69.887  1.00  0.00    -0.121 A  
HETATM   25  C   UNL     1      -8.470   7.671  70.604  1.00  0.00    -0.127 A  
HETATM   26  C   UNL     1      -9.156   8.687  69.953  1.00  0.00    -0.151 A  
HETATM   27  C   UNL     1      -9.428   8.564  68.596  1.00  0.00    -0.143 A  
ENDBRANCH  21  22
ENDBRANCH  18  21
ENDBRANCH  16  17
ENDBRANCH  15  16
ENDBRANCH  14  15
ENDBRANCH  12  14
ENDBRANCH  11  12
ENDBRANCH  10  11
ENDBRANCH   9  10
ENDBRANCH   8   9
ENDBRANCH   7   8
ENDBRANCH   6   7
ENDBRANCH   5   6
ENDBRANCH   4   5
ENDBRANCH   3   4
ENDBRANCH   2   3
TORSDOF 16
ENDMDL
MODEL      119
REMARK 921   NORMALIZED FREE ENERGY PREDICTED BY IDOCK:   -4.17 KCAL/MOL
REMARK 922        TOTAL FREE ENERGY PREDICTED BY IDOCK:  -10.15 KCAL/MOL
REMARK 923 INTER-LIGAND FREE ENERGY PREDICTED BY IDOCK:   -7.76 KCAL/MOL
REMARK 924 INTRA-LIGAND FREE ENERGY PREDICTED BY IDOCK:   -2.39 KCAL/MOL
REMARK 927      BINDING AFFINITY PREDICTED BY RF-SCORE:    0.00 PKD
ROOT
HETATM    1  C   UNL     1     -11.628  14.953  64.576  1.00  0.00    -0.356 C  
HETATM    2  C   UNL     1     -12.185  13.878  65.494  1.00  0.00    -0.467 C  
ENDROOT
BRANCH   2   3
HETATM    3  C   UNL     1     -11.734  12.488  65.049  1.00  0.00    -0.407 C  
BRANCH   3   4
HETATM    4  C   UNL     1     -10.368  12.541  64.369  1.00  0.00    -0.378 C  
BRANCH   4   5
HETATM    5  C   UNL     1      -9.877  11.135  64.027  1.00  0.00    -0.349 C  
BRANCH   5   6
HETATM    6  C   UNL     1      -9.067  10.555  65.178  1.00  0.00    -0.227 C  
BRANCH   6   7
HETATM    7  C   UNL     1      -9.833   9.454  65.906  1.00  0.00    -0.362 C  
BRANCH   7   8
HETATM    8  C   UNL     1      -9.900   9.778  67.397  1.00  0.00    -0.219 C  
BRANCH   8   9
HETATM    9  C   UNL     1     -11.248  10.367  67.789  1.00  0.00    -0.309 C  
BRANCH   9  10
HETATM   10  C   UNL     1     -11.115  11.427  68.893  1.00  0.00    -0.290 C  
BRANCH  10  11
HETATM   11  C   UNL     1     -11.357  10.891  70.311  1.00  0.00    -0.342 C  
BRANCH  11  12
HETATM   12  C   UNL     1     -12.411  11.713  71.010  1.00  0.00    -0.301 C  
HETATM   13  O   UNL     1     -13.207  11.284  71.830  1.00  0.00    -0.482 OA 
BRANCH  12  14
HETATM   14  O   UNL     1     -12.216  13.032  70.732  1.00  0.00    -0.363 OA 
BRANCH  14  15
HETATM   15  C   UNL     1     -12.684  13.922  71.752  1.00  0.00    -0.304 C  
BRANCH  15  16
HETATM   16  C   UNL     1     -12.662  15.325  71.137  1.00  0.00    -0.410 C  
BRANCH  16  17
HETATM   17  N   UNL     1     -11.347  15.766  70.702  1.00  0.00    -0.357 N  
HETATM   18  C   UNL     1     -11.144  16.216  69.420  1.00  0.00    -0.335 C  
HETATM   19  H   UNL     1     -10.565  15.741  71.356  1.00  0.00     0.000 HD 
HETATM   20  O   UNL     1     -12.002  16.171  68.545  1.00  0.00    -0.214 OA 
BRANCH  18  21
HETATM   21  C   UNL     1      -9.746  16.703  69.099  1.00  0.00    -0.226 C  
BRANCH  21  22
HETATM   22  N   UNL     1      -8.900  15.543  68.746  1.00  0.00    -0.188 NA 
HETATM   23  C   UNL     1      -7.770  15.294  69.455  1.00  0.00    -0.225 A  
HETATM   24  C   UNL     1      -6.951  14.224  69.124  1.00  0.00    -0.118 A  
HETATM   25  C   UNL     1      -7.307  13.393  68.071  1.00  0.00    -0.129 A  
HETATM   26  C   UNL     1      -8.475  13.649  67.366  1.00  0.00    -0.206 A  
HETATM   27  C   UNL     1      -9.261  14.737  67.723  1.00  0.00    -0.194 A  
ENDBRANCH  21  22
ENDBRANCH  18  21
ENDBRANCH  16  17
ENDBRANCH  15  16
ENDBRANCH  14  15
ENDBRANCH  12  14
ENDBRANCH  11  12
ENDBRANCH  10  11
ENDBRANCH   9  10
ENDBRANCH   8   9
ENDBRANCH   7   8
ENDBRANCH   6   7
ENDBRANCH   5   6
ENDBRANCH   4   5
ENDBRANCH   3   4
ENDBRANCH   2   3
TORSDOF 16
ENDMDL
MODEL      120
REMARK 921   NORMALIZED FREE ENERGY PREDICTED BY IDOCK:   -4.17 KCAL/MOL
REMARK 922        TOTAL FREE ENERGY PREDICTED BY IDOCK:  -10.14 KCAL/MOL
REMARK 923 INTER-LIGAND FREE ENERGY PREDICTED BY IDOCK:   -7.94 KCAL/MOL
REMARK 924 INTRA-LIGAND FREE ENERGY PREDICTED BY IDOCK:   -2.20 KCAL/MOL
REMARK 927      BINDING AFFINITY PREDICTED BY RF-SCORE:    0.00 PKD
ROOT
HETATM    1  C   UNL     1      -9.855   4.435  66.792  1.00  0.00    -0.241 C  
HETATM    2  C   UNL     1      -9.903   5.878  66.317  1.00  0.00    -0.119 C  
ENDROOT
BRANCH   2   3
HETATM    3  C   UNL     1     -10.954   6.674  67.087  1.00  0.00    -0.478 C  
BRANCH   3   4
HETATM    4  C   UNL     1     -10.494   8.109  67.328  1.00  0.00    -0.379 C  
BRANCH   4   5
HETATM    5  C   UNL     1      -8.973   8.178  67.452  1.00  0.00    -0.145 C  
BRANCH   5   6
HETATM    6  C   UNL     1      -8.556   8.226  68.916  1.00  0.00    -0.132 C  
BRANCH   6   7
HETATM    7  C   UNL     1      -7.803   6.964  69.329  1.00  0.00    -0.114 C  
BRANCH   7   8
HETATM    8  C   UNL     1      -8.419   6.395  70.604  1.00  0.00    -0.135 C  
BRANCH   8   9
HETATM    9  C   UNL     1      -9.585   5.464  70.305  1.00  0.00    -0.236 C  
BRANCH   9  10
HETATM   10  C   UNL     1     -10.816   5.783  71.168  1.00  0.00    -0.316 C  
BRANCH  10  11
HETATM   11  C   UNL     1     -11.407   7.179  70.926  1.00  0.00    -0.319 C  
BRANCH  11  12
HETATM   12  C   UNL     1     -11.196   8.055  72.135  1.00  0.00    -0.319 C  
HETATM   13  O   UNL     1     -11.184   7.665  73.292  1.00  0.00    -0.358 OA 
BRANCH  12  14
HETATM   14  O   UNL     1     -10.835   9.305  71.732  1.00  0.00    -0.368 OA 
BRANCH  14  15
HETATM   15  C   UNL     1     -11.801   9.953  70.895  1.00  0.00    -0.356 C  
BRANCH  15  16
HETATM   16  C   UNL     1     -11.002  10.806  69.905  1.00  0.00    -0.239 C  
BRANCH  16  17
HETATM   17  N   UNL     1     -11.810  11.447  68.880  1.00  0.00    -0.340 N  
HETATM   18  C   UNL     1     -11.384  12.600  68.267  1.00  0.00    -0.295 C  
HETATM   19  H   UNL     1     -12.704  11.036  68.614  1.00  0.00     0.000 HD 
HETATM   20  O   UNL     1     -10.379  13.216  68.609  1.00  0.00    -0.243 OA 
BRANCH  18  21
HETATM   21  C   UNL     1     -12.282  13.144  67.175  1.00  0.00    -0.191 C  
BRANCH  21  22
HETATM   22  N   UNL     1     -11.861  12.578  65.876  1.00  0.00    -0.460 NA 
HETATM   23  C   UNL     1     -12.508  12.946  64.741  1.00  0.00    -0.455 A  
HETATM   24  C   UNL     1     -12.141  12.408  63.515  1.00  0.00    -0.651 A  
HETATM   25  C   UNL     1     -11.092  11.503  63.454  1.00  0.00    -0.370 A  
HETATM   26  C   UNL     1     -10.428  11.149  64.620  1.00  0.00    -0.400 A  
HETATM   27  C   UNL     1     -10.832  11.703  65.828  1.00  0.00    -0.281 A  
ENDBRANCH  21  22
ENDBRANCH  18  21
ENDBRANCH  16  17
ENDBRANCH  15  16
ENDBRANCH  14  15
ENDBRANCH  12  14
ENDBRANCH  11  12
ENDBRANCH  10  11
ENDBRANCH   9  10
ENDBRANCH   8   9
ENDBRANCH   7   8
ENDBRANCH   6   7
ENDBRANCH   5   6
ENDBRANCH   4   5
ENDBRANCH   3   4
ENDBRANCH   2   3
TORSDOF 16
ENDMDL
MODEL      121
REMARK 921   NORMALIZED FREE ENERGY PREDICTED BY IDOCK:   -4.16 KCAL/MOL
REMARK 922        TOTAL FREE ENERGY PREDICTED BY IDOCK:  -10.13 KCAL/MOL
REMARK 923 INTER-LIGAND FREE ENERGY PREDICTED BY IDOCK:   -8.54 KCAL/MOL
REMARK 924 INTRA-LIGAND FREE ENERGY PREDICTED BY IDOCK:   -1.59 KCAL/MOL
REMARK 927      BINDING AFFINITY PREDICTED BY RF-SCORE:    0.00 PKD
ROOT
HETATM    1  C   UNL     1      -6.023  20.094  70.996  1.00  0.00    -0.324 C  
HETATM    2  C   UNL     1      -5.854  20.102  69.486  1.00  0.00    -0.354 C  
ENDROOT
BRANCH   2   3
HETATM    3  C   UNL     1      -7.017  19.388  68.800  1.00  0.00    -0.368 C  
BRANCH   3   4
HETATM    4  C   UNL     1      -7.249  19.933  67.394  1.00  0.00    -0.279 C  
BRANCH   4   5
HETATM    5  C   UNL     1      -8.678  20.455  67.243  1.00  0.00    -0.429 C  
BRANCH   5   6
HETATM    6  C   UNL     1      -9.628  19.685  68.151  1.00  0.00    -0.474 C  
BRANCH   6   7
HETATM    7  C   UNL     1     -10.839  19.162  67.384  1.00  0.00    -0.533 C  
BRANCH   7   8
HETATM    8  C   UNL     1     -10.371  18.412  66.139  1.00  0.00    -0.431 C  
BRANCH   8   9
HETATM    9  C   UNL     1     -10.336  16.907  66.364  1.00  0.00    -0.302 C  
BRANCH   9  10
HETATM   10  C   UNL     1      -8.918  16.334  66.213  1.00  0.00    -0.366 C  
BRANCH  10  11
HETATM   11  C   UNL     1      -8.173  16.144  67.541  1.00  0.00    -0.167 C  
BRANCH  11  12
HETATM   12  C   UNL     1      -8.901  15.153  68.414  1.00  0.00    -0.174 C  
HETATM   13  O   UNL     1      -9.535  15.434  69.419  1.00  0.00    -0.246 OA 
BRANCH  12  14
HETATM   14  O   UNL     1      -8.901  13.931  67.812  1.00  0.00    -0.170 OA 
BRANCH  14  15
HETATM   15  C   UNL     1      -9.939  13.054  68.265  1.00  0.00    -0.235 C  
BRANCH  15  16
HETATM   16  C   UNL     1      -9.347  11.640  68.231  1.00  0.00    -0.191 C  
BRANCH  16  17
HETATM   17  N   UNL     1      -9.479  10.907  69.479  1.00  0.00    -0.410 N  
HETATM   18  C   UNL     1     -10.076   9.670  69.509  1.00  0.00    -0.209 C  
HETATM   19  H   UNL     1      -9.124  11.316  70.343  1.00  0.00     0.000 HD 
HETATM   20  O   UNL     1     -10.627   9.163  68.537  1.00  0.00    -0.212 OA 
BRANCH  18  21
HETATM   21  C   UNL     1     -10.105   8.977  70.855  1.00  0.00    -0.262 C  
BRANCH  21  22
HETATM   22  N   UNL     1     -11.511   8.782  71.267  1.00  0.00    -0.274 NA 
HETATM   23  C   UNL     1     -12.061   7.542  71.215  1.00  0.00    -0.323 A  
HETATM   24  C   UNL     1     -13.386   7.342  71.576  1.00  0.00    -0.435 A  
HETATM   25  C   UNL     1     -14.144   8.419  72.012  1.00  0.00    -0.495 A  
HETATM   26  C   UNL     1     -13.564   9.679  72.077  1.00  0.00    -0.467 A  
HETATM   27  C   UNL     1     -12.237   9.838  71.698  1.00  0.00    -0.404 A  
ENDBRANCH  21  22
ENDBRANCH  18  21
ENDBRANCH  16  17
ENDBRANCH  15  16
ENDBRANCH  14  15
ENDBRANCH  12  14
ENDBRANCH  11  12
ENDBRANCH  10  11
ENDBRANCH   9  10
ENDBRANCH   8   9
ENDBRANCH   7   8
ENDBRANCH   6   7
ENDBRANCH   5   6
ENDBRANCH   4   5
ENDBRANCH   3   4
ENDBRANCH   2   3
TORSDOF 16
ENDMDL
MODEL      122
REMARK 921   NORMALIZED FREE ENERGY PREDICTED BY IDOCK:   -4.15 KCAL/MOL
REMARK 922        TOTAL FREE ENERGY PREDICTED BY IDOCK:  -10.11 KCAL/MOL
REMARK 923 INTER-LIGAND FREE ENERGY PREDICTED BY IDOCK:   -8.44 KCAL/MOL
REMARK 924 INTRA-LIGAND FREE ENERGY PREDICTED BY IDOCK:   -1.67 KCAL/MOL
REMARK 927      BINDING AFFINITY PREDICTED BY RF-SCORE:    0.00 PKD
ROOT
HETATM    1  C   UNL     1      -7.799   7.781  66.121  1.00  0.00    -0.095 C  
HETATM    2  C   UNL     1      -9.302   7.569  66.161  1.00  0.00    -0.128 C  
ENDROOT
BRANCH   2   3
HETATM    3  C   UNL     1      -9.970   8.552  67.120  1.00  0.00    -0.304 C  
BRANCH   3   4
HETATM    4  C   UNL     1      -9.189   9.860  67.204  1.00  0.00    -0.158 C  
BRANCH   4   5
HETATM    5  C   UNL     1     -10.058  11.040  66.771  1.00  0.00    -0.260 C  
BRANCH   5   6
HETATM    6  C   UNL     1      -9.739  11.444  65.337  1.00  0.00    -0.265 C  
BRANCH   6   7
HETATM    7  C   UNL     1     -11.000  11.512  64.479  1.00  0.00    -0.367 C  
BRANCH   7   8
HETATM    8  C   UNL     1     -12.027  12.419  65.151  1.00  0.00    -0.454 C  
BRANCH   8   9
HETATM    9  C   UNL     1     -11.553  13.864  65.215  1.00  0.00    -0.332 C  
BRANCH   9  10
HETATM   10  C   UNL     1     -11.814  14.497  66.590  1.00  0.00    -0.383 C  
BRANCH  10  11
HETATM   11  C   UNL     1     -10.698  15.435  67.072  1.00  0.00    -0.321 C  
BRANCH  11  12
HETATM   12  C   UNL     1     -11.016  15.967  68.447  1.00  0.00    -0.331 C  
HETATM   13  O   UNL     1     -10.740  17.087  68.848  1.00  0.00    -0.335 OA 
BRANCH  12  14
HETATM   14  O   UNL     1     -11.819  15.083  69.101  1.00  0.00    -0.302 OA 
BRANCH  14  15
HETATM   15  C   UNL     1     -12.249  15.527  70.394  1.00  0.00    -0.406 C  
BRANCH  15  16
HETATM   16  C   UNL     1     -12.138  14.311  71.320  1.00  0.00    -0.316 C  
BRANCH  16  17
HETATM   17  N   UNL     1     -12.002  13.041  70.625  1.00  0.00    -0.528 N  
HETATM   18  C   UNL     1     -12.655  11.919  71.075  1.00  0.00    -0.283 C  
HETATM   19  H   UNL     1     -11.415  12.982  69.794  1.00  0.00     0.000 HD 
HETATM   20  O   UNL     1     -13.286  11.881  72.127  1.00  0.00    -0.494 OA 
BRANCH  18  21
HETATM   21  C   UNL     1     -12.483  10.669  70.238  1.00  0.00    -0.304 C  
BRANCH  21  22
HETATM   22  N   UNL     1     -11.614   9.718  70.964  1.00  0.00    -0.345 NA 
HETATM   23  C   UNL     1     -12.161   8.852  71.855  1.00  0.00    -0.374 A  
HETATM   24  C   UNL     1     -11.360   7.968  72.563  1.00  0.00    -0.469 A  
HETATM   25  C   UNL     1      -9.990   7.959  72.339  1.00  0.00    -0.291 A  
HETATM   26  C   UNL     1      -9.446   8.838  71.412  1.00  0.00    -0.330 A  
HETATM   27  C   UNL     1     -10.283   9.714  70.731  1.00  0.00    -0.260 A  
ENDBRANCH  21  22
ENDBRANCH  18  21
ENDBRANCH  16  17
ENDBRANCH  15  16
ENDBRANCH  14  15
ENDBRANCH  12  14
ENDBRANCH  11  12
ENDBRANCH  10  11
ENDBRANCH   9  10
ENDBRANCH   8   9
ENDBRANCH   7   8
ENDBRANCH   6   7
ENDBRANCH   5   6
ENDBRANCH   4   5
ENDBRANCH   3   4
ENDBRANCH   2   3
TORSDOF 16
ENDMDL
MODEL      123
REMARK 921   NORMALIZED FREE ENERGY PREDICTED BY IDOCK:   -4.12 KCAL/MOL
REMARK 922        TOTAL FREE ENERGY PREDICTED BY IDOCK:  -10.06 KCAL/MOL
REMARK 923 INTER-LIGAND FREE ENERGY PREDICTED BY IDOCK:   -8.12 KCAL/MOL
REMARK 924 INTRA-LIGAND FREE ENERGY PREDICTED BY IDOCK:   -1.94 KCAL/MOL
REMARK 927      BINDING AFFINITY PREDICTED BY RF-SCORE:    0.00 PKD
ROOT
HETATM    1  C   UNL     1      -9.056  15.952  66.304  1.00  0.00    -0.379 C  
HETATM    2  C   UNL     1     -10.246  16.054  67.243  1.00  0.00    -0.277 C  
ENDROOT
BRANCH   2   3
HETATM    3  C   UNL     1     -10.461  14.746  68.002  1.00  0.00    -0.246 C  
BRANCH   3   4
HETATM    4  C   UNL     1     -11.911  14.281  67.904  1.00  0.00    -0.364 C  
BRANCH   4   5
HETATM    5  C   UNL     1     -12.087  13.292  66.753  1.00  0.00    -0.403 C  
BRANCH   5   6
HETATM    6  C   UNL     1     -12.837  13.942  65.597  1.00  0.00    -0.467 C  
BRANCH   6   7
HETATM    7  C   UNL     1     -11.894  14.324  64.459  1.00  0.00    -0.456 C  
BRANCH   7   8
HETATM    8  C   UNL     1     -10.811  13.258  64.313  1.00  0.00    -0.414 C  
BRANCH   8   9
HETATM    9  C   UNL     1     -11.259  12.115  63.413  1.00  0.00    -0.494 C  
BRANCH   9  10
HETATM   10  C   UNL     1     -10.161  11.055  63.236  1.00  0.00    -0.400 C  
BRANCH  10  11
HETATM   11  C   UNL     1      -9.706  10.397  64.546  1.00  0.00    -0.393 C  
BRANCH  11  12
HETATM   12  C   UNL     1      -8.638   9.367  64.274  1.00  0.00    -0.196 C  
HETATM   13  O   UNL     1      -8.013   9.263  63.230  1.00  0.00    -0.131 OA 
BRANCH  12  14
HETATM   14  O   UNL     1      -8.347   8.699  65.424  1.00  0.00    -0.138 OA 
BRANCH  14  15
HETATM   15  C   UNL     1      -7.519   9.432  66.335  1.00  0.00    -0.093 C  
BRANCH  15  16
HETATM   16  C   UNL     1      -7.895   8.945  67.739  1.00  0.00    -0.102 C  
BRANCH  16  17
HETATM   17  N   UNL     1      -8.650   9.908  68.523  1.00  0.00    -0.115 N  
HETATM   18  C   UNL     1     -10.023   9.926  68.484  1.00  0.00    -0.159 C  
HETATM   19  H   UNL     1      -8.155  10.580  69.109  1.00  0.00     0.000 HD 
HETATM   20  O   UNL     1     -10.686   9.229  67.722  1.00  0.00    -0.259 OA 
BRANCH  18  21
HETATM   21  C   UNL     1     -10.702  10.935  69.387  1.00  0.00    -0.225 C  
BRANCH  21  22
HETATM   22  N   UNL     1     -11.420  10.217  70.461  1.00  0.00    -0.313 NA 
HETATM   23  C   UNL     1     -10.791   9.229  71.146  1.00  0.00    -0.337 A  
HETATM   24  C   UNL     1     -11.456   8.527  72.142  1.00  0.00    -0.446 A  
HETATM   25  C   UNL     1     -12.768   8.857  72.449  1.00  0.00    -0.436 A  
HETATM   26  C   UNL     1     -13.394   9.881  71.751  1.00  0.00    -0.501 A  
HETATM   27  C   UNL     1     -12.696  10.552  70.755  1.00  0.00    -0.381 A  
ENDBRANCH  21  22
ENDBRANCH  18  21
ENDBRANCH  16  17
ENDBRANCH  15  16
ENDBRANCH  14  15
ENDBRANCH  12  14
ENDBRANCH  11  12
ENDBRANCH  10  11
ENDBRANCH   9  10
ENDBRANCH   8   9
ENDBRANCH   7   8
ENDBRANCH   6   7
ENDBRANCH   5   6
ENDBRANCH   4   5
ENDBRANCH   3   4
ENDBRANCH   2   3
TORSDOF 16
ENDMDL
MODEL      124
REMARK 921   NORMALIZED FREE ENERGY PREDICTED BY IDOCK:   -4.12 KCAL/MOL
REMARK 922        TOTAL FREE ENERGY PREDICTED BY IDOCK:  -10.05 KCAL/MOL
REMARK 923 INTER-LIGAND FREE ENERGY PREDICTED BY IDOCK:   -7.93 KCAL/MOL
REMARK 924 INTRA-LIGAND FREE ENERGY PREDICTED BY IDOCK:   -2.12 KCAL/MOL
REMARK 927      BINDING AFFINITY PREDICTED BY RF-SCORE:    0.00 PKD
ROOT
HETATM    1  C   UNL     1      -9.303   7.852  73.351  1.00  0.00    -0.348 C  
HETATM    2  C   UNL     1     -10.654   7.181  73.176  1.00  0.00    -0.377 C  
ENDROOT
BRANCH   2   3
HETATM    3  C   UNL     1     -11.627   8.093  72.431  1.00  0.00    -0.463 C  
BRANCH   3   4
HETATM    4  C   UNL     1     -12.321   7.350  71.293  1.00  0.00    -0.380 C  
BRANCH   4   5
HETATM    5  C   UNL     1     -11.484   6.157  70.834  1.00  0.00    -0.317 C  
BRANCH   5   6
HETATM    6  C   UNL     1     -10.874   6.425  69.465  1.00  0.00    -0.381 C  
BRANCH   6   7
HETATM    7  C   UNL     1      -9.378   6.716  69.564  1.00  0.00    -0.145 C  
BRANCH   7   8
HETATM    8  C   UNL     1      -9.078   8.074  68.934  1.00  0.00    -0.144 C  
BRANCH   8   9
HETATM    9  C   UNL     1      -8.904   9.161  69.985  1.00  0.00    -0.193 C  
BRANCH   9  10
HETATM   10  C   UNL     1     -10.086  10.143  70.001  1.00  0.00    -0.241 C  
BRANCH  10  11
HETATM   11  C   UNL     1     -11.008  10.036  68.779  1.00  0.00    -0.242 C  
BRANCH  11  12
HETATM   12  C   UNL     1     -10.767  11.189  67.837  1.00  0.00    -0.216 C  
HETATM   13  O   UNL     1      -9.675  11.527  67.406  1.00  0.00    -0.177 OA 
BRANCH  12  14
HETATM   14  O   UNL     1     -11.961  11.672  67.395  1.00  0.00    -0.621 OA 
BRANCH  14  15
HETATM   15  C   UNL     1     -11.909  13.026  66.929  1.00  0.00    -0.380 C  
BRANCH  15  16
HETATM   16  C   UNL     1     -11.984  13.910  68.179  1.00  0.00    -0.350 C  
BRANCH  16  17
HETATM   17  N   UNL     1     -11.820  15.330  67.917  1.00  0.00    -0.419 N  
HETATM   18  C   UNL     1     -10.880  16.067  68.596  1.00  0.00    -0.301 C  
HETATM   19  H   UNL     1     -12.410  15.785  67.220  1.00  0.00     0.000 HD 
HETATM   20  O   UNL     1     -10.213  15.620  69.524  1.00  0.00    -0.239 OA 
BRANCH  18  21
HETATM   21  C   UNL     1     -10.762  17.524  68.198  1.00  0.00    -0.329 C  
BRANCH  21  22
HETATM   22  N   UNL     1      -9.357  17.816  67.846  1.00  0.00    -0.261 NA 
HETATM   23  C   UNL     1      -8.617  18.624  68.646  1.00  0.00    -0.307 A  
HETATM   24  C   UNL     1      -7.302  18.928  68.321  1.00  0.00    -0.306 A  
HETATM   25  C   UNL     1      -6.739  18.382  67.176  1.00  0.00    -0.206 A  
HETATM   26  C   UNL     1      -7.502  17.543  66.375  1.00  0.00    -0.334 A  
HETATM   27  C   UNL     1      -8.817  17.271  66.732  1.00  0.00    -0.247 A  
ENDBRANCH  21  22
ENDBRANCH  18  21
ENDBRANCH  16  17
ENDBRANCH  15  16
ENDBRANCH  14  15
ENDBRANCH  12  14
ENDBRANCH  11  12
ENDBRANCH  10  11
ENDBRANCH   9  10
ENDBRANCH   8   9
ENDBRANCH   7   8
ENDBRANCH   6   7
ENDBRANCH   5   6
ENDBRANCH   4   5
ENDBRANCH   3   4
ENDBRANCH   2   3
TORSDOF 16
ENDMDL
MODEL      125
REMARK 921   NORMALIZED FREE ENERGY PREDICTED BY IDOCK:   -4.11 KCAL/MOL
REMARK 922        TOTAL FREE ENERGY PREDICTED BY IDOCK:  -10.04 KCAL/MOL
REMARK 923 INTER-LIGAND FREE ENERGY PREDICTED BY IDOCK:   -8.66 KCAL/MOL
REMARK 924 INTRA-LIGAND FREE ENERGY PREDICTED BY IDOCK:   -1.39 KCAL/MOL
REMARK 927      BINDING AFFINITY PREDICTED BY RF-SCORE:    0.00 PKD
ROOT
HETATM    1  C   UNL     1      -9.387   2.040  70.333  1.00  0.00    -0.181 C  
HETATM    2  C   UNL     1      -9.213   3.220  71.274  1.00  0.00    -0.192 C  
ENDROOT
BRANCH   2   3
HETATM    3  C   UNL     1      -9.934   4.457  70.742  1.00  0.00    -0.247 C  
BRANCH   3   4
HETATM    4  C   UNL     1     -10.243   5.443  71.865  1.00  0.00    -0.258 C  
BRANCH   4   5
HETATM    5  C   UNL     1     -10.950   6.682  71.320  1.00  0.00    -0.296 C  
BRANCH   5   6
HETATM    6  C   UNL     1     -11.813   7.326  72.398  1.00  0.00    -0.247 C  
BRANCH   6   7
HETATM    7  C   UNL     1     -12.159   8.771  72.052  1.00  0.00    -0.447 C  
BRANCH   7   8
HETATM    8  C   UNL     1     -11.018   9.393  71.251  1.00  0.00    -0.440 C  
BRANCH   8   9
HETATM    9  C   UNL     1     -11.500  10.540  70.375  1.00  0.00    -0.427 C  
BRANCH   9  10
HETATM   10  C   UNL     1     -12.657  11.316  71.023  1.00  0.00    -0.495 C  
BRANCH  10  11
HETATM   11  C   UNL     1     -12.572  12.838  70.845  1.00  0.00    -0.342 C  
BRANCH  11  12
HETATM   12  C   UNL     1     -13.575  13.528  71.734  1.00  0.00    -0.350 C  
HETATM   13  O   UNL     1     -14.025  13.072  72.774  1.00  0.00    -0.591 OA 
BRANCH  12  14
HETATM   14  O   UNL     1     -13.760  14.807  71.303  1.00  0.00    -0.395 OA 
BRANCH  14  15
HETATM   15  C   UNL     1     -13.361  15.808  72.248  1.00  0.00    -0.430 C  
BRANCH  15  16
HETATM   16  C   UNL     1     -12.007  16.336  71.762  1.00  0.00    -0.406 C  
BRANCH  16  17
HETATM   17  N   UNL     1     -11.889  16.439  70.317  1.00  0.00    -0.322 N  
HETATM   18  C   UNL     1     -10.778  15.961  69.666  1.00  0.00    -0.304 C  
HETATM   19  H   UNL     1     -12.640  16.871  69.780  1.00  0.00     0.000 HD 
HETATM   20  O   UNL     1      -9.786  15.532  70.248  1.00  0.00    -0.161 OA 
BRANCH  18  21
HETATM   21  C   UNL     1     -10.792  16.072  68.155  1.00  0.00    -0.322 C  
BRANCH  21  22
HETATM   22  N   UNL     1     -10.738  14.715  67.572  1.00  0.00    -0.265 NA 
HETATM   23  C   UNL     1     -11.825  13.905  67.649  1.00  0.00    -0.386 A  
HETATM   24  C   UNL     1     -11.786  12.620  67.127  1.00  0.00    -0.399 A  
HETATM   25  C   UNL     1     -10.630  12.171  66.504  1.00  0.00    -0.269 A  
HETATM   26  C   UNL     1      -9.532  13.016  66.417  1.00  0.00    -0.228 A  
HETATM   27  C   UNL     1      -9.609  14.292  66.961  1.00  0.00    -0.257 A  
ENDBRANCH  21  22
ENDBRANCH  18  21
ENDBRANCH  16  17
ENDBRANCH  15  16
ENDBRANCH  14  15
ENDBRANCH  12  14
ENDBRANCH  11  12
ENDBRANCH  10  11
ENDBRANCH   9  10
ENDBRANCH   8   9
ENDBRANCH   7   8
ENDBRANCH   6   7
ENDBRANCH   5   6
ENDBRANCH   4   5
ENDBRANCH   3   4
ENDBRANCH   2   3
TORSDOF 16
ENDMDL
MODEL      126
REMARK 921   NORMALIZED FREE ENERGY PREDICTED BY IDOCK:   -4.11 KCAL/MOL
REMARK 922        TOTAL FREE ENERGY PREDICTED BY IDOCK:  -10.04 KCAL/MOL
REMARK 923 INTER-LIGAND FREE ENERGY PREDICTED BY IDOCK:   -8.36 KCAL/MOL
REMARK 924 INTRA-LIGAND FREE ENERGY PREDICTED BY IDOCK:   -1.68 KCAL/MOL
REMARK 927      BINDING AFFINITY PREDICTED BY RF-SCORE:    0.00 PKD
ROOT
HETATM    1  C   UNL     1      -9.202   7.757  73.403  1.00  0.00    -0.344 C  
HETATM    2  C   UNL     1     -10.322   8.213  72.483  1.00  0.00    -0.401 C  
ENDROOT
BRANCH   2   3
HETATM    3  C   UNL     1     -11.484   7.222  72.501  1.00  0.00    -0.322 C  
BRANCH   3   4
HETATM    4  C   UNL     1     -12.029   6.983  71.095  1.00  0.00    -0.398 C  
BRANCH   4   5
HETATM    5  C   UNL     1     -11.047   6.155  70.267  1.00  0.00    -0.436 C  
BRANCH   5   6
HETATM    6  C   UNL     1     -11.097   6.572  68.802  1.00  0.00    -0.357 C  
BRANCH   6   7
HETATM    7  C   UNL     1     -10.301   7.851  68.555  1.00  0.00    -0.229 C  
BRANCH   7   8
HETATM    8  C   UNL     1     -10.521   8.320  67.119  1.00  0.00    -0.386 C  
BRANCH   8   9
HETATM    9  C   UNL     1      -9.227   8.793  66.472  1.00  0.00    -0.228 C  
BRANCH   9  10
HETATM   10  C   UNL     1      -9.269  10.289  66.124  1.00  0.00    -0.192 C  
BRANCH  10  11
HETATM   11  C   UNL     1      -8.699  11.205  67.216  1.00  0.00    -0.139 C  
BRANCH  11  12
HETATM   12  C   UNL     1      -9.097  12.637  66.961  1.00  0.00    -0.215 C  
HETATM   13  O   UNL     1      -9.909  13.003  66.124  1.00  0.00    -0.273 OA 
BRANCH  12  14
HETATM   14  O   UNL     1      -8.561  13.436  67.924  1.00  0.00    -0.161 OA 
BRANCH  14  15
HETATM   15  C   UNL     1      -8.942  14.814  67.823  1.00  0.00    -0.182 C  
BRANCH  15  16
HETATM   16  C   UNL     1      -8.868  15.381  69.245  1.00  0.00    -0.258 C  
BRANCH  16  17
HETATM   17  N   UNL     1      -9.973  14.989  70.104  1.00  0.00    -0.488 N  
HETATM   18  C   UNL     1     -11.267  15.315  69.779  1.00  0.00    -0.286 C  
HETATM   19  H   UNL     1      -9.785  14.465  70.958  1.00  0.00     0.000 HD 
HETATM   20  O   UNL     1     -11.564  16.038  68.832  1.00  0.00    -0.372 OA 
BRANCH  18  21
HETATM   21  C   UNL     1     -12.339  14.804  70.719  1.00  0.00    -0.330 C  
BRANCH  21  22
HETATM   22  N   UNL     1     -12.378  13.328  70.648  1.00  0.00    -0.360 NA 
HETATM   23  C   UNL     1     -11.872  12.693  69.560  1.00  0.00    -0.312 A  
HETATM   24  C   UNL     1     -11.921  11.309  69.465  1.00  0.00    -0.421 A  
HETATM   25  C   UNL     1     -12.475  10.573  70.502  1.00  0.00    -0.433 A  
HETATM   26  C   UNL     1     -12.974  11.234  71.617  1.00  0.00    -0.537 A  
HETATM   27  C   UNL     1     -12.914  12.621  71.668  1.00  0.00    -0.299 A  
ENDBRANCH  21  22
ENDBRANCH  18  21
ENDBRANCH  16  17
ENDBRANCH  15  16
ENDBRANCH  14  15
ENDBRANCH  12  14
ENDBRANCH  11  12
ENDBRANCH  10  11
ENDBRANCH   9  10
ENDBRANCH   8   9
ENDBRANCH   7   8
ENDBRANCH   6   7
ENDBRANCH   5   6
ENDBRANCH   4   5
ENDBRANCH   3   4
ENDBRANCH   2   3
TORSDOF 16
ENDMDL
MODEL      127
REMARK 921   NORMALIZED FREE ENERGY PREDICTED BY IDOCK:   -4.11 KCAL/MOL
REMARK 922        TOTAL FREE ENERGY PREDICTED BY IDOCK:  -10.03 KCAL/MOL
REMARK 923 INTER-LIGAND FREE ENERGY PREDICTED BY IDOCK:   -8.31 KCAL/MOL
REMARK 924 INTRA-LIGAND FREE ENERGY PREDICTED BY IDOCK:   -1.72 KCAL/MOL
REMARK 927      BINDING AFFINITY PREDICTED BY RF-SCORE:    0.00 PKD
ROOT
HETATM    1  C   UNL     1      -6.848  16.033  69.350  1.00  0.00    -0.215 C  
HETATM    2  C   UNL     1      -7.568  14.707  69.182  1.00  0.00    -0.126 C  
ENDROOT
BRANCH   2   3
HETATM    3  C   UNL     1      -7.471  14.208  67.742  1.00  0.00    -0.174 C  
BRANCH   3   4
HETATM    4  C   UNL     1      -8.763  13.521  67.306  1.00  0.00    -0.228 C  
BRANCH   4   5
HETATM    5  C   UNL     1      -9.675  14.500  66.567  1.00  0.00    -0.301 C  
BRANCH   5   6
HETATM    6  C   UNL     1     -11.139  14.161  66.816  1.00  0.00    -0.314 C  
BRANCH   6   7
HETATM    7  C   UNL     1     -11.635  14.745  68.135  1.00  0.00    -0.356 C  
BRANCH   7   8
HETATM    8  C   UNL     1     -11.099  16.165  68.300  1.00  0.00    -0.348 C  
BRANCH   8   9
HETATM    9  C   UNL     1     -10.725  16.466  69.744  1.00  0.00    -0.324 C  
BRANCH   9  10
HETATM   10  C   UNL     1     -11.231  15.383  70.710  1.00  0.00    -0.378 C  
BRANCH  10  11
HETATM   11  C   UNL     1     -12.414  15.823  71.583  1.00  0.00    -0.525 C  
BRANCH  11  12
HETATM   12  C   UNL     1     -12.955  14.651  72.363  1.00  0.00    -0.368 C  
HETATM   13  O   UNL     1     -13.178  14.648  73.564  1.00  0.00    -0.546 OA 
BRANCH  12  14
HETATM   14  O   UNL     1     -13.332  13.667  71.500  1.00  0.00    -0.340 OA 
BRANCH  14  15
HETATM   15  C   UNL     1     -13.347  12.356  72.077  1.00  0.00    -0.407 C  
BRANCH  15  16
HETATM   16  C   UNL     1     -12.893  11.398  70.970  1.00  0.00    -0.286 C  
BRANCH  16  17
HETATM   17  N   UNL     1     -12.052  10.307  71.432  1.00  0.00    -0.377 N  
HETATM   18  C   UNL     1     -12.606   9.163  71.953  1.00  0.00    -0.388 C  
HETATM   19  H   UNL     1     -11.037  10.391  71.369  1.00  0.00     0.000 HD 
HETATM   20  O   UNL     1     -13.807   9.031  72.166  1.00  0.00    -0.427 OA 
BRANCH  18  21
HETATM   21  C   UNL     1     -11.633   8.072  72.348  1.00  0.00    -0.390 C  
BRANCH  21  22
HETATM   22  N   UNL     1     -10.990   7.533  71.130  1.00  0.00    -0.243 NA 
HETATM   23  C   UNL     1      -9.695   7.837  70.863  1.00  0.00    -0.168 A  
HETATM   24  C   UNL     1      -9.081   7.360  69.712  1.00  0.00    -0.141 A  
HETATM   25  C   UNL     1      -9.798   6.550  68.844  1.00  0.00    -0.142 A  
HETATM   26  C   UNL     1     -11.117   6.233  69.139  1.00  0.00    -0.457 A  
HETATM   27  C   UNL     1     -11.696   6.739  70.295  1.00  0.00    -0.341 A  
ENDBRANCH  21  22
ENDBRANCH  18  21
ENDBRANCH  16  17
ENDBRANCH  15  16
ENDBRANCH  14  15
ENDBRANCH  12  14
ENDBRANCH  11  12
ENDBRANCH  10  11
ENDBRANCH   9  10
ENDBRANCH   8   9
ENDBRANCH   7   8
ENDBRANCH   6   7
ENDBRANCH   5   6
ENDBRANCH   4   5
ENDBRANCH   3   4
ENDBRANCH   2   3
TORSDOF 16
ENDMDL
MODEL      128
REMARK 921   NORMALIZED FREE ENERGY PREDICTED BY IDOCK:   -4.11 KCAL/MOL
REMARK 922        TOTAL FREE ENERGY PREDICTED BY IDOCK:  -10.03 KCAL/MOL
REMARK 923 INTER-LIGAND FREE ENERGY PREDICTED BY IDOCK:   -8.11 KCAL/MOL
REMARK 924 INTRA-LIGAND FREE ENERGY PREDICTED BY IDOCK:   -1.92 KCAL/MOL
REMARK 927      BINDING AFFINITY PREDICTED BY RF-SCORE:    0.00 PKD
ROOT
HETATM    1  C   UNL     1     -10.193  10.751  64.472  1.00  0.00    -0.428 C  
HETATM    2  C   UNL     1     -11.148  11.681  63.743  1.00  0.00    -0.499 C  
ENDROOT
BRANCH   2   3
HETATM    3  C   UNL     1     -10.960  13.127  64.196  1.00  0.00    -0.418 C  
BRANCH   3   4
HETATM    4  C   UNL     1     -10.697  13.206  65.697  1.00  0.00    -0.294 C  
BRANCH   4   5
HETATM    5  C   UNL     1     -11.990  13.488  66.461  1.00  0.00    -0.460 C  
BRANCH   5   6
HETATM    6  C   UNL     1     -11.892  12.974  67.891  1.00  0.00    -0.389 C  
BRANCH   6   7
HETATM    7  C   UNL     1     -11.439  11.517  67.934  1.00  0.00    -0.372 C  
BRANCH   7   8
HETATM    8  C   UNL     1     -11.154  11.112  69.378  1.00  0.00    -0.314 C  
BRANCH   8   9
HETATM    9  C   UNL     1     -12.147  11.738  70.348  1.00  0.00    -0.440 C  
BRANCH   9  10
HETATM   10  C   UNL     1     -12.691  10.714  71.357  1.00  0.00    -0.545 C  
BRANCH  10  11
HETATM   11  C   UNL     1     -11.929   9.382  71.373  1.00  0.00    -0.446 C  
BRANCH  11  12
HETATM   12  C   UNL     1     -12.838   8.263  71.818  1.00  0.00    -0.338 C  
HETATM   13  O   UNL     1     -14.040   8.209  71.610  1.00  0.00    -0.396 OA 
BRANCH  12  14
HETATM   14  O   UNL     1     -12.089   7.241  72.318  1.00  0.00    -0.269 OA 
BRANCH  14  15
HETATM   15  C   UNL     1     -10.928   7.665  73.043  1.00  0.00    -0.400 C  
BRANCH  15  16
HETATM   16  C   UNL     1      -9.955   6.481  73.020  1.00  0.00    -0.172 C  
BRANCH  16  17
HETATM   17  N   UNL     1      -9.167   6.380  71.803  1.00  0.00    -0.144 N  
HETATM   18  C   UNL     1      -9.332   5.320  70.944  1.00  0.00    -0.153 C  
HETATM   19  H   UNL     1      -8.483   7.104  71.584  1.00  0.00     0.000 HD 
HETATM   20  O   UNL     1     -10.049   4.356  71.191  1.00  0.00    -0.186 OA 
BRANCH  18  21
HETATM   21  C   UNL     1      -8.496   5.352  69.681  1.00  0.00    -0.100 C  
BRANCH  21  22
HETATM   22  N   UNL     1      -9.204   6.144  68.653  1.00  0.00    -0.124 NA 
HETATM   23  C   UNL     1     -10.111   5.540  67.844  1.00  0.00    -0.176 A  
HETATM   24  C   UNL     1     -10.769   6.263  66.858  1.00  0.00    -0.411 A  
HETATM   25  C   UNL     1     -10.509   7.618  66.718  1.00  0.00    -0.319 A  
HETATM   26  C   UNL     1      -9.592   8.227  67.564  1.00  0.00    -0.194 A  
HETATM   27  C   UNL     1      -8.948   7.466  68.531  1.00  0.00    -0.128 A  
ENDBRANCH  21  22
ENDBRANCH  18  21
ENDBRANCH  16  17
ENDBRANCH  15  16
ENDBRANCH  14  15
ENDBRANCH  12  14
ENDBRANCH  11  12
ENDBRANCH  10  11
ENDBRANCH   9  10
ENDBRANCH   8   9
ENDBRANCH   7   8
ENDBRANCH   6   7
ENDBRANCH   5   6
ENDBRANCH   4   5
ENDBRANCH   3   4
ENDBRANCH   2   3
TORSDOF 16
ENDMDL
MODEL      129
REMARK 921   NORMALIZED FREE ENERGY PREDICTED BY IDOCK:   -4.10 KCAL/MOL
REMARK 922        TOTAL FREE ENERGY PREDICTED BY IDOCK:  -10.01 KCAL/MOL
REMARK 923 INTER-LIGAND FREE ENERGY PREDICTED BY IDOCK:   -8.43 KCAL/MOL
REMARK 924 INTRA-LIGAND FREE ENERGY PREDICTED BY IDOCK:   -1.59 KCAL/MOL
REMARK 927      BINDING AFFINITY PREDICTED BY RF-SCORE:    0.00 PKD
ROOT
HETATM    1  C   UNL     1     -11.008   2.306  73.723  1.00  0.00    -0.286 C  
HETATM    2  C   UNL     1     -10.672   3.524  72.879  1.00  0.00    -0.185 C  
ENDROOT
BRANCH   2   3
HETATM    3  C   UNL     1     -11.286   4.790  73.474  1.00  0.00    -0.392 C  
BRANCH   3   4
HETATM    4  C   UNL     1     -10.503   6.032  73.058  1.00  0.00    -0.246 C  
BRANCH   4   5
HETATM    5  C   UNL     1     -11.428   7.067  72.417  1.00  0.00    -0.300 C  
BRANCH   5   6
HETATM    6  C   UNL     1     -11.870   6.607  71.034  1.00  0.00    -0.427 C  
BRANCH   6   7
HETATM    7  C   UNL     1     -10.686   6.476  70.080  1.00  0.00    -0.302 C  
BRANCH   7   8
HETATM    8  C   UNL     1      -9.967   7.818  69.969  1.00  0.00    -0.187 C  
BRANCH   8   9
HETATM    9  C   UNL     1     -10.375   8.578  68.715  1.00  0.00    -0.233 C  
BRANCH   9  10
HETATM   10  C   UNL     1     -10.569  10.078  68.987  1.00  0.00    -0.235 C  
BRANCH  10  11
HETATM   11  C   UNL     1     -11.316  10.826  67.874  1.00  0.00    -0.372 C  
BRANCH  11  12
HETATM   12  C   UNL     1     -10.395  11.094  66.711  1.00  0.00    -0.241 C  
HETATM   13  O   UNL     1      -9.458  11.877  66.722  1.00  0.00    -0.191 OA 
BRANCH  12  14
HETATM   14  O   UNL     1     -10.647  10.199  65.716  1.00  0.00    -0.115 OA 
BRANCH  14  15
HETATM   15  C   UNL     1      -9.716  10.252  64.628  1.00  0.00    -0.333 C  
BRANCH  15  16
HETATM   16  C   UNL     1     -10.464  10.903  63.459  1.00  0.00    -0.199 C  
BRANCH  16  17
HETATM   17  N   UNL     1     -10.706  12.327  63.624  1.00  0.00    -0.440 N  
HETATM   18  C   UNL     1     -11.986  12.815  63.733  1.00  0.00    -0.510 C  
HETATM   19  H   UNL     1      -9.917  12.971  63.658  1.00  0.00     0.000 HD 
HETATM   20  O   UNL     1     -12.987  12.121  63.588  1.00  0.00    -0.780 OA 
BRANCH  18  21
HETATM   21  C   UNL     1     -12.112  14.307  63.958  1.00  0.00    -0.316 C  
BRANCH  21  22
HETATM   22  N   UNL     1     -11.532  14.648  65.274  1.00  0.00    -0.351 NA 
HETATM   23  C   UNL     1     -12.135  14.208  66.408  1.00  0.00    -0.451 A  
HETATM   24  C   UNL     1     -11.619  14.536  67.655  1.00  0.00    -0.402 A  
HETATM   25  C   UNL     1     -10.466  15.304  67.734  1.00  0.00    -0.253 A  
HETATM   26  C   UNL     1      -9.850  15.733  66.566  1.00  0.00    -0.286 A  
HETATM   27  C   UNL     1     -10.404  15.390  65.339  1.00  0.00    -0.394 A  
ENDBRANCH  21  22
ENDBRANCH  18  21
ENDBRANCH  16  17
ENDBRANCH  15  16
ENDBRANCH  14  15
ENDBRANCH  12  14
ENDBRANCH  11  12
ENDBRANCH  10  11
ENDBRANCH   9  10
ENDBRANCH   8   9
ENDBRANCH   7   8
ENDBRANCH   6   7
ENDBRANCH   5   6
ENDBRANCH   4   5
ENDBRANCH   3   4
ENDBRANCH   2   3
TORSDOF 16
ENDMDL
MODEL      130
REMARK 921   NORMALIZED FREE ENERGY PREDICTED BY IDOCK:   -4.10 KCAL/MOL
REMARK 922        TOTAL FREE ENERGY PREDICTED BY IDOCK:  -10.01 KCAL/MOL
REMARK 923 INTER-LIGAND FREE ENERGY PREDICTED BY IDOCK:   -7.95 KCAL/MOL
REMARK 924 INTRA-LIGAND FREE ENERGY PREDICTED BY IDOCK:   -2.07 KCAL/MOL
REMARK 927      BINDING AFFINITY PREDICTED BY RF-SCORE:    0.00 PKD
ROOT
HETATM    1  C   UNL     1     -12.600   7.178  71.633  1.00  0.00    -0.410 C  
HETATM    2  C   UNL     1     -12.301   8.517  72.285  1.00  0.00    -0.450 C  
ENDROOT
BRANCH   2   3
HETATM    3  C   UNL     1     -13.476   9.479  72.126  1.00  0.00    -0.535 C  
BRANCH   3   4
HETATM    4  C   UNL     1     -13.249  10.442  70.964  1.00  0.00    -0.361 C  
BRANCH   4   5
HETATM    5  C   UNL     1     -12.710  11.781  71.465  1.00  0.00    -0.400 C  
BRANCH   5   6
HETATM    6  C   UNL     1     -13.782  12.534  72.242  1.00  0.00    -0.356 C  
BRANCH   6   7
HETATM    7  C   UNL     1     -13.350  13.964  72.553  1.00  0.00    -0.656 C  
BRANCH   7   8
HETATM    8  C   UNL     1     -12.189  14.357  71.644  1.00  0.00    -0.385 C  
BRANCH   8   9
HETATM    9  C   UNL     1     -12.522  15.574  70.792  1.00  0.00    -0.491 C  
BRANCH   9  10
HETATM   10  C   UNL     1     -12.222  15.337  69.304  1.00  0.00    -0.218 C  
BRANCH  10  11
HETATM   11  C   UNL     1     -10.912  14.582  69.039  1.00  0.00    -0.272 C  
BRANCH  11  12
HETATM   12  C   UNL     1     -11.159  13.405  68.129  1.00  0.00    -0.258 C  
HETATM   13  O   UNL     1     -11.110  12.233  68.466  1.00  0.00    -0.218 OA 
BRANCH  12  14
HETATM   14  O   UNL     1     -11.627  13.850  66.929  1.00  0.00    -0.339 OA 
BRANCH  14  15
HETATM   15  C   UNL     1     -12.046  12.807  66.041  1.00  0.00    -0.395 C  
BRANCH  15  16
HETATM   16  C   UNL     1     -10.905  12.618  65.036  1.00  0.00    -0.290 C  
BRANCH  16  17
HETATM   17  N   UNL     1     -10.223  11.338  65.140  1.00  0.00    -0.274 N  
HETATM   18  C   UNL     1      -9.079  11.209  65.890  1.00  0.00    -0.203 C  
HETATM   19  H   UNL     1     -10.599  10.526  64.651  1.00  0.00     0.000 HD 
HETATM   20  O   UNL     1      -8.504  12.158  66.413  1.00  0.00    -0.091 OA 
BRANCH  18  21
HETATM   21  C   UNL     1      -8.490   9.816  65.970  1.00  0.00    -0.124 C  
BRANCH  21  22
HETATM   22  N   UNL     1      -9.206   9.049  67.011  1.00  0.00    -0.132 NA 
HETATM   23  C   UNL     1      -9.087   9.410  68.314  1.00  0.00    -0.128 A  
HETATM   24  C   UNL     1      -9.733   8.688  69.309  1.00  0.00    -0.173 A  
HETATM   25  C   UNL     1     -10.522   7.602  68.959  1.00  0.00    -0.214 A  
HETATM   26  C   UNL     1     -10.649   7.254  67.621  1.00  0.00    -0.316 A  
HETATM   27  C   UNL     1      -9.978   7.997  66.658  1.00  0.00    -0.256 A  
ENDBRANCH  21  22
ENDBRANCH  18  21
ENDBRANCH  16  17
ENDBRANCH  15  16
ENDBRANCH  14  15
ENDBRANCH  12  14
ENDBRANCH  11  12
ENDBRANCH  10  11
ENDBRANCH   9  10
ENDBRANCH   8   9
ENDBRANCH   7   8
ENDBRANCH   6   7
ENDBRANCH   5   6
ENDBRANCH   4   5
ENDBRANCH   3   4
ENDBRANCH   2   3
TORSDOF 16
ENDMDL
MODEL      131
REMARK 921   NORMALIZED FREE ENERGY PREDICTED BY IDOCK:   -4.10 KCAL/MOL
REMARK 922        TOTAL FREE ENERGY PREDICTED BY IDOCK:  -10.01 KCAL/MOL
REMARK 923 INTER-LIGAND FREE ENERGY PREDICTED BY IDOCK:   -8.39 KCAL/MOL
REMARK 924 INTRA-LIGAND FREE ENERGY PREDICTED BY IDOCK:   -1.62 KCAL/MOL
REMARK 927      BINDING AFFINITY PREDICTED BY RF-SCORE:    0.00 PKD
ROOT
HETATM    1  C   UNL     1     -13.023  10.666  71.701  1.00  0.00    -0.582 C  
HETATM    2  C   UNL     1     -13.338   9.306  72.299  1.00  0.00    -0.547 C  
ENDROOT
BRANCH   2   3
HETATM    3  C   UNL     1     -12.165   8.344  72.121  1.00  0.00    -0.434 C  
BRANCH   3   4
HETATM    4  C   UNL     1     -10.888   9.091  71.749  1.00  0.00    -0.437 C  
BRANCH   4   5
HETATM    5  C   UNL     1      -9.659   8.383  72.317  1.00  0.00    -0.374 C  
BRANCH   5   6
HETATM    6  C   UNL     1     -10.005   6.959  72.733  1.00  0.00    -0.193 C  
BRANCH   6   7
HETATM    7  C   UNL     1      -9.065   5.942  72.091  1.00  0.00    -0.145 C  
BRANCH   7   8
HETATM    8  C   UNL     1      -9.112   6.089  70.572  1.00  0.00    -0.157 C  
BRANCH   8   9
HETATM    9  C   UNL     1     -10.372   5.473  69.981  1.00  0.00    -0.358 C  
BRANCH   9  10
HETATM   10  C   UNL     1     -11.118   6.452  69.061  1.00  0.00    -0.424 C  
BRANCH  10  11
HETATM   11  C   UNL     1     -10.959   6.152  67.564  1.00  0.00    -0.404 C  
BRANCH  11  12
HETATM   12  C   UNL     1     -10.117   7.215  66.903  1.00  0.00    -0.238 C  
HETATM   13  O   UNL     1      -9.012   7.034  66.416  1.00  0.00    -0.145 OA 
BRANCH  12  14
HETATM   14  O   UNL     1     -10.851   8.354  66.763  1.00  0.00    -0.172 OA 
BRANCH  14  15
HETATM   15  C   UNL     1     -10.081   9.560  66.837  1.00  0.00    -0.230 C  
BRANCH  15  16
HETATM   16  C   UNL     1     -10.913  10.545  67.665  1.00  0.00    -0.314 C  
BRANCH  16  17
HETATM   17  N   UNL     1     -11.315  11.742  66.944  1.00  0.00    -0.325 N  
HETATM   18  C   UNL     1     -11.730  12.864  67.618  1.00  0.00    -0.370 C  
HETATM   19  H   UNL     1     -11.289  11.748  65.924  1.00  0.00     0.000 HD 
HETATM   20  O   UNL     1     -11.897  12.898  68.834  1.00  0.00    -0.302 OA 
BRANCH  18  21
HETATM   21  C   UNL     1     -12.069  14.067  66.763  1.00  0.00    -0.447 C  
BRANCH  21  22
HETATM   22  N   UNL     1     -10.989  15.068  66.888  1.00  0.00    -0.320 NA 
HETATM   23  C   UNL     1     -11.154  16.137  67.709  1.00  0.00    -0.254 A  
HETATM   24  C   UNL     1     -10.160  17.100  67.822  1.00  0.00    -0.306 A  
HETATM   25  C   UNL     1      -8.983  16.952  67.104  1.00  0.00    -0.219 A  
HETATM   26  C   UNL     1      -8.820  15.845  66.281  1.00  0.00    -0.386 A  
HETATM   27  C   UNL     1      -9.843  14.910  66.189  1.00  0.00    -0.308 A  
ENDBRANCH  21  22
ENDBRANCH  18  21
ENDBRANCH  16  17
ENDBRANCH  15  16
ENDBRANCH  14  15
ENDBRANCH  12  14
ENDBRANCH  11  12
ENDBRANCH  10  11
ENDBRANCH   9  10
ENDBRANCH   8   9
ENDBRANCH   7   8
ENDBRANCH   6   7
ENDBRANCH   5   6
ENDBRANCH   4   5
ENDBRANCH   3   4
ENDBRANCH   2   3
TORSDOF 16
ENDMDL
MODEL      132
REMARK 921   NORMALIZED FREE ENERGY PREDICTED BY IDOCK:   -4.10 KCAL/MOL
REMARK 922        TOTAL FREE ENERGY PREDICTED BY IDOCK:  -10.01 KCAL/MOL
REMARK 923 INTER-LIGAND FREE ENERGY PREDICTED BY IDOCK:   -8.83 KCAL/MOL
REMARK 924 INTRA-LIGAND FREE ENERGY PREDICTED BY IDOCK:   -1.18 KCAL/MOL
REMARK 927      BINDING AFFINITY PREDICTED BY RF-SCORE:    0.00 PKD
ROOT
HETATM    1  C   UNL     1      -8.067   8.436  62.692  1.00  0.00    -0.176 C  
HETATM    2  C   UNL     1      -8.787   9.722  63.063  1.00  0.00    -0.255 C  
ENDROOT
BRANCH   2   3
HETATM    3  C   UNL     1      -9.105   9.761  64.556  1.00  0.00    -0.297 C  
BRANCH   3   4
HETATM    4  C   UNL     1     -10.309  10.654  64.842  1.00  0.00    -0.347 C  
BRANCH   4   5
HETATM    5  C   UNL     1     -10.684  11.472  63.607  1.00  0.00    -0.491 C  
BRANCH   5   6
HETATM    6  C   UNL     1     -12.125  11.956  63.700  1.00  0.00    -0.580 C  
BRANCH   6   7
HETATM    7  C   UNL     1     -12.210  13.479  63.665  1.00  0.00    -0.438 C  
BRANCH   7   8
HETATM    8  C   UNL     1     -12.518  14.007  65.064  1.00  0.00    -0.446 C  
BRANCH   8   9
HETATM    9  C   UNL     1     -11.312  14.693  65.690  1.00  0.00    -0.338 C  
BRANCH   9  10
HETATM   10  C   UNL     1     -10.726  13.881  66.856  1.00  0.00    -0.284 C  
BRANCH  10  11
HETATM   11  C   UNL     1     -11.781  13.194  67.735  1.00  0.00    -0.401 C  
BRANCH  11  12
HETATM   12  C   UNL     1     -11.237  11.903  68.295  1.00  0.00    -0.261 C  
HETATM   13  O   UNL     1     -10.078  11.531  68.205  1.00  0.00    -0.181 OA 
BRANCH  12  14
HETATM   14  O   UNL     1     -12.185  11.312  69.074  1.00  0.00    -0.444 OA 
BRANCH  14  15
HETATM   15  C   UNL     1     -12.216  11.789  70.424  1.00  0.00    -0.330 C  
BRANCH  15  16
HETATM   16  C   UNL     1     -12.936  10.710  71.241  1.00  0.00    -0.414 C  
BRANCH  16  17
HETATM   17  N   UNL     1     -12.056   9.702  71.807  1.00  0.00    -0.386 N  
HETATM   18  C   UNL     1     -12.527   8.449  72.117  1.00  0.00    -0.370 C  
HETATM   19  H   UNL     1     -11.076   9.927  71.977  1.00  0.00     0.000 HD 
HETATM   20  O   UNL     1     -13.712   8.138  72.048  1.00  0.00    -0.333 OA 
BRANCH  18  21
HETATM   21  C   UNL     1     -11.505   7.465  72.647  1.00  0.00    -0.291 C  
BRANCH  21  22
HETATM   22  N   UNL     1     -11.066   6.584  71.545  1.00  0.00    -0.254 NA 
HETATM   23  C   UNL     1     -10.256   5.527  71.810  1.00  0.00    -0.202 A  
HETATM   24  C   UNL     1      -9.815   4.701  70.785  1.00  0.00    -0.284 A  
HETATM   25  C   UNL     1     -10.226   4.951  69.484  1.00  0.00    -0.247 A  
HETATM   26  C   UNL     1     -11.069   6.024  69.229  1.00  0.00    -0.424 A  
HETATM   27  C   UNL     1     -11.479   6.832  70.282  1.00  0.00    -0.360 A  
ENDBRANCH  21  22
ENDBRANCH  18  21
ENDBRANCH  16  17
ENDBRANCH  15  16
ENDBRANCH  14  15
ENDBRANCH  12  14
ENDBRANCH  11  12
ENDBRANCH  10  11
ENDBRANCH   9  10
ENDBRANCH   8   9
ENDBRANCH   7   8
ENDBRANCH   6   7
ENDBRANCH   5   6
ENDBRANCH   4   5
ENDBRANCH   3   4
ENDBRANCH   2   3
TORSDOF 16
ENDMDL
MODEL      133
REMARK 921   NORMALIZED FREE ENERGY PREDICTED BY IDOCK:   -4.08 KCAL/MOL
REMARK 922        TOTAL FREE ENERGY PREDICTED BY IDOCK:   -9.98 KCAL/MOL
REMARK 923 INTER-LIGAND FREE ENERGY PREDICTED BY IDOCK:   -8.23 KCAL/MOL
REMARK 924 INTRA-LIGAND FREE ENERGY PREDICTED BY IDOCK:   -1.75 KCAL/MOL
REMARK 927      BINDING AFFINITY PREDICTED BY RF-SCORE:    0.00 PKD
ROOT
HETATM    1  C   UNL     1     -12.325  13.073  63.309  1.00  0.00    -0.392 C  
HETATM    2  C   UNL     1     -11.682  11.757  63.710  1.00  0.00    -0.499 C  
ENDROOT
BRANCH   2   3
HETATM    3  C   UNL     1     -10.216  11.710  63.285  1.00  0.00    -0.445 C  
BRANCH   3   4
HETATM    4  C   UNL     1      -9.604  10.338  63.556  1.00  0.00    -0.321 C  
BRANCH   4   5
HETATM    5  C   UNL     1      -8.517  10.430  64.625  1.00  0.00    -0.176 C  
BRANCH   5   6
HETATM    6  C   UNL     1      -8.844   9.521  65.803  1.00  0.00    -0.193 C  
BRANCH   6   7
HETATM    7  C   UNL     1     -10.065  10.016  66.573  1.00  0.00    -0.296 C  
BRANCH   7   8
HETATM    8  C   UNL     1      -9.712  11.297  67.323  1.00  0.00    -0.192 C  
BRANCH   8   9
HETATM    9  C   UNL     1     -10.785  12.364  67.160  1.00  0.00    -0.264 C  
BRANCH   9  10
HETATM   10  C   UNL     1     -10.246  13.625  66.467  1.00  0.00    -0.284 C  
BRANCH  10  11
HETATM   11  C   UNL     1     -11.067  14.892  66.741  1.00  0.00    -0.335 C  
BRANCH  11  12
HETATM   12  C   UNL     1     -10.639  16.004  65.816  1.00  0.00    -0.353 C  
HETATM   13  O   UNL     1     -10.734  15.982  64.598  1.00  0.00    -0.601 OA 
BRANCH  12  14
HETATM   14  O   UNL     1     -10.310  17.104  66.549  1.00  0.00    -0.318 OA 
BRANCH  14  15
HETATM   15  C   UNL     1     -10.791  17.074  67.899  1.00  0.00    -0.302 C  
BRANCH  15  16
HETATM   16  C   UNL     1     -10.197  18.306  68.590  1.00  0.00    -0.353 C  
BRANCH  16  17
HETATM   17  N   UNL     1      -8.753  18.419  68.473  1.00  0.00    -0.319 N  
HETATM   18  C   UNL     1      -8.178  19.521  67.888  1.00  0.00    -0.310 C  
HETATM   19  H   UNL     1      -8.159  17.671  68.830  1.00  0.00     0.000 HD 
HETATM   20  O   UNL     1      -8.823  20.406  67.335  1.00  0.00    -0.344 OA 
BRANCH  18  21
HETATM   21  C   UNL     1      -6.663  19.553  67.874  1.00  0.00    -0.237 C  
BRANCH  21  22
HETATM   22  N   UNL     1      -6.164  19.331  69.247  1.00  0.00    -0.268 NA 
HETATM   23  C   UNL     1      -5.633  18.128  69.584  1.00  0.00    -0.218 A  
HETATM   24  C   UNL     1      -5.179  17.894  70.875  1.00  0.00    -0.269 A  
HETATM   25  C   UNL     1      -5.253  18.908  71.819  1.00  0.00    -0.231 A  
HETATM   26  C   UNL     1      -5.783  20.139  71.456  1.00  0.00    -0.397 A  
HETATM   27  C   UNL     1      -6.234  20.330  70.156  1.00  0.00    -0.314 A  
ENDBRANCH  21  22
ENDBRANCH  18  21
ENDBRANCH  16  17
ENDBRANCH  15  16
ENDBRANCH  14  15
ENDBRANCH  12  14
ENDBRANCH  11  12
ENDBRANCH  10  11
ENDBRANCH   9  10
ENDBRANCH   8   9
ENDBRANCH   7   8
ENDBRANCH   6   7
ENDBRANCH   5   6
ENDBRANCH   4   5
ENDBRANCH   3   4
ENDBRANCH   2   3
TORSDOF 16
ENDMDL
MODEL      134
REMARK 921   NORMALIZED FREE ENERGY PREDICTED BY IDOCK:   -4.08 KCAL/MOL
REMARK 922        TOTAL FREE ENERGY PREDICTED BY IDOCK:   -9.98 KCAL/MOL
REMARK 923 INTER-LIGAND FREE ENERGY PREDICTED BY IDOCK:   -8.24 KCAL/MOL
REMARK 924 INTRA-LIGAND FREE ENERGY PREDICTED BY IDOCK:   -1.74 KCAL/MOL
REMARK 927      BINDING AFFINITY PREDICTED BY RF-SCORE:    0.00 PKD
ROOT
HETATM    1  C   UNL     1     -10.717  12.617  66.749  1.00  0.00    -0.261 C  
HETATM    2  C   UNL     1     -10.595  11.299  66.004  1.00  0.00    -0.314 C  
ENDROOT
BRANCH   2   3
HETATM    3  C   UNL     1      -9.136  10.857  65.905  1.00  0.00    -0.212 C  
BRANCH   3   4
HETATM    4  C   UNL     1      -8.904   9.544  66.647  1.00  0.00    -0.150 C  
BRANCH   4   5
HETATM    5  C   UNL     1     -10.226   8.818  66.892  1.00  0.00    -0.357 C  
BRANCH   5   6
HETATM    6  C   UNL     1     -10.425   8.554  68.379  1.00  0.00    -0.215 C  
BRANCH   6   7
HETATM    7  C   UNL     1      -9.451   9.365  69.229  1.00  0.00    -0.164 C  
BRANCH   7   8
HETATM    8  C   UNL     1     -10.222  10.407  70.037  1.00  0.00    -0.134 C  
BRANCH   8   9
HETATM    9  C   UNL     1     -11.722  10.149  70.010  1.00  0.00    -0.294 C  
BRANCH   9  10
HETATM   10  C   UNL     1     -12.457  10.900  71.131  1.00  0.00    -0.511 C  
BRANCH  10  11
HETATM   11  C   UNL     1     -12.419  12.429  70.992  1.00  0.00    -0.353 C  
BRANCH  11  12
HETATM   12  C   UNL     1     -13.339  13.070  72.000  1.00  0.00    -0.492 C  
HETATM   13  O   UNL     1     -14.193  12.482  72.647  1.00  0.00    -0.165 OA 
BRANCH  12  14
HETATM   14  O   UNL     1     -12.950  14.357  72.217  1.00  0.00    -0.334 OA 
BRANCH  14  15
HETATM   15  C   UNL     1     -13.151  15.227  71.096  1.00  0.00    -0.479 C  
BRANCH  15  16
HETATM   16  C   UNL     1     -11.865  16.049  70.959  1.00  0.00    -0.394 C  
BRANCH  16  17
HETATM   17  N   UNL     1     -11.536  16.421  69.593  1.00  0.00    -0.322 N  
HETATM   18  C   UNL     1     -10.521  15.789  68.916  1.00  0.00    -0.223 C  
HETATM   19  H   UNL     1     -12.065  17.161  69.131  1.00  0.00     0.000 HD 
HETATM   20  O   UNL     1      -9.768  14.972  69.437  1.00  0.00    -0.209 OA 
BRANCH  18  21
HETATM   21  C   UNL     1     -10.308  16.221  67.480  1.00  0.00    -0.288 C  
BRANCH  21  22
HETATM   22  N   UNL     1      -9.961  17.658  67.455  1.00  0.00    -0.310 NA 
HETATM   23  C   UNL     1      -8.898  18.105  68.172  1.00  0.00    -0.280 A  
HETATM   24  C   UNL     1      -8.570  19.454  68.180  1.00  0.00    -0.374 A  
HETATM   25  C   UNL     1      -9.326  20.344  67.431  1.00  0.00    -0.536 A  
HETATM   26  C   UNL     1     -10.399  19.871  66.689  1.00  0.00    -0.608 A  
HETATM   27  C   UNL     1     -10.700  18.514  66.716  1.00  0.00    -0.257 A  
ENDBRANCH  21  22
ENDBRANCH  18  21
ENDBRANCH  16  17
ENDBRANCH  15  16
ENDBRANCH  14  15
ENDBRANCH  12  14
ENDBRANCH  11  12
ENDBRANCH  10  11
ENDBRANCH   9  10
ENDBRANCH   8   9
ENDBRANCH   7   8
ENDBRANCH   6   7
ENDBRANCH   5   6
ENDBRANCH   4   5
ENDBRANCH   3   4
ENDBRANCH   2   3
TORSDOF 16
ENDMDL
MODEL      135
REMARK 921   NORMALIZED FREE ENERGY PREDICTED BY IDOCK:   -4.08 KCAL/MOL
REMARK 922        TOTAL FREE ENERGY PREDICTED BY IDOCK:   -9.98 KCAL/MOL
REMARK 923 INTER-LIGAND FREE ENERGY PREDICTED BY IDOCK:   -8.86 KCAL/MOL
REMARK 924 INTRA-LIGAND FREE ENERGY PREDICTED BY IDOCK:   -1.12 KCAL/MOL
REMARK 927      BINDING AFFINITY PREDICTED BY RF-SCORE:    0.00 PKD
ROOT
HETATM    1  C   UNL     1     -10.188  20.087  67.965  1.00  0.00    -0.538 C  
HETATM    2  C   UNL     1     -10.469  19.082  66.860  1.00  0.00    -0.505 C  
ENDROOT
BRANCH   2   3
HETATM    3  C   UNL     1      -9.464  17.933  66.896  1.00  0.00    -0.279 C  
BRANCH   3   4
HETATM    4  C   UNL     1      -9.340  17.348  68.300  1.00  0.00    -0.278 C  
BRANCH   4   5
HETATM    5  C   UNL     1     -10.590  16.550  68.667  1.00  0.00    -0.316 C  
BRANCH   5   6
HETATM    6  C   UNL     1     -10.494  15.127  68.132  1.00  0.00    -0.245 C  
BRANCH   6   7
HETATM    7  C   UNL     1     -11.785  14.698  67.440  1.00  0.00    -0.413 C  
BRANCH   7   8
HETATM    8  C   UNL     1     -11.600  14.760  65.926  1.00  0.00    -0.286 C  
BRANCH   8   9
HETATM    9  C   UNL     1     -12.578  13.850  65.197  1.00  0.00    -0.466 C  
BRANCH   9  10
HETATM   10  C   UNL     1     -12.035  13.390  63.836  1.00  0.00    -0.520 C  
BRANCH  10  11
HETATM   11  C   UNL     1     -11.665  11.902  63.777  1.00  0.00    -0.554 C  
BRANCH  11  12
HETATM   12  C   UNL     1     -10.167  11.732  63.780  1.00  0.00    -0.399 C  
HETATM   13  O   UNL     1      -9.463  11.682  62.783  1.00  0.00    -0.348 OA 
BRANCH  12  14
HETATM   14  O   UNL     1      -9.701  11.833  65.056  1.00  0.00    -0.240 OA 
BRANCH  14  15
HETATM   15  C   UNL     1      -8.889  10.729  65.473  1.00  0.00    -0.190 C  
BRANCH  15  16
HETATM   16  C   UNL     1      -9.811   9.799  66.268  1.00  0.00    -0.250 C  
BRANCH  16  17
HETATM   17  N   UNL     1     -10.637  10.476  67.254  1.00  0.00    -0.247 N  
HETATM   18  C   UNL     1     -10.102  10.910  68.442  1.00  0.00    -0.183 C  
HETATM   19  H   UNL     1     -11.627  10.631  67.061  1.00  0.00     0.000 HD 
HETATM   20  O   UNL     1      -8.953  10.662  68.796  1.00  0.00    -0.157 OA 
BRANCH  18  21
HETATM   21  C   UNL     1     -11.045  11.652  69.366  1.00  0.00    -0.206 C  
BRANCH  21  22
HETATM   22  N   UNL     1     -11.610  10.700  70.346  1.00  0.00    -0.330 NA 
HETATM   23  C   UNL     1     -12.944  10.705  70.596  1.00  0.00    -0.264 A  
HETATM   24  C   UNL     1     -13.490   9.835  71.530  1.00  0.00    -0.417 A  
HETATM   25  C   UNL     1     -12.663   8.941  72.194  1.00  0.00    -0.470 A  
HETATM   26  C   UNL     1     -11.303   8.935  71.915  1.00  0.00    -0.446 A  
HETATM   27  C   UNL     1     -10.795   9.829  70.981  1.00  0.00    -0.308 A  
ENDBRANCH  21  22
ENDBRANCH  18  21
ENDBRANCH  16  17
ENDBRANCH  15  16
ENDBRANCH  14  15
ENDBRANCH  12  14
ENDBRANCH  11  12
ENDBRANCH  10  11
ENDBRANCH   9  10
ENDBRANCH   8   9
ENDBRANCH   7   8
ENDBRANCH   6   7
ENDBRANCH   5   6
ENDBRANCH   4   5
ENDBRANCH   3   4
ENDBRANCH   2   3
TORSDOF 16
ENDMDL
MODEL      136
REMARK 921   NORMALIZED FREE ENERGY PREDICTED BY IDOCK:   -4.08 KCAL/MOL
REMARK 922        TOTAL FREE ENERGY PREDICTED BY IDOCK:   -9.97 KCAL/MOL
REMARK 923 INTER-LIGAND FREE ENERGY PREDICTED BY IDOCK:   -8.23 KCAL/MOL
REMARK 924 INTRA-LIGAND FREE ENERGY PREDICTED BY IDOCK:   -1.75 KCAL/MOL
REMARK 927      BINDING AFFINITY PREDICTED BY RF-SCORE:    0.00 PKD
ROOT
HETATM    1  C   UNL     1     -13.260  10.034  71.929  1.00  0.00    -0.557 C  
HETATM    2  C   UNL     1     -12.848  11.441  71.530  1.00  0.00    -0.508 C  
ENDROOT
BRANCH   2   3
HETATM    3  C   UNL     1     -13.602  12.486  72.349  1.00  0.00    -0.353 C  
BRANCH   3   4
HETATM    4  C   UNL     1     -13.481  13.872  71.722  1.00  0.00    -0.464 C  
BRANCH   4   5
HETATM    5  C   UNL     1     -12.419  13.880  70.624  1.00  0.00    -0.436 C  
BRANCH   5   6
HETATM    6  C   UNL     1     -11.744  15.243  70.541  1.00  0.00    -0.355 C  
BRANCH   6   7
HETATM    7  C   UNL     1     -11.849  15.838  69.139  1.00  0.00    -0.367 C  
BRANCH   7   8
HETATM    8  C   UNL     1     -10.922  15.082  68.191  1.00  0.00    -0.281 C  
BRANCH   8   9
HETATM    9  C   UNL     1     -11.697  14.353  67.102  1.00  0.00    -0.424 C  
BRANCH   9  10
HETATM   10  C   UNL     1     -11.304  12.871  67.007  1.00  0.00    -0.355 C  
BRANCH  10  11
HETATM   11  C   UNL     1     -10.279  12.424  68.059  1.00  0.00    -0.219 C  
BRANCH  11  12
HETATM   12  C   UNL     1      -9.162  11.648  67.408  1.00  0.00    -0.168 C  
HETATM   13  O   UNL     1      -9.240  11.069  66.335  1.00  0.00    -0.166 OA 
BRANCH  12  14
HETATM   14  O   UNL     1      -8.006  11.848  68.100  1.00  0.00    -0.134 OA 
BRANCH  14  15
HETATM   15  C   UNL     1      -7.785  13.208  68.491  1.00  0.00    -0.117 C  
BRANCH  15  16
HETATM   16  C   UNL     1      -6.697  13.748  67.557  1.00  0.00    -0.115 C  
BRANCH  16  17
HETATM   17  N   UNL     1      -6.407  15.162  67.730  1.00  0.00    -0.155 N  
HETATM   18  C   UNL     1      -7.201  16.120  67.147  1.00  0.00    -0.220 C  
HETATM   19  H   UNL     1      -5.605  15.447  68.292  1.00  0.00     0.000 HD 
HETATM   20  O   UNL     1      -8.113  15.858  66.369  1.00  0.00    -0.265 OA 
BRANCH  18  21
HETATM   21  C   UNL     1      -6.836  17.559  67.445  1.00  0.00    -0.164 C  
BRANCH  21  22
HETATM   22  N   UNL     1      -8.068  18.376  67.461  1.00  0.00    -0.245 NA 
HETATM   23  C   UNL     1      -8.903  18.313  68.530  1.00  0.00    -0.304 A  
HETATM   24  C   UNL     1     -10.076  19.055  68.553  1.00  0.00    -0.467 A  
HETATM   25  C   UNL     1     -10.381  19.882  67.482  1.00  0.00    -0.557 A  
HETATM   26  C   UNL     1      -9.509  19.950  66.403  1.00  0.00    -0.513 A  
HETATM   27  C   UNL     1      -8.351  19.184  66.415  1.00  0.00    -0.318 A  
ENDBRANCH  21  22
ENDBRANCH  18  21
ENDBRANCH  16  17
ENDBRANCH  15  16
ENDBRANCH  14  15
ENDBRANCH  12  14
ENDBRANCH  11  12
ENDBRANCH  10  11
ENDBRANCH   9  10
ENDBRANCH   8   9
ENDBRANCH   7   8
ENDBRANCH   6   7
ENDBRANCH   5   6
ENDBRANCH   4   5
ENDBRANCH   3   4
ENDBRANCH   2   3
TORSDOF 16
ENDMDL
MODEL      137
REMARK 921   NORMALIZED FREE ENERGY PREDICTED BY IDOCK:   -4.07 KCAL/MOL
REMARK 922        TOTAL FREE ENERGY PREDICTED BY IDOCK:   -9.96 KCAL/MOL
REMARK 923 INTER-LIGAND FREE ENERGY PREDICTED BY IDOCK:   -8.48 KCAL/MOL
REMARK 924 INTRA-LIGAND FREE ENERGY PREDICTED BY IDOCK:   -1.48 KCAL/MOL
REMARK 927      BINDING AFFINITY PREDICTED BY RF-SCORE:    0.00 PKD
ROOT
HETATM    1  C   UNL     1      -9.810  20.366  67.061  1.00  0.00    -0.594 C  
HETATM    2  C   UNL     1     -10.327  19.370  66.037  1.00  0.00    -0.584 C  
ENDROOT
BRANCH   2   3
HETATM    3  C   UNL     1     -10.315  17.950  66.598  1.00  0.00    -0.362 C  
BRANCH   3   4
HETATM    4  C   UNL     1     -10.176  17.957  68.118  1.00  0.00    -0.386 C  
BRANCH   4   5
HETATM    5  C   UNL     1     -10.176  16.532  68.669  1.00  0.00    -0.264 C  
BRANCH   5   6
HETATM    6  C   UNL     1     -11.580  15.941  68.629  1.00  0.00    -0.383 C  
BRANCH   6   7
HETATM    7  C   UNL     1     -11.619  14.639  67.834  1.00  0.00    -0.373 C  
BRANCH   7   8
HETATM    8  C   UNL     1     -10.255  13.957  67.901  1.00  0.00    -0.241 C  
BRANCH   8   9
HETATM    9  C   UNL     1     -10.361  12.523  68.400  1.00  0.00    -0.237 C  
BRANCH   9  10
HETATM   10  C   UNL     1     -11.790  12.170  68.842  1.00  0.00    -0.358 C  
BRANCH  10  11
HETATM   11  C   UNL     1     -11.940  11.934  70.351  1.00  0.00    -0.400 C  
BRANCH  11  12
HETATM   12  C   UNL     1     -11.800  10.466  70.670  1.00  0.00    -0.350 C  
HETATM   13  O   UNL     1     -10.970   9.717  70.179  1.00  0.00    -0.242 OA 
BRANCH  12  14
HETATM   14  O   UNL     1     -12.610  10.150  71.718  1.00  0.00    -0.395 OA 
BRANCH  14  15
HETATM   15  C   UNL     1     -13.672   9.247  71.387  1.00  0.00    -0.261 C  
BRANCH  15  16
HETATM   16  C   UNL     1     -13.140   7.839  71.677  1.00  0.00    -0.345 C  
BRANCH  16  17
HETATM   17  N   UNL     1     -12.532   7.182  70.532  1.00  0.00    -0.614 N  
HETATM   18  C   UNL     1     -11.382   6.445  70.672  1.00  0.00    -0.357 C  
HETATM   19  H   UNL     1     -12.965   7.269  69.613  1.00  0.00     0.000 HD 
HETATM   20  O   UNL     1     -10.741   6.386  71.717  1.00  0.00    -0.222 OA 
BRANCH  18  21
HETATM   21  C   UNL     1     -10.873   5.760  69.421  1.00  0.00    -0.323 C  
BRANCH  21  22
HETATM   22  N   UNL     1     -10.201   6.759  68.563  1.00  0.00    -0.166 NA 
HETATM   23  C   UNL     1     -10.807   7.185  67.426  1.00  0.00    -0.276 A  
HETATM   24  C   UNL     1     -10.183   8.106  66.596  1.00  0.00    -0.329 A  
HETATM   25  C   UNL     1      -8.937   8.606  66.947  1.00  0.00    -0.161 A  
HETATM   26  C   UNL     1      -8.336   8.174  68.122  1.00  0.00    -0.129 A  
HETATM   27  C   UNL     1      -8.991   7.244  68.920  1.00  0.00    -0.133 A  
ENDBRANCH  21  22
ENDBRANCH  18  21
ENDBRANCH  16  17
ENDBRANCH  15  16
ENDBRANCH  14  15
ENDBRANCH  12  14
ENDBRANCH  11  12
ENDBRANCH  10  11
ENDBRANCH   9  10
ENDBRANCH   8   9
ENDBRANCH   7   8
ENDBRANCH   6   7
ENDBRANCH   5   6
ENDBRANCH   4   5
ENDBRANCH   3   4
ENDBRANCH   2   3
TORSDOF 16
ENDMDL
MODEL      138
REMARK 921   NORMALIZED FREE ENERGY PREDICTED BY IDOCK:   -4.07 KCAL/MOL
REMARK 922        TOTAL FREE ENERGY PREDICTED BY IDOCK:   -9.95 KCAL/MOL
REMARK 923 INTER-LIGAND FREE ENERGY PREDICTED BY IDOCK:   -8.90 KCAL/MOL
REMARK 924 INTRA-LIGAND FREE ENERGY PREDICTED BY IDOCK:   -1.04 KCAL/MOL
REMARK 927      BINDING AFFINITY PREDICTED BY RF-SCORE:    0.00 PKD
ROOT
HETATM    1  C   UNL     1      -9.662   4.220  67.141  1.00  0.00    -0.232 C  
HETATM    2  C   UNL     1      -9.647   5.629  67.706  1.00  0.00    -0.128 C  
ENDROOT
BRANCH   2   3
HETATM    3  C   UNL     1     -11.010   6.005  68.282  1.00  0.00    -0.347 C  
BRANCH   3   4
HETATM    4  C   UNL     1     -10.864   6.877  69.526  1.00  0.00    -0.287 C  
BRANCH   4   5
HETATM    5  C   UNL     1     -10.699   6.015  70.777  1.00  0.00    -0.340 C  
BRANCH   5   6
HETATM    6  C   UNL     1     -11.825   6.285  71.767  1.00  0.00    -0.342 C  
BRANCH   6   7
HETATM    7  C   UNL     1     -12.741   7.405  71.284  1.00  0.00    -0.371 C  
BRANCH   7   8
HETATM    8  C   UNL     1     -12.591   8.619  72.197  1.00  0.00    -0.451 C  
BRANCH   8   9
HETATM    9  C   UNL     1     -11.770   9.722  71.544  1.00  0.00    -0.450 C  
BRANCH   9  10
HETATM   10  C   UNL     1     -12.628  10.624  70.643  1.00  0.00    -0.454 C  
BRANCH  10  11
HETATM   11  C   UNL     1     -11.936  11.052  69.341  1.00  0.00    -0.408 C  
BRANCH  11  12
HETATM   12  C   UNL     1     -11.723  12.545  69.327  1.00  0.00    -0.321 C  
HETATM   13  O   UNL     1     -12.060  13.312  70.215  1.00  0.00    -0.343 OA 
BRANCH  12  14
HETATM   14  O   UNL     1     -10.935  12.881  68.268  1.00  0.00    -0.235 OA 
BRANCH  14  15
HETATM   15  C   UNL     1     -11.617  13.604  67.236  1.00  0.00    -0.356 C  
BRANCH  15  16
HETATM   16  C   UNL     1     -10.614  14.633  66.703  1.00  0.00    -0.289 C  
BRANCH  16  17
HETATM   17  N   UNL     1     -10.723  15.947  67.316  1.00  0.00    -0.315 N  
HETATM   18  C   UNL     1     -10.096  17.036  66.762  1.00  0.00    -0.300 C  
HETATM   19  H   UNL     1     -11.271  16.061  68.168  1.00  0.00     0.000 HD 
HETATM   20  O   UNL     1      -9.329  16.961  65.807  1.00  0.00    -0.521 OA 
BRANCH  18  21
HETATM   21  C   UNL     1     -10.328  18.362  67.457  1.00  0.00    -0.393 C  
BRANCH  21  22
HETATM   22  N   UNL     1      -9.023  19.011  67.707  1.00  0.00    -0.289 NA 
HETATM   23  C   UNL     1      -8.176  18.485  68.628  1.00  0.00    -0.308 A  
HETATM   24  C   UNL     1      -6.956  19.093  68.893  1.00  0.00    -0.371 A  
HETATM   25  C   UNL     1      -6.597  20.235  68.192  1.00  0.00    -0.336 A  
HETATM   26  C   UNL     1      -7.466  20.752  67.240  1.00  0.00    -0.381 A  
HETATM   27  C   UNL     1      -8.681  20.119  67.013  1.00  0.00    -0.337 A  
ENDBRANCH  21  22
ENDBRANCH  18  21
ENDBRANCH  16  17
ENDBRANCH  15  16
ENDBRANCH  14  15
ENDBRANCH  12  14
ENDBRANCH  11  12
ENDBRANCH  10  11
ENDBRANCH   9  10
ENDBRANCH   8   9
ENDBRANCH   7   8
ENDBRANCH   6   7
ENDBRANCH   5   6
ENDBRANCH   4   5
ENDBRANCH   3   4
ENDBRANCH   2   3
TORSDOF 16
ENDMDL
MODEL      139
REMARK 921   NORMALIZED FREE ENERGY PREDICTED BY IDOCK:   -4.06 KCAL/MOL
REMARK 922        TOTAL FREE ENERGY PREDICTED BY IDOCK:   -9.94 KCAL/MOL
REMARK 923 INTER-LIGAND FREE ENERGY PREDICTED BY IDOCK:   -7.85 KCAL/MOL
REMARK 924 INTRA-LIGAND FREE ENERGY PREDICTED BY IDOCK:   -2.09 KCAL/MOL
REMARK 927      BINDING AFFINITY PREDICTED BY RF-SCORE:    0.00 PKD
ROOT
HETATM    1  C   UNL     1      -7.782  13.280  68.018  1.00  0.00    -0.147 C  
HETATM    2  C   UNL     1      -6.364  13.810  67.900  1.00  0.00    -0.162 C  
ENDROOT
BRANCH   2   3
HETATM    3  C   UNL     1      -6.322  15.321  68.113  1.00  0.00    -0.135 C  
BRANCH   3   4
HETATM    4  C   UNL     1      -7.583  15.815  68.817  1.00  0.00    -0.173 C  
BRANCH   4   5
HETATM    5  C   UNL     1      -7.761  17.320  68.619  1.00  0.00    -0.265 C  
BRANCH   5   6
HETATM    6  C   UNL     1      -9.021  17.610  67.815  1.00  0.00    -0.247 C  
BRANCH   6   7
HETATM    7  C   UNL     1      -8.991  16.920  66.453  1.00  0.00    -0.317 C  
BRANCH   7   8
HETATM    8  C   UNL     1     -10.345  16.274  66.177  1.00  0.00    -0.352 C  
BRANCH   8   9
HETATM    9  C   UNL     1     -11.007  15.775  67.453  1.00  0.00    -0.279 C  
BRANCH   9  10
HETATM   10  C   UNL     1     -11.401  14.293  67.359  1.00  0.00    -0.349 C  
BRANCH  10  11
HETATM   11  C   UNL     1     -10.817  13.564  66.140  1.00  0.00    -0.284 C  
BRANCH  11  12
HETATM   12  C   UNL     1     -11.908  12.847  65.385  1.00  0.00    -0.403 C  
HETATM   13  O   UNL     1     -13.031  13.285  65.188  1.00  0.00    -0.705 OA 
BRANCH  12  14
HETATM   14  O   UNL     1     -11.396  11.729  64.800  1.00  0.00    -0.308 OA 
BRANCH  14  15
HETATM   15  C   UNL     1     -10.125  11.323  65.323  1.00  0.00    -0.267 C  
BRANCH  15  16
HETATM   16  C   UNL     1     -10.371  10.006  66.066  1.00  0.00    -0.152 C  
BRANCH  16  17
HETATM   17  N   UNL     1     -10.078  10.059  67.488  1.00  0.00    -0.186 N  
HETATM   18  C   UNL     1     -11.039  10.443  68.391  1.00  0.00    -0.268 C  
HETATM   19  H   UNL     1      -9.147   9.807  67.821  1.00  0.00     0.000 HD 
HETATM   20  O   UNL     1     -12.142  10.868  68.063  1.00  0.00    -0.563 OA 
BRANCH  18  21
HETATM   21  C   UNL     1     -10.635  10.405  69.851  1.00  0.00    -0.251 C  
BRANCH  21  22
HETATM   22  N   UNL     1     -11.333   9.284  70.515  1.00  0.00    -0.257 NA 
HETATM   23  C   UNL     1     -12.325   9.543  71.405  1.00  0.00    -0.364 A  
HETATM   24  C   UNL     1     -12.976   8.505  72.057  1.00  0.00    -0.406 A  
HETATM   25  C   UNL     1     -12.620   7.193  71.776  1.00  0.00    -0.381 A  
HETATM   26  C   UNL     1     -11.616   6.943  70.851  1.00  0.00    -0.384 A  
HETATM   27  C   UNL     1     -10.982   8.011  70.228  1.00  0.00    -0.242 A  
ENDBRANCH  21  22
ENDBRANCH  18  21
ENDBRANCH  16  17
ENDBRANCH  15  16
ENDBRANCH  14  15
ENDBRANCH  12  14
ENDBRANCH  11  12
ENDBRANCH  10  11
ENDBRANCH   9  10
ENDBRANCH   8   9
ENDBRANCH   7   8
ENDBRANCH   6   7
ENDBRANCH   5   6
ENDBRANCH   4   5
ENDBRANCH   3   4
ENDBRANCH   2   3
TORSDOF 16
ENDMDL
MODEL      140
REMARK 921   NORMALIZED FREE ENERGY PREDICTED BY IDOCK:   -4.05 KCAL/MOL
REMARK 922        TOTAL FREE ENERGY PREDICTED BY IDOCK:   -9.92 KCAL/MOL
REMARK 923 INTER-LIGAND FREE ENERGY PREDICTED BY IDOCK:   -8.13 KCAL/MOL
REMARK 924 INTRA-LIGAND FREE ENERGY PREDICTED BY IDOCK:   -1.79 KCAL/MOL
REMARK 927      BINDING AFFINITY PREDICTED BY RF-SCORE:    0.00 PKD
ROOT
HETATM    1  C   UNL     1      -6.913  19.496  69.377  1.00  0.00    -0.348 C  
HETATM    2  C   UNL     1      -7.552  18.897  68.136  1.00  0.00    -0.305 C  
ENDROOT
BRANCH   2   3
HETATM    3  C   UNL     1      -8.655  19.804  67.594  1.00  0.00    -0.376 C  
BRANCH   3   4
HETATM    4  C   UNL     1     -10.008  19.457  68.210  1.00  0.00    -0.516 C  
BRANCH   4   5
HETATM    5  C   UNL     1     -10.647  18.273  67.486  1.00  0.00    -0.432 C  
BRANCH   5   6
HETATM    6  C   UNL     1     -10.883  17.119  68.451  1.00  0.00    -0.309 C  
BRANCH   6   7
HETATM    7  C   UNL     1      -9.783  16.065  68.348  1.00  0.00    -0.213 C  
BRANCH   7   8
HETATM    8  C   UNL     1     -10.234  14.785  69.046  1.00  0.00    -0.237 C  
BRANCH   8   9
HETATM    9  C   UNL     1     -11.749  14.640  69.042  1.00  0.00    -0.339 C  
BRANCH   9  10
HETATM   10  C   UNL     1     -12.267  13.951  70.314  1.00  0.00    -0.428 C  
BRANCH  10  11
HETATM   11  C   UNL     1     -11.954  12.450  70.387  1.00  0.00    -0.342 C  
BRANCH  11  12
HETATM   12  C   UNL     1     -12.827  11.781  71.419  1.00  0.00    -0.335 C  
HETATM   13  O   UNL     1     -13.451  12.362  72.294  1.00  0.00    -0.541 OA 
BRANCH  12  14
HETATM   14  O   UNL     1     -12.963  10.462  71.113  1.00  0.00    -0.367 OA 
BRANCH  14  15
HETATM   15  C   UNL     1     -13.485   9.662  72.181  1.00  0.00    -0.429 C  
BRANCH  15  16
HETATM   16  C   UNL     1     -12.646   8.380  72.204  1.00  0.00    -0.364 C  
BRANCH  16  17
HETATM   17  N   UNL     1     -11.350   8.503  71.556  1.00  0.00    -0.265 N  
HETATM   18  C   UNL     1     -10.972   7.628  70.567  1.00  0.00    -0.249 C  
HETATM   19  H   UNL     1     -10.714   9.248  71.839  1.00  0.00     0.000 HD 
HETATM   20  O   UNL     1     -11.631   6.642  70.250  1.00  0.00    -0.370 OA 
BRANCH  18  21
HETATM   21  C   UNL     1      -9.625   7.889  69.926  1.00  0.00    -0.168 C  
BRANCH  21  22
HETATM   22  N   UNL     1      -9.723   9.089  69.068  1.00  0.00    -0.164 NA 
HETATM   23  C   UNL     1     -10.596   9.103  68.029  1.00  0.00    -0.197 A  
HETATM   24  C   UNL     1     -10.686  10.212  67.199  1.00  0.00    -0.286 A  
HETATM   25  C   UNL     1      -9.889  11.319  67.451  1.00  0.00    -0.201 A  
HETATM   26  C   UNL     1      -9.013  11.297  68.527  1.00  0.00    -0.166 A  
HETATM   27  C   UNL     1      -8.946  10.164  69.328  1.00  0.00    -0.183 A  
ENDBRANCH  21  22
ENDBRANCH  18  21
ENDBRANCH  16  17
ENDBRANCH  15  16
ENDBRANCH  14  15
ENDBRANCH  12  14
ENDBRANCH  11  12
ENDBRANCH  10  11
ENDBRANCH   9  10
ENDBRANCH   8   9
ENDBRANCH   7   8
ENDBRANCH   6   7
ENDBRANCH   5   6
ENDBRANCH   4   5
ENDBRANCH   3   4
ENDBRANCH   2   3
TORSDOF 16
ENDMDL
MODEL      141
REMARK 921   NORMALIZED FREE ENERGY PREDICTED BY IDOCK:   -4.05 KCAL/MOL
REMARK 922        TOTAL FREE ENERGY PREDICTED BY IDOCK:   -9.91 KCAL/MOL
REMARK 923 INTER-LIGAND FREE ENERGY PREDICTED BY IDOCK:   -8.46 KCAL/MOL
REMARK 924 INTRA-LIGAND FREE ENERGY PREDICTED BY IDOCK:   -1.46 KCAL/MOL
REMARK 927      BINDING AFFINITY PREDICTED BY RF-SCORE:    0.00 PKD
ROOT
HETATM    1  C   UNL     1      -6.938   7.261  63.428  1.00  0.00    -0.059 C  
HETATM    2  C   UNL     1      -7.091   8.325  62.354  1.00  0.00    -0.090 C  
ENDROOT
BRANCH   2   3
HETATM    3  C   UNL     1      -7.493   9.666  62.963  1.00  0.00    -0.112 C  
BRANCH   3   4
HETATM    4  C   UNL     1      -9.011   9.813  63.025  1.00  0.00    -0.271 C  
BRANCH   4   5
HETATM    5  C   UNL     1      -9.470  10.110  64.452  1.00  0.00    -0.368 C  
BRANCH   5   6
HETATM    6  C   UNL     1     -10.782  10.884  64.443  1.00  0.00    -0.250 C  
BRANCH   6   7
HETATM    7  C   UNL     1     -10.682  12.149  63.595  1.00  0.00    -0.518 C  
BRANCH   7   8
HETATM    8  C   UNL     1     -12.050  12.822  63.517  1.00  0.00    -0.642 C  
BRANCH   8   9
HETATM    9  C   UNL     1     -12.128  14.055  64.406  1.00  0.00    -0.486 C  
BRANCH   9  10
HETATM   10  C   UNL     1     -12.674  13.725  65.804  1.00  0.00    -0.494 C  
BRANCH  10  11
HETATM   11  C   UNL     1     -11.667  13.948  66.941  1.00  0.00    -0.425 C  
BRANCH  11  12
HETATM   12  C   UNL     1     -11.348  12.641  67.623  1.00  0.00    -0.310 C  
HETATM   13  O   UNL     1     -12.088  11.671  67.665  1.00  0.00    -0.615 OA 
BRANCH  12  14
HETATM   14  O   UNL     1     -10.045  12.642  68.019  1.00  0.00    -0.215 OA 
BRANCH  14  15
HETATM   15  C   UNL     1      -9.115  12.953  66.974  1.00  0.00    -0.228 C  
BRANCH  15  16
HETATM   16  C   UNL     1      -8.132  13.968  67.567  1.00  0.00    -0.186 C  
BRANCH  16  17
HETATM   17  N   UNL     1      -8.255  15.309  67.018  1.00  0.00    -0.218 N  
HETATM   18  C   UNL     1      -7.166  16.144  66.952  1.00  0.00    -0.205 C  
HETATM   19  H   UNL     1      -9.160  15.633  66.679  1.00  0.00     0.000 HD 
HETATM   20  O   UNL     1      -6.074  15.871  67.441  1.00  0.00    -0.181 OA 
BRANCH  18  21
HETATM   21  C   UNL     1      -7.402  17.495  66.309  1.00  0.00    -0.320 C  
BRANCH  21  22
HETATM   22  N   UNL     1      -8.401  18.240  67.104  1.00  0.00    -0.241 NA 
HETATM   23  C   UNL     1      -9.654  18.420  66.613  1.00  0.00    -0.320 A  
HETATM   24  C   UNL     1     -10.599  19.136  67.335  1.00  0.00    -0.577 A  
HETATM   25  C   UNL     1     -10.260  19.653  68.577  1.00  0.00    -0.529 A  
HETATM   26  C   UNL     1      -8.980  19.447  69.075  1.00  0.00    -0.270 A  
HETATM   27  C   UNL     1      -8.061  18.733  68.316  1.00  0.00    -0.324 A  
ENDBRANCH  21  22
ENDBRANCH  18  21
ENDBRANCH  16  17
ENDBRANCH  15  16
ENDBRANCH  14  15
ENDBRANCH  12  14
ENDBRANCH  11  12
ENDBRANCH  10  11
ENDBRANCH   9  10
ENDBRANCH   8   9
ENDBRANCH   7   8
ENDBRANCH   6   7
ENDBRANCH   5   6
ENDBRANCH   4   5
ENDBRANCH   3   4
ENDBRANCH   2   3
TORSDOF 16
ENDMDL
MODEL      142
REMARK 921   NORMALIZED FREE ENERGY PREDICTED BY IDOCK:   -4.04 KCAL/MOL
REMARK 922        TOTAL FREE ENERGY PREDICTED BY IDOCK:   -9.91 KCAL/MOL
REMARK 923 INTER-LIGAND FREE ENERGY PREDICTED BY IDOCK:   -8.16 KCAL/MOL
REMARK 924 INTRA-LIGAND FREE ENERGY PREDICTED BY IDOCK:   -1.75 KCAL/MOL
REMARK 927      BINDING AFFINITY PREDICTED BY RF-SCORE:    0.00 PKD
ROOT
HETATM    1  C   UNL     1      -8.894   6.990  74.036  1.00  0.00    -0.210 C  
HETATM    2  C   UNL     1     -10.376   6.741  73.808  1.00  0.00    -0.397 C  
ENDROOT
BRANCH   2   3
HETATM    3  C   UNL     1     -10.965   7.776  72.852  1.00  0.00    -0.467 C  
BRANCH   3   4
HETATM    4  C   UNL     1     -12.069   7.168  71.991  1.00  0.00    -0.329 C  
BRANCH   4   5
HETATM    5  C   UNL     1     -13.239   8.139  71.844  1.00  0.00    -0.348 C  
BRANCH   5   6
HETATM    6  C   UNL     1     -12.761   9.580  71.977  1.00  0.00    -0.479 C  
BRANCH   6   7
HETATM    7  C   UNL     1     -13.242  10.441  70.813  1.00  0.00    -0.266 C  
BRANCH   7   8
HETATM    8  C   UNL     1     -12.178  11.482  70.473  1.00  0.00    -0.469 C  
BRANCH   8   9
HETATM    9  C   UNL     1     -11.073  10.900  69.603  1.00  0.00    -0.328 C  
BRANCH   9  10
HETATM   10  C   UNL     1     -11.357  11.089  68.105  1.00  0.00    -0.374 C  
BRANCH  10  11
HETATM   11  C   UNL     1     -10.723  10.020  67.205  1.00  0.00    -0.309 C  
BRANCH  11  12
HETATM   12  C   UNL     1      -9.286   9.786  67.600  1.00  0.00    -0.140 C  
HETATM   13  O   UNL     1      -8.847   8.749  68.073  1.00  0.00    -0.139 OA 
BRANCH  12  14
HETATM   14  O   UNL     1      -8.523  10.831  67.177  1.00  0.00    -0.124 OA 
BRANCH  14  15
HETATM   15  C   UNL     1      -7.659  11.372  68.184  1.00  0.00    -0.114 C  
BRANCH  15  16
HETATM   16  C   UNL     1      -8.009  12.860  68.291  1.00  0.00    -0.151 C  
BRANCH  16  17
HETATM   17  N   UNL     1      -8.536  13.440  67.067  1.00  0.00    -0.365 N  
HETATM   18  C   UNL     1      -9.691  14.183  67.080  1.00  0.00    -0.248 C  
HETATM   19  H   UNL     1      -8.041  13.293  66.187  1.00  0.00     0.000 HD 
HETATM   20  O   UNL     1     -10.401  14.310  68.073  1.00  0.00    -0.223 OA 
BRANCH  18  21
HETATM   21  C   UNL     1     -10.111  14.784  65.755  1.00  0.00    -0.339 C  
BRANCH  21  22
HETATM   22  N   UNL     1     -10.900  13.786  65.001  1.00  0.00    -0.348 NA 
HETATM   23  C   UNL     1     -12.251  13.762  65.128  1.00  0.00    -0.431 A  
HETATM   24  C   UNL     1     -13.007  12.819  64.446  1.00  0.00    -0.178 A  
HETATM   25  C   UNL     1     -12.372  11.907  63.615  1.00  0.00    -0.591 A  
HETATM   26  C   UNL     1     -10.991  11.954  63.482  1.00  0.00    -0.505 A  
HETATM   27  C   UNL     1     -10.271  12.908  64.189  1.00  0.00    -0.286 A  
ENDBRANCH  21  22
ENDBRANCH  18  21
ENDBRANCH  16  17
ENDBRANCH  15  16
ENDBRANCH  14  15
ENDBRANCH  12  14
ENDBRANCH  11  12
ENDBRANCH  10  11
ENDBRANCH   9  10
ENDBRANCH   8   9
ENDBRANCH   7   8
ENDBRANCH   6   7
ENDBRANCH   5   6
ENDBRANCH   4   5
ENDBRANCH   3   4
ENDBRANCH   2   3
TORSDOF 16
ENDMDL
MODEL      143
REMARK 921   NORMALIZED FREE ENERGY PREDICTED BY IDOCK:   -4.04 KCAL/MOL
REMARK 922        TOTAL FREE ENERGY PREDICTED BY IDOCK:   -9.89 KCAL/MOL
REMARK 923 INTER-LIGAND FREE ENERGY PREDICTED BY IDOCK:   -8.01 KCAL/MOL
REMARK 924 INTRA-LIGAND FREE ENERGY PREDICTED BY IDOCK:   -1.88 KCAL/MOL
REMARK 927      BINDING AFFINITY PREDICTED BY RF-SCORE:    0.00 PKD
ROOT
HETATM    1  C   UNL     1     -12.142  14.878  64.650  1.00  0.00    -0.387 C  
HETATM    2  C   UNL     1     -12.647  13.757  65.542  1.00  0.00    -0.551 C  
ENDROOT
BRANCH   2   3
HETATM    3  C   UNL     1     -12.350  12.391  64.928  1.00  0.00    -0.475 C  
BRANCH   3   4
HETATM    4  C   UNL     1     -11.522  12.525  63.653  1.00  0.00    -0.568 C  
BRANCH   4   5
HETATM    5  C   UNL     1     -10.312  11.593  63.691  1.00  0.00    -0.466 C  
BRANCH   5   6
HETATM    6  C   UNL     1     -10.242  10.860  65.024  1.00  0.00    -0.367 C  
BRANCH   6   7
HETATM    7  C   UNL     1      -8.872  10.223  65.243  1.00  0.00    -0.200 C  
BRANCH   7   8
HETATM    8  C   UNL     1      -8.726   9.000  64.342  1.00  0.00    -0.151 C  
BRANCH   8   9
HETATM    9  C   UNL     1      -8.818   7.701  65.130  1.00  0.00     0.171 C  
BRANCH   9  10
HETATM   10  C   UNL     1      -7.874   7.693  66.342  1.00  0.00    -0.094 C  
BRANCH  10  11
HETATM   11  C   UNL     1      -8.458   7.013  67.588  1.00  0.00    -0.123 C  
BRANCH  11  12
HETATM   12  C   UNL     1      -9.325   7.978  68.356  1.00  0.00    -0.138 C  
HETATM   13  O   UNL     1      -8.938   9.017  68.868  1.00  0.00    -0.138 OA 
BRANCH  12  14
HETATM   14  O   UNL     1     -10.632   7.615  68.230  1.00  0.00    -0.190 OA 
BRANCH  14  15
HETATM   15  C   UNL     1     -10.971   6.400  68.911  1.00  0.00    -0.346 C  
BRANCH  15  16
HETATM   16  C   UNL     1     -11.213   6.786  70.374  1.00  0.00    -0.328 C  
BRANCH  16  17
HETATM   17  N   UNL     1     -12.257   7.779  70.565  1.00  0.00    -0.491 N  
HETATM   18  C   UNL     1     -12.002   8.949  71.239  1.00  0.00    -0.307 C  
HETATM   19  H   UNL     1     -13.192   7.604  70.195  1.00  0.00     0.000 HD 
HETATM   20  O   UNL     1     -10.941   9.181  71.809  1.00  0.00    -0.353 OA 
BRANCH  18  21
HETATM   21  C   UNL     1     -13.152   9.931  71.326  1.00  0.00    -0.400 C  
BRANCH  21  22
HETATM   22  N   UNL     1     -12.706  11.243  70.810  1.00  0.00    -0.300 NA 
HETATM   23  C   UNL     1     -12.956  12.368  71.527  1.00  0.00    -0.285 A  
HETATM   24  C   UNL     1     -12.565  13.611  71.048  1.00  0.00    -0.441 A  
HETATM   25  C   UNL     1     -11.896  13.695  69.836  1.00  0.00    -0.389 A  
HETATM   26  C   UNL     1     -11.632  12.535  69.121  1.00  0.00    -0.375 A  
HETATM   27  C   UNL     1     -12.048  11.311  69.631  1.00  0.00    -0.322 A  
ENDBRANCH  21  22
ENDBRANCH  18  21
ENDBRANCH  16  17
ENDBRANCH  15  16
ENDBRANCH  14  15
ENDBRANCH  12  14
ENDBRANCH  11  12
ENDBRANCH  10  11
ENDBRANCH   9  10
ENDBRANCH   8   9
ENDBRANCH   7   8
ENDBRANCH   6   7
ENDBRANCH   5   6
ENDBRANCH   4   5
ENDBRANCH   3   4
ENDBRANCH   2   3
TORSDOF 16
ENDMDL
MODEL      144
REMARK 921   NORMALIZED FREE ENERGY PREDICTED BY IDOCK:   -4.03 KCAL/MOL
REMARK 922        TOTAL FREE ENERGY PREDICTED BY IDOCK:   -9.88 KCAL/MOL
REMARK 923 INTER-LIGAND FREE ENERGY PREDICTED BY IDOCK:   -8.72 KCAL/MOL
REMARK 924 INTRA-LIGAND FREE ENERGY PREDICTED BY IDOCK:   -1.16 KCAL/MOL
REMARK 927      BINDING AFFINITY PREDICTED BY RF-SCORE:    0.00 PKD
ROOT
HETATM    1  C   UNL     1      -8.629   8.010  65.492  1.00  0.00    -0.158 C  
HETATM    2  C   UNL     1      -9.013   7.488  66.866  1.00  0.00    -0.152 C  
ENDROOT
BRANCH   2   3
HETATM    3  C   UNL     1     -10.523   7.281  66.973  1.00  0.00    -0.398 C  
BRANCH   3   4
HETATM    4  C   UNL     1     -10.863   6.219  68.015  1.00  0.00    -0.409 C  
BRANCH   4   5
HETATM    5  C   UNL     1      -9.850   5.076  67.975  1.00  0.00    -0.202 C  
BRANCH   5   6
HETATM    6  C   UNL     1      -9.407   4.702  69.383  1.00  0.00    -0.208 C  
BRANCH   6   7
HETATM    7  C   UNL     1     -10.377   5.232  70.437  1.00  0.00    -0.345 C  
BRANCH   7   8
HETATM    8  C   UNL     1      -9.908   4.803  71.825  1.00  0.00    -0.242 C  
BRANCH   8   9
HETATM    9  C   UNL     1     -10.913   5.181  72.904  1.00  0.00    -0.345 C  
BRANCH   9  10
HETATM   10  C   UNL     1     -10.448   6.392  73.727  1.00  0.00    -0.319 C  
BRANCH  10  11
HETATM   11  C   UNL     1     -10.532   7.730  72.979  1.00  0.00    -0.432 C  
BRANCH  11  12
HETATM   12  C   UNL     1      -9.149   8.268  72.710  1.00  0.00    -0.262 C  
HETATM   13  O   UNL     1      -8.111   7.785  73.137  1.00  0.00    -0.113 OA 
BRANCH  12  14
HETATM   14  O   UNL     1      -9.219   9.254  71.773  1.00  0.00    -0.306 OA 
BRANCH  14  15
HETATM   15  C   UNL     1      -9.363   8.777  70.430  1.00  0.00    -0.180 C  
BRANCH  15  16
HETATM   16  C   UNL     1     -10.614   9.460  69.867  1.00  0.00    -0.234 C  
BRANCH  16  17
HETATM   17  N   UNL     1     -10.568  10.912  69.899  1.00  0.00    -0.451 N  
HETATM   18  C   UNL     1     -11.446  11.661  69.155  1.00  0.00    -0.300 C  
HETATM   19  H   UNL     1      -9.874  11.381  70.482  1.00  0.00     0.000 HD 
HETATM   20  O   UNL     1     -12.231  11.175  68.347  1.00  0.00    -0.610 OA 
BRANCH  18  21
HETATM   21  C   UNL     1     -11.339  13.164  69.313  1.00  0.00    -0.253 C  
BRANCH  21  22
HETATM   22  N   UNL     1     -12.299  13.610  70.345  1.00  0.00    -0.351 NA 
HETATM   23  C   UNL     1     -12.698  14.907  70.377  1.00  0.00    -0.321 A  
HETATM   24  C   UNL     1     -13.581  15.350  71.352  1.00  0.00    -0.604 A  
HETATM   25  C   UNL     1     -14.072  14.450  72.287  1.00  0.00    -0.609 A  
HETATM   26  C   UNL     1     -13.669  13.123  72.232  1.00  0.00    -0.647 A  
HETATM   27  C   UNL     1     -12.777  12.722  71.245  1.00  0.00    -0.269 A  
ENDBRANCH  21  22
ENDBRANCH  18  21
ENDBRANCH  16  17
ENDBRANCH  15  16
ENDBRANCH  14  15
ENDBRANCH  12  14
ENDBRANCH  11  12
ENDBRANCH  10  11
ENDBRANCH   9  10
ENDBRANCH   8   9
ENDBRANCH   7   8
ENDBRANCH   6   7
ENDBRANCH   5   6
ENDBRANCH   4   5
ENDBRANCH   3   4
ENDBRANCH   2   3
TORSDOF 16
ENDMDL
MODEL      145
REMARK 921   NORMALIZED FREE ENERGY PREDICTED BY IDOCK:   -4.03 KCAL/MOL
REMARK 922        TOTAL FREE ENERGY PREDICTED BY IDOCK:   -9.87 KCAL/MOL
REMARK 923 INTER-LIGAND FREE ENERGY PREDICTED BY IDOCK:   -8.51 KCAL/MOL
REMARK 924 INTRA-LIGAND FREE ENERGY PREDICTED BY IDOCK:   -1.36 KCAL/MOL
REMARK 927      BINDING AFFINITY PREDICTED BY RF-SCORE:    0.00 PKD
ROOT
HETATM    1  C   UNL     1     -10.001  16.048  66.059  1.00  0.00    -0.365 C  
HETATM    2  C   UNL     1     -10.775  15.490  64.877  1.00  0.00    -0.415 C  
ENDROOT
BRANCH   2   3
HETATM    3  C   UNL     1     -11.504  14.203  65.257  1.00  0.00    -0.330 C  
BRANCH   3   4
HETATM    4  C   UNL     1     -12.047  13.490  64.021  1.00  0.00    -0.494 C  
BRANCH   4   5
HETATM    5  C   UNL     1     -11.591  12.032  63.993  1.00  0.00    -0.495 C  
BRANCH   5   6
HETATM    6  C   UNL     1     -10.191  11.919  63.402  1.00  0.00    -0.478 C  
BRANCH   6   7
HETATM    7  C   UNL     1      -9.678  10.482  63.442  1.00  0.00    -0.368 C  
BRANCH   7   8
HETATM    8  C   UNL     1      -8.802  10.287  64.676  1.00  0.00    -0.220 C  
BRANCH   8   9
HETATM    9  C   UNL     1      -9.196   9.043  65.461  1.00  0.00    -0.262 C  
BRANCH   9  10
HETATM   10  C   UNL     1     -10.259   9.347  66.528  1.00  0.00    -0.308 C  
BRANCH  10  11
HETATM   11  C   UNL     1      -9.973  10.605  67.360  1.00  0.00    -0.213 C  
BRANCH  11  12
HETATM   12  C   UNL     1     -11.240  11.107  68.006  1.00  0.00    -0.296 C  
HETATM   13  O   UNL     1     -12.131  11.710  67.429  1.00  0.00    -0.605 OA 
BRANCH  12  14
HETATM   14  O   UNL     1     -11.325  10.623  69.276  1.00  0.00    -0.244 OA 
BRANCH  14  15
HETATM   15  C   UNL     1     -12.022  11.484  70.186  1.00  0.00    -0.369 C  
BRANCH  15  16
HETATM   16  C   UNL     1     -12.779  10.562  71.148  1.00  0.00    -0.418 C  
BRANCH  16  17
HETATM   17  N   UNL     1     -12.320   9.183  71.140  1.00  0.00    -0.379 N  
HETATM   18  C   UNL     1     -12.749   8.293  72.094  1.00  0.00    -0.329 C  
HETATM   19  H   UNL     1     -11.672   8.872  70.417  1.00  0.00     0.000 HD 
HETATM   20  O   UNL     1     -13.437   8.616  73.058  1.00  0.00    -0.209 OA 
BRANCH  18  21
HETATM   21  C   UNL     1     -12.249   6.871  71.951  1.00  0.00    -0.332 C  
BRANCH  21  22
HETATM   22  N   UNL     1     -11.189   6.834  70.921  1.00  0.00    -0.274 NA 
HETATM   23  C   UNL     1     -11.457   6.307  69.699  1.00  0.00    -0.355 A  
HETATM   24  C   UNL     1     -10.469   6.243  68.727  1.00  0.00    -0.279 A  
HETATM   25  C   UNL     1      -9.204   6.740  69.005  1.00  0.00    -0.136 A  
HETATM   26  C   UNL     1      -8.948   7.292  70.254  1.00  0.00    -0.151 A  
HETATM   27  C   UNL     1      -9.963   7.328  71.202  1.00  0.00    -0.186 A  
ENDBRANCH  21  22
ENDBRANCH  18  21
ENDBRANCH  16  17
ENDBRANCH  15  16
ENDBRANCH  14  15
ENDBRANCH  12  14
ENDBRANCH  11  12
ENDBRANCH  10  11
ENDBRANCH   9  10
ENDBRANCH   8   9
ENDBRANCH   7   8
ENDBRANCH   6   7
ENDBRANCH   5   6
ENDBRANCH   4   5
ENDBRANCH   3   4
ENDBRANCH   2   3
TORSDOF 16
ENDMDL
MODEL      146
REMARK 921   NORMALIZED FREE ENERGY PREDICTED BY IDOCK:   -4.01 KCAL/MOL
REMARK 922        TOTAL FREE ENERGY PREDICTED BY IDOCK:   -9.85 KCAL/MOL
REMARK 923 INTER-LIGAND FREE ENERGY PREDICTED BY IDOCK:   -8.71 KCAL/MOL
REMARK 924 INTRA-LIGAND FREE ENERGY PREDICTED BY IDOCK:   -1.14 KCAL/MOL
REMARK 927      BINDING AFFINITY PREDICTED BY RF-SCORE:    0.00 PKD
ROOT
HETATM    1  C   UNL     1      -9.332   8.011  73.008  1.00  0.00    -0.344 C  
HETATM    2  C   UNL     1     -10.764   7.505  73.046  1.00  0.00    -0.438 C  
ENDROOT
BRANCH   2   3
HETATM    3  C   UNL     1     -11.704   8.464  72.319  1.00  0.00    -0.453 C  
BRANCH   3   4
HETATM    4  C   UNL     1     -12.585   7.722  71.318  1.00  0.00    -0.286 C  
BRANCH   4   5
HETATM    5  C   UNL     1     -11.840   6.532  70.716  1.00  0.00    -0.394 C  
BRANCH   5   6
HETATM    6  C   UNL     1     -11.232   6.905  69.371  1.00  0.00    -0.215 C  
BRANCH   6   7
HETATM    7  C   UNL     1      -9.723   7.113  69.474  1.00  0.00    -0.157 C  
BRANCH   7   8
HETATM    8  C   UNL     1      -9.315   8.322  68.636  1.00  0.00    -0.143 C  
BRANCH   8   9
HETATM    9  C   UNL     1     -10.454   9.321  68.490  1.00  0.00    -0.240 C  
BRANCH   9  10
HETATM   10  C   UNL     1     -10.637   9.779  67.034  1.00  0.00    -0.269 C  
BRANCH  10  11
HETATM   11  C   UNL     1      -9.686   9.101  66.038  1.00  0.00    -0.358 C  
BRANCH  11  12
HETATM   12  C   UNL     1      -9.118  10.118  65.080  1.00  0.00    -0.205 C  
HETATM   13  O   UNL     1      -8.046  10.687  65.213  1.00  0.00    -0.153 OA 
BRANCH  12  14
HETATM   14  O   UNL     1      -9.889  10.164  63.958  1.00  0.00    -0.290 OA 
BRANCH  14  15
HETATM   15  C   UNL     1     -10.064  11.480  63.420  1.00  0.00    -0.420 C  
BRANCH  15  16
HETATM   16  C   UNL     1     -11.378  12.008  64.007  1.00  0.00    -0.403 C  
BRANCH  16  17
HETATM   17  N   UNL     1     -11.255  12.555  65.349  1.00  0.00    -0.297 N  
HETATM   18  C   UNL     1     -12.211  13.403  65.853  1.00  0.00    -0.450 C  
HETATM   19  H   UNL     1     -10.450  12.305  65.923  1.00  0.00     0.000 HD 
HETATM   20  O   UNL     1     -13.146  13.838  65.188  1.00  0.00    -0.762 OA 
BRANCH  18  21
HETATM   21  C   UNL     1     -12.006  13.862  67.282  1.00  0.00    -0.411 C  
BRANCH  21  22
HETATM   22  N   UNL     1     -11.270  15.145  67.275  1.00  0.00    -0.334 NA 
HETATM   23  C   UNL     1     -11.091  15.824  68.436  1.00  0.00    -0.341 A  
HETATM   24  C   UNL     1     -10.423  17.040  68.447  1.00  0.00    -0.370 A  
HETATM   25  C   UNL     1      -9.918  17.551  67.259  1.00  0.00    -0.312 A  
HETATM   26  C   UNL     1     -10.094  16.838  66.081  1.00  0.00    -0.360 A  
HETATM   27  C   UNL     1     -10.777  15.629  66.113  1.00  0.00    -0.303 A  
ENDBRANCH  21  22
ENDBRANCH  18  21
ENDBRANCH  16  17
ENDBRANCH  15  16
ENDBRANCH  14  15
ENDBRANCH  12  14
ENDBRANCH  11  12
ENDBRANCH  10  11
ENDBRANCH   9  10
ENDBRANCH   8   9
ENDBRANCH   7   8
ENDBRANCH   6   7
ENDBRANCH   5   6
ENDBRANCH   4   5
ENDBRANCH   3   4
ENDBRANCH   2   3
TORSDOF 16
ENDMDL
MODEL      147
REMARK 921   NORMALIZED FREE ENERGY PREDICTED BY IDOCK:   -4.01 KCAL/MOL
REMARK 922        TOTAL FREE ENERGY PREDICTED BY IDOCK:   -9.85 KCAL/MOL
REMARK 923 INTER-LIGAND FREE ENERGY PREDICTED BY IDOCK:   -7.21 KCAL/MOL
REMARK 924 INTRA-LIGAND FREE ENERGY PREDICTED BY IDOCK:   -2.64 KCAL/MOL
REMARK 927      BINDING AFFINITY PREDICTED BY RF-SCORE:    0.00 PKD
ROOT
HETATM    1  C   UNL     1      -9.993   4.253  66.418  1.00  0.00    -0.223 C  
HETATM    2  C   UNL     1      -9.871   5.766  66.479  1.00  0.00    -0.193 C  
ENDROOT
BRANCH   2   3
HETATM    3  C   UNL     1     -11.104   6.391  67.129  1.00  0.00    -0.422 C  
BRANCH   3   4
HETATM    4  C   UNL     1     -10.770   6.982  68.495  1.00  0.00    -0.219 C  
BRANCH   4   5
HETATM    5  C   UNL     1     -11.268   6.072  69.617  1.00  0.00    -0.428 C  
BRANCH   5   6
HETATM    6  C   UNL     1     -11.175   6.779  70.963  1.00  0.00    -0.335 C  
BRANCH   6   7
HETATM    7  C   UNL     1     -12.503   7.422  71.353  1.00  0.00    -0.402 C  
BRANCH   7   8
HETATM    8  C   UNL     1     -12.252   8.829  71.888  1.00  0.00    -0.429 C  
BRANCH   8   9
HETATM    9  C   UNL     1     -11.098   9.512  71.168  1.00  0.00    -0.450 C  
BRANCH   9  10
HETATM   10  C   UNL     1     -11.520  10.849  70.539  1.00  0.00    -0.314 C  
BRANCH  10  11
HETATM   11  C   UNL     1     -11.989  10.737  69.081  1.00  0.00    -0.302 C  
BRANCH  11  12
HETATM   12  C   UNL     1     -11.733  12.029  68.347  1.00  0.00    -0.332 C  
HETATM   13  O   UNL     1     -11.118  12.983  68.796  1.00  0.00    -0.249 OA 
BRANCH  12  14
HETATM   14  O   UNL     1     -12.123  11.898  67.048  1.00  0.00    -0.600 OA 
BRANCH  14  15
HETATM   15  C   UNL     1     -11.926  13.075  66.255  1.00  0.00    -0.414 C  
BRANCH  15  16
HETATM   16  C   UNL     1     -11.031  12.655  65.085  1.00  0.00    -0.291 C  
BRANCH  16  17
HETATM   17  N   UNL     1      -9.664  12.338  65.462  1.00  0.00    -0.373 N  
HETATM   18  C   UNL     1      -9.220  11.038  65.474  1.00  0.00    -0.213 C  
HETATM   19  H   UNL     1      -9.025  13.090  65.720  1.00  0.00     0.000 HD 
HETATM   20  O   UNL     1      -9.954  10.072  65.287  1.00  0.00    -0.315 OA 
BRANCH  18  21
HETATM   21  C   UNL     1      -7.762  10.835  65.828  1.00  0.00    -0.094 C  
BRANCH  21  22
HETATM   22  N   UNL     1      -7.673  10.035  67.068  1.00  0.00    -0.095 NA 
HETATM   23  C   UNL     1      -7.250   8.747  67.009  1.00  0.00    -0.079 A  
HETATM   24  C   UNL     1      -7.181   7.973  68.160  1.00  0.00    -0.094 A  
HETATM   25  C   UNL     1      -7.530   8.533  69.380  1.00  0.00    -0.088 A  
HETATM   26  C   UNL     1      -7.945   9.857  69.428  1.00  0.00    -0.135 A  
HETATM   27  C   UNL     1      -8.008  10.594  68.253  1.00  0.00    -0.116 A  
ENDBRANCH  21  22
ENDBRANCH  18  21
ENDBRANCH  16  17
ENDBRANCH  15  16
ENDBRANCH  14  15
ENDBRANCH  12  14
ENDBRANCH  11  12
ENDBRANCH  10  11
ENDBRANCH   9  10
ENDBRANCH   8   9
ENDBRANCH   7   8
ENDBRANCH   6   7
ENDBRANCH   5   6
ENDBRANCH   4   5
ENDBRANCH   3   4
ENDBRANCH   2   3
TORSDOF 16
ENDMDL
MODEL      148
REMARK 921   NORMALIZED FREE ENERGY PREDICTED BY IDOCK:   -4.01 KCAL/MOL
REMARK 922        TOTAL FREE ENERGY PREDICTED BY IDOCK:   -9.84 KCAL/MOL
REMARK 923 INTER-LIGAND FREE ENERGY PREDICTED BY IDOCK:   -8.44 KCAL/MOL
REMARK 924 INTRA-LIGAND FREE ENERGY PREDICTED BY IDOCK:   -1.40 KCAL/MOL
REMARK 927      BINDING AFFINITY PREDICTED BY RF-SCORE:    0.00 PKD
ROOT
HETATM    1  C   UNL     1      -8.903   8.119  71.597  1.00  0.00    -0.202 C  
HETATM    2  C   UNL     1      -9.320   7.740  73.008  1.00  0.00    -0.298 C  
ENDROOT
BRANCH   2   3
HETATM    3  C   UNL     1     -10.837   7.606  73.115  1.00  0.00    -0.440 C  
BRANCH   3   4
HETATM    4  C   UNL     1     -11.423   6.942  71.872  1.00  0.00    -0.308 C  
BRANCH   4   5
HETATM    5  C   UNL     1     -12.795   7.528  71.540  1.00  0.00    -0.397 C  
BRANCH   5   6
HETATM    6  C   UNL     1     -12.994   8.862  72.247  1.00  0.00    -0.479 C  
BRANCH   6   7
HETATM    7  C   UNL     1     -13.224   9.996  71.252  1.00  0.00    -0.469 C  
BRANCH   7   8
HETATM    8  C   UNL     1     -11.890  10.653  70.908  1.00  0.00    -0.433 C  
BRANCH   8   9
HETATM    9  C   UNL     1     -11.265  10.046  69.660  1.00  0.00    -0.285 C  
BRANCH   9  10
HETATM   10  C   UNL     1     -11.616  10.842  68.393  1.00  0.00    -0.311 C  
BRANCH  10  11
HETATM   11  C   UNL     1     -10.542  10.785  67.297  1.00  0.00    -0.304 C  
BRANCH  11  12
HETATM   12  C   UNL     1      -9.695  12.032  67.328  1.00  0.00    -0.185 C  
HETATM   13  O   UNL     1      -8.965  12.364  68.250  1.00  0.00    -0.190 OA 
BRANCH  12  14
HETATM   14  O   UNL     1      -9.721  12.629  66.104  1.00  0.00    -0.256 OA 
BRANCH  14  15
HETATM   15  C   UNL     1      -9.851  14.055  66.151  1.00  0.00    -0.303 C  
BRANCH  15  16
HETATM   16  C   UNL     1     -11.174  14.339  66.869  1.00  0.00    -0.326 C  
BRANCH  16  17
HETATM   17  N   UNL     1     -11.252  15.656  67.480  1.00  0.00    -0.290 N  
HETATM   18  C   UNL     1     -10.633  15.914  68.679  1.00  0.00    -0.250 C  
HETATM   19  H   UNL     1     -11.773  16.398  67.012  1.00  0.00     0.000 HD 
HETATM   20  O   UNL     1     -10.086  15.049  69.356  1.00  0.00    -0.226 OA 
BRANCH  18  21
HETATM   21  C   UNL     1     -10.735  17.337  69.189  1.00  0.00    -0.118 C  
BRANCH  21  22
HETATM   22  N   UNL     1     -10.109  18.247  68.207  1.00  0.00    -0.367 NA 
HETATM   23  C   UNL     1      -8.759  18.257  68.064  1.00  0.00    -0.276 A  
HETATM   24  C   UNL     1      -8.151  19.121  67.164  1.00  0.00    -0.281 A  
HETATM   25  C   UNL     1      -8.936  19.965  66.392  1.00  0.00    -0.434 A  
HETATM   26  C   UNL     1     -10.316  19.932  66.535  1.00  0.00    -0.608 A  
HETATM   27  C   UNL     1     -10.885  19.059  67.455  1.00  0.00    -0.409 A  
ENDBRANCH  21  22
ENDBRANCH  18  21
ENDBRANCH  16  17
ENDBRANCH  15  16
ENDBRANCH  14  15
ENDBRANCH  12  14
ENDBRANCH  11  12
ENDBRANCH  10  11
ENDBRANCH   9  10
ENDBRANCH   8   9
ENDBRANCH   7   8
ENDBRANCH   6   7
ENDBRANCH   5   6
ENDBRANCH   4   5
ENDBRANCH   3   4
ENDBRANCH   2   3
TORSDOF 16
ENDMDL
MODEL      149
REMARK 921   NORMALIZED FREE ENERGY PREDICTED BY IDOCK:   -4.00 KCAL/MOL
REMARK 922        TOTAL FREE ENERGY PREDICTED BY IDOCK:   -9.83 KCAL/MOL
REMARK 923 INTER-LIGAND FREE ENERGY PREDICTED BY IDOCK:   -8.70 KCAL/MOL
REMARK 924 INTRA-LIGAND FREE ENERGY PREDICTED BY IDOCK:   -1.13 KCAL/MOL
REMARK 927      BINDING AFFINITY PREDICTED BY RF-SCORE:    0.00 PKD
ROOT
HETATM    1  C   UNL     1      -8.810   2.116  65.168  1.00  0.00    -0.122 C  
HETATM    2  C   UNL     1      -9.644   3.116  64.385  1.00  0.00    -0.151 C  
ENDROOT
BRANCH   2   3
HETATM    3  C   UNL     1      -9.474   4.527  64.943  1.00  0.00    -0.143 C  
BRANCH   3   4
HETATM    4  C   UNL     1     -10.625   4.895  65.876  1.00  0.00    -0.280 C  
BRANCH   4   5
HETATM    5  C   UNL     1     -10.142   4.988  67.322  1.00  0.00    -0.226 C  
BRANCH   5   6
HETATM    6  C   UNL     1      -9.593   6.378  67.617  1.00  0.00    -0.126 C  
BRANCH   6   7
HETATM    7  C   UNL     1     -10.624   7.464  67.323  1.00  0.00    -0.393 C  
BRANCH   7   8
HETATM    8  C   UNL     1     -10.392   8.654  68.250  1.00  0.00    -0.252 C  
BRANCH   8   9
HETATM    9  C   UNL     1     -10.743   9.974  67.578  1.00  0.00    -0.339 C  
BRANCH   9  10
HETATM   10  C   UNL     1     -10.156  10.074  66.162  1.00  0.00    -0.317 C  
BRANCH  10  11
HETATM   11  C   UNL     1     -10.126  11.500  65.594  1.00  0.00    -0.278 C  
BRANCH  11  12
HETATM   12  C   UNL     1     -10.624  11.509  64.170  1.00  0.00    -0.363 C  
HETATM   13  O   UNL     1     -10.047  11.001  63.221  1.00  0.00    -0.333 OA 
BRANCH  12  14
HETATM   14  O   UNL     1     -11.893  12.000  64.136  1.00  0.00    -0.376 OA 
BRANCH  14  15
HETATM   15  C   UNL     1     -12.044  13.183  63.341  1.00  0.00    -0.486 C  
BRANCH  15  16
HETATM   16  C   UNL     1     -12.271  14.333  64.328  1.00  0.00    -0.423 C  
BRANCH  16  17
HETATM   17  N   UNL     1     -11.096  15.152  64.572  1.00  0.00    -0.658 N  
HETATM   18  C   UNL     1     -10.594  15.303  65.842  1.00  0.00    -0.335 C  
HETATM   19  H   UNL     1     -10.637  15.621  63.791  1.00  0.00     0.000 HD 
HETATM   20  O   UNL     1     -11.151  14.867  66.844  1.00  0.00    -0.325 OA 
BRANCH  18  21
HETATM   21  C   UNL     1      -9.333  16.133  65.966  1.00  0.00    -0.333 C  
BRANCH  21  22
HETATM   22  N   UNL     1      -9.633  17.354  66.743  1.00  0.00    -0.266 NA 
HETATM   23  C   UNL     1     -10.478  18.286  66.234  1.00  0.00    -0.376 A  
HETATM   24  C   UNL     1     -10.754  19.449  66.939  1.00  0.00    -0.570 A  
HETATM   25  C   UNL     1     -10.174  19.646  68.184  1.00  0.00    -0.580 A  
HETATM   26  C   UNL     1      -9.325  18.676  68.701  1.00  0.00    -0.375 A  
HETATM   27  C   UNL     1      -9.068  17.531  67.958  1.00  0.00    -0.269 A  
ENDBRANCH  21  22
ENDBRANCH  18  21
ENDBRANCH  16  17
ENDBRANCH  15  16
ENDBRANCH  14  15
ENDBRANCH  12  14
ENDBRANCH  11  12
ENDBRANCH  10  11
ENDBRANCH   9  10
ENDBRANCH   8   9
ENDBRANCH   7   8
ENDBRANCH   6   7
ENDBRANCH   5   6
ENDBRANCH   4   5
ENDBRANCH   3   4
ENDBRANCH   2   3
TORSDOF 16
ENDMDL
MODEL      150
REMARK 921   NORMALIZED FREE ENERGY PREDICTED BY IDOCK:   -4.00 KCAL/MOL
REMARK 922        TOTAL FREE ENERGY PREDICTED BY IDOCK:   -9.82 KCAL/MOL
REMARK 923 INTER-LIGAND FREE ENERGY PREDICTED BY IDOCK:   -8.47 KCAL/MOL
REMARK 924 INTRA-LIGAND FREE ENERGY PREDICTED BY IDOCK:   -1.35 KCAL/MOL
REMARK 927      BINDING AFFINITY PREDICTED BY RF-SCORE:    0.00 PKD
ROOT
HETATM    1  C   UNL     1      -8.973   2.984  69.370  1.00  0.00    -0.175 C  
HETATM    2  C   UNL     1      -9.410   3.335  67.959  1.00  0.00    -0.245 C  
ENDROOT
BRANCH   2   3
HETATM    3  C   UNL     1      -9.856   4.793  67.869  1.00  0.00    -0.191 C  
BRANCH   3   4
HETATM    4  C   UNL     1     -10.439   5.109  66.495  1.00  0.00    -0.346 C  
BRANCH   4   5
HETATM    5  C   UNL     1      -9.340   5.155  65.435  1.00  0.00    -0.090 C  
BRANCH   5   6
HETATM    6  C   UNL     1      -8.159   5.985  65.922  1.00  0.00    -0.119 C  
BRANCH   6   7
HETATM    7  C   UNL     1      -8.190   7.398  65.346  1.00  0.00    -0.135 C  
BRANCH   7   8
HETATM    8  C   UNL     1      -8.773   8.359  66.379  1.00  0.00    -0.159 C  
BRANCH   8   9
HETATM    9  C   UNL     1      -9.821   9.279  65.769  1.00  0.00    -0.302 C  
BRANCH   9  10
HETATM   10  C   UNL     1      -9.262  10.090  64.589  1.00  0.00    -0.310 C  
BRANCH  10  11
HETATM   11  C   UNL     1     -10.327  10.859  63.795  1.00  0.00    -0.384 C  
BRANCH  11  12
HETATM   12  C   UNL     1     -10.607  12.190  64.445  1.00  0.00    -0.323 C  
HETATM   13  O   UNL     1      -9.805  12.835  65.102  1.00  0.00    -0.198 OA 
BRANCH  12  14
HETATM   14  O   UNL     1     -11.821  12.650  64.032  1.00  0.00    -0.362 OA 
BRANCH  14  15
HETATM   15  C   UNL     1     -12.119  13.985  64.459  1.00  0.00    -0.459 C  
BRANCH  15  16
HETATM   16  C   UNL     1     -13.007  13.847  65.700  1.00  0.00    -0.315 C  
BRANCH  16  17
HETATM   17  N   UNL     1     -12.351  14.202  66.948  1.00  0.00    -0.565 N  
HETATM   18  C   UNL     1     -11.914  13.231  67.814  1.00  0.00    -0.314 C  
HETATM   19  H   UNL     1     -12.213  15.185  67.182  1.00  0.00     0.000 HD 
HETATM   20  O   UNL     1     -12.141  12.035  67.659  1.00  0.00    -0.547 OA 
BRANCH  18  21
HETATM   21  C   UNL     1     -11.194  13.719  69.054  1.00  0.00    -0.272 C  
BRANCH  21  22
HETATM   22  N   UNL     1     -12.168  13.846  70.159  1.00  0.00    -0.345 NA 
HETATM   23  C   UNL     1     -12.395  12.788  70.980  1.00  0.00    -0.221 A  
HETATM   24  C   UNL     1     -13.323  12.880  72.008  1.00  0.00    -0.579 A  
HETATM   25  C   UNL     1     -14.005  14.072  72.207  1.00  0.00    -0.651 A  
HETATM   26  C   UNL     1     -13.750  15.151  71.372  1.00  0.00    -0.577 A  
HETATM   27  C   UNL     1     -12.821  15.014  70.348  1.00  0.00    -0.288 A  
ENDBRANCH  21  22
ENDBRANCH  18  21
ENDBRANCH  16  17
ENDBRANCH  15  16
ENDBRANCH  14  15
ENDBRANCH  12  14
ENDBRANCH  11  12
ENDBRANCH  10  11
ENDBRANCH   9  10
ENDBRANCH   8   9
ENDBRANCH   7   8
ENDBRANCH   6   7
ENDBRANCH   5   6
ENDBRANCH   4   5
ENDBRANCH   3   4
ENDBRANCH   2   3
TORSDOF 16
ENDMDL
MODEL      151
REMARK 921   NORMALIZED FREE ENERGY PREDICTED BY IDOCK:   -3.98 KCAL/MOL
REMARK 922        TOTAL FREE ENERGY PREDICTED BY IDOCK:   -9.78 KCAL/MOL
REMARK 923 INTER-LIGAND FREE ENERGY PREDICTED BY IDOCK:   -8.56 KCAL/MOL
REMARK 924 INTRA-LIGAND FREE ENERGY PREDICTED BY IDOCK:   -1.22 KCAL/MOL
REMARK 927      BINDING AFFINITY PREDICTED BY RF-SCORE:    0.00 PKD
ROOT
HETATM    1  C   UNL     1     -12.490  13.525  70.962  1.00  0.00    -0.451 C  
HETATM    2  C   UNL     1     -12.323  12.039  70.693  1.00  0.00    -0.394 C  
ENDROOT
BRANCH   2   3
HETATM    3  C   UNL     1     -13.031  11.205  71.758  1.00  0.00    -0.526 C  
BRANCH   3   4
HETATM    4  C   UNL     1     -13.484   9.860  71.197  1.00  0.00    -0.308 C  
BRANCH   4   5
HETATM    5  C   UNL     1     -13.140   8.726  72.163  1.00  0.00    -0.451 C  
BRANCH   5   6
HETATM    6  C   UNL     1     -11.743   8.188  71.883  1.00  0.00    -0.362 C  
BRANCH   6   7
HETATM    7  C   UNL     1     -11.772   7.055  70.860  1.00  0.00    -0.387 C  
BRANCH   7   8
HETATM    8  C   UNL     1     -10.841   7.390  69.699  1.00  0.00    -0.222 C  
BRANCH   8   9
HETATM    9  C   UNL     1     -10.644   8.892  69.545  1.00  0.00    -0.233 C  
BRANCH   9  10
HETATM   10  C   UNL     1     -10.219   9.275  68.119  1.00  0.00    -0.246 C  
BRANCH  10  11
HETATM   11  C   UNL     1     -11.010  10.447  67.521  1.00  0.00    -0.358 C  
BRANCH  11  12
HETATM   12  C   UNL     1     -10.415  10.861  66.199  1.00  0.00    -0.229 C  
HETATM   13  O   UNL     1      -9.787  10.129  65.450  1.00  0.00    -0.268 OA 
BRANCH  12  14
HETATM   14  O   UNL     1     -10.844  12.114  65.881  1.00  0.00    -0.260 OA 
BRANCH  14  15
HETATM   15  C   UNL     1     -10.177  12.694  64.753  1.00  0.00    -0.283 C  
BRANCH  15  16
HETATM   16  C   UNL     1     -10.812  14.073  64.545  1.00  0.00    -0.347 C  
BRANCH  16  17
HETATM   17  N   UNL     1     -10.658  14.977  65.672  1.00  0.00    -0.322 N  
HETATM   18  C   UNL     1     -10.847  16.330  65.520  1.00  0.00    -0.245 C  
HETATM   19  H   UNL     1     -10.407  14.604  66.587  1.00  0.00     0.000 HD 
HETATM   20  O   UNL     1     -11.039  16.866  64.433  1.00  0.00    -1.128 OA 
BRANCH  18  21
HETATM   21  C   UNL     1     -10.715  17.165  66.776  1.00  0.00    -0.097 C  
BRANCH  21  22
HETATM   22  N   UNL     1      -9.360  17.754  66.824  1.00  0.00    -0.272 NA 
HETATM   23  C   UNL     1      -8.363  17.096  67.469  1.00  0.00    -0.190 A  
HETATM   24  C   UNL     1      -7.090  17.643  67.544  1.00  0.00    -0.183 A  
HETATM   25  C   UNL     1      -6.836  18.865  66.937  1.00  0.00    -0.205 A  
HETATM   26  C   UNL     1      -7.860  19.519  66.266  1.00  0.00    -0.328 A  
HETATM   27  C   UNL     1      -9.123  18.941  66.222  1.00  0.00    -0.261 A  
ENDBRANCH  21  22
ENDBRANCH  18  21
ENDBRANCH  16  17
ENDBRANCH  15  16
ENDBRANCH  14  15
ENDBRANCH  12  14
ENDBRANCH  11  12
ENDBRANCH  10  11
ENDBRANCH   9  10
ENDBRANCH   8   9
ENDBRANCH   7   8
ENDBRANCH   6   7
ENDBRANCH   5   6
ENDBRANCH   4   5
ENDBRANCH   3   4
ENDBRANCH   2   3
TORSDOF 16
ENDMDL
MODEL      152
REMARK 921   NORMALIZED FREE ENERGY PREDICTED BY IDOCK:   -3.97 KCAL/MOL
REMARK 922        TOTAL FREE ENERGY PREDICTED BY IDOCK:   -9.77 KCAL/MOL
REMARK 923 INTER-LIGAND FREE ENERGY PREDICTED BY IDOCK:   -7.90 KCAL/MOL
REMARK 924 INTRA-LIGAND FREE ENERGY PREDICTED BY IDOCK:   -1.87 KCAL/MOL
REMARK 927      BINDING AFFINITY PREDICTED BY RF-SCORE:    0.00 PKD
ROOT
HETATM    1  C   UNL     1     -13.305  13.082  71.856  1.00  0.00    -0.539 C  
HETATM    2  C   UNL     1     -12.738  11.774  71.330  1.00  0.00    -0.420 C  
ENDROOT
BRANCH   2   3
HETATM    3  C   UNL     1     -13.471  10.577  71.930  1.00  0.00    -0.358 C  
BRANCH   3   4
HETATM    4  C   UNL     1     -12.502   9.447  72.268  1.00  0.00    -0.338 C  
BRANCH   4   5
HETATM    5  C   UNL     1     -12.286   8.538  71.060  1.00  0.00    -0.190 C  
BRANCH   5   6
HETATM    6  C   UNL     1     -12.725   7.114  71.375  1.00  0.00    -0.433 C  
BRANCH   6   7
HETATM    7  C   UNL     1     -11.553   6.138  71.317  1.00  0.00    -0.271 C  
BRANCH   7   8
HETATM    8  C   UNL     1     -11.298   5.560  72.707  1.00  0.00    -0.359 C  
BRANCH   8   9
HETATM    9  C   UNL     1     -10.334   6.421  73.511  1.00  0.00    -0.281 C  
BRANCH   9  10
HETATM   10  C   UNL     1      -9.097   6.821  72.693  1.00  0.00    -0.143 C  
BRANCH  10  11
HETATM   11  C   UNL     1      -8.751   8.314  72.766  1.00  0.00    -0.288 C  
BRANCH  11  12
HETATM   12  C   UNL     1      -8.339   8.825  71.408  1.00  0.00    -0.168 C  
HETATM   13  O   UNL     1      -7.521   9.709  71.208  1.00  0.00    -0.310 OA 
BRANCH  12  14
HETATM   14  O   UNL     1      -8.872   8.027  70.442  1.00  0.00    -0.138 OA 
BRANCH  14  15
HETATM   15  C   UNL     1      -8.457   8.359  69.111  1.00  0.00    -0.123 C  
BRANCH  15  16
HETATM   16  C   UNL     1      -9.691   8.942  68.414  1.00  0.00    -0.161 C  
BRANCH  16  17
HETATM   17  N   UNL     1      -9.610  10.369  68.150  1.00  0.00    -0.143 N  
HETATM   18  C   UNL     1     -10.747  11.134  68.060  1.00  0.00    -0.211 C  
HETATM   19  H   UNL     1      -8.697  10.808  68.030  1.00  0.00     0.000 HD 
HETATM   20  O   UNL     1     -11.880  10.663  68.079  1.00  0.00    -0.494 OA 
BRANCH  18  21
HETATM   21  C   UNL     1     -10.536  12.617  67.839  1.00  0.00    -0.220 C  
BRANCH  21  22
HETATM   22  N   UNL     1     -11.057  12.986  66.505  1.00  0.00    -0.282 NA 
HETATM   23  C   UNL     1     -12.269  13.588  66.399  1.00  0.00    -0.400 A  
HETATM   24  C   UNL     1     -12.785  13.920  65.154  1.00  0.00    -0.434 A  
HETATM   25  C   UNL     1     -12.042  13.651  64.014  1.00  0.00    -0.474 A  
HETATM   26  C   UNL     1     -10.797  13.050  64.138  1.00  0.00    -0.433 A  
HETATM   27  C   UNL     1     -10.321  12.725  65.402  1.00  0.00    -0.293 A  
ENDBRANCH  21  22
ENDBRANCH  18  21
ENDBRANCH  16  17
ENDBRANCH  15  16
ENDBRANCH  14  15
ENDBRANCH  12  14
ENDBRANCH  11  12
ENDBRANCH  10  11
ENDBRANCH   9  10
ENDBRANCH   8   9
ENDBRANCH   7   8
ENDBRANCH   6   7
ENDBRANCH   5   6
ENDBRANCH   4   5
ENDBRANCH   3   4
ENDBRANCH   2   3
TORSDOF 16
ENDMDL
MODEL      153
REMARK 921   NORMALIZED FREE ENERGY PREDICTED BY IDOCK:   -3.95 KCAL/MOL
REMARK 922        TOTAL FREE ENERGY PREDICTED BY IDOCK:   -9.73 KCAL/MOL
REMARK 923 INTER-LIGAND FREE ENERGY PREDICTED BY IDOCK:   -8.42 KCAL/MOL
REMARK 924 INTRA-LIGAND FREE ENERGY PREDICTED BY IDOCK:   -1.31 KCAL/MOL
REMARK 927      BINDING AFFINITY PREDICTED BY RF-SCORE:    0.00 PKD
ROOT
HETATM    1  C   UNL     1     -12.221   7.290  71.726  1.00  0.00    -0.368 C  
HETATM    2  C   UNL     1     -12.054   8.741  72.144  1.00  0.00    -0.441 C  
ENDROOT
BRANCH   2   3
HETATM    3  C   UNL     1     -13.347   9.525  71.935  1.00  0.00    -0.518 C  
BRANCH   3   4
HETATM    4  C   UNL     1     -13.209  10.525  70.790  1.00  0.00    -0.221 C  
BRANCH   4   5
HETATM    5  C   UNL     1     -12.714  11.875  71.307  1.00  0.00    -0.401 C  
BRANCH   5   6
HETATM    6  C   UNL     1     -13.759  12.521  72.207  1.00  0.00    -0.356 C  
BRANCH   6   7
HETATM    7  C   UNL     1     -13.417  13.977  72.511  1.00  0.00    -0.661 C  
BRANCH   7   8
HETATM    8  C   UNL     1     -12.144  14.370  71.765  1.00  0.00    -0.296 C  
BRANCH   8   9
HETATM    9  C   UNL     1     -12.328  15.650  70.963  1.00  0.00    -0.481 C  
BRANCH   9  10
HETATM   10  C   UNL     1     -12.106  15.427  69.459  1.00  0.00    -0.332 C  
BRANCH  10  11
HETATM   11  C   UNL     1     -11.044  14.368  69.132  1.00  0.00    -0.290 C  
BRANCH  11  12
HETATM   12  C   UNL     1     -11.512  13.489  67.999  1.00  0.00    -0.307 C  
HETATM   13  O   UNL     1     -11.671  12.280  68.067  1.00  0.00    -0.333 OA 
BRANCH  12  14
HETATM   14  O   UNL     1     -11.908  14.267  66.954  1.00  0.00    -0.398 OA 
BRANCH  14  15
HETATM   15  C   UNL     1     -12.258  13.531  65.775  1.00  0.00    -0.461 C  
BRANCH  15  16
HETATM   16  C   UNL     1     -11.311  14.018  64.673  1.00  0.00    -0.375 C  
BRANCH  16  17
HETATM   17  N   UNL     1     -10.273  14.925  65.134  1.00  0.00    -0.388 N  
HETATM   18  C   UNL     1     -10.453  16.286  65.081  1.00  0.00    -0.227 C  
HETATM   19  H   UNL     1      -9.400  14.546  65.501  1.00  0.00     0.000 HD 
HETATM   20  O   UNL     1     -11.423  16.818  64.551  1.00  0.00    -0.866 OA 
BRANCH  18  21
HETATM   21  C   UNL     1      -9.326  17.128  65.642  1.00  0.00     0.305 C  
BRANCH  21  22
HETATM   22  N   UNL     1      -9.877  18.066  66.643  1.00  0.00    -0.334 NA 
HETATM   23  C   UNL     1     -10.480  19.211  66.232  1.00  0.00    -0.467 A  
HETATM   24  C   UNL     1     -10.983  20.115  67.158  1.00  0.00     0.060 A  
HETATM   25  C   UNL     1     -10.884  19.831  68.512  1.00  0.00     0.306 A  
HETATM   26  C   UNL     1     -10.281  18.648  68.918  1.00  0.00    -0.262 A  
HETATM   27  C   UNL     1      -9.781  17.775  67.960  1.00  0.00    -0.304 A  
ENDBRANCH  21  22
ENDBRANCH  18  21
ENDBRANCH  16  17
ENDBRANCH  15  16
ENDBRANCH  14  15
ENDBRANCH  12  14
ENDBRANCH  11  12
ENDBRANCH  10  11
ENDBRANCH   9  10
ENDBRANCH   8   9
ENDBRANCH   7   8
ENDBRANCH   6   7
ENDBRANCH   5   6
ENDBRANCH   4   5
ENDBRANCH   3   4
ENDBRANCH   2   3
TORSDOF 16
ENDMDL
MODEL      154
REMARK 921   NORMALIZED FREE ENERGY PREDICTED BY IDOCK:   -3.95 KCAL/MOL
REMARK 922        TOTAL FREE ENERGY PREDICTED BY IDOCK:   -9.72 KCAL/MOL
REMARK 923 INTER-LIGAND FREE ENERGY PREDICTED BY IDOCK:   -8.76 KCAL/MOL
REMARK 924 INTRA-LIGAND FREE ENERGY PREDICTED BY IDOCK:   -0.96 KCAL/MOL
REMARK 927      BINDING AFFINITY PREDICTED BY RF-SCORE:    0.00 PKD
ROOT
HETATM    1  C   UNL     1      -5.837  11.176  68.581  1.00  0.00    -0.042 C  
HETATM    2  C   UNL     1      -7.113  11.932  68.912  1.00  0.00    -0.110 C  
ENDROOT
BRANCH   2   3
HETATM    3  C   UNL     1      -8.345  11.165  68.435  1.00  0.00    -0.149 C  
BRANCH   3   4
HETATM    4  C   UNL     1      -8.830  10.183  69.497  1.00  0.00    -0.198 C  
BRANCH   4   5
HETATM    5  C   UNL     1     -10.342   9.983  69.401  1.00  0.00    -0.245 C  
BRANCH   5   6
HETATM    6  C   UNL     1     -10.798   8.878  70.344  1.00  0.00    -0.269 C  
BRANCH   6   7
HETATM    7  C   UNL     1     -11.533   9.442  71.557  1.00  0.00    -0.467 C  
BRANCH   7   8
HETATM    8  C   UNL     1     -12.842  10.085  71.109  1.00  0.00    -0.480 C  
BRANCH   8   9
HETATM    9  C   UNL     1     -13.386  11.051  72.153  1.00  0.00    -0.285 C  
BRANCH   9  10
HETATM   10  C   UNL     1     -12.988  12.505  71.857  1.00  0.00    -0.406 C  
BRANCH  10  11
HETATM   11  C   UNL     1     -14.026  13.544  72.305  1.00  0.00    -0.638 C  
BRANCH  11  12
HETATM   12  C   UNL     1     -13.364  14.877  72.547  1.00  0.00    -0.428 C  
HETATM   13  O   UNL     1     -12.809  15.208  73.584  1.00  0.00    -0.505 OA 
BRANCH  12  14
HETATM   14  O   UNL     1     -13.313  15.577  71.381  1.00  0.00    -0.484 OA 
BRANCH  14  15
HETATM   15  C   UNL     1     -11.987  15.788  70.880  1.00  0.00    -0.413 C  
BRANCH  15  16
HETATM   16  C   UNL     1     -11.869  14.934  69.613  1.00  0.00    -0.318 C  
BRANCH  16  17
HETATM   17  N   UNL     1     -11.703  15.700  68.389  1.00  0.00    -0.421 N  
HETATM   18  C   UNL     1     -10.666  15.434  67.528  1.00  0.00    -0.295 C  
HETATM   19  H   UNL     1     -12.363  16.444  68.167  1.00  0.00     0.000 HD 
HETATM   20  O   UNL     1      -9.769  14.635  67.779  1.00  0.00    -0.211 OA 
BRANCH  18  21
HETATM   21  C   UNL     1     -10.627  16.258  66.258  1.00  0.00    -0.255 C  
BRANCH  21  22
HETATM   22  N   UNL     1      -9.902  17.518  66.523  1.00  0.00    -0.296 NA 
HETATM   23  C   UNL     1     -10.599  18.663  66.738  1.00  0.00    -0.371 A  
HETATM   24  C   UNL     1      -9.935  19.861  66.966  1.00  0.00    -0.559 A  
HETATM   25  C   UNL     1      -8.548  19.878  66.993  1.00  0.00    -0.389 A  
HETATM   26  C   UNL     1      -7.848  18.697  66.788  1.00  0.00    -0.258 A  
HETATM   27  C   UNL     1      -8.550  17.521  66.554  1.00  0.00    -0.263 A  
ENDBRANCH  21  22
ENDBRANCH  18  21
ENDBRANCH  16  17
ENDBRANCH  15  16
ENDBRANCH  14  15
ENDBRANCH  12  14
ENDBRANCH  11  12
ENDBRANCH  10  11
ENDBRANCH   9  10
ENDBRANCH   8   9
ENDBRANCH   7   8
ENDBRANCH   6   7
ENDBRANCH   5   6
ENDBRANCH   4   5
ENDBRANCH   3   4
ENDBRANCH   2   3
TORSDOF 16
ENDMDL
MODEL      155
REMARK 921   NORMALIZED FREE ENERGY PREDICTED BY IDOCK:   -3.93 KCAL/MOL
REMARK 922        TOTAL FREE ENERGY PREDICTED BY IDOCK:   -9.68 KCAL/MOL
REMARK 923 INTER-LIGAND FREE ENERGY PREDICTED BY IDOCK:   -7.55 KCAL/MOL
REMARK 924 INTRA-LIGAND FREE ENERGY PREDICTED BY IDOCK:   -2.14 KCAL/MOL
REMARK 927      BINDING AFFINITY PREDICTED BY RF-SCORE:    0.00 PKD
ROOT
HETATM    1  C   UNL     1      -8.140  11.719  68.015  1.00  0.00    -0.145 C  
HETATM    2  C   UNL     1      -7.954  10.623  69.050  1.00  0.00    -0.140 C  
ENDROOT
BRANCH   2   3
HETATM    3  C   UNL     1      -8.535   9.299  68.557  1.00  0.00    -0.123 C  
BRANCH   3   4
HETATM    4  C   UNL     1      -7.954   8.910  67.201  1.00  0.00    -0.096 C  
BRANCH   4   5
HETATM    5  C   UNL     1      -9.026   8.280  66.312  1.00  0.00    -0.221 C  
BRANCH   5   6
HETATM    6  C   UNL     1     -10.387   8.335  66.993  1.00  0.00    -0.393 C  
BRANCH   6   7
HETATM    7  C   UNL     1     -11.058   6.964  67.020  1.00  0.00    -0.315 C  
BRANCH   7   8
HETATM    8  C   UNL     1     -10.326   6.056  68.005  1.00  0.00    -0.250 C  
BRANCH   8   9
HETATM    9  C   UNL     1     -11.046   5.975  69.344  1.00  0.00    -0.445 C  
BRANCH   9  10
HETATM   10  C   UNL     1     -10.483   6.978  70.363  1.00  0.00    -0.225 C  
BRANCH  10  11
HETATM   11  C   UNL     1     -11.556   7.758  71.135  1.00  0.00    -0.301 C  
BRANCH  11  12
HETATM   12  C   UNL     1     -11.111   9.182  71.358  1.00  0.00    -0.345 C  
HETATM   13  O   UNL     1      -9.989   9.523  71.700  1.00  0.00    -0.142 OA 
BRANCH  12  14
HETATM   14  O   UNL     1     -12.088  10.034  70.940  1.00  0.00    -0.307 OA 
BRANCH  14  15
HETATM   15  C   UNL     1     -11.816  10.669  69.685  1.00  0.00    -0.286 C  
BRANCH  15  16
HETATM   16  C   UNL     1     -11.814  12.176  69.962  1.00  0.00    -0.306 C  
BRANCH  16  17
HETATM   17  N   UNL     1     -12.090  12.998  68.796  1.00  0.00    -0.244 N  
HETATM   18  C   UNL     1     -11.190  13.945  68.372  1.00  0.00    -0.264 C  
HETATM   19  H   UNL     1     -12.964  12.871  68.285  1.00  0.00     0.000 HD 
HETATM   20  O   UNL     1     -10.173  14.236  68.995  1.00  0.00    -0.220 OA 
BRANCH  18  21
HETATM   21  C   UNL     1     -11.561  14.701  67.113  1.00  0.00    -0.378 C  
BRANCH  21  22
HETATM   22  N   UNL     1     -11.460  13.788  65.955  1.00  0.00    -0.318 NA 
HETATM   23  C   UNL     1     -12.590  13.356  65.338  1.00  0.00    -0.475 A  
HETATM   24  C   UNL     1     -12.517  12.481  64.264  1.00  0.00    -0.520 A  
HETATM   25  C   UNL     1     -11.275  12.062  63.808  1.00  0.00    -0.516 A  
HETATM   26  C   UNL     1     -10.127  12.525  64.438  1.00  0.00    -0.284 A  
HETATM   27  C   UNL     1     -10.244  13.393  65.516  1.00  0.00    -0.290 A  
ENDBRANCH  21  22
ENDBRANCH  18  21
ENDBRANCH  16  17
ENDBRANCH  15  16
ENDBRANCH  14  15
ENDBRANCH  12  14
ENDBRANCH  11  12
ENDBRANCH  10  11
ENDBRANCH   9  10
ENDBRANCH   8   9
ENDBRANCH   7   8
ENDBRANCH   6   7
ENDBRANCH   5   6
ENDBRANCH   4   5
ENDBRANCH   3   4
ENDBRANCH   2   3
TORSDOF 16
ENDMDL
MODEL      156
REMARK 921   NORMALIZED FREE ENERGY PREDICTED BY IDOCK:   -3.92 KCAL/MOL
REMARK 922        TOTAL FREE ENERGY PREDICTED BY IDOCK:   -9.67 KCAL/MOL
REMARK 923 INTER-LIGAND FREE ENERGY PREDICTED BY IDOCK:   -8.44 KCAL/MOL
REMARK 924 INTRA-LIGAND FREE ENERGY PREDICTED BY IDOCK:   -1.23 KCAL/MOL
REMARK 927      BINDING AFFINITY PREDICTED BY RF-SCORE:    0.00 PKD
ROOT
HETATM    1  C   UNL     1      -9.681  19.288  66.741  1.00  0.00    -0.413 C  
HETATM    2  C   UNL     1     -10.348  17.923  66.755  1.00  0.00    -0.357 C  
ENDROOT
BRANCH   2   3
HETATM    3  C   UNL     1      -9.400  16.854  67.293  1.00  0.00    -0.238 C  
BRANCH   3   4
HETATM    4  C   UNL     1      -9.289  15.676  66.329  1.00  0.00    -0.358 C  
BRANCH   4   5
HETATM    5  C   UNL     1     -10.498  15.624  65.396  1.00  0.00    -0.435 C  
BRANCH   5   6
HETATM    6  C   UNL     1     -11.184  14.266  65.483  1.00  0.00    -0.320 C  
BRANCH   6   7
HETATM    7  C   UNL     1     -12.120  14.033  64.299  1.00  0.00    -0.476 C  
BRANCH   7   8
HETATM    8  C   UNL     1     -11.919  12.619  63.760  1.00  0.00    -0.588 C  
BRANCH   8   9
HETATM    9  C   UNL     1     -10.449  12.310  63.512  1.00  0.00    -0.459 C  
BRANCH   9  10
HETATM   10  C   UNL     1     -10.096  10.858  63.871  1.00  0.00    -0.422 C  
BRANCH  10  11
HETATM   11  C   UNL     1     -10.399  10.480  65.328  1.00  0.00    -0.300 C  
BRANCH  11  12
HETATM   12  C   UNL     1      -9.189  10.718  66.195  1.00  0.00    -0.180 C  
HETATM   13  O   UNL     1      -8.046  10.855  65.786  1.00  0.00    -0.157 OA 
BRANCH  12  14
HETATM   14  O   UNL     1      -9.586  10.943  67.478  1.00  0.00    -0.154 OA 
BRANCH  14  15
HETATM   15  C   UNL     1      -8.536  11.376  68.351  1.00  0.00    -0.155 C  
BRANCH  15  16
HETATM   16  C   UNL     1      -8.033  10.120  69.069  1.00  0.00    -0.115 C  
BRANCH  16  17
HETATM   17  N   UNL     1      -8.693   9.852  70.337  1.00  0.00    -0.305 N  
HETATM   18  C   UNL     1      -9.489   8.744  70.496  1.00  0.00    -0.186 C  
HETATM   19  H   UNL     1      -8.563  10.495  71.118  1.00  0.00     0.000 HD 
HETATM   20  O   UNL     1      -9.784   7.988  69.576  1.00  0.00    -0.167 OA 
BRANCH  18  21
HETATM   21  C   UNL     1     -10.077   8.539  71.877  1.00  0.00    -0.297 C  
BRANCH  21  22
HETATM   22  N   UNL     1     -11.551   8.501  71.772  1.00  0.00    -0.290 NA 
HETATM   23  C   UNL     1     -12.193   7.305  71.753  1.00  0.00    -0.334 A  
HETATM   24  C   UNL     1     -13.575   7.247  71.632  1.00  0.00    -0.435 A  
HETATM   25  C   UNL     1     -14.302   8.426  71.552  1.00  0.00    -0.499 A  
HETATM   26  C   UNL     1     -13.634   9.643  71.590  1.00  0.00    -0.402 A  
HETATM   27  C   UNL     1     -12.249   9.656  71.702  1.00  0.00    -0.402 A  
ENDBRANCH  21  22
ENDBRANCH  18  21
ENDBRANCH  16  17
ENDBRANCH  15  16
ENDBRANCH  14  15
ENDBRANCH  12  14
ENDBRANCH  11  12
ENDBRANCH  10  11
ENDBRANCH   9  10
ENDBRANCH   8   9
ENDBRANCH   7   8
ENDBRANCH   6   7
ENDBRANCH   5   6
ENDBRANCH   4   5
ENDBRANCH   3   4
ENDBRANCH   2   3
TORSDOF 16
ENDMDL
MODEL      157
REMARK 921   NORMALIZED FREE ENERGY PREDICTED BY IDOCK:   -3.91 KCAL/MOL
REMARK 922        TOTAL FREE ENERGY PREDICTED BY IDOCK:   -9.64 KCAL/MOL
REMARK 923 INTER-LIGAND FREE ENERGY PREDICTED BY IDOCK:   -7.80 KCAL/MOL
REMARK 924 INTRA-LIGAND FREE ENERGY PREDICTED BY IDOCK:   -1.83 KCAL/MOL
REMARK 927      BINDING AFFINITY PREDICTED BY RF-SCORE:    0.00 PKD
ROOT
HETATM    1  C   UNL     1      -9.579   8.056  73.100  1.00  0.00    -0.344 C  
HETATM    2  C   UNL     1     -10.905   7.321  73.008  1.00  0.00    -0.399 C  
ENDROOT
BRANCH   2   3
HETATM    3  C   UNL     1     -11.846   8.009  72.022  1.00  0.00    -0.376 C  
BRANCH   3   4
HETATM    4  C   UNL     1     -12.168   7.101  70.839  1.00  0.00    -0.354 C  
BRANCH   4   5
HETATM    5  C   UNL     1     -10.969   6.221  70.487  1.00  0.00    -0.374 C  
BRANCH   5   6
HETATM    6  C   UNL     1     -10.366   6.645  69.155  1.00  0.00    -0.220 C  
BRANCH   6   7
HETATM    7  C   UNL     1      -8.894   7.022  69.299  1.00  0.00    -0.139 C  
BRANCH   7   8
HETATM    8  C   UNL     1      -8.663   8.414  68.716  1.00  0.00    -0.136 C  
BRANCH   8   9
HETATM    9  C   UNL     1      -9.906   9.287  68.822  1.00  0.00    -0.174 C  
BRANCH   9  10
HETATM   10  C   UNL     1     -10.307   9.887  67.466  1.00  0.00    -0.289 C  
BRANCH  10  11
HETATM   11  C   UNL     1      -9.685   9.177  66.255  1.00  0.00    -0.344 C  
BRANCH  11  12
HETATM   12  C   UNL     1      -8.991  10.173  65.361  1.00  0.00    -0.177 C  
HETATM   13  O   UNL     1      -7.842  10.562  65.500  1.00  0.00    -0.155 OA 
BRANCH  12  14
HETATM   14  O   UNL     1      -9.772  10.429  64.274  1.00  0.00    -0.291 OA 
BRANCH  14  15
HETATM   15  C   UNL     1      -9.836  11.813  63.911  1.00  0.00    -0.274 C  
BRANCH  15  16
HETATM   16  C   UNL     1     -11.037  12.396  64.664  1.00  0.00    -0.307 C  
BRANCH  16  17
HETATM   17  N   UNL     1     -10.695  13.437  65.619  1.00  0.00    -0.273 N  
HETATM   18  C   UNL     1     -11.673  14.091  66.327  1.00  0.00    -0.387 C  
HETATM   19  H   UNL     1      -9.716  13.684  65.766  1.00  0.00     0.000 HD 
HETATM   20  O   UNL     1     -12.873  13.931  66.127  1.00  0.00    -0.384 OA 
BRANCH  18  21
HETATM   21  C   UNL     1     -11.193  15.116  67.335  1.00  0.00    -0.323 C  
BRANCH  21  22
HETATM   22  N   UNL     1     -11.656  14.721  68.682  1.00  0.00    -0.304 NA 
HETATM   23  C   UNL     1     -11.495  13.440  69.100  1.00  0.00    -0.300 A  
HETATM   24  C   UNL     1     -11.944  13.045  70.353  1.00  0.00    -0.337 A  
HETATM   25  C   UNL     1     -12.544  13.977  71.188  1.00  0.00    -0.445 A  
HETATM   26  C   UNL     1     -12.686  15.288  70.754  1.00  0.00    -0.491 A  
HETATM   27  C   UNL     1     -12.232  15.640  69.489  1.00  0.00    -0.207 A  
ENDBRANCH  21  22
ENDBRANCH  18  21
ENDBRANCH  16  17
ENDBRANCH  15  16
ENDBRANCH  14  15
ENDBRANCH  12  14
ENDBRANCH  11  12
ENDBRANCH  10  11
ENDBRANCH   9  10
ENDBRANCH   8   9
ENDBRANCH   7   8
ENDBRANCH   6   7
ENDBRANCH   5   6
ENDBRANCH   4   5
ENDBRANCH   3   4
ENDBRANCH   2   3
TORSDOF 16
ENDMDL
MODEL      158
REMARK 921   NORMALIZED FREE ENERGY PREDICTED BY IDOCK:   -3.90 KCAL/MOL
REMARK 922        TOTAL FREE ENERGY PREDICTED BY IDOCK:   -9.63 KCAL/MOL
REMARK 923 INTER-LIGAND FREE ENERGY PREDICTED BY IDOCK:   -8.28 KCAL/MOL
REMARK 924 INTRA-LIGAND FREE ENERGY PREDICTED BY IDOCK:   -1.34 KCAL/MOL
REMARK 927      BINDING AFFINITY PREDICTED BY RF-SCORE:    0.00 PKD
ROOT
HETATM    1  C   UNL     1      -9.562   5.256  70.926  1.00  0.00    -0.233 C  
HETATM    2  C   UNL     1     -10.950   5.729  70.528  1.00  0.00    -0.320 C  
ENDROOT
BRANCH   2   3
HETATM    3  C   UNL     1     -11.774   6.108  71.756  1.00  0.00    -0.312 C  
BRANCH   3   4
HETATM    4  C   UNL     1     -12.027   7.612  71.810  1.00  0.00    -0.333 C  
BRANCH   4   5
HETATM    5  C   UNL     1     -10.837   8.341  72.432  1.00  0.00    -0.421 C  
BRANCH   5   6
HETATM    6  C   UNL     1     -10.129   9.198  71.391  1.00  0.00    -0.392 C  
BRANCH   6   7
HETATM    7  C   UNL     1     -11.009   9.438  70.167  1.00  0.00    -0.282 C  
BRANCH   7   8
HETATM    8  C   UNL     1     -10.587  10.734  69.480  1.00  0.00    -0.235 C  
BRANCH   8   9
HETATM    9  C   UNL     1     -11.754  11.404  68.767  1.00  0.00    -0.404 C  
BRANCH   9  10
HETATM   10  C   UNL     1     -11.527  11.498  67.251  1.00  0.00    -0.338 C  
BRANCH  10  11
HETATM   11  C   UNL     1     -10.049  11.573  66.840  1.00  0.00    -0.241 C  
BRANCH  11  12
HETATM   12  C   UNL     1      -9.867  11.052  65.437  1.00  0.00    -0.251 C  
HETATM   13  O   UNL     1      -8.805  10.698  64.951  1.00  0.00    -0.190 OA 
BRANCH  12  14
HETATM   14  O   UNL     1     -11.087  10.861  64.862  1.00  0.00    -0.076 OA 
BRANCH  14  15
HETATM   15  C   UNL     1     -11.171  11.305  63.502  1.00  0.00    -0.086 C  
BRANCH  15  16
HETATM   16  C   UNL     1     -12.437  12.165  63.413  1.00  0.00    -0.512 C  
BRANCH  16  17
HETATM   17  N   UNL     1     -12.185  13.596  63.365  1.00  0.00    -1.020 N  
HETATM   18  C   UNL     1     -12.472  14.397  64.443  1.00  0.00    -0.312 C  
HETATM   19  H   UNL     1     -11.790  14.010  62.520  1.00  0.00     0.000 HD 
HETATM   20  O   UNL     1     -13.050  13.996  65.448  1.00  0.00    -0.763 OA 
BRANCH  18  21
HETATM   21  C   UNL     1     -12.114  15.862  64.297  1.00  0.00     0.102 C  
BRANCH  21  22
HETATM   22  N   UNL     1     -10.915  16.149  65.113  1.00  0.00    -0.405 NA 
HETATM   23  C   UNL     1     -10.669  17.419  65.524  1.00  0.00    -0.078 A  
HETATM   24  C   UNL     1      -9.537  17.712  66.271  1.00  0.00    -0.259 A  
HETATM   25  C   UNL     1      -8.663  16.691  66.614  1.00  0.00    -0.280 A  
HETATM   26  C   UNL     1      -8.935  15.393  66.201  1.00  0.00    -0.294 A  
HETATM   27  C   UNL     1     -10.075  15.144  65.447  1.00  0.00    -0.350 A  
ENDBRANCH  21  22
ENDBRANCH  18  21
ENDBRANCH  16  17
ENDBRANCH  15  16
ENDBRANCH  14  15
ENDBRANCH  12  14
ENDBRANCH  11  12
ENDBRANCH  10  11
ENDBRANCH   9  10
ENDBRANCH   8   9
ENDBRANCH   7   8
ENDBRANCH   6   7
ENDBRANCH   5   6
ENDBRANCH   4   5
ENDBRANCH   3   4
ENDBRANCH   2   3
TORSDOF 16
ENDMDL
MODEL      159
REMARK 921   NORMALIZED FREE ENERGY PREDICTED BY IDOCK:   -3.89 KCAL/MOL
REMARK 922        TOTAL FREE ENERGY PREDICTED BY IDOCK:   -9.60 KCAL/MOL
REMARK 923 INTER-LIGAND FREE ENERGY PREDICTED BY IDOCK:   -8.41 KCAL/MOL
REMARK 924 INTRA-LIGAND FREE ENERGY PREDICTED BY IDOCK:   -1.19 KCAL/MOL
REMARK 927      BINDING AFFINITY PREDICTED BY RF-SCORE:    0.00 PKD
ROOT
HETATM    1  C   UNL     1     -11.249   2.464  73.636  1.00  0.00    -0.317 C  
HETATM    2  C   UNL     1     -10.762   3.623  72.783  1.00  0.00    -0.139 C  
ENDROOT
BRANCH   2   3
HETATM    3  C   UNL     1     -11.316   4.952  73.294  1.00  0.00    -0.408 C  
BRANCH   3   4
HETATM    4  C   UNL     1     -10.502   6.130  72.766  1.00  0.00    -0.240 C  
BRANCH   4   5
HETATM    5  C   UNL     1     -11.398   7.343  72.524  1.00  0.00    -0.358 C  
BRANCH   5   6
HETATM    6  C   UNL     1     -12.307   7.109  71.325  1.00  0.00    -0.418 C  
BRANCH   6   7
HETATM    7  C   UNL     1     -11.511   6.708  70.086  1.00  0.00    -0.444 C  
BRANCH   7   8
HETATM    8  C   UNL     1     -10.364   7.693  69.875  1.00  0.00    -0.225 C  
BRANCH   8   9
HETATM    9  C   UNL     1     -10.825   8.955  69.161  1.00  0.00    -0.091 C  
BRANCH   9  10
HETATM   10  C   UNL     1     -10.588  10.216  70.007  1.00  0.00    -0.338 C  
BRANCH  10  11
HETATM   11  C   UNL     1     -11.871  10.975  70.374  1.00  0.00    -0.460 C  
BRANCH  11  12
HETATM   12  C   UNL     1     -11.776  12.413  69.927  1.00  0.00    -0.266 C  
HETATM   13  O   UNL     1     -11.601  12.780  68.776  1.00  0.00    -0.268 OA 
BRANCH  12  14
HETATM   14  O   UNL     1     -12.102  13.233  70.964  1.00  0.00    -0.281 OA 
BRANCH  14  15
HETATM   15  C   UNL     1     -13.247  14.060  70.721  1.00  0.00    -0.110 C  
BRANCH  15  16
HETATM   16  C   UNL     1     -12.714  15.486  70.549  1.00  0.00    -0.388 C  
BRANCH  16  17
HETATM   17  N   UNL     1     -12.340  15.824  69.186  1.00  0.00    -0.539 N  
HETATM   18  C   UNL     1     -11.076  16.275  68.894  1.00  0.00    -0.345 C  
HETATM   19  H   UNL     1     -13.025  15.726  68.436  1.00  0.00     0.000 HD 
HETATM   20  O   UNL     1     -10.234  16.527  69.751  1.00  0.00    -0.206 OA 
BRANCH  18  21
HETATM   21  C   UNL     1     -10.785  16.541  67.431  1.00  0.00    -0.260 C  
BRANCH  21  22
HETATM   22  N   UNL     1     -10.038  17.811  67.311  1.00  0.00    -0.324 NA 
HETATM   23  C   UNL     1      -8.683  17.790  67.242  1.00  0.00    -0.237 A  
HETATM   24  C   UNL     1      -7.963  18.973  67.151  1.00  0.00    -0.271 A  
HETATM   25  C   UNL     1      -8.641  20.183  67.112  1.00  0.00    -0.415 A  
HETATM   26  C   UNL     1     -10.028  20.189  67.166  1.00  0.00    -0.595 A  
HETATM   27  C   UNL     1     -10.710  18.983  67.266  1.00  0.00    -0.470 A  
ENDBRANCH  21  22
ENDBRANCH  18  21
ENDBRANCH  16  17
ENDBRANCH  15  16
ENDBRANCH  14  15
ENDBRANCH  12  14
ENDBRANCH  11  12
ENDBRANCH  10  11
ENDBRANCH   9  10
ENDBRANCH   8   9
ENDBRANCH   7   8
ENDBRANCH   6   7
ENDBRANCH   5   6
ENDBRANCH   4   5
ENDBRANCH   3   4
ENDBRANCH   2   3
TORSDOF 16
ENDMDL
MODEL      160
REMARK 921   NORMALIZED FREE ENERGY PREDICTED BY IDOCK:   -3.88 KCAL/MOL
REMARK 922        TOTAL FREE ENERGY PREDICTED BY IDOCK:   -9.59 KCAL/MOL
REMARK 923 INTER-LIGAND FREE ENERGY PREDICTED BY IDOCK:   -8.08 KCAL/MOL
REMARK 924 INTRA-LIGAND FREE ENERGY PREDICTED BY IDOCK:   -1.51 KCAL/MOL
REMARK 927      BINDING AFFINITY PREDICTED BY RF-SCORE:    0.00 PKD
ROOT
HETATM    1  C   UNL     1      -9.215   8.800  71.592  1.00  0.00    -0.333 C  
HETATM    2  C   UNL     1      -9.402   8.040  72.893  1.00  0.00    -0.338 C  
ENDROOT
BRANCH   2   3
HETATM    3  C   UNL     1     -10.808   7.452  72.989  1.00  0.00    -0.423 C  
BRANCH   3   4
HETATM    4  C   UNL     1     -11.374   7.144  71.605  1.00  0.00    -0.282 C  
BRANCH   4   5
HETATM    5  C   UNL     1     -12.833   7.586  71.505  1.00  0.00    -0.397 C  
BRANCH   5   6
HETATM    6  C   UNL     1     -13.062   8.866  72.297  1.00  0.00    -0.491 C  
BRANCH   6   7
HETATM    7  C   UNL     1     -13.489  10.018  71.392  1.00  0.00    -0.355 C  
BRANCH   7   8
HETATM    8  C   UNL     1     -12.262  10.828  70.981  1.00  0.00    -0.485 C  
BRANCH   8   9
HETATM    9  C   UNL     1     -11.861  10.556  69.538  1.00  0.00    -0.287 C  
BRANCH   9  10
HETATM   10  C   UNL     1     -11.256  11.796  68.863  1.00  0.00    -0.311 C  
BRANCH  10  11
HETATM   11  C   UNL     1     -10.365  11.482  67.653  1.00  0.00    -0.209 C  
BRANCH  11  12
HETATM   12  C   UNL     1      -8.934  11.858  67.943  1.00  0.00    -0.179 C  
HETATM   13  O   UNL     1      -8.199  11.276  68.726  1.00  0.00    -0.147 OA 
BRANCH  12  14
HETATM   14  O   UNL     1      -8.531  12.820  67.068  1.00  0.00    -0.193 OA 
BRANCH  14  15
HETATM   15  C   UNL     1      -8.679  14.158  67.558  1.00  0.00    -0.204 C  
BRANCH  15  16
HETATM   16  C   UNL     1      -7.258  14.690  67.779  1.00  0.00    -0.175 C  
BRANCH  16  17
HETATM   17  N   UNL     1      -7.201  16.075  68.217  1.00  0.00    -0.127 N  
HETATM   18  C   UNL     1      -6.551  17.024  67.466  1.00  0.00    -0.146 C  
HETATM   19  H   UNL     1      -7.648  16.345  69.093  1.00  0.00     0.000 HD 
HETATM   20  O   UNL     1      -5.896  16.759  66.463  1.00  0.00    -0.319 OA 
BRANCH  18  21
HETATM   21  C   UNL     1      -6.606  18.443  67.994  1.00  0.00    -0.210 C  
BRANCH  21  22
HETATM   22  N   UNL     1      -7.945  19.008  67.721  1.00  0.00    -0.259 NA 
HETATM   23  C   UNL     1      -8.295  19.321  66.447  1.00  0.00    -0.321 A  
HETATM   24  C   UNL     1      -9.539  19.874  66.173  1.00  0.00    -0.492 A  
HETATM   25  C   UNL     1     -10.434  20.088  67.211  1.00  0.00    -0.505 A  
HETATM   26  C   UNL     1     -10.069  19.747  68.507  1.00  0.00    -0.555 A  
HETATM   27  C   UNL     1      -8.811  19.205  68.739  1.00  0.00    -0.334 A  
ENDBRANCH  21  22
ENDBRANCH  18  21
ENDBRANCH  16  17
ENDBRANCH  15  16
ENDBRANCH  14  15
ENDBRANCH  12  14
ENDBRANCH  11  12
ENDBRANCH  10  11
ENDBRANCH   9  10
ENDBRANCH   8   9
ENDBRANCH   7   8
ENDBRANCH   6   7
ENDBRANCH   5   6
ENDBRANCH   4   5
ENDBRANCH   3   4
ENDBRANCH   2   3
TORSDOF 16
ENDMDL
MODEL      161
REMARK 921   NORMALIZED FREE ENERGY PREDICTED BY IDOCK:   -3.88 KCAL/MOL
REMARK 922        TOTAL FREE ENERGY PREDICTED BY IDOCK:   -9.59 KCAL/MOL
REMARK 923 INTER-LIGAND FREE ENERGY PREDICTED BY IDOCK:   -8.29 KCAL/MOL
REMARK 924 INTRA-LIGAND FREE ENERGY PREDICTED BY IDOCK:   -1.29 KCAL/MOL
REMARK 927      BINDING AFFINITY PREDICTED BY RF-SCORE:    0.00 PKD
ROOT
HETATM    1  C   UNL     1     -10.487  19.341  67.308  1.00  0.00    -0.566 C  
HETATM    2  C   UNL     1     -10.364  18.462  66.075  1.00  0.00    -0.397 C  
ENDROOT
BRANCH   2   3
HETATM    3  C   UNL     1      -9.482  17.246  66.354  1.00  0.00    -0.282 C  
BRANCH   3   4
HETATM    4  C   UNL     1     -10.189  16.248  67.266  1.00  0.00    -0.279 C  
BRANCH   4   5
HETATM    5  C   UNL     1     -10.458  14.936  66.530  1.00  0.00    -0.297 C  
BRANCH   5   6
HETATM    6  C   UNL     1     -11.695  14.249  67.092  1.00  0.00    -0.430 C  
BRANCH   6   7
HETATM    7  C   UNL     1     -12.655  13.825  65.983  1.00  0.00    -0.458 C  
BRANCH   7   8
HETATM    8  C   UNL     1     -12.235  14.474  64.667  1.00  0.00    -0.474 C  
BRANCH   8   9
HETATM    9  C   UNL     1     -12.115  13.454  63.544  1.00  0.00    -0.497 C  
BRANCH   9  10
HETATM   10  C   UNL     1     -11.630  12.088  64.054  1.00  0.00    -0.495 C  
BRANCH  10  11
HETATM   11  C   UNL     1     -10.104  11.922  64.051  1.00  0.00    -0.361 C  
BRANCH  11  12
HETATM   12  C   UNL     1      -9.732  10.492  63.751  1.00  0.00    -0.326 C  
HETATM   13  O   UNL     1      -9.189  10.107  62.727  1.00  0.00    -0.260 OA 
BRANCH  12  14
HETATM   14  O   UNL     1      -9.920   9.731  64.864  1.00  0.00    -0.252 OA 
BRANCH  14  15
HETATM   15  C   UNL     1      -8.799   8.908  65.209  1.00  0.00    -0.184 C  
BRANCH  15  16
HETATM   16  C   UNL     1      -9.238   8.075  66.418  1.00  0.00    -0.194 C  
BRANCH  16  17
HETATM   17  N   UNL     1      -9.790   8.856  67.513  1.00  0.00    -0.173 N  
HETATM   18  C   UNL     1     -10.385   8.241  68.587  1.00  0.00    -0.200 C  
HETATM   19  H   UNL     1      -9.734   9.874  67.483  1.00  0.00     0.000 HD 
HETATM   20  O   UNL     1     -10.590   7.032  68.644  1.00  0.00    -0.206 OA 
BRANCH  18  21
HETATM   21  C   UNL     1     -10.872   9.155  69.692  1.00  0.00    -0.197 C  
BRANCH  21  22
HETATM   22  N   UNL     1     -10.351   8.666  70.987  1.00  0.00    -0.205 NA 
HETATM   23  C   UNL     1      -9.024   8.761  71.257  1.00  0.00    -0.231 A  
HETATM   24  C   UNL     1      -8.512   8.287  72.457  1.00  0.00    -0.251 A  
HETATM   25  C   UNL     1      -9.372   7.732  73.393  1.00  0.00    -0.346 A  
HETATM   26  C   UNL     1     -10.730   7.657  73.111  1.00  0.00    -0.445 A  
HETATM   27  C   UNL     1     -11.200   8.134  71.894  1.00  0.00    -0.290 A  
ENDBRANCH  21  22
ENDBRANCH  18  21
ENDBRANCH  16  17
ENDBRANCH  15  16
ENDBRANCH  14  15
ENDBRANCH  12  14
ENDBRANCH  11  12
ENDBRANCH  10  11
ENDBRANCH   9  10
ENDBRANCH   8   9
ENDBRANCH   7   8
ENDBRANCH   6   7
ENDBRANCH   5   6
ENDBRANCH   4   5
ENDBRANCH   3   4
ENDBRANCH   2   3
TORSDOF 16
ENDMDL
MODEL      162
REMARK 921   NORMALIZED FREE ENERGY PREDICTED BY IDOCK:   -3.88 KCAL/MOL
REMARK 922        TOTAL FREE ENERGY PREDICTED BY IDOCK:   -9.58 KCAL/MOL
REMARK 923 INTER-LIGAND FREE ENERGY PREDICTED BY IDOCK:   -8.00 KCAL/MOL
REMARK 924 INTRA-LIGAND FREE ENERGY PREDICTED BY IDOCK:   -1.59 KCAL/MOL
REMARK 927      BINDING AFFINITY PREDICTED BY RF-SCORE:    0.00 PKD
ROOT
HETATM    1  C   UNL     1     -12.275  13.200  63.443  1.00  0.00    -0.521 C  
HETATM    2  C   UNL     1     -11.730  11.786  63.545  1.00  0.00    -0.485 C  
ENDROOT
BRANCH   2   3
HETATM    3  C   UNL     1     -10.203  11.781  63.508  1.00  0.00    -0.483 C  
BRANCH   3   4
HETATM    4  C   UNL     1      -9.651  10.363  63.619  1.00  0.00    -0.364 C  
BRANCH   4   5
HETATM    5  C   UNL     1      -8.528  10.297  64.653  1.00  0.00    -0.179 C  
BRANCH   5   6
HETATM    6  C   UNL     1      -8.882   9.322  65.769  1.00  0.00    -0.211 C  
BRANCH   6   7
HETATM    7  C   UNL     1     -10.300   9.551  66.285  1.00  0.00    -0.226 C  
BRANCH   7   8
HETATM    8  C   UNL     1     -10.276  10.589  67.404  1.00  0.00    -0.253 C  
BRANCH   8   9
HETATM    9  C   UNL     1     -11.484  11.513  67.346  1.00  0.00    -0.349 C  
BRANCH   9  10
HETATM   10  C   UNL     1     -11.089  12.961  67.016  1.00  0.00    -0.309 C  
BRANCH  10  11
HETATM   11  C   UNL     1     -10.236  13.641  68.095  1.00  0.00    -0.247 C  
BRANCH  11  12
HETATM   12  C   UNL     1     -10.337  15.141  67.976  1.00  0.00    -0.240 C  
HETATM   13  O   UNL     1     -11.359  15.792  68.129  1.00  0.00    -0.350 OA 
BRANCH  12  14
HETATM   14  O   UNL     1      -9.088  15.672  67.858  1.00  0.00    -0.184 OA 
BRANCH  14  15
HETATM   15  C   UNL     1      -8.038  14.805  68.303  1.00  0.00    -0.139 C  
BRANCH  15  16
HETATM   16  C   UNL     1      -6.776  15.671  68.383  1.00  0.00    -0.116 C  
BRANCH  16  17
HETATM   17  N   UNL     1      -6.993  17.074  68.071  1.00  0.00    -0.161 N  
HETATM   18  C   UNL     1      -6.350  18.060  68.779  1.00  0.00    -0.219 C  
HETATM   19  H   UNL     1      -7.631  17.329  67.317  1.00  0.00     0.000 HD 
HETATM   20  O   UNL     1      -5.659  17.840  69.768  1.00  0.00    -0.202 OA 
BRANCH  18  21
HETATM   21  C   UNL     1      -6.611  19.482  68.326  1.00  0.00    -0.261 C  
BRANCH  21  22
HETATM   22  N   UNL     1      -8.024  19.604  67.908  1.00  0.00    -0.294 NA 
HETATM   23  C   UNL     1      -8.320  19.916  66.620  1.00  0.00    -0.330 A  
HETATM   24  C   UNL     1      -9.639  20.057  66.214  1.00  0.00    -0.516 A  
HETATM   25  C   UNL     1     -10.660  19.857  67.132  1.00  0.00    -0.527 A  
HETATM   26  C   UNL     1     -10.344  19.522  68.442  1.00  0.00    -0.486 A  
HETATM   27  C   UNL     1      -9.010  19.400  68.809  1.00  0.00    -0.349 A  
ENDBRANCH  21  22
ENDBRANCH  18  21
ENDBRANCH  16  17
ENDBRANCH  15  16
ENDBRANCH  14  15
ENDBRANCH  12  14
ENDBRANCH  11  12
ENDBRANCH  10  11
ENDBRANCH   9  10
ENDBRANCH   8   9
ENDBRANCH   7   8
ENDBRANCH   6   7
ENDBRANCH   5   6
ENDBRANCH   4   5
ENDBRANCH   3   4
ENDBRANCH   2   3
TORSDOF 16
ENDMDL
MODEL      163
REMARK 921   NORMALIZED FREE ENERGY PREDICTED BY IDOCK:   -3.87 KCAL/MOL
REMARK 922        TOTAL FREE ENERGY PREDICTED BY IDOCK:   -9.57 KCAL/MOL
REMARK 923 INTER-LIGAND FREE ENERGY PREDICTED BY IDOCK:   -8.69 KCAL/MOL
REMARK 924 INTRA-LIGAND FREE ENERGY PREDICTED BY IDOCK:   -0.88 KCAL/MOL
REMARK 927      BINDING AFFINITY PREDICTED BY RF-SCORE:    0.00 PKD
ROOT
HETATM    1  C   UNL     1      -7.997   4.550  66.701  1.00  0.00    -0.102 C  
HETATM    2  C   UNL     1      -9.503   4.738  66.776  1.00  0.00    -0.163 C  
ENDROOT
BRANCH   2   3
HETATM    3  C   UNL     1      -9.958   4.955  68.217  1.00  0.00    -0.177 C  
BRANCH   3   4
HETATM    4  C   UNL     1     -10.820   6.207  68.343  1.00  0.00    -0.382 C  
BRANCH   4   5
HETATM    5  C   UNL     1     -10.029   7.350  68.978  1.00  0.00    -0.176 C  
BRANCH   5   6
HETATM    6  C   UNL     1     -10.591   7.692  70.352  1.00  0.00    -0.233 C  
BRANCH   6   7
HETATM    7  C   UNL     1     -11.883   6.931  70.637  1.00  0.00    -0.418 C  
BRANCH   7   8
HETATM    8  C   UNL     1     -12.516   7.461  71.921  1.00  0.00    -0.334 C  
BRANCH   8   9
HETATM    9  C   UNL     1     -12.079   8.887  72.222  1.00  0.00    -0.392 C  
BRANCH   9  10
HETATM   10  C   UNL     1     -13.109   9.921  71.742  1.00  0.00    -0.553 C  
BRANCH  10  11
HETATM   11  C   UNL     1     -12.503  11.095  70.961  1.00  0.00    -0.506 C  
BRANCH  11  12
HETATM   12  C   UNL     1     -13.059  12.403  71.467  1.00  0.00    -0.264 C  
HETATM   13  O   UNL     1     -13.773  12.531  72.448  1.00  0.00    -0.472 OA 
BRANCH  12  14
HETATM   14  O   UNL     1     -12.492  13.433  70.779  1.00  0.00    -0.354 OA 
BRANCH  14  15
HETATM   15  C   UNL     1     -12.425  14.662  71.513  1.00  0.00    -0.346 C  
BRANCH  15  16
HETATM   16  C   UNL     1     -11.326  15.497  70.846  1.00  0.00    -0.369 C  
BRANCH  16  17
HETATM   17  N   UNL     1     -10.618  14.809  69.779  1.00  0.00    -0.425 N  
HETATM   18  C   UNL     1     -10.413  15.416  68.564  1.00  0.00    -0.234 C  
HETATM   19  H   UNL     1     -10.268  13.864  69.934  1.00  0.00     0.000 HD 
HETATM   20  O   UNL     1     -10.899  16.502  68.262  1.00  0.00    -0.327 OA 
BRANCH  18  21
HETATM   21  C   UNL     1      -9.613  14.625  67.550  1.00  0.00    -0.206 C  
BRANCH  21  22
HETATM   22  N   UNL     1     -10.527  14.113  66.507  1.00  0.00    -0.277 NA 
HETATM   23  C   UNL     1     -11.848  13.967  66.783  1.00  0.00    -0.424 A  
HETATM   24  C   UNL     1     -12.719  13.467  65.824  1.00  0.00    -0.383 A  
HETATM   25  C   UNL     1     -12.231  13.135  64.568  1.00  0.00    -0.466 A  
HETATM   26  C   UNL     1     -10.881  13.306  64.294  1.00  0.00    -0.414 A  
HETATM   27  C   UNL     1     -10.043  13.801  65.285  1.00  0.00    -0.288 A  
ENDBRANCH  21  22
ENDBRANCH  18  21
ENDBRANCH  16  17
ENDBRANCH  15  16
ENDBRANCH  14  15
ENDBRANCH  12  14
ENDBRANCH  11  12
ENDBRANCH  10  11
ENDBRANCH   9  10
ENDBRANCH   8   9
ENDBRANCH   7   8
ENDBRANCH   6   7
ENDBRANCH   5   6
ENDBRANCH   4   5
ENDBRANCH   3   4
ENDBRANCH   2   3
TORSDOF 16
ENDMDL
MODEL      164
REMARK 921   NORMALIZED FREE ENERGY PREDICTED BY IDOCK:   -3.87 KCAL/MOL
REMARK 922        TOTAL FREE ENERGY PREDICTED BY IDOCK:   -9.57 KCAL/MOL
REMARK 923 INTER-LIGAND FREE ENERGY PREDICTED BY IDOCK:   -8.55 KCAL/MOL
REMARK 924 INTRA-LIGAND FREE ENERGY PREDICTED BY IDOCK:   -1.02 KCAL/MOL
REMARK 927      BINDING AFFINITY PREDICTED BY RF-SCORE:    0.00 PKD
ROOT
HETATM    1  C   UNL     1     -11.450  15.662  64.472  1.00  0.00    -0.304 C  
HETATM    2  C   UNL     1     -12.134  14.307  64.523  1.00  0.00    -0.499 C  
ENDROOT
BRANCH   2   3
HETATM    3  C   UNL     1     -11.109  13.177  64.605  1.00  0.00    -0.366 C  
BRANCH   3   4
HETATM    4  C   UNL     1     -11.312  12.163  63.483  1.00  0.00    -0.535 C  
BRANCH   4   5
HETATM    5  C   UNL     1     -10.043  11.342  63.257  1.00  0.00    -0.424 C  
BRANCH   5   6
HETATM    6  C   UNL     1      -9.842  10.345  64.391  1.00  0.00    -0.395 C  
BRANCH   6   7
HETATM    7  C   UNL     1      -8.404  10.359  64.903  1.00  0.00    -0.165 C  
BRANCH   7   8
HETATM    8  C   UNL     1      -7.843   8.939  64.894  1.00  0.00    -0.121 C  
BRANCH   8   9
HETATM    9  C   UNL     1      -8.660   8.002  65.771  1.00  0.00    -0.174 C  
BRANCH   9  10
HETATM   10  C   UNL     1      -8.603   8.401  67.254  1.00  0.00    -0.123 C  
BRANCH  10  11
HETATM   11  C   UNL     1      -9.796   7.907  68.084  1.00  0.00    -0.193 C  
BRANCH  11  12
HETATM   12  C   UNL     1     -10.501   9.071  68.734  1.00  0.00    -0.206 C  
HETATM   13  O   UNL     1     -10.684   9.201  69.935  1.00  0.00    -0.222 OA 
BRANCH  12  14
HETATM   14  O   UNL     1     -10.733  10.038  67.804  1.00  0.00    -0.243 OA 
BRANCH  14  15
HETATM   15  C   UNL     1     -11.672  11.038  68.219  1.00  0.00    -0.229 C  
BRANCH  15  16
HETATM   16  C   UNL     1     -10.840  12.234  68.692  1.00  0.00    -0.236 C  
BRANCH  16  17
HETATM   17  N   UNL     1     -11.622  13.414  69.022  1.00  0.00    -0.290 N  
HETATM   18  C   UNL     1     -11.087  14.672  68.892  1.00  0.00    -0.254 C  
HETATM   19  H   UNL     1     -12.581  13.306  69.354  1.00  0.00     0.000 HD 
HETATM   20  O   UNL     1      -9.911  14.880  68.609  1.00  0.00    -0.211 OA 
BRANCH  18  21
HETATM   21  C   UNL     1     -12.015  15.826  69.211  1.00  0.00    -0.289 C  
BRANCH  21  22
HETATM   22  N   UNL     1     -12.413  15.747  70.632  1.00  0.00    -0.407 NA 
HETATM   23  C   UNL     1     -13.575  15.133  70.972  1.00  0.00    -0.409 A  
HETATM   24  C   UNL     1     -13.977  15.068  72.299  1.00  0.00    -0.611 A  
HETATM   25  C   UNL     1     -13.170  15.620  73.284  1.00  0.00    -0.666 A  
HETATM   26  C   UNL     1     -11.976  16.230  72.924  1.00  0.00    -0.615 A  
HETATM   27  C   UNL     1     -11.616  16.282  71.583  1.00  0.00    -0.362 A  
ENDBRANCH  21  22
ENDBRANCH  18  21
ENDBRANCH  16  17
ENDBRANCH  15  16
ENDBRANCH  14  15
ENDBRANCH  12  14
ENDBRANCH  11  12
ENDBRANCH  10  11
ENDBRANCH   9  10
ENDBRANCH   8   9
ENDBRANCH   7   8
ENDBRANCH   6   7
ENDBRANCH   5   6
ENDBRANCH   4   5
ENDBRANCH   3   4
ENDBRANCH   2   3
TORSDOF 16
ENDMDL
MODEL      165
REMARK 921   NORMALIZED FREE ENERGY PREDICTED BY IDOCK:   -3.87 KCAL/MOL
REMARK 922        TOTAL FREE ENERGY PREDICTED BY IDOCK:   -9.57 KCAL/MOL
REMARK 923 INTER-LIGAND FREE ENERGY PREDICTED BY IDOCK:   -8.36 KCAL/MOL
REMARK 924 INTRA-LIGAND FREE ENERGY PREDICTED BY IDOCK:   -1.20 KCAL/MOL
REMARK 927      BINDING AFFINITY PREDICTED BY RF-SCORE:    0.00 PKD
ROOT
HETATM    1  C   UNL     1     -11.869  13.276  65.853  1.00  0.00    -0.436 C  
HETATM    2  C   UNL     1     -12.836  12.811  64.777  1.00  0.00    -0.374 C  
ENDROOT
BRANCH   2   3
HETATM    3  C   UNL     1     -12.086  12.220  63.584  1.00  0.00    -0.648 C  
BRANCH   3   4
HETATM    4  C   UNL     1     -10.585  12.158  63.850  1.00  0.00    -0.457 C  
BRANCH   4   5
HETATM    5  C   UNL     1     -10.026  10.782  63.490  1.00  0.00    -0.403 C  
BRANCH   5   6
HETATM    6  C   UNL     1      -9.467  10.091  64.727  1.00  0.00    -0.366 C  
BRANCH   6   7
HETATM    7  C   UNL     1      -8.310   9.160  64.375  1.00  0.00    -0.180 C  
BRANCH   7   8
HETATM    8  C   UNL     1      -7.215   9.951  63.664  1.00  0.00    -0.124 C  
BRANCH   8   9
HETATM    9  C   UNL     1      -6.028  10.223  64.577  1.00  0.00    -0.132 C  
BRANCH   9  10
HETATM   10  C   UNL     1      -6.016   9.295  65.801  1.00  0.00    -0.055 C  
BRANCH  10  11
HETATM   11  C   UNL     1      -6.076  10.030  67.147  1.00  0.00    -0.055 C  
BRANCH  11  12
HETATM   12  C   UNL     1      -7.192   9.477  67.998  1.00  0.00    -0.081 C  
HETATM   13  O   UNL     1      -7.581   8.320  67.982  1.00  0.00    -0.098 OA 
BRANCH  12  14
HETATM   14  O   UNL     1      -7.569  10.411  68.914  1.00  0.00    -0.087 OA 
BRANCH  14  15
HETATM   15  C   UNL     1      -8.060  11.630  68.342  1.00  0.00    -0.153 C  
BRANCH  15  16
HETATM   16  C   UNL     1      -9.576  11.456  68.204  1.00  0.00    -0.190 C  
BRANCH  16  17
HETATM   17  N   UNL     1     -10.308  11.580  69.453  1.00  0.00    -0.429 N  
HETATM   18  C   UNL     1     -11.652  11.302  69.512  1.00  0.00    -0.328 C  
HETATM   19  H   UNL     1      -9.818  11.878  70.297  1.00  0.00     0.000 HD 
HETATM   20  O   UNL     1     -12.333  11.050  68.523  1.00  0.00    -0.536 OA 
BRANCH  18  21
HETATM   21  C   UNL     1     -12.295  11.412  70.879  1.00  0.00    -0.381 C  
BRANCH  21  22
HETATM   22  N   UNL     1     -12.678  12.819  71.121  1.00  0.00    -0.328 NA 
HETATM   23  C   UNL     1     -12.231  13.791  70.285  1.00  0.00    -0.359 A  
HETATM   24  C   UNL     1     -12.562  15.120  70.509  1.00  0.00    -0.429 A  
HETATM   25  C   UNL     1     -13.373  15.450  71.585  1.00  0.00    -0.578 A  
HETATM   26  C   UNL     1     -13.837  14.444  72.422  1.00  0.00    -0.595 A  
HETATM   27  C   UNL     1     -13.475  13.127  72.168  1.00  0.00    -0.560 A  
ENDBRANCH  21  22
ENDBRANCH  18  21
ENDBRANCH  16  17
ENDBRANCH  15  16
ENDBRANCH  14  15
ENDBRANCH  12  14
ENDBRANCH  11  12
ENDBRANCH  10  11
ENDBRANCH   9  10
ENDBRANCH   8   9
ENDBRANCH   7   8
ENDBRANCH   6   7
ENDBRANCH   5   6
ENDBRANCH   4   5
ENDBRANCH   3   4
ENDBRANCH   2   3
TORSDOF 16
ENDMDL
MODEL      166
REMARK 921   NORMALIZED FREE ENERGY PREDICTED BY IDOCK:   -3.87 KCAL/MOL
REMARK 922        TOTAL FREE ENERGY PREDICTED BY IDOCK:   -9.56 KCAL/MOL
REMARK 923 INTER-LIGAND FREE ENERGY PREDICTED BY IDOCK:   -7.97 KCAL/MOL
REMARK 924 INTRA-LIGAND FREE ENERGY PREDICTED BY IDOCK:   -1.59 KCAL/MOL
REMARK 927      BINDING AFFINITY PREDICTED BY RF-SCORE:    0.00 PKD
ROOT
HETATM    1  C   UNL     1     -10.861   6.956  66.935  1.00  0.00    -0.380 C  
HETATM    2  C   UNL     1     -10.657   7.017  68.440  1.00  0.00    -0.240 C  
ENDROOT
BRANCH   2   3
HETATM    3  C   UNL     1      -9.182   7.204  68.787  1.00  0.00    -0.136 C  
BRANCH   3   4
HETATM    4  C   UNL     1      -8.874   6.688  70.190  1.00  0.00    -0.141 C  
BRANCH   4   5
HETATM    5  C   UNL     1      -8.681   5.172  70.180  1.00  0.00    -0.128 C  
BRANCH   5   6
HETATM    6  C   UNL     1      -9.898   4.472  70.769  1.00  0.00    -0.280 C  
BRANCH   6   7
HETATM    7  C   UNL     1      -9.638   4.002  72.198  1.00  0.00    -0.210 C  
BRANCH   7   8
HETATM    8  C   UNL     1     -10.126   5.062  73.182  1.00  0.00    -0.193 C  
BRANCH   8   9
HETATM    9  C   UNL     1     -11.470   5.644  72.769  1.00  0.00    -0.328 C  
BRANCH   9  10
HETATM   10  C   UNL     1     -11.428   7.176  72.663  1.00  0.00    -0.274 C  
BRANCH  10  11
HETATM   11  C   UNL     1     -12.250   7.749  71.500  1.00  0.00    -0.344 C  
BRANCH  11  12
HETATM   12  C   UNL     1     -12.416   9.239  71.658  1.00  0.00    -0.368 C  
HETATM   13  O   UNL     1     -13.243   9.783  72.374  1.00  0.00    -0.404 OA 
BRANCH  12  14
HETATM   14  O   UNL     1     -11.388   9.879  71.034  1.00  0.00    -0.342 OA 
BRANCH  14  15
HETATM   15  C   UNL     1     -11.707  10.358  69.721  1.00  0.00    -0.237 C  
BRANCH  15  16
HETATM   16  C   UNL     1     -11.665  11.888  69.805  1.00  0.00    -0.331 C  
BRANCH  16  17
HETATM   17  N   UNL     1     -12.141  12.565  68.610  1.00  0.00    -0.197 N  
HETATM   18  C   UNL     1     -11.448  13.625  68.078  1.00  0.00    -0.310 C  
HETATM   19  H   UNL     1     -13.001  12.249  68.161  1.00  0.00     0.000 HD 
HETATM   20  O   UNL     1     -10.472  14.134  68.621  1.00  0.00    -0.240 OA 
BRANCH  18  21
HETATM   21  C   UNL     1     -12.010  14.213  66.800  1.00  0.00    -0.447 C  
BRANCH  21  22
HETATM   22  N   UNL     1     -11.687  13.314  65.672  1.00  0.00    -0.340 NA 
HETATM   23  C   UNL     1     -12.646  13.003  64.764  1.00  0.00    -0.397 A  
HETATM   24  C   UNL     1     -12.369  12.142  63.711  1.00  0.00    -0.635 A  
HETATM   25  C   UNL     1     -11.092  11.615  63.580  1.00  0.00    -0.476 A  
HETATM   26  C   UNL     1     -10.116  11.955  64.506  1.00  0.00    -0.302 A  
HETATM   27  C   UNL     1     -10.437  12.813  65.550  1.00  0.00    -0.287 A  
ENDBRANCH  21  22
ENDBRANCH  18  21
ENDBRANCH  16  17
ENDBRANCH  15  16
ENDBRANCH  14  15
ENDBRANCH  12  14
ENDBRANCH  11  12
ENDBRANCH  10  11
ENDBRANCH   9  10
ENDBRANCH   8   9
ENDBRANCH   7   8
ENDBRANCH   6   7
ENDBRANCH   5   6
ENDBRANCH   4   5
ENDBRANCH   3   4
ENDBRANCH   2   3
TORSDOF 16
ENDMDL
MODEL      167
REMARK 921   NORMALIZED FREE ENERGY PREDICTED BY IDOCK:   -3.86 KCAL/MOL
REMARK 922        TOTAL FREE ENERGY PREDICTED BY IDOCK:   -9.55 KCAL/MOL
REMARK 923 INTER-LIGAND FREE ENERGY PREDICTED BY IDOCK:   -8.34 KCAL/MOL
REMARK 924 INTRA-LIGAND FREE ENERGY PREDICTED BY IDOCK:   -1.21 KCAL/MOL
REMARK 927      BINDING AFFINITY PREDICTED BY RF-SCORE:    0.00 PKD
ROOT
HETATM    1  C   UNL     1      -8.033   6.954  72.731  1.00  0.00    -0.108 C  
HETATM    2  C   UNL     1      -9.171   7.604  73.498  1.00  0.00    -0.331 C  
ENDROOT
BRANCH   2   3
HETATM    3  C   UNL     1     -10.082   8.396  72.562  1.00  0.00    -0.362 C  
BRANCH   3   4
HETATM    4  C   UNL     1     -11.534   7.944  72.690  1.00  0.00    -0.454 C  
BRANCH   4   5
HETATM    5  C   UNL     1     -11.736   6.576  72.041  1.00  0.00    -0.367 C  
BRANCH   5   6
HETATM    6  C   UNL     1     -11.952   6.721  70.540  1.00  0.00    -0.385 C  
BRANCH   6   7
HETATM    7  C   UNL     1     -10.986   5.846  69.746  1.00  0.00    -0.452 C  
BRANCH   7   8
HETATM    8  C   UNL     1     -11.035   6.237  68.271  1.00  0.00    -0.408 C  
BRANCH   8   9
HETATM    9  C   UNL     1     -10.036   5.444  67.440  1.00  0.00    -0.223 C  
BRANCH   9  10
HETATM   10  C   UNL     1      -8.609   5.998  67.569  1.00  0.00    -0.106 C  
BRANCH  10  11
HETATM   11  C   UNL     1      -8.461   7.462  67.130  1.00  0.00    -0.118 C  
BRANCH  11  12
HETATM   12  C   UNL     1      -8.117   8.333  68.311  1.00  0.00    -0.124 C  
HETATM   13  O   UNL     1      -7.248   8.089  69.135  1.00  0.00    -0.073 OA 
BRANCH  12  14
HETATM   14  O   UNL     1      -8.786   9.515  68.215  1.00  0.00    -0.124 OA 
BRANCH  14  15
HETATM   15  C   UNL     1      -9.073  10.131  69.476  1.00  0.00    -0.195 C  
BRANCH  15  16
HETATM   16  C   UNL     1     -10.587  10.366  69.502  1.00  0.00    -0.246 C  
BRANCH  16  17
HETATM   17  N   UNL     1     -10.985  11.733  69.210  1.00  0.00    -0.383 N  
HETATM   18  C   UNL     1     -11.899  12.385  70.002  1.00  0.00    -0.288 C  
HETATM   19  H   UNL     1     -10.580  12.215  68.407  1.00  0.00     0.000 HD 
HETATM   20  O   UNL     1     -12.512  11.839  70.914  1.00  0.00    -0.372 OA 
BRANCH  18  21
HETATM   21  C   UNL     1     -12.192  13.824  69.634  1.00  0.00    -0.305 C  
BRANCH  21  22
HETATM   22  N   UNL     1     -12.584  14.564  70.852  1.00  0.00    -0.323 NA 
HETATM   23  C   UNL     1     -11.626  15.054  71.679  1.00  0.00    -0.354 A  
HETATM   24  C   UNL     1     -11.975  15.731  72.840  1.00  0.00    -0.599 A  
HETATM   25  C   UNL     1     -13.315  15.922  73.141  1.00  0.00    -0.681 A  
HETATM   26  C   UNL     1     -14.285  15.430  72.278  1.00  0.00    -0.639 A  
HETATM   27  C   UNL     1     -13.894  14.750  71.132  1.00  0.00    -0.322 A  
ENDBRANCH  21  22
ENDBRANCH  18  21
ENDBRANCH  16  17
ENDBRANCH  15  16
ENDBRANCH  14  15
ENDBRANCH  12  14
ENDBRANCH  11  12
ENDBRANCH  10  11
ENDBRANCH   9  10
ENDBRANCH   8   9
ENDBRANCH   7   8
ENDBRANCH   6   7
ENDBRANCH   5   6
ENDBRANCH   4   5
ENDBRANCH   3   4
ENDBRANCH   2   3
TORSDOF 16
ENDMDL
MODEL      168
REMARK 921   NORMALIZED FREE ENERGY PREDICTED BY IDOCK:   -3.85 KCAL/MOL
REMARK 922        TOTAL FREE ENERGY PREDICTED BY IDOCK:   -9.54 KCAL/MOL
REMARK 923 INTER-LIGAND FREE ENERGY PREDICTED BY IDOCK:   -7.89 KCAL/MOL
REMARK 924 INTRA-LIGAND FREE ENERGY PREDICTED BY IDOCK:   -1.64 KCAL/MOL
REMARK 927      BINDING AFFINITY PREDICTED BY RF-SCORE:    0.00 PKD
ROOT
HETATM    1  C   UNL     1      -6.949  13.201  68.765  1.00  0.00    -0.103 C  
HETATM    2  C   UNL     1      -5.715  14.084  68.835  1.00  0.00    -0.082 C  
ENDROOT
BRANCH   2   3
HETATM    3  C   UNL     1      -5.949  15.282  69.752  1.00  0.00    -0.134 C  
BRANCH   3   4
HETATM    4  C   UNL     1      -7.075  16.168  69.229  1.00  0.00    -0.220 C  
BRANCH   4   5
HETATM    5  C   UNL     1      -6.662  17.639  69.247  1.00  0.00    -0.221 C  
BRANCH   5   6
HETATM    6  C   UNL     1      -6.306  18.113  67.844  1.00  0.00    -0.182 C  
BRANCH   6   7
HETATM    7  C   UNL     1      -6.966  17.247  66.774  1.00  0.00    -0.249 C  
BRANCH   7   8
HETATM    8  C   UNL     1      -8.046  18.053  66.057  1.00  0.00    -0.124 C  
BRANCH   8   9
HETATM    9  C   UNL     1      -7.935  19.541  66.356  1.00  0.00    -0.323 C  
BRANCH   9  10
HETATM   10  C   UNL     1      -9.296  20.163  66.707  1.00  0.00    -0.513 C  
BRANCH  10  11
HETATM   11  C   UNL     1     -10.308  19.170  67.294  1.00  0.00    -0.523 C  
BRANCH  11  12
HETATM   12  C   UNL     1     -10.023  18.933  68.756  1.00  0.00    -0.408 C  
HETATM   13  O   UNL     1      -9.800  19.808  69.579  1.00  0.00    -0.311 OA 
BRANCH  12  14
HETATM   14  O   UNL     1     -10.238  17.622  69.055  1.00  0.00    -0.364 OA 
BRANCH  14  15
HETATM   15  C   UNL     1     -10.936  16.895  68.036  1.00  0.00    -0.271 C  
BRANCH  15  16
HETATM   16  C   UNL     1     -11.491  15.638  68.713  1.00  0.00    -0.376 C  
BRANCH  16  17
HETATM   17  N   UNL     1     -12.084  14.678  67.797  1.00  0.00    -0.587 N  
HETATM   18  C   UNL     1     -11.309  14.006  66.883  1.00  0.00    -0.329 C  
HETATM   19  H   UNL     1     -13.088  14.500  67.834  1.00  0.00     0.000 HD 
HETATM   20  O   UNL     1     -10.119  14.246  66.701  1.00  0.00    -0.261 OA 
BRANCH  18  21
HETATM   21  C   UNL     1     -12.027  12.989  66.021  1.00  0.00    -0.440 C  
BRANCH  21  22
HETATM   22  N   UNL     1     -11.267  11.722  66.035  1.00  0.00    -0.318 NA 
HETATM   23  C   UNL     1     -10.629  11.307  64.911  1.00  0.00    -0.300 A  
HETATM   24  C   UNL     1      -9.929  10.109  64.898  1.00  0.00    -0.358 A  
HETATM   25  C   UNL     1      -9.868   9.342  66.053  1.00  0.00    -0.366 A  
HETATM   26  C   UNL     1     -10.511   9.786  67.201  1.00  0.00    -0.316 A  
HETATM   27  C   UNL     1     -11.208  10.987  67.168  1.00  0.00    -0.217 A  
ENDBRANCH  21  22
ENDBRANCH  18  21
ENDBRANCH  16  17
ENDBRANCH  15  16
ENDBRANCH  14  15
ENDBRANCH  12  14
ENDBRANCH  11  12
ENDBRANCH  10  11
ENDBRANCH   9  10
ENDBRANCH   8   9
ENDBRANCH   7   8
ENDBRANCH   6   7
ENDBRANCH   5   6
ENDBRANCH   4   5
ENDBRANCH   3   4
ENDBRANCH   2   3
TORSDOF 16
ENDMDL
MODEL      169
REMARK 921   NORMALIZED FREE ENERGY PREDICTED BY IDOCK:   -3.85 KCAL/MOL
REMARK 922        TOTAL FREE ENERGY PREDICTED BY IDOCK:   -9.53 KCAL/MOL
REMARK 923 INTER-LIGAND FREE ENERGY PREDICTED BY IDOCK:   -7.77 KCAL/MOL
REMARK 924 INTRA-LIGAND FREE ENERGY PREDICTED BY IDOCK:   -1.75 KCAL/MOL
REMARK 927      BINDING AFFINITY PREDICTED BY RF-SCORE:    0.00 PKD
ROOT
HETATM    1  C   UNL     1     -12.893  15.702  71.777  1.00  0.00    -0.530 C  
HETATM    2  C   UNL     1     -13.546  14.339  71.923  1.00  0.00    -0.501 C  
ENDROOT
BRANCH   2   3
HETATM    3  C   UNL     1     -12.671  13.243  71.316  1.00  0.00    -0.411 C  
BRANCH   3   4
HETATM    4  C   UNL     1     -12.138  13.656  69.947  1.00  0.00    -0.406 C  
BRANCH   4   5
HETATM    5  C   UNL     1     -11.573  12.450  69.198  1.00  0.00    -0.369 C  
BRANCH   5   6
HETATM    6  C   UNL     1     -11.832  12.577  67.703  1.00  0.00    -0.381 C  
BRANCH   6   7
HETATM    7  C   UNL     1     -12.032  14.032  67.289  1.00  0.00    -0.448 C  
BRANCH   7   8
HETATM    8  C   UNL     1     -11.995  14.141  65.767  1.00  0.00    -0.410 C  
BRANCH   8   9
HETATM    9  C   UNL     1     -11.074  15.259  65.300  1.00  0.00    -0.382 C  
BRANCH   9  10
HETATM   10  C   UNL     1     -10.286  15.881  66.463  1.00  0.00    -0.297 C  
BRANCH  10  11
HETATM   11  C   UNL     1      -8.773  15.630  66.403  1.00  0.00    -0.354 C  
BRANCH  11  12
HETATM   12  C   UNL     1      -8.404  14.437  67.249  1.00  0.00    -0.209 C  
HETATM   13  O   UNL     1      -8.707  13.280  67.003  1.00  0.00    -0.212 OA 
BRANCH  12  14
HETATM   14  O   UNL     1      -7.531  14.822  68.220  1.00  0.00    -0.103 OA 
BRANCH  14  15
HETATM   15  C   UNL     1      -6.342  14.025  68.289  1.00  0.00    -0.114 C  
BRANCH  15  16
HETATM   16  C   UNL     1      -6.501  13.128  69.521  1.00  0.00    -0.074 C  
BRANCH  16  17
HETATM   17  N   UNL     1      -6.975  11.786  69.226  1.00  0.00    -0.232 N  
HETATM   18  C   UNL     1      -6.761  10.754  70.107  1.00  0.00    -0.112 C  
HETATM   19  H   UNL     1      -7.474  11.609  68.354  1.00  0.00     0.000 HD 
HETATM   20  O   UNL     1      -6.075  10.862  71.118  1.00  0.00    -0.356 OA 
BRANCH  18  21
HETATM   21  C   UNL     1      -7.351   9.414  69.719  1.00  0.00    -0.083 C  
BRANCH  21  22
HETATM   22  N   UNL     1      -8.536   9.147  70.561  1.00  0.00    -0.186 NA 
HETATM   23  C   UNL     1      -9.735   9.689  70.227  1.00  0.00    -0.259 A  
HETATM   24  C   UNL     1     -10.854   9.468  71.018  1.00  0.00    -0.423 A  
HETATM   25  C   UNL     1     -10.744   8.669  72.146  1.00  0.00    -0.417 A  
HETATM   26  C   UNL     1      -9.516   8.106  72.467  1.00  0.00    -0.339 A  
HETATM   27  C   UNL     1      -8.418   8.360  71.654  1.00  0.00    -0.163 A  
ENDBRANCH  21  22
ENDBRANCH  18  21
ENDBRANCH  16  17
ENDBRANCH  15  16
ENDBRANCH  14  15
ENDBRANCH  12  14
ENDBRANCH  11  12
ENDBRANCH  10  11
ENDBRANCH   9  10
ENDBRANCH   8   9
ENDBRANCH   7   8
ENDBRANCH   6   7
ENDBRANCH   5   6
ENDBRANCH   4   5
ENDBRANCH   3   4
ENDBRANCH   2   3
TORSDOF 16
ENDMDL
MODEL      170
REMARK 921   NORMALIZED FREE ENERGY PREDICTED BY IDOCK:   -3.83 KCAL/MOL
REMARK 922        TOTAL FREE ENERGY PREDICTED BY IDOCK:   -9.50 KCAL/MOL
REMARK 923 INTER-LIGAND FREE ENERGY PREDICTED BY IDOCK:   -7.83 KCAL/MOL
REMARK 924 INTRA-LIGAND FREE ENERGY PREDICTED BY IDOCK:   -1.67 KCAL/MOL
REMARK 927      BINDING AFFINITY PREDICTED BY RF-SCORE:    0.00 PKD
ROOT
HETATM    1  C   UNL     1     -10.722  19.673  66.662  1.00  0.00    -0.552 C  
HETATM    2  C   UNL     1     -10.239  18.264  66.363  1.00  0.00    -0.417 C  
ENDROOT
BRANCH   2   3
HETATM    3  C   UNL     1      -9.399  17.717  67.516  1.00  0.00    -0.248 C  
BRANCH   3   4
HETATM    4  C   UNL     1     -10.269  17.387  68.726  1.00  0.00    -0.361 C  
BRANCH   4   5
HETATM    5  C   UNL     1     -11.411  16.450  68.334  1.00  0.00    -0.268 C  
BRANCH   5   6
HETATM    6  C   UNL     1     -11.446  15.235  69.253  1.00  0.00    -0.334 C  
BRANCH   6   7
HETATM    7  C   UNL     1     -11.878  13.977  68.504  1.00  0.00    -0.399 C  
BRANCH   7   8
HETATM    8  C   UNL     1     -11.970  14.277  67.010  1.00  0.00    -0.463 C  
BRANCH   8   9
HETATM    9  C   UNL     1     -11.679  13.044  66.166  1.00  0.00    -0.445 C  
BRANCH   9  10
HETATM   10  C   UNL     1     -10.230  13.024  65.654  1.00  0.00    -0.296 C  
BRANCH  10  11
HETATM   11  C   UNL     1      -9.390  11.857  66.191  1.00  0.00    -0.228 C  
BRANCH  11  12
HETATM   12  C   UNL     1      -8.317  12.366  67.120  1.00  0.00    -0.181 C  
HETATM   13  O   UNL     1      -8.301  13.474  67.636  1.00  0.00    -0.153 OA 
BRANCH  12  14
HETATM   14  O   UNL     1      -7.475  11.346  67.445  1.00  0.00    -0.106 OA 
BRANCH  14  15
HETATM   15  C   UNL     1      -7.243  11.202  68.851  1.00  0.00    -0.106 C  
BRANCH  15  16
HETATM   16  C   UNL     1      -7.056   9.702  69.100  1.00  0.00    -0.062 C  
BRANCH  16  17
HETATM   17  N   UNL     1      -8.297   8.952  69.197  1.00  0.00    -0.121 N  
HETATM   18  C   UNL     1      -8.893   8.732  70.415  1.00  0.00    -0.168 C  
HETATM   19  H   UNL     1      -8.732   8.585  68.351  1.00  0.00     0.000 HD 
HETATM   20  O   UNL     1      -8.377   9.042  71.485  1.00  0.00    -0.304 OA 
BRANCH  18  21
HETATM   21  C   UNL     1     -10.212   7.989  70.387  1.00  0.00    -0.201 C  
BRANCH  21  22
HETATM   22  N   UNL     1     -11.281   8.882  70.882  1.00  0.00    -0.266 NA 
HETATM   23  C   UNL     1     -11.447  10.107  70.321  1.00  0.00    -0.306 A  
HETATM   24  C   UNL     1     -12.430  10.969  70.788  1.00  0.00    -0.491 A  
HETATM   25  C   UNL     1     -13.259  10.561  71.823  1.00  0.00    -0.522 A  
HETATM   26  C   UNL     1     -13.089   9.299  72.376  1.00  0.00    -0.481 A  
HETATM   27  C   UNL     1     -12.087   8.471  71.886  1.00  0.00    -0.349 A  
ENDBRANCH  21  22
ENDBRANCH  18  21
ENDBRANCH  16  17
ENDBRANCH  15  16
ENDBRANCH  14  15
ENDBRANCH  12  14
ENDBRANCH  11  12
ENDBRANCH  10  11
ENDBRANCH   9  10
ENDBRANCH   8   9
ENDBRANCH   7   8
ENDBRANCH   6   7
ENDBRANCH   5   6
ENDBRANCH   4   5
ENDBRANCH   3   4
ENDBRANCH   2   3
TORSDOF 16
ENDMDL
MODEL      171
REMARK 921   NORMALIZED FREE ENERGY PREDICTED BY IDOCK:   -3.82 KCAL/MOL
REMARK 922        TOTAL FREE ENERGY PREDICTED BY IDOCK:   -9.48 KCAL/MOL
REMARK 923 INTER-LIGAND FREE ENERGY PREDICTED BY IDOCK:   -8.16 KCAL/MOL
REMARK 924 INTRA-LIGAND FREE ENERGY PREDICTED BY IDOCK:   -1.33 KCAL/MOL
REMARK 927      BINDING AFFINITY PREDICTED BY RF-SCORE:    0.00 PKD
ROOT
HETATM    1  C   UNL     1     -11.129   6.562  67.329  1.00  0.00    -0.429 C  
HETATM    2  C   UNL     1     -10.242   5.393  66.939  1.00  0.00    -0.279 C  
ENDROOT
BRANCH   2   3
HETATM    3  C   UNL     1      -9.084   5.230  67.921  1.00  0.00    -0.117 C  
BRANCH   3   4
HETATM    4  C   UNL     1      -9.359   4.109  68.920  1.00  0.00    -0.228 C  
BRANCH   4   5
HETATM    5  C   UNL     1      -9.800   4.679  70.268  1.00  0.00    -0.314 C  
BRANCH   5   6
HETATM    6  C   UNL     1      -9.203   6.064  70.486  1.00  0.00    -0.168 C  
BRANCH   6   7
HETATM    7  C   UNL     1     -10.238   7.042  71.034  1.00  0.00    -0.209 C  
BRANCH   7   8
HETATM    8  C   UNL     1     -11.550   6.306  71.293  1.00  0.00    -0.336 C  
BRANCH   8   9
HETATM    9  C   UNL     1     -12.707   7.271  71.512  1.00  0.00    -0.422 C  
BRANCH   9  10
HETATM   10  C   UNL     1     -12.236   8.620  72.076  1.00  0.00    -0.439 C  
BRANCH  10  11
HETATM   11  C   UNL     1     -13.375   9.585  72.432  1.00  0.00    -0.469 C  
BRANCH  11  12
HETATM   12  C   UNL     1     -13.227  10.877  71.669  1.00  0.00    -0.367 C  
HETATM   13  O   UNL     1     -13.315  11.994  72.155  1.00  0.00    -0.510 OA 
BRANCH  12  14
HETATM   14  O   UNL     1     -12.796  10.611  70.405  1.00  0.00    -0.322 OA 
BRANCH  14  15
HETATM   15  C   UNL     1     -12.143  11.714  69.764  1.00  0.00    -0.289 C  
BRANCH  15  16
HETATM   16  C   UNL     1     -11.473  11.141  68.510  1.00  0.00    -0.302 C  
BRANCH  16  17
HETATM   17  N   UNL     1     -11.529  12.016  67.350  1.00  0.00    -0.328 N  
HETATM   18  C   UNL     1     -10.703  11.810  66.273  1.00  0.00    -0.270 C  
HETATM   19  H   UNL     1     -12.191  12.792  67.337  1.00  0.00     0.000 HD 
HETATM   20  O   UNL     1      -9.807  10.972  66.260  1.00  0.00    -0.202 OA 
BRANCH  18  21
HETATM   21  C   UNL     1     -10.891  12.750  65.100  1.00  0.00    -0.291 C  
BRANCH  21  22
HETATM   22  N   UNL     1     -10.442  14.104  65.489  1.00  0.00    -0.321 NA 
HETATM   23  C   UNL     1      -9.351  14.248  66.284  1.00  0.00    -0.208 A  
HETATM   24  C   UNL     1      -8.927  15.509  66.679  1.00  0.00    -0.320 A  
HETATM   25  C   UNL     1      -9.617  16.629  66.238  1.00  0.00    -0.325 A  
HETATM   26  C   UNL     1     -10.721  16.468  65.411  1.00  0.00    -0.273 A  
HETATM   27  C   UNL     1     -11.118  15.188  65.047  1.00  0.00    -0.419 A  
ENDBRANCH  21  22
ENDBRANCH  18  21
ENDBRANCH  16  17
ENDBRANCH  15  16
ENDBRANCH  14  15
ENDBRANCH  12  14
ENDBRANCH  11  12
ENDBRANCH  10  11
ENDBRANCH   9  10
ENDBRANCH   8   9
ENDBRANCH   7   8
ENDBRANCH   6   7
ENDBRANCH   5   6
ENDBRANCH   4   5
ENDBRANCH   3   4
ENDBRANCH   2   3
TORSDOF 16
ENDMDL
MODEL      172
REMARK 921   NORMALIZED FREE ENERGY PREDICTED BY IDOCK:   -3.82 KCAL/MOL
REMARK 922        TOTAL FREE ENERGY PREDICTED BY IDOCK:   -9.48 KCAL/MOL
REMARK 923 INTER-LIGAND FREE ENERGY PREDICTED BY IDOCK:   -8.65 KCAL/MOL
REMARK 924 INTRA-LIGAND FREE ENERGY PREDICTED BY IDOCK:   -0.83 KCAL/MOL
REMARK 927      BINDING AFFINITY PREDICTED BY RF-SCORE:    0.00 PKD
ROOT
HETATM    1  C   UNL     1     -12.402  15.582  74.563  1.00  0.00    -0.756 C  
HETATM    2  C   UNL     1     -12.604  16.048  73.131  1.00  0.00    -0.625 C  
ENDROOT
BRANCH   2   3
HETATM    3  C   UNL     1     -13.913  15.509  72.558  1.00  0.00    -0.646 C  
BRANCH   3   4
HETATM    4  C   UNL     1     -13.781  14.042  72.160  1.00  0.00    -0.603 C  
BRANCH   4   5
HETATM    5  C   UNL     1     -12.429  13.778  71.498  1.00  0.00    -0.364 C  
BRANCH   5   6
HETATM    6  C   UNL     1     -12.251  14.664  70.272  1.00  0.00    -0.389 C  
BRANCH   6   7
HETATM    7  C   UNL     1     -10.813  15.159  70.141  1.00  0.00    -0.265 C  
BRANCH   7   8
HETATM    8  C   UNL     1     -10.410  15.178  68.669  1.00  0.00    -0.232 C  
BRANCH   8   9
HETATM    9  C   UNL     1     -11.623  15.149  67.749  1.00  0.00    -0.303 C  
BRANCH   9  10
HETATM   10  C   UNL     1     -11.461  14.128  66.612  1.00  0.00    -0.378 C  
BRANCH  10  11
HETATM   11  C   UNL     1     -12.607  14.137  65.591  1.00  0.00    -0.495 C  
BRANCH  11  12
HETATM   12  C   UNL     1     -12.156  13.522  64.290  1.00  0.00    -0.431 C  
HETATM   13  O   UNL     1     -12.422  13.954  63.179  1.00  0.00    -0.766 OA 
BRANCH  12  14
HETATM   14  O   UNL     1     -11.257  12.531  64.544  1.00  0.00    -0.299 OA 
BRANCH  14  15
HETATM   15  C   UNL     1     -11.152  11.553  63.502  1.00  0.00    -0.348 C  
BRANCH  15  16
HETATM   16  C   UNL     1      -9.654  11.298  63.306  1.00  0.00    -0.357 C  
BRANCH  16  17
HETATM   17  N   UNL     1      -8.852  11.501  64.501  1.00  0.00    -0.313 N  
HETATM   18  C   UNL     1      -8.163  10.459  65.072  1.00  0.00    -0.152 C  
HETATM   19  H   UNL     1      -8.799  12.429  64.921  1.00  0.00     0.000 HD 
HETATM   20  O   UNL     1      -8.265   9.295  64.695  1.00  0.00    -0.130 OA 
BRANCH  18  21
HETATM   21  C   UNL     1      -7.317  10.802  66.280  1.00  0.00    -0.138 C  
BRANCH  21  22
HETATM   22  N   UNL     1      -7.801  10.030  67.444  1.00  0.00    -0.099 NA 
HETATM   23  C   UNL     1      -6.907   9.454  68.288  1.00  0.00    -0.063 A  
HETATM   24  C   UNL     1      -7.342   8.706  69.373  1.00  0.00    -0.072 A  
HETATM   25  C   UNL     1      -8.703   8.566  69.603  1.00  0.00    -0.133 A  
HETATM   26  C   UNL     1      -9.606   9.175  68.742  1.00  0.00    -0.161 A  
HETATM   27  C   UNL     1      -9.129   9.907  67.662  1.00  0.00    -0.131 A  
ENDBRANCH  21  22
ENDBRANCH  18  21
ENDBRANCH  16  17
ENDBRANCH  15  16
ENDBRANCH  14  15
ENDBRANCH  12  14
ENDBRANCH  11  12
ENDBRANCH  10  11
ENDBRANCH   9  10
ENDBRANCH   8   9
ENDBRANCH   7   8
ENDBRANCH   6   7
ENDBRANCH   5   6
ENDBRANCH   4   5
ENDBRANCH   3   4
ENDBRANCH   2   3
TORSDOF 16
ENDMDL
MODEL      173
REMARK 921   NORMALIZED FREE ENERGY PREDICTED BY IDOCK:   -3.82 KCAL/MOL
REMARK 922        TOTAL FREE ENERGY PREDICTED BY IDOCK:   -9.47 KCAL/MOL
REMARK 923 INTER-LIGAND FREE ENERGY PREDICTED BY IDOCK:   -7.44 KCAL/MOL
REMARK 924 INTRA-LIGAND FREE ENERGY PREDICTED BY IDOCK:   -2.04 KCAL/MOL
REMARK 927      BINDING AFFINITY PREDICTED BY RF-SCORE:    0.00 PKD
ROOT
HETATM    1  C   UNL     1      -9.425   9.108  70.845  1.00  0.00    -0.343 C  
HETATM    2  C   UNL     1      -8.253   8.593  71.663  1.00  0.00    -0.199 C  
ENDROOT
BRANCH   2   3
HETATM    3  C   UNL     1      -8.699   8.184  73.065  1.00  0.00    -0.309 C  
BRANCH   3   4
HETATM    4  C   UNL     1     -10.202   7.923  73.113  1.00  0.00    -0.358 C  
BRANCH   4   5
HETATM    5  C   UNL     1     -10.492   6.521  73.648  1.00  0.00    -0.330 C  
BRANCH   5   6
HETATM    6  C   UNL     1     -11.168   5.669  72.581  1.00  0.00    -0.350 C  
BRANCH   6   7
HETATM    7  C   UNL     1     -12.011   6.518  71.634  1.00  0.00    -0.387 C  
BRANCH   7   8
HETATM    8  C   UNL     1     -11.508   6.343  70.204  1.00  0.00    -0.484 C  
BRANCH   8   9
HETATM    9  C   UNL     1     -10.527   5.185  70.086  1.00  0.00    -0.305 C  
BRANCH   9  10
HETATM   10  C   UNL     1      -9.524   5.393  68.940  1.00  0.00    -0.174 C  
BRANCH  10  11
HETATM   11  C   UNL     1     -10.067   5.015  67.554  1.00  0.00    -0.201 C  
BRANCH  11  12
HETATM   12  C   UNL     1     -10.221   6.247  66.698  1.00  0.00    -0.164 C  
HETATM   13  O   UNL     1     -11.069   7.112  66.857  1.00  0.00    -0.327 OA 
BRANCH  12  14
HETATM   14  O   UNL     1      -9.164   6.343  65.845  1.00  0.00    -0.116 OA 
BRANCH  14  15
HETATM   15  C   UNL     1      -8.204   7.342  66.211  1.00  0.00    -0.126 C  
BRANCH  15  16
HETATM   16  C   UNL     1      -8.147   8.328  65.039  1.00  0.00    -0.148 C  
BRANCH  16  17
HETATM   17  N   UNL     1      -9.349   9.129  64.873  1.00  0.00    -0.446 N  
HETATM   18  C   UNL     1      -9.320  10.489  65.062  1.00  0.00    -0.222 C  
HETATM   19  H   UNL     1     -10.224   8.675  64.612  1.00  0.00     0.000 HD 
HETATM   20  O   UNL     1      -8.337  11.091  65.485  1.00  0.00    -0.132 OA 
BRANCH  18  21
HETATM   21  C   UNL     1     -10.618  11.225  64.805  1.00  0.00    -0.312 C  
BRANCH  21  22
HETATM   22  N   UNL     1     -11.035  11.915  66.044  1.00  0.00    -0.299 NA 
HETATM   23  C   UNL     1     -11.240  13.257  66.030  1.00  0.00    -0.297 A  
HETATM   24  C   UNL     1     -11.609  13.927  67.188  1.00  0.00    -0.391 A  
HETATM   25  C   UNL     1     -11.789  13.210  68.362  1.00  0.00    -0.386 A  
HETATM   26  C   UNL     1     -11.593  11.836  68.359  1.00  0.00    -0.380 A  
HETATM   27  C   UNL     1     -11.214  11.205  67.180  1.00  0.00    -0.249 A  
ENDBRANCH  21  22
ENDBRANCH  18  21
ENDBRANCH  16  17
ENDBRANCH  15  16
ENDBRANCH  14  15
ENDBRANCH  12  14
ENDBRANCH  11  12
ENDBRANCH  10  11
ENDBRANCH   9  10
ENDBRANCH   8   9
ENDBRANCH   7   8
ENDBRANCH   6   7
ENDBRANCH   5   6
ENDBRANCH   4   5
ENDBRANCH   3   4
ENDBRANCH   2   3
TORSDOF 16
ENDMDL
MODEL      174
REMARK 921   NORMALIZED FREE ENERGY PREDICTED BY IDOCK:   -3.82 KCAL/MOL
REMARK 922        TOTAL FREE ENERGY PREDICTED BY IDOCK:   -9.46 KCAL/MOL
REMARK 923 INTER-LIGAND FREE ENERGY PREDICTED BY IDOCK:   -7.97 KCAL/MOL
REMARK 924 INTRA-LIGAND FREE ENERGY PREDICTED BY IDOCK:   -1.50 KCAL/MOL
REMARK 927      BINDING AFFINITY PREDICTED BY RF-SCORE:    0.00 PKD
ROOT
HETATM    1  C   UNL     1     -13.664   9.334  72.329  1.00  0.00    -0.527 C  
HETATM    2  C   UNL     1     -12.230   8.947  72.010  1.00  0.00    -0.447 C  
ENDROOT
BRANCH   2   3
HETATM    3  C   UNL     1     -11.996   7.458  72.255  1.00  0.00    -0.277 C  
BRANCH   3   4
HETATM    4  C   UNL     1     -10.753   7.227  73.110  1.00  0.00    -0.411 C  
BRANCH   4   5
HETATM    5  C   UNL     1      -9.852   6.165  72.482  1.00  0.00    -0.180 C  
BRANCH   5   6
HETATM    6  C   UNL     1     -10.670   5.202  71.632  1.00  0.00    -0.181 C  
BRANCH   6   7
HETATM    7  C   UNL     1      -9.976   4.893  70.308  1.00  0.00    -0.321 C  
BRANCH   7   8
HETATM    8  C   UNL     1     -10.417   5.903  69.252  1.00  0.00    -0.342 C  
BRANCH   8   9
HETATM    9  C   UNL     1      -9.288   6.849  68.867  1.00  0.00    -0.134 C  
BRANCH   9  10
HETATM   10  C   UNL     1      -9.417   8.214  69.560  1.00  0.00    -0.156 C  
BRANCH  10  11
HETATM   11  C   UNL     1      -9.214   9.415  68.626  1.00  0.00    -0.131 C  
BRANCH  11  12
HETATM   12  C   UNL     1     -10.416   9.595  67.734  1.00  0.00    -0.256 C  
HETATM   13  O   UNL     1     -10.569   9.065  66.644  1.00  0.00    -0.211 OA 
BRANCH  12  14
HETATM   14  O   UNL     1     -11.381  10.282  68.405  1.00  0.00    -0.256 OA 
BRANCH  14  15
HETATM   15  C   UNL     1     -10.877  11.292  69.287  1.00  0.00    -0.212 C  
BRANCH  15  16
HETATM   16  C   UNL     1     -11.932  12.403  69.311  1.00  0.00    -0.253 C  
BRANCH  16  17
HETATM   17  N   UNL     1     -11.998  13.191  68.091  1.00  0.00    -0.336 N  
HETATM   18  C   UNL     1     -11.139  14.242  67.885  1.00  0.00    -0.278 C  
HETATM   19  H   UNL     1     -12.692  12.960  67.380  1.00  0.00     0.000 HD 
HETATM   20  O   UNL     1     -10.356  14.652  68.737  1.00  0.00    -0.235 OA 
BRANCH  18  21
HETATM   21  C   UNL     1     -11.264  14.953  66.553  1.00  0.00    -0.335 C  
BRANCH  21  22
HETATM   22  N   UNL     1     -11.264  13.949  65.468  1.00  0.00    -0.303 NA 
HETATM   23  C   UNL     1     -12.225  13.993  64.511  1.00  0.00    -0.434 A  
HETATM   24  C   UNL     1     -12.256  13.045  63.497  1.00  0.00    -0.580 A  
HETATM   25  C   UNL     1     -11.282  12.059  63.457  1.00  0.00    -0.526 A  
HETATM   26  C   UNL     1     -10.294  12.035  64.433  1.00  0.00    -0.342 A  
HETATM   27  C   UNL     1     -10.305  12.996  65.435  1.00  0.00    -0.300 A  
ENDBRANCH  21  22
ENDBRANCH  18  21
ENDBRANCH  16  17
ENDBRANCH  15  16
ENDBRANCH  14  15
ENDBRANCH  12  14
ENDBRANCH  11  12
ENDBRANCH  10  11
ENDBRANCH   9  10
ENDBRANCH   8   9
ENDBRANCH   7   8
ENDBRANCH   6   7
ENDBRANCH   5   6
ENDBRANCH   4   5
ENDBRANCH   3   4
ENDBRANCH   2   3
TORSDOF 16
ENDMDL
MODEL      175
REMARK 921   NORMALIZED FREE ENERGY PREDICTED BY IDOCK:   -3.81 KCAL/MOL
REMARK 922        TOTAL FREE ENERGY PREDICTED BY IDOCK:   -9.46 KCAL/MOL
REMARK 923 INTER-LIGAND FREE ENERGY PREDICTED BY IDOCK:   -8.15 KCAL/MOL
REMARK 924 INTRA-LIGAND FREE ENERGY PREDICTED BY IDOCK:   -1.31 KCAL/MOL
REMARK 927      BINDING AFFINITY PREDICTED BY RF-SCORE:    0.00 PKD
ROOT
HETATM    1  C   UNL     1     -12.804  10.157  71.840  1.00  0.00    -0.526 C  
HETATM    2  C   UNL     1     -12.484  11.191  70.774  1.00  0.00    -0.479 C  
ENDROOT
BRANCH   2   3
HETATM    3  C   UNL     1     -12.775  12.604  71.274  1.00  0.00    -0.354 C  
BRANCH   3   4
HETATM    4  C   UNL     1     -12.361  13.652  70.245  1.00  0.00    -0.392 C  
BRANCH   4   5
HETATM    5  C   UNL     1     -11.686  12.994  69.042  1.00  0.00    -0.376 C  
BRANCH   5   6
HETATM    6  C   UNL     1     -10.623  13.913  68.455  1.00  0.00    -0.262 C  
BRANCH   6   7
HETATM    7  C   UNL     1     -11.244  15.144  67.799  1.00  0.00    -0.327 C  
BRANCH   7   8
HETATM    8  C   UNL     1     -10.214  15.817  66.896  1.00  0.00    -0.280 C  
BRANCH   8   9
HETATM    9  C   UNL     1     -10.802  16.184  65.541  1.00  0.00    -0.280 C  
BRANCH   9  10
HETATM   10  C   UNL     1     -11.328  14.952  64.788  1.00  0.00    -0.400 C  
BRANCH  10  11
HETATM   11  C   UNL     1     -10.299  13.824  64.631  1.00  0.00    -0.393 C  
BRANCH  11  12
HETATM   12  C   UNL     1     -10.878  12.695  63.815  1.00  0.00    -0.426 C  
HETATM   13  O   UNL     1     -12.057  12.573  63.522  1.00  0.00    -0.493 OA 
BRANCH  12  14
HETATM   14  O   UNL     1      -9.866  11.942  63.301  1.00  0.00    -0.407 OA 
BRANCH  14  15
HETATM   15  C   UNL     1     -10.025  10.532  63.501  1.00  0.00    -0.214 C  
BRANCH  15  16
HETATM   16  C   UNL     1      -9.505  10.241  64.913  1.00  0.00    -0.279 C  
BRANCH  16  17
HETATM   17  N   UNL     1      -9.788   8.896  65.388  1.00  0.00    -0.356 N  
HETATM   18  C   UNL     1      -8.860   8.201  66.125  1.00  0.00    -0.162 C  
HETATM   19  H   UNL     1     -10.686   8.464  65.171  1.00  0.00     0.000 HD 
HETATM   20  O   UNL     1      -7.720   8.605  66.330  1.00  0.00    -0.095 OA 
BRANCH  18  21
HETATM   21  C   UNL     1      -9.288   6.832  66.613  1.00  0.00    -0.165 C  
BRANCH  21  22
HETATM   22  N   UNL     1      -9.894   6.966  67.954  1.00  0.00    -0.132 NA 
HETATM   23  C   UNL     1      -9.566   8.024  68.739  1.00  0.00    -0.149 A  
HETATM   24  C   UNL     1     -10.107   8.156  70.010  1.00  0.00    -0.196 A  
HETATM   25  C   UNL     1     -11.006   7.204  70.470  1.00  0.00    -0.287 A  
HETATM   26  C   UNL     1     -11.347   6.136  69.651  1.00  0.00    -0.442 A  
HETATM   27  C   UNL     1     -10.775   6.037  68.388  1.00  0.00    -0.280 A  
ENDBRANCH  21  22
ENDBRANCH  18  21
ENDBRANCH  16  17
ENDBRANCH  15  16
ENDBRANCH  14  15
ENDBRANCH  12  14
ENDBRANCH  11  12
ENDBRANCH  10  11
ENDBRANCH   9  10
ENDBRANCH   8   9
ENDBRANCH   7   8
ENDBRANCH   6   7
ENDBRANCH   5   6
ENDBRANCH   4   5
ENDBRANCH   3   4
ENDBRANCH   2   3
TORSDOF 16
ENDMDL
MODEL      176
REMARK 921   NORMALIZED FREE ENERGY PREDICTED BY IDOCK:   -3.80 KCAL/MOL
REMARK 922        TOTAL FREE ENERGY PREDICTED BY IDOCK:   -9.44 KCAL/MOL
REMARK 923 INTER-LIGAND FREE ENERGY PREDICTED BY IDOCK:   -8.53 KCAL/MOL
REMARK 924 INTRA-LIGAND FREE ENERGY PREDICTED BY IDOCK:   -0.91 KCAL/MOL
REMARK 927      BINDING AFFINITY PREDICTED BY RF-SCORE:    0.00 PKD
ROOT
HETATM    1  C   UNL     1      -5.917  20.078  71.182  1.00  0.00    -0.311 C  
HETATM    2  C   UNL     1      -5.910  20.344  69.686  1.00  0.00    -0.396 C  
ENDROOT
BRANCH   2   3
HETATM    3  C   UNL     1      -7.062  19.617  68.995  1.00  0.00    -0.387 C  
BRANCH   3   4
HETATM    4  C   UNL     1      -6.919  19.674  67.476  1.00  0.00    -0.257 C  
BRANCH   4   5
HETATM    5  C   UNL     1      -8.224  20.129  66.825  1.00  0.00    -0.351 C  
BRANCH   5   6
HETATM    6  C   UNL     1      -9.349  20.172  67.851  1.00  0.00    -0.406 C  
BRANCH   6   7
HETATM    7  C   UNL     1     -10.568  19.383  67.383  1.00  0.00    -0.603 C  
BRANCH   7   8
HETATM    8  C   UNL     1     -10.143  17.971  66.988  1.00  0.00    -0.348 C  
BRANCH   8   9
HETATM    9  C   UNL     1     -11.016  16.911  67.644  1.00  0.00    -0.165 C  
BRANCH   9  10
HETATM   10  C   UNL     1     -10.302  16.216  68.814  1.00  0.00    -0.248 C  
BRANCH  10  11
HETATM   11  C   UNL     1     -10.908  16.522  70.191  1.00  0.00    -0.208 C  
BRANCH  11  12
HETATM   12  C   UNL     1     -12.108  15.644  70.442  1.00  0.00    -0.394 C  
HETATM   13  O   UNL     1     -12.957  15.841  71.298  1.00  0.00    -0.489 OA 
BRANCH  12  14
HETATM   14  O   UNL     1     -12.203  14.710  69.455  1.00  0.00    -0.306 OA 
BRANCH  14  15
HETATM   15  C   UNL     1     -12.247  13.358  69.929  1.00  0.00    -0.271 C  
BRANCH  15  16
HETATM   16  C   UNL     1     -11.395  12.538  68.954  1.00  0.00    -0.297 C  
BRANCH  16  17
HETATM   17  N   UNL     1     -10.638  11.466  69.580  1.00  0.00    -0.445 N  
HETATM   18  C   UNL     1     -10.420  10.281  68.920  1.00  0.00    -0.211 C  
HETATM   19  H   UNL     1     -10.263  11.596  70.519  1.00  0.00     0.000 HD 
HETATM   20  O   UNL     1     -10.930  10.006  67.838  1.00  0.00    -0.274 OA 
BRANCH  18  21
HETATM   21  C   UNL     1      -9.569   9.261  69.648  1.00  0.00    -0.183 C  
BRANCH  21  22
HETATM   22  N   UNL     1     -10.448   8.388  70.456  1.00  0.00    -0.203 NA 
HETATM   23  C   UNL     1     -10.927   7.236  69.922  1.00  0.00    -0.243 A  
HETATM   24  C   UNL     1     -11.772   6.416  70.657  1.00  0.00    -0.377 A  
HETATM   25  C   UNL     1     -12.109   6.772  71.955  1.00  0.00    -0.375 A  
HETATM   26  C   UNL     1     -11.598   7.944  72.495  1.00  0.00    -0.443 A  
HETATM   27  C   UNL     1     -10.763   8.742  71.722  1.00  0.00    -0.343 A  
ENDBRANCH  21  22
ENDBRANCH  18  21
ENDBRANCH  16  17
ENDBRANCH  15  16
ENDBRANCH  14  15
ENDBRANCH  12  14
ENDBRANCH  11  12
ENDBRANCH  10  11
ENDBRANCH   9  10
ENDBRANCH   8   9
ENDBRANCH   7   8
ENDBRANCH   6   7
ENDBRANCH   5   6
ENDBRANCH   4   5
ENDBRANCH   3   4
ENDBRANCH   2   3
TORSDOF 16
ENDMDL
MODEL      177
REMARK 921   NORMALIZED FREE ENERGY PREDICTED BY IDOCK:   -3.80 KCAL/MOL
REMARK 922        TOTAL FREE ENERGY PREDICTED BY IDOCK:   -9.43 KCAL/MOL
REMARK 923 INTER-LIGAND FREE ENERGY PREDICTED BY IDOCK:   -7.45 KCAL/MOL
REMARK 924 INTRA-LIGAND FREE ENERGY PREDICTED BY IDOCK:   -1.98 KCAL/MOL
REMARK 927      BINDING AFFINITY PREDICTED BY RF-SCORE:    0.00 PKD
ROOT
HETATM    1  C   UNL     1      -6.864  13.376  68.515  1.00  0.00    -0.099 C  
HETATM    2  C   UNL     1      -6.163  14.315  69.482  1.00  0.00    -0.122 C  
ENDROOT
BRANCH   2   3
HETATM    3  C   UNL     1      -6.974  15.593  69.690  1.00  0.00    -0.167 C  
BRANCH   3   4
HETATM    4  C   UNL     1      -8.368  15.468  69.081  1.00  0.00    -0.253 C  
BRANCH   4   5
HETATM    5  C   UNL     1      -9.119  16.796  69.169  1.00  0.00    -0.120 C  
BRANCH   5   6
HETATM    6  C   UNL     1      -9.426  17.333  67.777  1.00  0.00    -0.255 C  
BRANCH   6   7
HETATM    7  C   UNL     1      -8.637  16.590  66.702  1.00  0.00    -0.289 C  
BRANCH   7   8
HETATM    8  C   UNL     1      -9.601  15.997  65.678  1.00  0.00    -0.226 C  
BRANCH   8   9
HETATM    9  C   UNL     1     -11.031  15.967  66.197  1.00  0.00    -0.126 C  
BRANCH   9  10
HETATM   10  C   UNL     1     -11.622  14.549  66.180  1.00  0.00    -0.366 C  
BRANCH  10  11
HETATM   11  C   UNL     1     -10.582  13.437  65.984  1.00  0.00    -0.290 C  
BRANCH  11  12
HETATM   12  C   UNL     1     -11.265  12.104  65.805  1.00  0.00    -0.339 C  
HETATM   13  O   UNL     1     -12.426  11.950  65.459  1.00  0.00    -0.264 OA 
BRANCH  12  14
HETATM   14  O   UNL     1     -10.344  11.106  65.902  1.00  0.00    -0.246 OA 
BRANCH  14  15
HETATM   15  C   UNL     1      -9.583  11.125  67.115  1.00  0.00    -0.173 C  
BRANCH  15  16
HETATM   16  C   UNL     1     -10.161  10.014  67.999  1.00  0.00    -0.181 C  
BRANCH  16  17
HETATM   17  N   UNL     1     -10.521  10.444  69.340  1.00  0.00    -0.224 N  
HETATM   18  C   UNL     1     -11.790  10.889  69.620  1.00  0.00    -0.344 C  
HETATM   19  H   UNL     1      -9.822  10.415  70.083  1.00  0.00     0.000 HD 
HETATM   20  O   UNL     1     -12.650  11.060  68.762  1.00  0.00    -0.350 OA 
BRANCH  18  21
HETATM   21  C   UNL     1     -12.064  11.256  71.064  1.00  0.00    -0.230 C  
BRANCH  21  22
HETATM   22  N   UNL     1     -12.557  12.648  71.123  1.00  0.00    -0.331 NA 
HETATM   23  C   UNL     1     -12.048  13.579  70.277  1.00  0.00    -0.355 A  
HETATM   24  C   UNL     1     -12.482  14.896  70.332  1.00  0.00    -0.403 A  
HETATM   25  C   UNL     1     -13.460  15.253  71.249  1.00  0.00    -0.591 A  
HETATM   26  C   UNL     1     -13.985  14.287  72.098  1.00  0.00    -0.618 A  
HETATM   27  C   UNL     1     -13.516  12.982  72.016  1.00  0.00    -0.492 A  
ENDBRANCH  21  22
ENDBRANCH  18  21
ENDBRANCH  16  17
ENDBRANCH  15  16
ENDBRANCH  14  15
ENDBRANCH  12  14
ENDBRANCH  11  12
ENDBRANCH  10  11
ENDBRANCH   9  10
ENDBRANCH   8   9
ENDBRANCH   7   8
ENDBRANCH   6   7
ENDBRANCH   5   6
ENDBRANCH   4   5
ENDBRANCH   3   4
ENDBRANCH   2   3
TORSDOF 16
ENDMDL
MODEL      178
REMARK 921   NORMALIZED FREE ENERGY PREDICTED BY IDOCK:   -3.79 KCAL/MOL
REMARK 922        TOTAL FREE ENERGY PREDICTED BY IDOCK:   -9.42 KCAL/MOL
REMARK 923 INTER-LIGAND FREE ENERGY PREDICTED BY IDOCK:   -7.87 KCAL/MOL
REMARK 924 INTRA-LIGAND FREE ENERGY PREDICTED BY IDOCK:   -1.56 KCAL/MOL
REMARK 927      BINDING AFFINITY PREDICTED BY RF-SCORE:    0.00 PKD
ROOT
HETATM    1  C   UNL     1      -9.843  20.320  67.961  1.00  0.00    -0.447 C  
HETATM    2  C   UNL     1     -10.254  20.029  66.528  1.00  0.00    -0.598 C  
ENDROOT
BRANCH   2   3
HETATM    3  C   UNL     1     -10.209  18.531  66.237  1.00  0.00    -0.446 C  
BRANCH   3   4
HETATM    4  C   UNL     1      -9.198  17.823  67.135  1.00  0.00    -0.253 C  
BRANCH   4   5
HETATM    5  C   UNL     1      -9.856  16.668  67.889  1.00  0.00    -0.248 C  
BRANCH   5   6
HETATM    6  C   UNL     1      -9.905  16.962  69.383  1.00  0.00    -0.064 C  
BRANCH   6   7
HETATM    7  C   UNL     1     -10.600  15.842  70.153  1.00  0.00    -0.334 C  
BRANCH   7   8
HETATM    8  C   UNL     1     -12.058  15.744  69.709  1.00  0.00    -0.298 C  
BRANCH   8   9
HETATM    9  C   UNL     1     -12.520  14.298  69.597  1.00  0.00    -0.215 C  
BRANCH   9  10
HETATM   10  C   UNL     1     -11.341  13.325  69.446  1.00  0.00    -0.280 C  
BRANCH  10  11
HETATM   11  C   UNL     1     -10.858  13.143  68.000  1.00  0.00    -0.261 C  
BRANCH  11  12
HETATM   12  C   UNL     1     -10.876  11.684  67.620  1.00  0.00    -0.225 C  
HETATM   13  O   UNL     1     -11.868  10.972  67.612  1.00  0.00    -0.599 OA 
BRANCH  12  14
HETATM   14  O   UNL     1      -9.664  11.333  67.108  1.00  0.00    -0.179 OA 
BRANCH  14  15
HETATM   15  C   UNL     1      -8.546  11.852  67.839  1.00  0.00    -0.162 C  
BRANCH  15  16
HETATM   16  C   UNL     1      -7.829  10.639  68.440  1.00  0.00    -0.113 C  
BRANCH  16  17
HETATM   17  N   UNL     1      -8.255  10.300  69.788  1.00  0.00    -0.328 N  
HETATM   18  C   UNL     1      -9.097   9.238  70.015  1.00  0.00    -0.210 C  
HETATM   19  H   UNL     1      -7.925  10.858  70.576  1.00  0.00     0.000 HD 
HETATM   20  O   UNL     1      -9.625   8.592  69.115  1.00  0.00    -0.164 OA 
BRANCH  18  21
HETATM   21  C   UNL     1      -9.426   8.947  71.464  1.00  0.00    -0.277 C  
BRANCH  21  22
HETATM   22  N   UNL     1     -10.862   9.213  71.696  1.00  0.00    -0.360 NA 
HETATM   23  C   UNL     1     -11.434  10.323  71.166  1.00  0.00    -0.237 A  
HETATM   24  C   UNL     1     -12.775  10.602  71.391  1.00  0.00    -0.545 A  
HETATM   25  C   UNL     1     -13.536   9.723  72.148  1.00  0.00    -0.432 A  
HETATM   26  C   UNL     1     -12.942   8.581  72.669  1.00  0.00    -0.214 A  
HETATM   27  C   UNL     1     -11.595   8.345  72.428  1.00  0.00    -0.380 A  
ENDBRANCH  21  22
ENDBRANCH  18  21
ENDBRANCH  16  17
ENDBRANCH  15  16
ENDBRANCH  14  15
ENDBRANCH  12  14
ENDBRANCH  11  12
ENDBRANCH  10  11
ENDBRANCH   9  10
ENDBRANCH   8   9
ENDBRANCH   7   8
ENDBRANCH   6   7
ENDBRANCH   5   6
ENDBRANCH   4   5
ENDBRANCH   3   4
ENDBRANCH   2   3
TORSDOF 16
ENDMDL
MODEL      179
REMARK 921   NORMALIZED FREE ENERGY PREDICTED BY IDOCK:   -3.79 KCAL/MOL
REMARK 922        TOTAL FREE ENERGY PREDICTED BY IDOCK:   -9.41 KCAL/MOL
REMARK 923 INTER-LIGAND FREE ENERGY PREDICTED BY IDOCK:   -7.58 KCAL/MOL
REMARK 924 INTRA-LIGAND FREE ENERGY PREDICTED BY IDOCK:   -1.82 KCAL/MOL
REMARK 927      BINDING AFFINITY PREDICTED BY RF-SCORE:    0.00 PKD
ROOT
HETATM    1  C   UNL     1     -11.326  11.887  63.753  1.00  0.00    -0.532 C  
HETATM    2  C   UNL     1     -12.118  13.142  63.429  1.00  0.00    -0.558 C  
ENDROOT
BRANCH   2   3
HETATM    3  C   UNL     1     -11.877  14.229  64.474  1.00  0.00    -0.456 C  
BRANCH   3   4
HETATM    4  C   UNL     1     -12.683  13.966  65.743  1.00  0.00    -0.503 C  
BRANCH   4   5
HETATM    5  C   UNL     1     -11.831  14.213  66.988  1.00  0.00    -0.458 C  
BRANCH   5   6
HETATM    6  C   UNL     1     -11.909  13.023  67.935  1.00  0.00    -0.389 C  
BRANCH   6   7
HETATM    7  C   UNL     1     -11.093  11.840  67.421  1.00  0.00    -0.338 C  
BRANCH   7   8
HETATM    8  C   UNL     1      -9.636  12.262  67.246  1.00  0.00    -0.187 C  
BRANCH   8   9
HETATM    9  C   UNL     1      -8.674  11.133  67.586  1.00  0.00    -0.129 C  
BRANCH   9  10
HETATM   10  C   UNL     1      -8.973  10.513  68.959  1.00  0.00    -0.183 C  
BRANCH  10  11
HETATM   11  C   UNL     1      -7.725  10.054  69.726  1.00  0.00    -0.173 C  
BRANCH  11  12
HETATM   12  C   UNL     1      -8.049   8.859  70.588  1.00  0.00    -0.144 C  
HETATM   13  O   UNL     1      -8.192   7.717  70.181  1.00  0.00    -0.120 OA 
BRANCH  12  14
HETATM   14  O   UNL     1      -7.971   9.212  71.901  1.00  0.00    -0.334 OA 
BRANCH  14  15
HETATM   15  C   UNL     1      -7.525   8.161  72.766  1.00  0.00    -0.125 C  
BRANCH  15  16
HETATM   16  C   UNL     1      -8.731   7.780  73.631  1.00  0.00    -0.252 C  
BRANCH  16  17
HETATM   17  N   UNL     1      -9.626   6.814  73.016  1.00  0.00    -0.145 N  
HETATM   18  C   UNL     1     -10.819   7.212  72.463  1.00  0.00    -0.264 C  
HETATM   19  H   UNL     1      -9.366   5.828  72.995  1.00  0.00     0.000 HD 
HETATM   20  O   UNL     1     -11.254   8.356  72.548  1.00  0.00    -0.368 OA 
BRANCH  18  21
HETATM   21  C   UNL     1     -11.641   6.126  71.801  1.00  0.00    -0.275 C  
BRANCH  21  22
HETATM   22  N   UNL     1     -11.027   5.780  70.502  1.00  0.00    -0.279 NA 
HETATM   23  C   UNL     1     -10.080   4.808  70.443  1.00  0.00    -0.231 A  
HETATM   24  C   UNL     1      -9.475   4.485  69.236  1.00  0.00    -0.242 A  
HETATM   25  C   UNL     1      -9.860   5.149  68.081  1.00  0.00    -0.204 A  
HETATM   26  C   UNL     1     -10.841   6.129  68.153  1.00  0.00    -0.389 A  
HETATM   27  C   UNL     1     -11.415   6.429  69.382  1.00  0.00    -0.305 A  
ENDBRANCH  21  22
ENDBRANCH  18  21
ENDBRANCH  16  17
ENDBRANCH  15  16
ENDBRANCH  14  15
ENDBRANCH  12  14
ENDBRANCH  11  12
ENDBRANCH  10  11
ENDBRANCH   9  10
ENDBRANCH   8   9
ENDBRANCH   7   8
ENDBRANCH   6   7
ENDBRANCH   5   6
ENDBRANCH   4   5
ENDBRANCH   3   4
ENDBRANCH   2   3
TORSDOF 16
ENDMDL
MODEL      180
REMARK 921   NORMALIZED FREE ENERGY PREDICTED BY IDOCK:   -3.78 KCAL/MOL
REMARK 922        TOTAL FREE ENERGY PREDICTED BY IDOCK:   -9.39 KCAL/MOL
REMARK 923 INTER-LIGAND FREE ENERGY PREDICTED BY IDOCK:   -8.04 KCAL/MOL
REMARK 924 INTRA-LIGAND FREE ENERGY PREDICTED BY IDOCK:   -1.34 KCAL/MOL
REMARK 927      BINDING AFFINITY PREDICTED BY RF-SCORE:    0.00 PKD
ROOT
HETATM    1  C   UNL     1     -13.595   9.512  71.518  1.00  0.00    -0.397 C  
HETATM    2  C   UNL     1     -13.717   8.002  71.629  1.00  0.00    -0.410 C  
ENDROOT
BRANCH   2   3
HETATM    3  C   UNL     1     -12.348   7.332  71.530  1.00  0.00    -0.397 C  
BRANCH   3   4
HETATM    4  C   UNL     1     -11.424   7.792  72.654  1.00  0.00    -0.430 C  
BRANCH   4   5
HETATM    5  C   UNL     1     -10.666   6.608  73.252  1.00  0.00    -0.315 C  
BRANCH   5   6
HETATM    6  C   UNL     1     -11.376   5.299  72.931  1.00  0.00    -0.368 C  
BRANCH   6   7
HETATM    7  C   UNL     1     -10.394   4.225  72.472  1.00  0.00    -0.239 C  
BRANCH   7   8
HETATM    8  C   UNL     1      -9.444   4.812  71.431  1.00  0.00    -0.213 C  
BRANCH   8   9
HETATM    9  C   UNL     1      -9.968   4.623  70.014  1.00  0.00    -0.302 C  
BRANCH   9  10
HETATM   10  C   UNL     1     -10.196   5.964  69.300  1.00  0.00    -0.275 C  
BRANCH  10  11
HETATM   11  C   UNL     1      -9.153   6.286  68.221  1.00  0.00    -0.113 C  
BRANCH  11  12
HETATM   12  C   UNL     1      -8.156   7.293  68.738  1.00  0.00    -0.124 C  
HETATM   13  O   UNL     1      -6.988   7.054  69.001  1.00  0.00    -0.072 OA 
BRANCH  12  14
HETATM   14  O   UNL     1      -8.702   8.539  68.688  1.00  0.00    -0.137 OA 
BRANCH  14  15
HETATM   15  C   UNL     1      -8.872   9.158  69.969  1.00  0.00    -0.182 C  
BRANCH  15  16
HETATM   16  C   UNL     1     -10.143  10.008  69.866  1.00  0.00    -0.246 C  
BRANCH  16  17
HETATM   17  N   UNL     1      -9.985  11.226  69.088  1.00  0.00    -0.410 N  
HETATM   18  C   UNL     1     -11.037  11.747  68.375  1.00  0.00    -0.237 C  
HETATM   19  H   UNL     1      -9.082  11.700  69.071  1.00  0.00     0.000 HD 
HETATM   20  O   UNL     1     -12.118  11.178  68.254  1.00  0.00    -0.620 OA 
BRANCH  18  21
HETATM   21  C   UNL     1     -10.770  13.049  67.649  1.00  0.00    -0.227 C  
BRANCH  21  22
HETATM   22  N   UNL     1     -11.253  12.933  66.257  1.00  0.00    -0.291 NA 
HETATM   23  C   UNL     1     -11.024  11.792  65.558  1.00  0.00    -0.290 A  
HETATM   24  C   UNL     1     -11.450  11.673  64.242  1.00  0.00    -0.332 A  
HETATM   25  C   UNL     1     -12.132  12.725  63.649  1.00  0.00    -0.624 A  
HETATM   26  C   UNL     1     -12.375  13.880  64.380  1.00  0.00    -0.400 A  
HETATM   27  C   UNL     1     -11.923  13.962  65.692  1.00  0.00    -0.392 A  
ENDBRANCH  21  22
ENDBRANCH  18  21
ENDBRANCH  16  17
ENDBRANCH  15  16
ENDBRANCH  14  15
ENDBRANCH  12  14
ENDBRANCH  11  12
ENDBRANCH  10  11
ENDBRANCH   9  10
ENDBRANCH   8   9
ENDBRANCH   7   8
ENDBRANCH   6   7
ENDBRANCH   5   6
ENDBRANCH   4   5
ENDBRANCH   3   4
ENDBRANCH   2   3
TORSDOF 16
ENDMDL
MODEL      181
REMARK 921   NORMALIZED FREE ENERGY PREDICTED BY IDOCK:   -3.77 KCAL/MOL
REMARK 922        TOTAL FREE ENERGY PREDICTED BY IDOCK:   -9.38 KCAL/MOL
REMARK 923 INTER-LIGAND FREE ENERGY PREDICTED BY IDOCK:   -7.42 KCAL/MOL
REMARK 924 INTRA-LIGAND FREE ENERGY PREDICTED BY IDOCK:   -1.96 KCAL/MOL
REMARK 927      BINDING AFFINITY PREDICTED BY RF-SCORE:    0.00 PKD
ROOT
HETATM    1  C   UNL     1     -13.085  11.814  71.809  1.00  0.00    -0.480 C  
HETATM    2  C   UNL     1     -13.284  10.452  71.165  1.00  0.00    -0.399 C  
ENDROOT
BRANCH   2   3
HETATM    3  C   UNL     1     -13.578   9.385  72.217  1.00  0.00    -0.532 C  
BRANCH   3   4
HETATM    4  C   UNL     1     -12.400   8.429  72.379  1.00  0.00    -0.412 C  
BRANCH   4   5
HETATM    5  C   UNL     1     -11.774   8.103  71.023  1.00  0.00    -0.295 C  
BRANCH   5   6
HETATM    6  C   UNL     1     -11.840   6.607  70.748  1.00  0.00    -0.441 C  
BRANCH   6   7
HETATM    7  C   UNL     1     -11.345   6.272  69.343  1.00  0.00    -0.448 C  
BRANCH   7   8
HETATM    8  C   UNL     1     -10.174   5.296  69.433  1.00  0.00    -0.321 C  
BRANCH   8   9
HETATM    9  C   UNL     1      -9.090   5.796  70.376  1.00  0.00    -0.160 C  
BRANCH   9  10
HETATM   10  C   UNL     1      -8.143   6.794  69.691  1.00  0.00    -0.126 C  
BRANCH  10  11
HETATM   11  C   UNL     1      -8.068   8.163  70.381  1.00  0.00    -0.108 C  
BRANCH  11  12
HETATM   12  C   UNL     1      -8.383   9.263  69.398  1.00  0.00    -0.127 C  
HETATM   13  O   UNL     1      -9.360   9.994  69.451  1.00  0.00    -0.197 OA 
BRANCH  12  14
HETATM   14  O   UNL     1      -7.325   9.440  68.559  1.00  0.00    -0.078 OA 
BRANCH  14  15
HETATM   15  C   UNL     1      -7.265  10.738  67.956  1.00  0.00    -0.086 C  
BRANCH  15  16
HETATM   16  C   UNL     1      -7.553  10.528  66.465  1.00  0.00    -0.128 C  
BRANCH  16  17
HETATM   17  N   UNL     1      -8.599  11.385  65.932  1.00  0.00    -0.343 N  
HETATM   18  C   UNL     1      -9.908  10.970  65.914  1.00  0.00    -0.232 C  
HETATM   19  H   UNL     1      -8.358  12.307  65.568  1.00  0.00     0.000 HD 
HETATM   20  O   UNL     1     -10.261   9.837  66.228  1.00  0.00    -0.249 OA 
BRANCH  18  21
HETATM   21  C   UNL     1     -10.917  11.970  65.388  1.00  0.00    -0.300 C  
BRANCH  21  22
HETATM   22  N   UNL     1     -11.229  12.946  66.454  1.00  0.00    -0.289 NA 
HETATM   23  C   UNL     1     -11.691  12.508  67.653  1.00  0.00    -0.361 A  
HETATM   24  C   UNL     1     -12.011  13.410  68.658  1.00  0.00    -0.362 A  
HETATM   25  C   UNL     1     -11.836  14.769  68.435  1.00  0.00    -0.319 A  
HETATM   26  C   UNL     1     -11.347  15.202  67.210  1.00  0.00    -0.305 A  
HETATM   27  C   UNL     1     -11.048  14.266  66.228  1.00  0.00    -0.323 A  
ENDBRANCH  21  22
ENDBRANCH  18  21
ENDBRANCH  16  17
ENDBRANCH  15  16
ENDBRANCH  14  15
ENDBRANCH  12  14
ENDBRANCH  11  12
ENDBRANCH  10  11
ENDBRANCH   9  10
ENDBRANCH   8   9
ENDBRANCH   7   8
ENDBRANCH   6   7
ENDBRANCH   5   6
ENDBRANCH   4   5
ENDBRANCH   3   4
ENDBRANCH   2   3
TORSDOF 16
ENDMDL
MODEL      182
REMARK 921   NORMALIZED FREE ENERGY PREDICTED BY IDOCK:   -3.77 KCAL/MOL
REMARK 922        TOTAL FREE ENERGY PREDICTED BY IDOCK:   -9.37 KCAL/MOL
REMARK 923 INTER-LIGAND FREE ENERGY PREDICTED BY IDOCK:   -7.63 KCAL/MOL
REMARK 924 INTRA-LIGAND FREE ENERGY PREDICTED BY IDOCK:   -1.74 KCAL/MOL
REMARK 927      BINDING AFFINITY PREDICTED BY RF-SCORE:    0.00 PKD
ROOT
HETATM    1  C   UNL     1      -6.719  13.168  68.002  1.00  0.00    -0.119 C  
HETATM    2  C   UNL     1      -7.024  12.008  68.934  1.00  0.00    -0.104 C  
ENDROOT
BRANCH   2   3
HETATM    3  C   UNL     1      -8.015  11.036  68.297  1.00  0.00    -0.124 C  
BRANCH   3   4
HETATM    4  C   UNL     1      -8.749  11.684  67.127  1.00  0.00    -0.164 C  
BRANCH   4   5
HETATM    5  C   UNL     1      -9.988  10.873  66.748  1.00  0.00    -0.245 C  
BRANCH   5   6
HETATM    6  C   UNL     1     -10.284   9.820  67.807  1.00  0.00    -0.254 C  
BRANCH   6   7
HETATM    7  C   UNL     1     -10.529   8.449  67.182  1.00  0.00    -0.380 C  
BRANCH   7   8
HETATM    8  C   UNL     1      -9.973   7.362  68.099  1.00  0.00    -0.190 C  
BRANCH   8   9
HETATM    9  C   UNL     1     -11.064   6.420  68.588  1.00  0.00    -0.393 C  
BRANCH   9  10
HETATM   10  C   UNL     1     -11.110   6.336  70.122  1.00  0.00    -0.443 C  
BRANCH  10  11
HETATM   11  C   UNL     1     -12.240   7.154  70.762  1.00  0.00    -0.308 C  
BRANCH  11  12
HETATM   12  C   UNL     1     -11.697   8.437  71.339  1.00  0.00    -0.287 C  
HETATM   13  O   UNL     1     -10.523   8.773  71.326  1.00  0.00    -0.215 OA 
BRANCH  12  14
HETATM   14  O   UNL     1     -12.731   9.244  71.705  1.00  0.00    -0.322 OA 
BRANCH  14  15
HETATM   15  C   UNL     1     -12.916  10.383  70.854  1.00  0.00    -0.387 C  
BRANCH  15  16
HETATM   16  C   UNL     1     -12.984  11.601  71.782  1.00  0.00    -0.377 C  
BRANCH  16  17
HETATM   17  N   UNL     1     -12.930  12.880  71.094  1.00  0.00    -0.234 N  
HETATM   18  C   UNL     1     -13.272  14.042  71.741  1.00  0.00    -0.375 C  
HETATM   19  H   UNL     1     -12.633  12.915  70.119  1.00  0.00     0.000 HD 
HETATM   20  O   UNL     1     -13.744  14.071  72.873  1.00  0.00    -0.677 OA 
BRANCH  18  21
HETATM   21  C   UNL     1     -13.122  15.319  70.939  1.00  0.00    -0.464 C  
BRANCH  21  22
HETATM   22  N   UNL     1     -11.968  15.182  70.026  1.00  0.00    -0.314 NA 
HETATM   23  C   UNL     1     -12.161  14.726  68.762  1.00  0.00    -0.190 A  
HETATM   24  C   UNL     1     -11.087  14.569  67.897  1.00  0.00    -0.290 A  
HETATM   25  C   UNL     1      -9.810  14.902  68.327  1.00  0.00    -0.218 A  
HETATM   26  C   UNL     1      -9.629  15.384  69.616  1.00  0.00    -0.233 A  
HETATM   27  C   UNL     1     -10.730  15.517  70.454  1.00  0.00    -0.320 A  
ENDBRANCH  21  22
ENDBRANCH  18  21
ENDBRANCH  16  17
ENDBRANCH  15  16
ENDBRANCH  14  15
ENDBRANCH  12  14
ENDBRANCH  11  12
ENDBRANCH  10  11
ENDBRANCH   9  10
ENDBRANCH   8   9
ENDBRANCH   7   8
ENDBRANCH   6   7
ENDBRANCH   5   6
ENDBRANCH   4   5
ENDBRANCH   3   4
ENDBRANCH   2   3
TORSDOF 16
ENDMDL
MODEL      183
REMARK 921   NORMALIZED FREE ENERGY PREDICTED BY IDOCK:   -3.74 KCAL/MOL
REMARK 922        TOTAL FREE ENERGY PREDICTED BY IDOCK:   -9.32 KCAL/MOL
REMARK 923 INTER-LIGAND FREE ENERGY PREDICTED BY IDOCK:   -7.36 KCAL/MOL
REMARK 924 INTRA-LIGAND FREE ENERGY PREDICTED BY IDOCK:   -1.96 KCAL/MOL
REMARK 927      BINDING AFFINITY PREDICTED BY RF-SCORE:    0.00 PKD
ROOT
HETATM    1  C   UNL     1      -9.418  17.105  68.308  1.00  0.00    -0.276 C  
HETATM    2  C   UNL     1      -9.491  15.827  67.490  1.00  0.00    -0.218 C  
ENDROOT
BRANCH   2   3
HETATM    3  C   UNL     1     -10.839  15.704  66.783  1.00  0.00    -0.277 C  
BRANCH   3   4
HETATM    4  C   UNL     1     -10.661  15.514  65.279  1.00  0.00    -0.446 C  
BRANCH   4   5
HETATM    5  C   UNL     1     -11.909  14.887  64.660  1.00  0.00    -0.412 C  
BRANCH   5   6
HETATM    6  C   UNL     1     -11.570  13.554  64.005  1.00  0.00    -0.394 C  
BRANCH   6   7
HETATM    7  C   UNL     1     -12.200  12.383  64.755  1.00  0.00    -0.493 C  
BRANCH   7   8
HETATM    8  C   UNL     1     -11.107  11.569  65.442  1.00  0.00    -0.250 C  
BRANCH   8   9
HETATM    9  C   UNL     1     -11.201  11.659  66.959  1.00  0.00    -0.376 C  
BRANCH   9  10
HETATM   10  C   UNL     1      -9.817  11.776  67.617  1.00  0.00    -0.192 C  
BRANCH  10  11
HETATM   11  C   UNL     1      -8.664  11.980  66.624  1.00  0.00    -0.171 C  
BRANCH  11  12
HETATM   12  C   UNL     1      -7.383  11.417  67.185  1.00  0.00    -0.138 C  
HETATM   13  O   UNL     1      -6.279  11.543  66.679  1.00  0.00    -0.142 OA 
BRANCH  12  14
HETATM   14  O   UNL     1      -7.614  10.912  68.428  1.00  0.00    -0.093 OA 
BRANCH  14  15
HETATM   15  C   UNL     1      -6.441  10.425  69.092  1.00  0.00    -0.048 C  
BRANCH  15  16
HETATM   16  C   UNL     1      -6.934   9.687  70.341  1.00  0.00    -0.128 C  
BRANCH  16  17
HETATM   17  N   UNL     1      -8.207   9.007  70.170  1.00  0.00    -0.121 N  
HETATM   18  C   UNL     1      -8.960   8.639  71.259  1.00  0.00    -0.210 C  
HETATM   19  H   UNL     1      -8.546   8.801  69.231  1.00  0.00     0.000 HD 
HETATM   20  O   UNL     1      -8.571   8.750  72.417  1.00  0.00    -0.395 OA 
BRANCH  18  21
HETATM   21  C   UNL     1     -10.294   7.989  70.956  1.00  0.00    -0.201 C  
BRANCH  21  22
HETATM   22  N   UNL     1     -11.374   8.972  71.189  1.00  0.00    -0.283 NA 
HETATM   23  C   UNL     1     -12.348   8.699  72.094  1.00  0.00    -0.386 A  
HETATM   24  C   UNL     1     -13.383   9.599  72.311  1.00  0.00    -0.498 A  
HETATM   25  C   UNL     1     -13.404  10.794  71.607  1.00  0.00    -0.390 A  
HETATM   26  C   UNL     1     -12.392  11.068  70.697  1.00  0.00    -0.480 A  
HETATM   27  C   UNL     1     -11.380  10.136  70.504  1.00  0.00    -0.338 A  
ENDBRANCH  21  22
ENDBRANCH  18  21
ENDBRANCH  16  17
ENDBRANCH  15  16
ENDBRANCH  14  15
ENDBRANCH  12  14
ENDBRANCH  11  12
ENDBRANCH  10  11
ENDBRANCH   9  10
ENDBRANCH   8   9
ENDBRANCH   7   8
ENDBRANCH   6   7
ENDBRANCH   5   6
ENDBRANCH   4   5
ENDBRANCH   3   4
ENDBRANCH   2   3
TORSDOF 16
ENDMDL
MODEL      184
REMARK 921   NORMALIZED FREE ENERGY PREDICTED BY IDOCK:   -3.73 KCAL/MOL
REMARK 922        TOTAL FREE ENERGY PREDICTED BY IDOCK:   -9.30 KCAL/MOL
REMARK 923 INTER-LIGAND FREE ENERGY PREDICTED BY IDOCK:   -8.11 KCAL/MOL
REMARK 924 INTRA-LIGAND FREE ENERGY PREDICTED BY IDOCK:   -1.19 KCAL/MOL
REMARK 927      BINDING AFFINITY PREDICTED BY RF-SCORE:    0.00 PKD
ROOT
HETATM    1  C   UNL     1      -8.397   9.280  65.062  1.00  0.00    -0.160 C  
HETATM    2  C   UNL     1      -8.546   8.043  65.932  1.00  0.00    -0.171 C  
ENDROOT
BRANCH   2   3
HETATM    3  C   UNL     1      -9.252   8.377  67.244  1.00  0.00    -0.165 C  
BRANCH   3   4
HETATM    4  C   UNL     1     -10.671   7.818  67.267  1.00  0.00    -0.326 C  
BRANCH   4   5
HETATM    5  C   UNL     1     -10.667   6.314  66.998  1.00  0.00    -0.435 C  
BRANCH   5   6
HETATM    6  C   UNL     1     -10.298   5.545  68.260  1.00  0.00    -0.237 C  
BRANCH   6   7
HETATM    7  C   UNL     1     -11.017   6.099  69.487  1.00  0.00    -0.463 C  
BRANCH   7   8
HETATM    8  C   UNL     1     -10.553   5.351  70.734  1.00  0.00    -0.293 C  
BRANCH   8   9
HETATM    9  C   UNL     1     -11.445   5.639  71.933  1.00  0.00    -0.163 C  
BRANCH   9  10
HETATM   10  C   UNL     1     -10.642   6.152  73.139  1.00  0.00    -0.269 C  
BRANCH  10  11
HETATM   11  C   UNL     1     -10.542   7.681  73.222  1.00  0.00    -0.411 C  
BRANCH  11  12
HETATM   12  C   UNL     1      -9.238   8.155  72.629  1.00  0.00    -0.263 C  
HETATM   13  O   UNL     1      -8.169   7.572  72.725  1.00  0.00    -0.106 OA 
BRANCH  12  14
HETATM   14  O   UNL     1      -9.470   9.223  71.817  1.00  0.00    -0.302 OA 
BRANCH  14  15
HETATM   15  C   UNL     1     -10.825   9.332  71.363  1.00  0.00    -0.364 C  
BRANCH  15  16
HETATM   16  C   UNL     1     -10.754   9.892  69.939  1.00  0.00    -0.280 C  
BRANCH  16  17
HETATM   17  N   UNL     1     -10.937  11.332  69.854  1.00  0.00    -0.471 N  
HETATM   18  C   UNL     1     -11.748  11.882  68.891  1.00  0.00    -0.323 C  
HETATM   19  H   UNL     1     -10.458  11.941  70.517  1.00  0.00     0.000 HD 
HETATM   20  O   UNL     1     -12.267  11.229  67.991  1.00  0.00    -0.621 OA 
BRANCH  18  21
HETATM   21  C   UNL     1     -11.907  13.388  68.936  1.00  0.00    -0.334 C  
BRANCH  21  22
HETATM   22  N   UNL     1     -11.254  13.977  67.748  1.00  0.00    -0.270 NA 
HETATM   23  C   UNL     1      -9.917  14.211  67.763  1.00  0.00    -0.235 A  
HETATM   24  C   UNL     1      -9.288  14.785  66.666  1.00  0.00    -0.291 A  
HETATM   25  C   UNL     1     -10.036  15.102  65.541  1.00  0.00    -0.384 A  
HETATM   26  C   UNL     1     -11.400  14.843  65.534  1.00  0.00    -0.339 A  
HETATM   27  C   UNL     1     -11.991  14.276  66.655  1.00  0.00    -0.430 A  
ENDBRANCH  21  22
ENDBRANCH  18  21
ENDBRANCH  16  17
ENDBRANCH  15  16
ENDBRANCH  14  15
ENDBRANCH  12  14
ENDBRANCH  11  12
ENDBRANCH  10  11
ENDBRANCH   9  10
ENDBRANCH   8   9
ENDBRANCH   7   8
ENDBRANCH   6   7
ENDBRANCH   5   6
ENDBRANCH   4   5
ENDBRANCH   3   4
ENDBRANCH   2   3
TORSDOF 16
ENDMDL
MODEL      185
REMARK 921   NORMALIZED FREE ENERGY PREDICTED BY IDOCK:   -3.73 KCAL/MOL
REMARK 922        TOTAL FREE ENERGY PREDICTED BY IDOCK:   -9.29 KCAL/MOL
REMARK 923 INTER-LIGAND FREE ENERGY PREDICTED BY IDOCK:   -8.21 KCAL/MOL
REMARK 924 INTRA-LIGAND FREE ENERGY PREDICTED BY IDOCK:   -1.08 KCAL/MOL
REMARK 927      BINDING AFFINITY PREDICTED BY RF-SCORE:    0.00 PKD
ROOT
HETATM    1  C   UNL     1     -10.224  19.826  66.138  1.00  0.00    -0.618 C  
HETATM    2  C   UNL     1     -10.037  18.428  66.702  1.00  0.00    -0.399 C  
ENDROOT
BRANCH   2   3
HETATM    3  C   UNL     1      -9.516  18.480  68.137  1.00  0.00    -0.341 C  
BRANCH   3   4
HETATM    4  C   UNL     1     -10.240  17.473  69.025  1.00  0.00    -0.314 C  
BRANCH   4   5
HETATM    5  C   UNL     1     -11.043  16.483  68.182  1.00  0.00    -0.303 C  
BRANCH   5   6
HETATM    6  C   UNL     1     -11.877  15.571  69.073  1.00  0.00    -0.373 C  
BRANCH   6   7
HETATM    7  C   UNL     1     -11.993  14.167  68.487  1.00  0.00    -0.367 C  
BRANCH   7   8
HETATM    8  C   UNL     1     -11.726  13.134  69.578  1.00  0.00    -0.382 C  
BRANCH   8   9
HETATM    9  C   UNL     1     -12.477  13.458  70.862  1.00  0.00    -0.439 C  
BRANCH   9  10
HETATM   10  C   UNL     1     -12.955  12.190  71.588  1.00  0.00    -0.427 C  
BRANCH  10  11
HETATM   11  C   UNL     1     -12.465  10.881  70.953  1.00  0.00    -0.507 C  
BRANCH  11  12
HETATM   12  C   UNL     1     -12.976   9.696  71.734  1.00  0.00    -0.420 C  
HETATM   13  O   UNL     1     -14.152   9.453  71.953  1.00  0.00    -0.270 OA 
BRANCH  12  14
HETATM   14  O   UNL     1     -11.945   8.845  71.993  1.00  0.00    -0.341 OA 
BRANCH  14  15
HETATM   15  C   UNL     1     -12.289   7.458  71.888  1.00  0.00    -0.310 C  
BRANCH  15  16
HETATM   16  C   UNL     1     -10.989   6.678  72.109  1.00  0.00    -0.245 C  
BRANCH  16  17
HETATM   17  N   UNL     1      -9.975   6.906  71.092  1.00  0.00    -0.178 N  
HETATM   18  C   UNL     1     -10.096   6.350  69.841  1.00  0.00    -0.171 C  
HETATM   19  H   UNL     1      -9.165   7.486  71.309  1.00  0.00     0.000 HD 
HETATM   20  O   UNL     1     -10.979   5.552  69.539  1.00  0.00    -0.288 OA 
BRANCH  18  21
HETATM   21  C   UNL     1      -9.009   6.703  68.848  1.00  0.00    -0.130 C  
BRANCH  21  22
HETATM   22  N   UNL     1      -9.463   7.840  68.020  1.00  0.00    -0.144 NA 
HETATM   23  C   UNL     1     -10.312   8.759  68.546  1.00  0.00    -0.199 A  
HETATM   24  C   UNL     1     -10.768   9.821  67.778  1.00  0.00    -0.329 A  
HETATM   25  C   UNL     1     -10.332   9.950  66.467  1.00  0.00    -0.259 A  
HETATM   26  C   UNL     1      -9.450   9.013  65.946  1.00  0.00    -0.317 A  
HETATM   27  C   UNL     1      -9.026   7.960  66.746  1.00  0.00    -0.145 A  
ENDBRANCH  21  22
ENDBRANCH  18  21
ENDBRANCH  16  17
ENDBRANCH  15  16
ENDBRANCH  14  15
ENDBRANCH  12  14
ENDBRANCH  11  12
ENDBRANCH  10  11
ENDBRANCH   9  10
ENDBRANCH   8   9
ENDBRANCH   7   8
ENDBRANCH   6   7
ENDBRANCH   5   6
ENDBRANCH   4   5
ENDBRANCH   3   4
ENDBRANCH   2   3
TORSDOF 16
ENDMDL
MODEL      186
REMARK 921   NORMALIZED FREE ENERGY PREDICTED BY IDOCK:   -3.73 KCAL/MOL
REMARK 922        TOTAL FREE ENERGY PREDICTED BY IDOCK:   -9.29 KCAL/MOL
REMARK 923 INTER-LIGAND FREE ENERGY PREDICTED BY IDOCK:   -8.22 KCAL/MOL
REMARK 924 INTRA-LIGAND FREE ENERGY PREDICTED BY IDOCK:   -1.08 KCAL/MOL
REMARK 927      BINDING AFFINITY PREDICTED BY RF-SCORE:    0.00 PKD
ROOT
HETATM    1  C   UNL     1     -13.225   9.385  71.909  1.00  0.00    -0.507 C  
HETATM    2  C   UNL     1     -12.754  10.617  71.154  1.00  0.00    -0.522 C  
ENDROOT
BRANCH   2   3
HETATM    3  C   UNL     1     -13.114  11.894  71.909  1.00  0.00    -0.474 C  
BRANCH   3   4
HETATM    4  C   UNL     1     -12.580  13.130  71.191  1.00  0.00    -0.403 C  
BRANCH   4   5
HETATM    5  C   UNL     1     -11.947  12.750  69.853  1.00  0.00    -0.368 C  
BRANCH   5   6
HETATM    6  C   UNL     1     -11.499  13.994  69.098  1.00  0.00    -0.340 C  
BRANCH   6   7
HETATM    7  C   UNL     1     -12.052  14.019  67.676  1.00  0.00    -0.344 C  
BRANCH   7   8
HETATM    8  C   UNL     1     -11.136  14.854  66.785  1.00  0.00    -0.335 C  
BRANCH   8   9
HETATM    9  C   UNL     1     -11.505  14.727  65.314  1.00  0.00    -0.352 C  
BRANCH   9  10
HETATM   10  C   UNL     1     -11.404  13.277  64.817  1.00  0.00    -0.350 C  
BRANCH  10  11
HETATM   11  C   UNL     1     -10.045  12.615  65.082  1.00  0.00    -0.257 C  
BRANCH  11  12
HETATM   12  C   UNL     1     -10.042  11.197  64.568  1.00  0.00    -0.308 C  
HETATM   13  O   UNL     1     -10.615  10.814  63.559  1.00  0.00    -0.223 OA 
BRANCH  12  14
HETATM   14  O   UNL     1      -9.156  10.455  65.287  1.00  0.00    -0.171 OA 
BRANCH  14  15
HETATM   15  C   UNL     1      -9.740   9.331  65.958  1.00  0.00    -0.289 C  
BRANCH  15  16
HETATM   16  C   UNL     1     -10.064   9.805  67.379  1.00  0.00    -0.208 C  
BRANCH  16  17
HETATM   17  N   UNL     1     -10.834   8.855  68.165  1.00  0.00    -0.467 N  
HETATM   18  C   UNL     1     -10.255   7.704  68.641  1.00  0.00    -0.199 C  
HETATM   19  H   UNL     1     -11.815   9.045  68.366  1.00  0.00     0.000 HD 
HETATM   20  O   UNL     1      -9.117   7.350  68.349  1.00  0.00    -0.134 OA 
BRANCH  18  21
HETATM   21  C   UNL     1     -11.138   6.818  69.495  1.00  0.00    -0.273 C  
BRANCH  21  22
HETATM   22  N   UNL     1     -10.786   7.013  70.917  1.00  0.00    -0.236 NA 
HETATM   23  C   UNL     1     -11.229   6.129  71.847  1.00  0.00    -0.284 A  
HETATM   24  C   UNL     1     -10.927   6.307  73.190  1.00  0.00    -0.251 A  
HETATM   25  C   UNL     1     -10.150   7.390  73.577  1.00  0.00    -0.390 A  
HETATM   26  C   UNL     1      -9.690   8.277  72.613  1.00  0.00    -0.357 A  
HETATM   27  C   UNL     1     -10.022   8.067  71.281  1.00  0.00    -0.174 A  
ENDBRANCH  21  22
ENDBRANCH  18  21
ENDBRANCH  16  17
ENDBRANCH  15  16
ENDBRANCH  14  15
ENDBRANCH  12  14
ENDBRANCH  11  12
ENDBRANCH  10  11
ENDBRANCH   9  10
ENDBRANCH   8   9
ENDBRANCH   7   8
ENDBRANCH   6   7
ENDBRANCH   5   6
ENDBRANCH   4   5
ENDBRANCH   3   4
ENDBRANCH   2   3
TORSDOF 16
ENDMDL
MODEL      187
REMARK 921   NORMALIZED FREE ENERGY PREDICTED BY IDOCK:   -3.72 KCAL/MOL
REMARK 922        TOTAL FREE ENERGY PREDICTED BY IDOCK:   -9.28 KCAL/MOL
REMARK 923 INTER-LIGAND FREE ENERGY PREDICTED BY IDOCK:   -7.46 KCAL/MOL
REMARK 924 INTRA-LIGAND FREE ENERGY PREDICTED BY IDOCK:   -1.82 KCAL/MOL
REMARK 927      BINDING AFFINITY PREDICTED BY RF-SCORE:    0.00 PKD
ROOT
HETATM    1  C   UNL     1      -8.894   4.610  71.454  1.00  0.00    -0.151 C  
HETATM    2  C   UNL     1     -10.156   5.007  70.707  1.00  0.00    -0.307 C  
ENDROOT
BRANCH   2   3
HETATM    3  C   UNL     1     -10.919   6.096  71.459  1.00  0.00    -0.328 C  
BRANCH   3   4
HETATM    4  C   UNL     1     -11.256   7.268  70.541  1.00  0.00    -0.305 C  
BRANCH   4   5
HETATM    5  C   UNL     1     -10.954   8.599  71.228  1.00  0.00    -0.333 C  
BRANCH   5   6
HETATM    6  C   UNL     1      -9.532   9.051  70.921  1.00  0.00    -0.331 C  
BRANCH   6   7
HETATM    7  C   UNL     1      -9.122   8.688  69.497  1.00  0.00    -0.146 C  
BRANCH   7   8
HETATM    8  C   UNL     1      -8.330   9.839  68.883  1.00  0.00    -0.120 C  
BRANCH   8   9
HETATM    9  C   UNL     1      -8.765  10.128  67.453  1.00  0.00    -0.125 C  
BRANCH   9  10
HETATM   10  C   UNL     1      -9.798  11.263  67.382  1.00  0.00    -0.201 C  
BRANCH  10  11
HETATM   11  C   UNL     1     -11.256  10.794  67.485  1.00  0.00    -0.346 C  
BRANCH  11  12
HETATM   12  C   UNL     1     -11.843  11.193  68.816  1.00  0.00    -0.320 C  
HETATM   13  O   UNL     1     -12.764  10.621  69.378  1.00  0.00    -0.224 OA 
BRANCH  12  14
HETATM   14  O   UNL     1     -11.072  12.163  69.380  1.00  0.00    -0.207 OA 
BRANCH  14  15
HETATM   15  C   UNL     1     -11.816  13.196  70.037  1.00  0.00    -0.290 C  
BRANCH  15  16
HETATM   16  C   UNL     1     -11.235  14.523  69.539  1.00  0.00    -0.264 C  
BRANCH  16  17
HETATM   17  N   UNL     1     -10.847  14.517  68.138  1.00  0.00    -0.236 N  
HETATM   18  C   UNL     1     -10.786  15.686  67.419  1.00  0.00    -0.309 C  
HETATM   19  H   UNL     1     -10.618  13.634  67.682  1.00  0.00     0.000 HD 
HETATM   20  O   UNL     1     -11.154  16.770  67.861  1.00  0.00    -0.302 OA 
BRANCH  18  21
HETATM   21  C   UNL     1     -10.315  15.562  65.985  1.00  0.00    -0.326 C  
BRANCH  21  22
HETATM   22  N   UNL     1     -10.981  14.401  65.357  1.00  0.00    -0.322 NA 
HETATM   23  C   UNL     1     -10.256  13.537  64.601  1.00  0.00    -0.316 A  
HETATM   24  C   UNL     1     -10.867  12.454  63.985  1.00  0.00    -0.441 A  
HETATM   25  C   UNL     1     -12.227  12.247  64.163  1.00  0.00    -0.539 A  
HETATM   26  C   UNL     1     -12.954  13.129  64.952  1.00  0.00    -0.213 A  
HETATM   27  C   UNL     1     -12.305  14.206  65.544  1.00  0.00    -0.458 A  
ENDBRANCH  21  22
ENDBRANCH  18  21
ENDBRANCH  16  17
ENDBRANCH  15  16
ENDBRANCH  14  15
ENDBRANCH  12  14
ENDBRANCH  11  12
ENDBRANCH  10  11
ENDBRANCH   9  10
ENDBRANCH   8   9
ENDBRANCH   7   8
ENDBRANCH   6   7
ENDBRANCH   5   6
ENDBRANCH   4   5
ENDBRANCH   3   4
ENDBRANCH   2   3
TORSDOF 16
ENDMDL
MODEL      188
REMARK 921   NORMALIZED FREE ENERGY PREDICTED BY IDOCK:   -3.71 KCAL/MOL
REMARK 922        TOTAL FREE ENERGY PREDICTED BY IDOCK:   -9.27 KCAL/MOL
REMARK 923 INTER-LIGAND FREE ENERGY PREDICTED BY IDOCK:   -7.98 KCAL/MOL
REMARK 924 INTRA-LIGAND FREE ENERGY PREDICTED BY IDOCK:   -1.29 KCAL/MOL
REMARK 927      BINDING AFFINITY PREDICTED BY RF-SCORE:    0.00 PKD
ROOT
HETATM    1  C   UNL     1      -8.469   9.508  70.434  1.00  0.00    -0.238 C  
HETATM    2  C   UNL     1      -9.323  10.506  69.670  1.00  0.00    -0.010 C  
ENDROOT
BRANCH   2   3
HETATM    3  C   UNL     1     -10.777  10.046  69.603  1.00  0.00    -0.282 C  
BRANCH   3   4
HETATM    4  C   UNL     1     -11.723  11.120  70.134  1.00  0.00    -0.439 C  
BRANCH   4   5
HETATM    5  C   UNL     1     -12.946  10.487  70.795  1.00  0.00    -0.413 C  
BRANCH   5   6
HETATM    6  C   UNL     1     -12.524   9.393  71.767  1.00  0.00    -0.471 C  
BRANCH   6   7
HETATM    7  C   UNL     1     -13.680   8.448  72.086  1.00  0.00    -0.378 C  
BRANCH   7   8
HETATM    8  C   UNL     1     -13.453   7.108  71.390  1.00  0.00    -0.374 C  
BRANCH   8   9
HETATM    9  C   UNL     1     -11.972   6.793  71.237  1.00  0.00    -0.414 C  
BRANCH   9  10
HETATM   10  C   UNL     1     -11.598   6.467  69.783  1.00  0.00    -0.397 C  
BRANCH  10  11
HETATM   11  C   UNL     1     -10.510   5.393  69.640  1.00  0.00    -0.361 C  
BRANCH  11  12
HETATM   12  C   UNL     1      -9.275   5.979  69.003  1.00  0.00    -0.121 C  
HETATM   13  O   UNL     1      -8.200   6.131  69.563  1.00  0.00    -0.113 OA 
BRANCH  12  14
HETATM   14  O   UNL     1      -9.484   6.135  67.666  1.00  0.00    -0.113 OA 
BRANCH  14  15
HETATM   15  C   UNL     1      -9.746   7.486  67.268  1.00  0.00    -0.167 C  
BRANCH  15  16
HETATM   16  C   UNL     1      -8.764   7.794  66.133  1.00  0.00    -0.156 C  
BRANCH  16  17
HETATM   17  N   UNL     1      -9.284   8.700  65.122  1.00  0.00    -0.431 N  
HETATM   18  C   UNL     1      -8.869  10.008  65.069  1.00  0.00    -0.186 C  
HETATM   19  H   UNL     1      -9.966   8.360  64.443  1.00  0.00     0.000 HD 
HETATM   20  O   UNL     1      -8.142  10.521  65.914  1.00  0.00    -0.144 OA 
BRANCH  18  21
HETATM   21  C   UNL     1      -9.437  10.841  63.938  1.00  0.00    -0.274 C  
BRANCH  21  22
HETATM   22  N   UNL     1     -10.481  11.739  64.476  1.00  0.00    -0.285 NA 
HETATM   23  C   UNL     1     -10.715  11.773  65.813  1.00  0.00    -0.280 A  
HETATM   24  C   UNL     1     -11.706  12.592  66.335  1.00  0.00    -0.458 A  
HETATM   25  C   UNL     1     -12.447  13.395  65.480  1.00  0.00    -0.534 A  
HETATM   26  C   UNL     1     -12.186  13.363  64.117  1.00  0.00    -0.457 A  
HETATM   27  C   UNL     1     -11.191  12.522  63.634  1.00  0.00    -0.483 A  
ENDBRANCH  21  22
ENDBRANCH  18  21
ENDBRANCH  16  17
ENDBRANCH  15  16
ENDBRANCH  14  15
ENDBRANCH  12  14
ENDBRANCH  11  12
ENDBRANCH  10  11
ENDBRANCH   9  10
ENDBRANCH   8   9
ENDBRANCH   7   8
ENDBRANCH   6   7
ENDBRANCH   5   6
ENDBRANCH   4   5
ENDBRANCH   3   4
ENDBRANCH   2   3
TORSDOF 16
ENDMDL
MODEL      189
REMARK 921   NORMALIZED FREE ENERGY PREDICTED BY IDOCK:   -3.71 KCAL/MOL
REMARK 922        TOTAL FREE ENERGY PREDICTED BY IDOCK:   -9.27 KCAL/MOL
REMARK 923 INTER-LIGAND FREE ENERGY PREDICTED BY IDOCK:   -7.61 KCAL/MOL
REMARK 924 INTRA-LIGAND FREE ENERGY PREDICTED BY IDOCK:   -1.66 KCAL/MOL
REMARK 927      BINDING AFFINITY PREDICTED BY RF-SCORE:    0.00 PKD
ROOT
HETATM    1  C   UNL     1      -9.331  11.383  65.601  1.00  0.00    -0.242 C  
HETATM    2  C   UNL     1     -10.505  10.850  64.798  1.00  0.00    -0.373 C  
ENDROOT
BRANCH   2   3
HETATM    3  C   UNL     1     -10.754  11.703  63.557  1.00  0.00    -0.495 C  
BRANCH   3   4
HETATM    4  C   UNL     1     -12.210  12.154  63.478  1.00  0.00    -0.670 C  
BRANCH   4   5
HETATM    5  C   UNL     1     -12.542  13.118  64.617  1.00  0.00    -0.384 C  
BRANCH   5   6
HETATM    6  C   UNL     1     -11.664  14.360  64.542  1.00  0.00    -0.430 C  
BRANCH   6   7
HETATM    7  C   UNL     1     -10.986  14.650  65.879  1.00  0.00    -0.332 C  
BRANCH   7   8
HETATM    8  C   UNL     1     -11.885  14.183  67.020  1.00  0.00    -0.458 C  
BRANCH   8   9
HETATM    9  C   UNL     1     -11.080  13.601  68.174  1.00  0.00    -0.281 C  
BRANCH   9  10
HETATM   10  C   UNL     1     -11.459  12.140  68.462  1.00  0.00    -0.349 C  
BRANCH  10  11
HETATM   11  C   UNL     1     -11.834  11.865  69.925  1.00  0.00    -0.418 C  
BRANCH  11  12
HETATM   12  C   UNL     1     -11.604  10.413  70.262  1.00  0.00    -0.327 C  
HETATM   13  O   UNL     1     -10.974   9.623  69.576  1.00  0.00    -0.232 OA 
BRANCH  12  14
HETATM   14  O   UNL     1     -12.041  10.166  71.528  1.00  0.00    -0.377 OA 
BRANCH  14  15
HETATM   15  C   UNL     1     -12.728   8.918  71.679  1.00  0.00    -0.349 C  
BRANCH  15  16
HETATM   16  C   UNL     1     -11.790   8.010  72.483  1.00  0.00    -0.361 C  
BRANCH  16  17
HETATM   17  N   UNL     1     -10.728   7.403  71.699  1.00  0.00    -0.214 N  
HETATM   18  C   UNL     1      -9.566   6.979  72.297  1.00  0.00    -0.149 C  
HETATM   19  H   UNL     1     -10.847   7.290  70.692  1.00  0.00     0.000 HD 
HETATM   20  O   UNL     1      -9.302   7.181  73.478  1.00  0.00    -0.156 OA 
BRANCH  18  21
HETATM   21  C   UNL     1      -8.556   6.310  71.388  1.00  0.00    -0.131 C  
BRANCH  21  22
HETATM   22  N   UNL     1      -8.966   4.908  71.160  1.00  0.00    -0.133 NA 
HETATM   23  C   UNL     1      -9.572   4.214  72.157  1.00  0.00    -0.147 A  
HETATM   24  C   UNL     1      -9.944   2.890  71.969  1.00  0.00    -0.227 A  
HETATM   25  C   UNL     1      -9.709   2.282  70.744  1.00  0.00    -0.102 A  
HETATM   26  C   UNL     1      -9.103   3.009  69.728  1.00  0.00    -0.200 A  
HETATM   27  C   UNL     1      -8.738   4.329  69.960  1.00  0.00    -0.073 A  
ENDBRANCH  21  22
ENDBRANCH  18  21
ENDBRANCH  16  17
ENDBRANCH  15  16
ENDBRANCH  14  15
ENDBRANCH  12  14
ENDBRANCH  11  12
ENDBRANCH  10  11
ENDBRANCH   9  10
ENDBRANCH   8   9
ENDBRANCH   7   8
ENDBRANCH   6   7
ENDBRANCH   5   6
ENDBRANCH   4   5
ENDBRANCH   3   4
ENDBRANCH   2   3
TORSDOF 16
ENDMDL
MODEL      190
REMARK 921   NORMALIZED FREE ENERGY PREDICTED BY IDOCK:   -3.71 KCAL/MOL
REMARK 922        TOTAL FREE ENERGY PREDICTED BY IDOCK:   -9.26 KCAL/MOL
REMARK 923 INTER-LIGAND FREE ENERGY PREDICTED BY IDOCK:   -8.38 KCAL/MOL
REMARK 924 INTRA-LIGAND FREE ENERGY PREDICTED BY IDOCK:   -0.88 KCAL/MOL
REMARK 927      BINDING AFFINITY PREDICTED BY RF-SCORE:    0.00 PKD
ROOT
HETATM    1  C   UNL     1      -9.240   2.469  68.928  1.00  0.00    -0.219 C  
HETATM    2  C   UNL     1      -8.801   3.917  68.796  1.00  0.00    -0.152 C  
ENDROOT
BRANCH   2   3
HETATM    3  C   UNL     1      -9.964   4.806  68.362  1.00  0.00    -0.156 C  
BRANCH   3   4
HETATM    4  C   UNL     1     -10.189   5.947  69.351  1.00  0.00    -0.284 C  
BRANCH   4   5
HETATM    5  C   UNL     1     -10.730   7.185  68.637  1.00  0.00    -0.198 C  
BRANCH   5   6
HETATM    6  C   UNL     1     -10.503   7.081  67.135  1.00  0.00    -0.383 C  
BRANCH   6   7
HETATM    7  C   UNL     1      -9.351   7.971  66.677  1.00  0.00    -0.249 C  
BRANCH   7   8
HETATM    8  C   UNL     1      -9.907   9.201  65.965  1.00  0.00    -0.342 C  
BRANCH   8   9
HETATM    9  C   UNL     1      -9.978  10.408  66.890  1.00  0.00    -0.254 C  
BRANCH   9  10
HETATM   10  C   UNL     1     -10.565  11.641  66.186  1.00  0.00    -0.306 C  
BRANCH  10  11
HETATM   11  C   UNL     1     -10.910  11.416  64.708  1.00  0.00    -0.339 C  
BRANCH  11  12
HETATM   12  C   UNL     1     -11.481  12.674  64.104  1.00  0.00    -0.387 C  
HETATM   13  O   UNL     1     -12.597  12.778  63.619  1.00  0.00    -0.685 OA 
BRANCH  12  14
HETATM   14  O   UNL     1     -10.641  13.718  64.351  1.00  0.00    -0.418 OA 
BRANCH  14  15
HETATM   15  C   UNL     1     -11.297  14.897  64.833  1.00  0.00    -0.413 C  
BRANCH  15  16
HETATM   16  C   UNL     1     -10.435  15.423  65.985  1.00  0.00    -0.321 C  
BRANCH  16  17
HETATM   17  N   UNL     1     -10.441  16.870  66.124  1.00  0.00    -0.305 N  
HETATM   18  C   UNL     1     -10.703  17.460  67.336  1.00  0.00    -0.251 C  
HETATM   19  H   UNL     1     -10.248  17.455  65.311  1.00  0.00     0.000 HD 
HETATM   20  O   UNL     1     -11.054  16.832  68.331  1.00  0.00    -0.357 OA 
BRANCH  18  21
HETATM   21  C   UNL     1     -10.626  18.972  67.372  1.00  0.00    -0.474 C  
BRANCH  21  22
HETATM   22  N   UNL     1      -9.206  19.383  67.360  1.00  0.00    -0.299 NA 
HETATM   23  C   UNL     1      -8.464  19.270  68.490  1.00  0.00    -0.366 A  
HETATM   24  C   UNL     1      -7.135  19.672  68.505  1.00  0.00    -0.356 A  
HETATM   25  C   UNL     1      -6.562  20.174  67.346  1.00  0.00    -0.253 A  
HETATM   26  C   UNL     1      -7.328  20.268  66.192  1.00  0.00    -0.276 A  
HETATM   27  C   UNL     1      -8.656  19.864  66.222  1.00  0.00    -0.337 A  
ENDBRANCH  21  22
ENDBRANCH  18  21
ENDBRANCH  16  17
ENDBRANCH  15  16
ENDBRANCH  14  15
ENDBRANCH  12  14
ENDBRANCH  11  12
ENDBRANCH  10  11
ENDBRANCH   9  10
ENDBRANCH   8   9
ENDBRANCH   7   8
ENDBRANCH   6   7
ENDBRANCH   5   6
ENDBRANCH   4   5
ENDBRANCH   3   4
ENDBRANCH   2   3
TORSDOF 16
ENDMDL
MODEL      191
REMARK 921   NORMALIZED FREE ENERGY PREDICTED BY IDOCK:   -3.71 KCAL/MOL
REMARK 922        TOTAL FREE ENERGY PREDICTED BY IDOCK:   -9.26 KCAL/MOL
REMARK 923 INTER-LIGAND FREE ENERGY PREDICTED BY IDOCK:   -8.02 KCAL/MOL
REMARK 924 INTRA-LIGAND FREE ENERGY PREDICTED BY IDOCK:   -1.24 KCAL/MOL
REMARK 927      BINDING AFFINITY PREDICTED BY RF-SCORE:    0.00 PKD
ROOT
HETATM    1  C   UNL     1      -9.042   2.754  68.865  1.00  0.00    -0.207 C  
HETATM    2  C   UNL     1      -8.791   4.250  68.948  1.00  0.00    -0.139 C  
ENDROOT
BRANCH   2   3
HETATM    3  C   UNL     1      -9.978   5.037  68.398  1.00  0.00    -0.202 C  
BRANCH   3   4
HETATM    4  C   UNL     1     -10.603   5.921  69.474  1.00  0.00    -0.378 C  
BRANCH   4   5
HETATM    5  C   UNL     1     -11.016   7.273  68.893  1.00  0.00    -0.055 C  
BRANCH   5   6
HETATM    6  C   UNL     1     -10.624   7.368  67.424  1.00  0.00    -0.371 C  
BRANCH   6   7
HETATM    7  C   UNL     1      -9.718   8.568  67.160  1.00  0.00    -0.251 C  
BRANCH   7   8
HETATM    8  C   UNL     1     -10.553   9.734  66.638  1.00  0.00    -0.178 C  
BRANCH   8   9
HETATM    9  C   UNL     1     -10.450  10.955  67.541  1.00  0.00    -0.252 C  
BRANCH   9  10
HETATM   10  C   UNL     1     -11.085  12.200  66.903  1.00  0.00    -0.348 C  
BRANCH  10  11
HETATM   11  C   UNL     1     -11.632  11.971  65.487  1.00  0.00    -0.352 C  
BRANCH  11  12
HETATM   12  C   UNL     1     -11.735  13.281  64.747  1.00  0.00    -0.355 C  
HETATM   13  O   UNL     1     -12.562  13.538  63.885  1.00  0.00    -0.681 OA 
BRANCH  12  14
HETATM   14  O   UNL     1     -10.895  14.191  65.313  1.00  0.00    -0.313 OA 
BRANCH  14  15
HETATM   15  C   UNL     1     -10.998  15.508  64.760  1.00  0.00    -0.399 C  
BRANCH  15  16
HETATM   16  C   UNL     1     -10.679  16.477  65.904  1.00  0.00    -0.190 C  
BRANCH  16  17
HETATM   17  N   UNL     1     -10.275  15.828  67.141  1.00  0.00    -0.273 N  
HETATM   18  C   UNL     1     -10.213  16.534  68.318  1.00  0.00    -0.268 C  
HETATM   19  H   UNL     1     -10.033  14.837  67.134  1.00  0.00     0.000 HD 
HETATM   20  O   UNL     1     -10.378  17.748  68.387  1.00  0.00    -0.356 OA 
BRANCH  18  21
HETATM   21  C   UNL     1      -9.835  15.739  69.551  1.00  0.00    -0.283 C  
BRANCH  21  22
HETATM   22  N   UNL     1     -11.065  15.242  70.201  1.00  0.00    -0.273 NA 
HETATM   23  C   UNL     1     -11.494  13.978  69.953  1.00  0.00    -0.206 A  
HETATM   24  C   UNL     1     -12.659  13.501  70.536  1.00  0.00    -0.311 A  
HETATM   25  C   UNL     1     -13.377  14.320  71.395  1.00  0.00    -0.411 A  
HETATM   26  C   UNL     1     -12.918  15.605  71.654  1.00  0.00    -0.551 A  
HETATM   27  C   UNL     1     -11.752  16.047  71.042  1.00  0.00    -0.417 A  
ENDBRANCH  21  22
ENDBRANCH  18  21
ENDBRANCH  16  17
ENDBRANCH  15  16
ENDBRANCH  14  15
ENDBRANCH  12  14
ENDBRANCH  11  12
ENDBRANCH  10  11
ENDBRANCH   9  10
ENDBRANCH   8   9
ENDBRANCH   7   8
ENDBRANCH   6   7
ENDBRANCH   5   6
ENDBRANCH   4   5
ENDBRANCH   3   4
ENDBRANCH   2   3
TORSDOF 16
ENDMDL
MODEL      192
REMARK 921   NORMALIZED FREE ENERGY PREDICTED BY IDOCK:   -3.71 KCAL/MOL
REMARK 922        TOTAL FREE ENERGY PREDICTED BY IDOCK:   -9.25 KCAL/MOL
REMARK 923 INTER-LIGAND FREE ENERGY PREDICTED BY IDOCK:   -7.00 KCAL/MOL
REMARK 924 INTRA-LIGAND FREE ENERGY PREDICTED BY IDOCK:   -2.26 KCAL/MOL
REMARK 927      BINDING AFFINITY PREDICTED BY RF-SCORE:    0.00 PKD
ROOT
HETATM    1  C   UNL     1      -9.369   9.161  71.015  1.00  0.00    -0.333 C  
HETATM    2  C   UNL     1      -8.318   8.190  71.525  1.00  0.00    -0.155 C  
ENDROOT
BRANCH   2   3
HETATM    3  C   UNL     1      -8.682   7.665  72.912  1.00  0.00    -0.202 C  
BRANCH   3   4
HETATM    4  C   UNL     1     -10.171   7.839  73.196  1.00  0.00    -0.398 C  
BRANCH   4   5
HETATM    5  C   UNL     1     -10.814   6.503  73.564  1.00  0.00    -0.211 C  
BRANCH   5   6
HETATM    6  C   UNL     1     -11.339   5.800  72.319  1.00  0.00    -0.334 C  
BRANCH   6   7
HETATM    7  C   UNL     1     -12.230   6.719  71.488  1.00  0.00    -0.413 C  
BRANCH   7   8
HETATM    8  C   UNL     1     -11.840   6.615  70.016  1.00  0.00    -0.301 C  
BRANCH   8   9
HETATM    9  C   UNL     1     -10.714   5.615  69.797  1.00  0.00    -0.401 C  
BRANCH   9  10
HETATM   10  C   UNL     1      -9.640   6.154  68.839  1.00  0.00    -0.144 C  
BRANCH  10  11
HETATM   11  C   UNL     1     -10.123   6.338  67.393  1.00  0.00    -0.191 C  
BRANCH  11  12
HETATM   12  C   UNL     1     -10.143   7.802  67.029  1.00  0.00    -0.273 C  
HETATM   13  O   UNL     1     -11.035   8.585  67.316  1.00  0.00    -0.117 OA 
BRANCH  12  14
HETATM   14  O   UNL     1      -8.939   8.155  66.502  1.00  0.00    -0.141 OA 
BRANCH  14  15
HETATM   15  C   UNL     1      -8.257   9.182  67.233  1.00  0.00    -0.114 C  
BRANCH  15  16
HETATM   16  C   UNL     1      -8.388  10.459  66.397  1.00  0.00    -0.139 C  
BRANCH  16  17
HETATM   17  N   UNL     1      -9.688  11.103  66.491  1.00  0.00    -0.194 N  
HETATM   18  C   UNL     1     -10.012  11.881  67.576  1.00  0.00    -0.187 C  
HETATM   19  H   UNL     1     -10.368  10.977  65.741  1.00  0.00     0.000 HD 
HETATM   20  O   UNL     1      -9.295  11.990  68.566  1.00  0.00    -0.191 OA 
BRANCH  18  21
HETATM   21  C   UNL     1     -11.372  12.547  67.536  1.00  0.00    -0.312 C  
BRANCH  21  22
HETATM   22  N   UNL     1     -11.351  13.626  66.526  1.00  0.00    -0.311 NA 
HETATM   23  C   UNL     1     -12.127  13.524  65.417  1.00  0.00    -0.415 A  
HETATM   24  C   UNL     1     -12.105  14.515  64.446  1.00  0.00    -0.492 A  
HETATM   25  C   UNL     1     -11.295  15.628  64.626  1.00  0.00    -0.355 A  
HETATM   26  C   UNL     1     -10.519  15.727  65.773  1.00  0.00    -0.384 A  
HETATM   27  C   UNL     1     -10.564  14.708  66.716  1.00  0.00    -0.288 A  
ENDBRANCH  21  22
ENDBRANCH  18  21
ENDBRANCH  16  17
ENDBRANCH  15  16
ENDBRANCH  14  15
ENDBRANCH  12  14
ENDBRANCH  11  12
ENDBRANCH  10  11
ENDBRANCH   9  10
ENDBRANCH   8   9
ENDBRANCH   7   8
ENDBRANCH   6   7
ENDBRANCH   5   6
ENDBRANCH   4   5
ENDBRANCH   3   4
ENDBRANCH   2   3
TORSDOF 16
ENDMDL
MODEL      193
REMARK 921   NORMALIZED FREE ENERGY PREDICTED BY IDOCK:   -3.70 KCAL/MOL
REMARK 922        TOTAL FREE ENERGY PREDICTED BY IDOCK:   -9.25 KCAL/MOL
REMARK 923 INTER-LIGAND FREE ENERGY PREDICTED BY IDOCK:   -8.55 KCAL/MOL
REMARK 924 INTRA-LIGAND FREE ENERGY PREDICTED BY IDOCK:   -0.69 KCAL/MOL
REMARK 927      BINDING AFFINITY PREDICTED BY RF-SCORE:    0.00 PKD
ROOT
HETATM    1  C   UNL     1      -8.511   2.578  65.324  1.00  0.00    -0.100 C  
HETATM    2  C   UNL     1      -8.556   3.855  66.145  1.00  0.00    -0.112 C  
ENDROOT
BRANCH   2   3
HETATM    3  C   UNL     1      -9.983   4.177  66.583  1.00  0.00    -0.151 C  
BRANCH   3   4
HETATM    4  C   UNL     1     -10.225   5.683  66.617  1.00  0.00    -0.276 C  
BRANCH   4   5
HETATM    5  C   UNL     1     -10.704   6.124  68.000  1.00  0.00    -0.370 C  
BRANCH   5   6
HETATM    6  C   UNL     1     -10.221   5.154  69.070  1.00  0.00    -0.241 C  
BRANCH   6   7
HETATM    7  C   UNL     1      -9.517   5.882  70.212  1.00  0.00    -0.191 C  
BRANCH   7   8
HETATM    8  C   UNL     1      -9.664   5.075  71.500  1.00  0.00    -0.227 C  
BRANCH   8   9
HETATM    9  C   UNL     1     -11.028   5.278  72.144  1.00  0.00    -0.226 C  
BRANCH   9  10
HETATM   10  C   UNL     1     -11.401   6.765  72.249  1.00  0.00    -0.310 C  
BRANCH  10  11
HETATM   11  C   UNL     1     -12.618   7.168  71.405  1.00  0.00    -0.432 C  
BRANCH  11  12
HETATM   12  C   UNL     1     -13.160   8.498  71.866  1.00  0.00    -0.362 C  
HETATM   13  O   UNL     1     -14.323   8.718  72.166  1.00  0.00    -0.440 OA 
BRANCH  12  14
HETATM   14  O   UNL     1     -12.127   9.360  72.078  1.00  0.00    -0.362 OA 
BRANCH  14  15
HETATM   15  C   UNL     1     -11.637   9.992  70.888  1.00  0.00    -0.378 C  
BRANCH  15  16
HETATM   16  C   UNL     1     -12.355  11.343  70.797  1.00  0.00    -0.386 C  
BRANCH  16  17
HETATM   17  N   UNL     1     -11.724  12.296  69.899  1.00  0.00    -0.463 N  
HETATM   18  C   UNL     1     -11.775  12.120  68.538  1.00  0.00    -0.330 C  
HETATM   19  H   UNL     1     -11.237  13.105  70.284  1.00  0.00     0.000 HD 
HETATM   20  O   UNL     1     -12.241  11.118  68.003  1.00  0.00    -0.584 OA 
BRANCH  18  21
HETATM   21  C   UNL     1     -11.131  13.207  67.701  1.00  0.00    -0.270 C  
BRANCH  21  22
HETATM   22  N   UNL     1     -11.208  12.827  66.275  1.00  0.00    -0.288 NA 
HETATM   23  C   UNL     1     -10.326  11.929  65.769  1.00  0.00    -0.248 A  
HETATM   24  C   UNL     1     -10.368  11.577  64.427  1.00  0.00    -0.364 A  
HETATM   25  C   UNL     1     -11.335  12.137  63.605  1.00  0.00    -0.545 A  
HETATM   26  C   UNL     1     -12.243  13.042  64.139  1.00  0.00    -0.471 A  
HETATM   27  C   UNL     1     -12.160  13.374  65.486  1.00  0.00    -0.428 A  
ENDBRANCH  21  22
ENDBRANCH  18  21
ENDBRANCH  16  17
ENDBRANCH  15  16
ENDBRANCH  14  15
ENDBRANCH  12  14
ENDBRANCH  11  12
ENDBRANCH  10  11
ENDBRANCH   9  10
ENDBRANCH   8   9
ENDBRANCH   7   8
ENDBRANCH   6   7
ENDBRANCH   5   6
ENDBRANCH   4   5
ENDBRANCH   3   4
ENDBRANCH   2   3
TORSDOF 16
ENDMDL
MODEL      194
REMARK 921   NORMALIZED FREE ENERGY PREDICTED BY IDOCK:   -3.69 KCAL/MOL
REMARK 922        TOTAL FREE ENERGY PREDICTED BY IDOCK:   -9.23 KCAL/MOL
REMARK 923 INTER-LIGAND FREE ENERGY PREDICTED BY IDOCK:   -7.60 KCAL/MOL
REMARK 924 INTRA-LIGAND FREE ENERGY PREDICTED BY IDOCK:   -1.63 KCAL/MOL
REMARK 927      BINDING AFFINITY PREDICTED BY RF-SCORE:    0.00 PKD
ROOT
HETATM    1  C   UNL     1      -7.243   6.311  70.530  1.00  0.00    -0.080 C  
HETATM    2  C   UNL     1      -7.023   7.383  71.583  1.00  0.00    -0.058 C  
ENDROOT
BRANCH   2   3
HETATM    3  C   UNL     1      -8.310   8.159  71.854  1.00  0.00    -0.187 C  
BRANCH   3   4
HETATM    4  C   UNL     1      -8.657   8.155  73.340  1.00  0.00    -0.313 C  
BRANCH   4   5
HETATM    5  C   UNL     1      -9.837   7.227  73.620  1.00  0.00    -0.353 C  
BRANCH   5   6
HETATM    6  C   UNL     1     -10.904   7.375  72.543  1.00  0.00    -0.327 C  
BRANCH   6   7
HETATM    7  C   UNL     1     -11.485   6.023  72.137  1.00  0.00    -0.356 C  
BRANCH   7   8
HETATM    8  C   UNL     1     -10.865   5.576  70.816  1.00  0.00    -0.249 C  
BRANCH   8   9
HETATM    9  C   UNL     1     -11.387   6.391  69.641  1.00  0.00    -0.479 C  
BRANCH   9  10
HETATM   10  C   UNL     1     -10.652   6.056  68.334  1.00  0.00    -0.322 C  
BRANCH  10  11
HETATM   11  C   UNL     1     -10.984   6.996  67.167  1.00  0.00    -0.393 C  
BRANCH  11  12
HETATM   12  C   UNL     1      -9.723   7.608  66.610  1.00  0.00    -0.213 C  
HETATM   13  O   UNL     1      -8.654   7.029  66.490  1.00  0.00    -0.119 OA 
BRANCH  12  14
HETATM   14  O   UNL     1     -10.004   8.835  66.091  1.00  0.00    -0.275 OA 
BRANCH  14  15
HETATM   15  C   UNL     1      -8.929   9.777  66.195  1.00  0.00    -0.152 C  
BRANCH  15  16
HETATM   16  C   UNL     1      -9.272  10.684  67.381  1.00  0.00    -0.143 C  
BRANCH  16  17
HETATM   17  N   UNL     1      -9.978  11.901  67.019  1.00  0.00    -0.201 N  
HETATM   18  C   UNL     1     -11.327  12.026  67.244  1.00  0.00    -0.330 C  
HETATM   19  H   UNL     1      -9.465  12.673  66.592  1.00  0.00     0.000 HD 
HETATM   20  O   UNL     1     -12.032  11.106  67.647  1.00  0.00    -0.613 OA 
BRANCH  18  21
HETATM   21  C   UNL     1     -11.943  13.361  66.877  1.00  0.00    -0.385 C  
BRANCH  21  22
HETATM   22  N   UNL     1     -11.747  14.306  67.996  1.00  0.00    -0.334 NA 
HETATM   23  C   UNL     1     -11.202  15.526  67.759  1.00  0.00    -0.302 A  
HETATM   24  C   UNL     1     -10.989  16.419  68.800  1.00  0.00    -0.344 A  
HETATM   25  C   UNL     1     -11.357  16.063  70.090  1.00  0.00    -0.369 A  
HETATM   26  C   UNL     1     -11.929  14.818  70.316  1.00  0.00    -0.367 A  
HETATM   27  C   UNL     1     -12.116  13.951  69.247  1.00  0.00    -0.339 A  
ENDBRANCH  21  22
ENDBRANCH  18  21
ENDBRANCH  16  17
ENDBRANCH  15  16
ENDBRANCH  14  15
ENDBRANCH  12  14
ENDBRANCH  11  12
ENDBRANCH  10  11
ENDBRANCH   9  10
ENDBRANCH   8   9
ENDBRANCH   7   8
ENDBRANCH   6   7
ENDBRANCH   5   6
ENDBRANCH   4   5
ENDBRANCH   3   4
ENDBRANCH   2   3
TORSDOF 16
ENDMDL
MODEL      195
REMARK 921   NORMALIZED FREE ENERGY PREDICTED BY IDOCK:   -3.69 KCAL/MOL
REMARK 922        TOTAL FREE ENERGY PREDICTED BY IDOCK:   -9.21 KCAL/MOL
REMARK 923 INTER-LIGAND FREE ENERGY PREDICTED BY IDOCK:   -7.08 KCAL/MOL
REMARK 924 INTRA-LIGAND FREE ENERGY PREDICTED BY IDOCK:   -2.14 KCAL/MOL
REMARK 927      BINDING AFFINITY PREDICTED BY RF-SCORE:    0.00 PKD
ROOT
HETATM    1  C   UNL     1      -8.822  10.143  69.768  1.00  0.00    -0.152 C  
HETATM    2  C   UNL     1      -9.976  11.053  69.384  1.00  0.00    -0.019 C  
ENDROOT
BRANCH   2   3
HETATM    3  C   UNL     1     -11.309  10.310  69.455  1.00  0.00    -0.279 C  
BRANCH   3   4
HETATM    4  C   UNL     1     -11.906  10.377  70.858  1.00  0.00    -0.475 C  
BRANCH   4   5
HETATM    5  C   UNL     1     -12.183   8.975  71.397  1.00  0.00    -0.387 C  
BRANCH   5   6
HETATM    6  C   UNL     1     -10.909   8.140  71.402  1.00  0.00    -0.281 C  
BRANCH   6   7
HETATM    7  C   UNL     1     -11.210   6.653  71.238  1.00  0.00    -0.329 C  
BRANCH   7   8
HETATM    8  C   UNL     1     -11.395   6.329  69.758  1.00  0.00    -0.506 C  
BRANCH   8   9
HETATM    9  C   UNL     1     -10.241   6.852  68.915  1.00  0.00    -0.184 C  
BRANCH   9  10
HETATM   10  C   UNL     1     -10.688   7.227  67.493  1.00  0.00    -0.326 C  
BRANCH  10  11
HETATM   11  C   UNL     1      -9.576   7.131  66.439  1.00  0.00    -0.161 C  
BRANCH  11  12
HETATM   12  C   UNL     1      -8.929   8.478  66.234  1.00  0.00    -0.168 C  
HETATM   13  O   UNL     1      -7.868   8.830  66.725  1.00  0.00    -0.096 OA 
BRANCH  12  14
HETATM   14  O   UNL     1      -9.608   9.166  65.275  1.00  0.00    -0.199 OA 
BRANCH  14  15
HETATM   15  C   UNL     1     -10.375  10.268  65.776  1.00  0.00    -0.165 C  
BRANCH  15  16
HETATM   16  C   UNL     1      -9.830  11.519  65.077  1.00  0.00    -0.257 C  
BRANCH  16  17
HETATM   17  N   UNL     1     -10.500  12.753  65.453  1.00  0.00    -0.281 N  
HETATM   18  C   UNL     1      -9.946  13.598  66.384  1.00  0.00    -0.296 C  
HETATM   19  H   UNL     1     -11.392  12.994  65.022  1.00  0.00     0.000 HD 
HETATM   20  O   UNL     1      -8.938  13.326  67.028  1.00  0.00    -0.220 OA 
BRANCH  18  21
HETATM   21  C   UNL     1     -10.706  14.881  66.653  1.00  0.00    -0.312 C  
BRANCH  21  22
HETATM   22  N   UNL     1     -11.006  14.970  68.098  1.00  0.00    -0.269 NA 
HETATM   23  C   UNL     1     -11.726  13.987  68.696  1.00  0.00    -0.354 A  
HETATM   24  C   UNL     1     -12.038  14.064  70.047  1.00  0.00    -0.412 A  
HETATM   25  C   UNL     1     -11.589  15.146  70.790  1.00  0.00    -0.361 A  
HETATM   26  C   UNL     1     -10.838  16.135  70.169  1.00  0.00    -0.328 A  
HETATM   27  C   UNL     1     -10.556  16.025  68.813  1.00  0.00    -0.262 A  
ENDBRANCH  21  22
ENDBRANCH  18  21
ENDBRANCH  16  17
ENDBRANCH  15  16
ENDBRANCH  14  15
ENDBRANCH  12  14
ENDBRANCH  11  12
ENDBRANCH  10  11
ENDBRANCH   9  10
ENDBRANCH   8   9
ENDBRANCH   7   8
ENDBRANCH   6   7
ENDBRANCH   5   6
ENDBRANCH   4   5
ENDBRANCH   3   4
ENDBRANCH   2   3
TORSDOF 16
ENDMDL
MODEL      196
REMARK 921   NORMALIZED FREE ENERGY PREDICTED BY IDOCK:   -3.68 KCAL/MOL
REMARK 922        TOTAL FREE ENERGY PREDICTED BY IDOCK:   -9.21 KCAL/MOL
REMARK 923 INTER-LIGAND FREE ENERGY PREDICTED BY IDOCK:   -7.62 KCAL/MOL
REMARK 924 INTRA-LIGAND FREE ENERGY PREDICTED BY IDOCK:   -1.60 KCAL/MOL
REMARK 927      BINDING AFFINITY PREDICTED BY RF-SCORE:    0.00 PKD
ROOT
HETATM    1  C   UNL     1     -12.112  12.919  63.663  1.00  0.00    -0.611 C  
HETATM    2  C   UNL     1     -11.376  11.598  63.810  1.00  0.00    -0.482 C  
ENDROOT
BRANCH   2   3
HETATM    3  C   UNL     1      -9.962  11.692  63.240  1.00  0.00    -0.442 C  
BRANCH   3   4
HETATM    4  C   UNL     1      -9.384  10.306  62.965  1.00  0.00    -0.338 C  
BRANCH   4   5
HETATM    5  C   UNL     1      -8.136  10.062  63.812  1.00  0.00    -0.158 C  
BRANCH   5   6
HETATM    6  C   UNL     1      -8.219   8.711  64.512  1.00  0.00    -0.166 C  
BRANCH   6   7
HETATM    7  C   UNL     1      -9.230   8.732  65.655  1.00  0.00    -0.244 C  
BRANCH   7   8
HETATM    8  C   UNL     1      -8.696   9.597  66.795  1.00  0.00    -0.144 C  
BRANCH   8   9
HETATM    9  C   UNL     1      -9.712  10.639  67.240  1.00  0.00    -0.195 C  
BRANCH   9  10
HETATM   10  C   UNL     1      -9.236  12.071  66.951  1.00  0.00    -0.197 C  
BRANCH  10  11
HETATM   11  C   UNL     1     -10.284  13.153  67.247  1.00  0.00    -0.243 C  
BRANCH  11  12
HETATM   12  C   UNL     1      -9.894  14.454  66.592  1.00  0.00    -0.278 C  
HETATM   13  O   UNL     1      -9.959  14.686  65.395  1.00  0.00    -0.359 OA 
BRANCH  12  14
HETATM   14  O   UNL     1      -9.640  15.387  67.551  1.00  0.00    -0.206 OA 
BRANCH  14  15
HETATM   15  C   UNL     1     -10.366  15.188  68.770  1.00  0.00    -0.236 C  
BRANCH  15  16
HETATM   16  C   UNL     1     -11.000  16.540  69.114  1.00  0.00    -0.303 C  
BRANCH  16  17
HETATM   17  N   UNL     1     -10.073  17.659  69.090  1.00  0.00    -0.287 N  
HETATM   18  C   UNL     1     -10.211  18.668  68.168  1.00  0.00    -0.382 C  
HETATM   19  H   UNL     1      -9.310  17.695  69.765  1.00  0.00     0.000 HD 
HETATM   20  O   UNL     1     -11.030  18.641  67.255  1.00  0.00    -0.387 OA 
BRANCH  18  21
HETATM   21  C   UNL     1      -9.220  19.809  68.276  1.00  0.00    -0.311 C  
BRANCH  21  22
HETATM   22  N   UNL     1      -8.115  19.580  67.321  1.00  0.00    -0.267 NA 
HETATM   23  C   UNL     1      -7.269  20.597  67.015  1.00  0.00    -0.316 A  
HETATM   24  C   UNL     1      -6.240  20.408  66.103  1.00  0.00    -0.237 A  
HETATM   25  C   UNL     1      -6.068  19.162  65.517  1.00  0.00    -0.262 A  
HETATM   26  C   UNL     1      -6.930  18.127  65.852  1.00  0.00    -0.319 A  
HETATM   27  C   UNL     1      -7.953  18.360  66.762  1.00  0.00    -0.244 A  
ENDBRANCH  21  22
ENDBRANCH  18  21
ENDBRANCH  16  17
ENDBRANCH  15  16
ENDBRANCH  14  15
ENDBRANCH  12  14
ENDBRANCH  11  12
ENDBRANCH  10  11
ENDBRANCH   9  10
ENDBRANCH   8   9
ENDBRANCH   7   8
ENDBRANCH   6   7
ENDBRANCH   5   6
ENDBRANCH   4   5
ENDBRANCH   3   4
ENDBRANCH   2   3
TORSDOF 16
ENDMDL
MODEL      197
REMARK 921   NORMALIZED FREE ENERGY PREDICTED BY IDOCK:   -3.68 KCAL/MOL
REMARK 922        TOTAL FREE ENERGY PREDICTED BY IDOCK:   -9.20 KCAL/MOL
REMARK 923 INTER-LIGAND FREE ENERGY PREDICTED BY IDOCK:   -7.32 KCAL/MOL
REMARK 924 INTRA-LIGAND FREE ENERGY PREDICTED BY IDOCK:   -1.88 KCAL/MOL
REMARK 927      BINDING AFFINITY PREDICTED BY RF-SCORE:    0.00 PKD
ROOT
HETATM    1  C   UNL     1      -9.205   3.390  69.551  1.00  0.00    -0.225 C  
HETATM    2  C   UNL     1      -9.383   3.427  68.043  1.00  0.00    -0.241 C  
ENDROOT
BRANCH   2   3
HETATM    3  C   UNL     1      -9.897   4.790  67.584  1.00  0.00    -0.201 C  
BRANCH   3   4
HETATM    4  C   UNL     1     -10.096   4.826  66.072  1.00  0.00    -0.282 C  
BRANCH   4   5
HETATM    5  C   UNL     1      -8.759   4.998  65.352  1.00  0.00    -0.146 C  
BRANCH   5   6
HETATM    6  C   UNL     1      -7.956   6.131  65.977  1.00  0.00    -0.110 C  
BRANCH   6   7
HETATM    7  C   UNL     1      -8.459   7.497  65.515  1.00  0.00    -0.129 C  
BRANCH   7   8
HETATM    8  C   UNL     1      -8.837   8.339  66.731  1.00  0.00    -0.158 C  
BRANCH   8   9
HETATM    9  C   UNL     1     -10.144   9.091  66.515  1.00  0.00    -0.354 C  
BRANCH   9  10
HETATM   10  C   UNL     1     -10.008  10.191  65.451  1.00  0.00    -0.377 C  
BRANCH  10  11
HETATM   11  C   UNL     1     -10.731  11.498  65.803  1.00  0.00    -0.325 C  
BRANCH  11  12
HETATM   12  C   UNL     1      -9.823  12.402  66.599  1.00  0.00    -0.223 C  
HETATM   13  O   UNL     1      -8.626  12.226  66.765  1.00  0.00    -0.194 OA 
BRANCH  12  14
HETATM   14  O   UNL     1     -10.497  13.534  66.943  1.00  0.00    -0.267 OA 
BRANCH  14  15
HETATM   15  C   UNL     1     -10.409  13.870  68.333  1.00  0.00    -0.249 C  
BRANCH  15  16
HETATM   16  C   UNL     1     -11.815  13.674  68.909  1.00  0.00    -0.364 C  
BRANCH  16  17
HETATM   17  N   UNL     1     -11.862  12.836  70.096  1.00  0.00    -0.513 N  
HETATM   18  C   UNL     1     -12.092  11.485  69.995  1.00  0.00    -0.331 C  
HETATM   19  H   UNL     1     -11.723  13.255  71.015  1.00  0.00     0.000 HD 
HETATM   20  O   UNL     1     -12.380  10.926  68.942  1.00  0.00    -0.486 OA 
BRANCH  18  21
HETATM   21  C   UNL     1     -12.063  10.706  71.294  1.00  0.00    -0.299 C  
BRANCH  21  22
HETATM   22  N   UNL     1     -11.791   9.284  70.997  1.00  0.00    -0.295 NA 
HETATM   23  C   UNL     1     -10.670   8.941  70.314  1.00  0.00    -0.221 A  
HETATM   24  C   UNL     1     -10.409   7.613  70.006  1.00  0.00    -0.223 A  
HETATM   25  C   UNL     1     -11.297   6.630  70.420  1.00  0.00    -0.421 A  
HETATM   26  C   UNL     1     -12.431   6.993  71.133  1.00  0.00    -0.407 A  
HETATM   27  C   UNL     1     -12.660   8.334  71.413  1.00  0.00    -0.275 A  
ENDBRANCH  21  22
ENDBRANCH  18  21
ENDBRANCH  16  17
ENDBRANCH  15  16
ENDBRANCH  14  15
ENDBRANCH  12  14
ENDBRANCH  11  12
ENDBRANCH  10  11
ENDBRANCH   9  10
ENDBRANCH   8   9
ENDBRANCH   7   8
ENDBRANCH   6   7
ENDBRANCH   5   6
ENDBRANCH   4   5
ENDBRANCH   3   4
ENDBRANCH   2   3
TORSDOF 16
ENDMDL
MODEL      198
REMARK 921   NORMALIZED FREE ENERGY PREDICTED BY IDOCK:   -3.67 KCAL/MOL
REMARK 922        TOTAL FREE ENERGY PREDICTED BY IDOCK:   -9.18 KCAL/MOL
REMARK 923 INTER-LIGAND FREE ENERGY PREDICTED BY IDOCK:   -7.45 KCAL/MOL
REMARK 924 INTRA-LIGAND FREE ENERGY PREDICTED BY IDOCK:   -1.73 KCAL/MOL
REMARK 927      BINDING AFFINITY PREDICTED BY RF-SCORE:    0.00 PKD
ROOT
HETATM    1  C   UNL     1     -10.722  19.702  67.075  1.00  0.00    -0.575 C  
HETATM    2  C   UNL     1     -10.327  18.239  67.176  1.00  0.00    -0.402 C  
ENDROOT
BRANCH   2   3
HETATM    3  C   UNL     1      -9.774  17.914  68.561  1.00  0.00    -0.352 C  
BRANCH   3   4
HETATM    4  C   UNL     1     -10.652  16.896  69.284  1.00  0.00    -0.325 C  
BRANCH   4   5
HETATM    5  C   UNL     1     -11.501  16.108  68.287  1.00  0.00    -0.259 C  
BRANCH   5   6
HETATM    6  C   UNL     1     -11.683  14.671  68.757  1.00  0.00    -0.357 C  
BRANCH   6   7
HETATM    7  C   UNL     1     -11.794  13.705  67.580  1.00  0.00    -0.416 C  
BRANCH   7   8
HETATM    8  C   UNL     1     -11.745  12.267  68.091  1.00  0.00    -0.408 C  
BRANCH   8   9
HETATM    9  C   UNL     1     -11.886  12.199  69.605  1.00  0.00    -0.391 C  
BRANCH   9  10
HETATM   10  C   UNL     1     -11.589  10.793  70.150  1.00  0.00    -0.424 C  
BRANCH  10  11
HETATM   11  C   UNL     1     -11.056   9.812  69.097  1.00  0.00    -0.158 C  
BRANCH  11  12
HETATM   12  C   UNL     1      -9.561   9.663  69.228  1.00  0.00    -0.185 C  
HETATM   13  O   UNL     1      -8.958   9.519  70.281  1.00  0.00    -0.221 OA 
BRANCH  12  14
HETATM   14  O   UNL     1      -9.008   9.526  67.991  1.00  0.00    -0.124 OA 
BRANCH  14  15
HETATM   15  C   UNL     1      -7.722   8.894  67.990  1.00  0.00    -0.101 C  
BRANCH  15  16
HETATM   16  C   UNL     1      -7.973   7.419  67.662  1.00  0.00    -0.114 C  
BRANCH  16  17
HETATM   17  N   UNL     1      -8.591   6.664  68.740  1.00  0.00    -0.122 N  
HETATM   18  C   UNL     1      -9.835   6.103  68.584  1.00  0.00    -0.138 C  
HETATM   19  H   UNL     1      -8.094   6.549  69.624  1.00  0.00     0.000 HD 
HETATM   20  O   UNL     1     -10.541   6.291  67.597  1.00  0.00    -0.202 OA 
BRANCH  18  21
HETATM   21  C   UNL     1     -10.352   5.292  69.754  1.00  0.00    -0.299 C  
BRANCH  21  22
HETATM   22  N   UNL     1     -10.779   6.213  70.828  1.00  0.00    -0.251 NA 
HETATM   23  C   UNL     1     -12.019   6.762  70.789  1.00  0.00    -0.378 A  
HETATM   24  C   UNL     1     -12.431   7.647  71.777  1.00  0.00    -0.358 A  
HETATM   25  C   UNL     1     -11.569   7.953  72.820  1.00  0.00    -0.387 A  
HETATM   26  C   UNL     1     -10.309   7.371  72.857  1.00  0.00    -0.328 A  
HETATM   27  C   UNL     1      -9.933   6.498  71.843  1.00  0.00    -0.177 A  
ENDBRANCH  21  22
ENDBRANCH  18  21
ENDBRANCH  16  17
ENDBRANCH  15  16
ENDBRANCH  14  15
ENDBRANCH  12  14
ENDBRANCH  11  12
ENDBRANCH  10  11
ENDBRANCH   9  10
ENDBRANCH   8   9
ENDBRANCH   7   8
ENDBRANCH   6   7
ENDBRANCH   5   6
ENDBRANCH   4   5
ENDBRANCH   3   4
ENDBRANCH   2   3
TORSDOF 16
ENDMDL
MODEL      199
REMARK 921   NORMALIZED FREE ENERGY PREDICTED BY IDOCK:   -3.67 KCAL/MOL
REMARK 922        TOTAL FREE ENERGY PREDICTED BY IDOCK:   -9.18 KCAL/MOL
REMARK 923 INTER-LIGAND FREE ENERGY PREDICTED BY IDOCK:   -7.74 KCAL/MOL
REMARK 924 INTRA-LIGAND FREE ENERGY PREDICTED BY IDOCK:   -1.43 KCAL/MOL
REMARK 927      BINDING AFFINITY PREDICTED BY RF-SCORE:    0.00 PKD
ROOT
HETATM    1  C   UNL     1     -10.164  19.845  68.246  1.00  0.00    -0.562 C  
HETATM    2  C   UNL     1     -10.548  19.655  66.789  1.00  0.00    -0.602 C  
ENDROOT
BRANCH   2   3
HETATM    3  C   UNL     1     -10.119  18.279  66.283  1.00  0.00    -0.389 C  
BRANCH   3   4
HETATM    4  C   UNL     1      -9.063  17.660  67.194  1.00  0.00    -0.247 C  
BRANCH   4   5
HETATM    5  C   UNL     1      -9.392  16.198  67.491  1.00  0.00    -0.217 C  
BRANCH   5   6
HETATM    6  C   UNL     1     -10.651  16.093  68.342  1.00  0.00    -0.286 C  
BRANCH   6   7
HETATM    7  C   UNL     1     -11.580  14.993  67.839  1.00  0.00    -0.350 C  
BRANCH   7   8
HETATM    8  C   UNL     1     -11.205  14.621  66.406  1.00  0.00    -0.336 C  
BRANCH   8   9
HETATM    9  C   UNL     1     -11.227  13.115  66.187  1.00  0.00    -0.320 C  
BRANCH   9  10
HETATM   10  C   UNL     1     -11.624  12.352  67.459  1.00  0.00    -0.431 C  
BRANCH  10  11
HETATM   11  C   UNL     1     -10.434  11.857  68.293  1.00  0.00    -0.221 C  
BRANCH  11  12
HETATM   12  C   UNL     1     -10.756  10.530  68.932  1.00  0.00    -0.220 C  
HETATM   13  O   UNL     1     -10.723   9.449  68.364  1.00  0.00    -0.219 OA 
BRANCH  12  14
HETATM   14  O   UNL     1     -10.903  10.697  70.276  1.00  0.00    -0.248 OA 
BRANCH  14  15
HETATM   15  C   UNL     1     -12.267  10.764  70.712  1.00  0.00    -0.381 C  
BRANCH  15  16
HETATM   16  C   UNL     1     -12.417   9.700  71.805  1.00  0.00    -0.402 C  
BRANCH  16  17
HETATM   17  N   UNL     1     -12.029   8.362  71.392  1.00  0.00    -0.291 N  
HETATM   18  C   UNL     1     -10.989   7.709  72.008  1.00  0.00    -0.246 C  
HETATM   19  H   UNL     1     -12.535   7.901  70.636  1.00  0.00     0.000 HD 
HETATM   20  O   UNL     1     -10.262   8.236  72.845  1.00  0.00    -0.295 OA 
BRANCH  18  21
HETATM   21  C   UNL     1     -10.713   6.298  71.533  1.00  0.00    -0.245 C  
BRANCH  21  22
HETATM   22  N   UNL     1     -10.212   6.347  70.143  1.00  0.00    -0.182 NA 
HETATM   23  C   UNL     1      -8.915   6.668  69.906  1.00  0.00    -0.144 A  
HETATM   24  C   UNL     1      -8.432   6.741  68.606  1.00  0.00    -0.123 A  
HETATM   25  C   UNL     1      -9.282   6.463  67.546  1.00  0.00    -0.112 A  
HETATM   26  C   UNL     1     -10.602   6.118  67.803  1.00  0.00    -0.338 A  
HETATM   27  C   UNL     1     -11.048   6.066  69.118  1.00  0.00    -0.335 A  
ENDBRANCH  21  22
ENDBRANCH  18  21
ENDBRANCH  16  17
ENDBRANCH  15  16
ENDBRANCH  14  15
ENDBRANCH  12  14
ENDBRANCH  11  12
ENDBRANCH  10  11
ENDBRANCH   9  10
ENDBRANCH   8   9
ENDBRANCH   7   8
ENDBRANCH   6   7
ENDBRANCH   5   6
ENDBRANCH   4   5
ENDBRANCH   3   4
ENDBRANCH   2   3
TORSDOF 16
ENDMDL
MODEL      200
REMARK 921   NORMALIZED FREE ENERGY PREDICTED BY IDOCK:   -3.66 KCAL/MOL
REMARK 922        TOTAL FREE ENERGY PREDICTED BY IDOCK:   -9.16 KCAL/MOL
REMARK 923 INTER-LIGAND FREE ENERGY PREDICTED BY IDOCK:   -8.02 KCAL/MOL
REMARK 924 INTRA-LIGAND FREE ENERGY PREDICTED BY IDOCK:   -1.15 KCAL/MOL
REMARK 927      BINDING AFFINITY PREDICTED BY RF-SCORE:    0.00 PKD
ROOT
HETATM    1  C   UNL     1      -6.274  20.784  64.480  1.00  0.00    -0.335 C  
HETATM    2  C   UNL     1      -5.950  20.749  65.964  1.00  0.00    -0.268 C  
ENDROOT
BRANCH   2   3
HETATM    3  C   UNL     1      -5.813  19.313  66.463  1.00  0.00    -0.174 C  
BRANCH   3   4
HETATM    4  C   UNL     1      -6.472  18.328  65.500  1.00  0.00    -0.277 C  
BRANCH   4   5
HETATM    5  C   UNL     1      -7.501  17.464  66.227  1.00  0.00    -0.354 C  
BRANCH   5   6
HETATM    6  C   UNL     1      -7.209  17.425  67.722  1.00  0.00    -0.177 C  
BRANCH   6   7
HETATM    7  C   UNL     1      -8.493  17.442  68.546  1.00  0.00    -0.274 C  
BRANCH   7   8
HETATM    8  C   UNL     1      -9.668  17.836  67.655  1.00  0.00    -0.282 C  
BRANCH   8   9
HETATM    9  C   UNL     1     -10.892  16.969  67.914  1.00  0.00    -0.302 C  
BRANCH   9  10
HETATM   10  C   UNL     1     -10.860  15.667  67.099  1.00  0.00    -0.297 C  
BRANCH  10  11
HETATM   11  C   UNL     1     -11.774  14.561  67.646  1.00  0.00    -0.410 C  
BRANCH  11  12
HETATM   12  C   UNL     1     -11.845  13.411  66.673  1.00  0.00    -0.395 C  
HETATM   13  O   UNL     1     -11.515  13.461  65.499  1.00  0.00    -0.300 OA 
BRANCH  12  14
HETATM   14  O   UNL     1     -12.152  12.267  67.345  1.00  0.00    -0.533 OA 
BRANCH  14  15
HETATM   15  C   UNL     1     -11.099  11.780  68.187  1.00  0.00    -0.243 C  
BRANCH  15  16
HETATM   16  C   UNL     1     -11.733  11.523  69.558  1.00  0.00    -0.346 C  
BRANCH  16  17
HETATM   17  N   UNL     1     -11.024  10.549  70.371  1.00  0.00    -0.436 N  
HETATM   18  C   UNL     1     -11.684   9.819  71.330  1.00  0.00    -0.394 C  
HETATM   19  H   UNL     1     -10.025  10.406  70.229  1.00  0.00     0.000 HD 
HETATM   20  O   UNL     1     -12.856  10.012  71.638  1.00  0.00    -0.370 OA 
BRANCH  18  21
HETATM   21  C   UNL     1     -10.853   8.795  72.075  1.00  0.00    -0.358 C  
BRANCH  21  22
HETATM   22  N   UNL     1     -10.483   7.706  71.147  1.00  0.00    -0.208 NA 
HETATM   23  C   UNL     1      -9.174   7.457  70.889  1.00  0.00    -0.154 A  
HETATM   24  C   UNL     1      -8.807   6.454  70.003  1.00  0.00    -0.143 A  
HETATM   25  C   UNL     1      -9.792   5.689  69.394  1.00  0.00    -0.232 A  
HETATM   26  C   UNL     1     -11.127   5.942  69.680  1.00  0.00    -0.414 A  
HETATM   27  C   UNL     1     -11.451   6.962  70.566  1.00  0.00    -0.342 A  
ENDBRANCH  21  22
ENDBRANCH  18  21
ENDBRANCH  16  17
ENDBRANCH  15  16
ENDBRANCH  14  15
ENDBRANCH  12  14
ENDBRANCH  11  12
ENDBRANCH  10  11
ENDBRANCH   9  10
ENDBRANCH   8   9
ENDBRANCH   7   8
ENDBRANCH   6   7
ENDBRANCH   5   6
ENDBRANCH   4   5
ENDBRANCH   3   4
ENDBRANCH   2   3
TORSDOF 16
ENDMDL
MODEL      201
REMARK 921   NORMALIZED FREE ENERGY PREDICTED BY IDOCK:   -3.65 KCAL/MOL
REMARK 922        TOTAL FREE ENERGY PREDICTED BY IDOCK:   -9.15 KCAL/MOL
REMARK 923 INTER-LIGAND FREE ENERGY PREDICTED BY IDOCK:   -7.40 KCAL/MOL
REMARK 924 INTRA-LIGAND FREE ENERGY PREDICTED BY IDOCK:   -1.75 KCAL/MOL
REMARK 927      BINDING AFFINITY PREDICTED BY RF-SCORE:    0.00 PKD
ROOT
HETATM    1  C   UNL     1     -10.642  17.145  68.193  1.00  0.00    -0.380 C  
HETATM    2  C   UNL     1     -10.367  18.093  67.038  1.00  0.00    -0.391 C  
ENDROOT
BRANCH   2   3
HETATM    3  C   UNL     1     -10.781  19.520  67.389  1.00  0.00    -0.589 C  
BRANCH   3   4
HETATM    4  C   UNL     1      -9.593  20.475  67.311  1.00  0.00    -0.580 C  
BRANCH   4   5
HETATM    5  C   UNL     1      -8.525  19.938  66.360  1.00  0.00    -0.379 C  
BRANCH   5   6
HETATM    6  C   UNL     1      -7.177  19.846  67.063  1.00  0.00    -0.258 C  
BRANCH   6   7
HETATM    7  C   UNL     1      -7.340  19.601  68.561  1.00  0.00    -0.371 C  
BRANCH   7   8
HETATM    8  C   UNL     1      -6.969  18.157  68.887  1.00  0.00    -0.274 C  
BRANCH   8   9
HETATM    9  C   UNL     1      -6.442  17.417  67.665  1.00  0.00    -0.164 C  
BRANCH   9  10
HETATM   10  C   UNL     1      -7.032  16.003  67.547  1.00  0.00    -0.205 C  
BRANCH  10  11
HETATM   11  C   UNL     1      -7.489  15.400  68.882  1.00  0.00    -0.152 C  
BRANCH  11  12
HETATM   12  C   UNL     1      -7.120  13.939  68.952  1.00  0.00    -0.110 C  
HETATM   13  O   UNL     1      -6.285  13.460  69.703  1.00  0.00    -0.116 OA 
BRANCH  12  14
HETATM   14  O   UNL     1      -7.985  13.215  68.189  1.00  0.00    -0.134 OA 
BRANCH  14  15
HETATM   15  C   UNL     1      -7.927  11.802  68.416  1.00  0.00    -0.147 C  
BRANCH  15  16
HETATM   16  C   UNL     1      -9.375  11.303  68.376  1.00  0.00    -0.181 C  
BRANCH  16  17
HETATM   17  N   UNL     1      -9.842  10.722  69.624  1.00  0.00    -0.438 N  
HETATM   18  C   UNL     1     -11.180  10.494  69.837  1.00  0.00    -0.307 C  
HETATM   19  H   UNL     1      -9.168  10.481  70.351  1.00  0.00     0.000 HD 
HETATM   20  O   UNL     1     -12.059  10.859  69.063  1.00  0.00    -0.417 OA 
BRANCH  18  21
HETATM   21  C   UNL     1     -11.541   9.832  71.151  1.00  0.00    -0.392 C  
BRANCH  21  22
HETATM   22  N   UNL     1     -10.953   8.476  71.186  1.00  0.00    -0.242 NA 
HETATM   23  C   UNL     1     -11.356   7.545  70.284  1.00  0.00    -0.199 A  
HETATM   24  C   UNL     1     -10.832   6.260  70.316  1.00  0.00    -0.366 A  
HETATM   25  C   UNL     1      -9.875   5.936  71.266  1.00  0.00    -0.215 A  
HETATM   26  C   UNL     1      -9.460   6.903  72.172  1.00  0.00    -0.148 A  
HETATM   27  C   UNL     1     -10.016   8.175  72.112  1.00  0.00    -0.247 A  
ENDBRANCH  21  22
ENDBRANCH  18  21
ENDBRANCH  16  17
ENDBRANCH  15  16
ENDBRANCH  14  15
ENDBRANCH  12  14
ENDBRANCH  11  12
ENDBRANCH  10  11
ENDBRANCH   9  10
ENDBRANCH   8   9
ENDBRANCH   7   8
ENDBRANCH   6   7
ENDBRANCH   5   6
ENDBRANCH   4   5
ENDBRANCH   3   4
ENDBRANCH   2   3
TORSDOF 16
ENDMDL
MODEL      202
REMARK 921   NORMALIZED FREE ENERGY PREDICTED BY IDOCK:   -3.65 KCAL/MOL
REMARK 922        TOTAL FREE ENERGY PREDICTED BY IDOCK:   -9.14 KCAL/MOL
REMARK 923 INTER-LIGAND FREE ENERGY PREDICTED BY IDOCK:   -7.26 KCAL/MOL
REMARK 924 INTRA-LIGAND FREE ENERGY PREDICTED BY IDOCK:   -1.88 KCAL/MOL
REMARK 927      BINDING AFFINITY PREDICTED BY RF-SCORE:    0.00 PKD
ROOT
HETATM    1  C   UNL     1     -10.765   6.196  66.892  1.00  0.00    -0.413 C  
HETATM    2  C   UNL     1      -9.611   5.209  66.864  1.00  0.00    -0.157 C  
ENDROOT
BRANCH   2   3
HETATM    3  C   UNL     1      -9.726   4.196  68.000  1.00  0.00    -0.155 C  
BRANCH   3   4
HETATM    4  C   UNL     1      -9.066   4.715  69.274  1.00  0.00    -0.159 C  
BRANCH   4   5
HETATM    5  C   UNL     1     -10.073   4.777  70.422  1.00  0.00    -0.301 C  
BRANCH   5   6
HETATM    6  C   UNL     1      -9.829   6.008  71.284  1.00  0.00    -0.211 C  
BRANCH   6   7
HETATM    7  C   UNL     1      -8.588   6.774  70.833  1.00  0.00    -0.137 C  
BRANCH   7   8
HETATM    8  C   UNL     1      -8.947   8.239  70.600  1.00  0.00    -0.161 C  
BRANCH   8   9
HETATM    9  C   UNL     1      -9.282   8.516  69.142  1.00  0.00    -0.150 C  
BRANCH   9  10
HETATM   10  C   UNL     1     -10.583   9.320  68.991  1.00  0.00    -0.225 C  
BRANCH  10  11
HETATM   11  C   UNL     1     -10.932  10.184  70.211  1.00  0.00    -0.380 C  
BRANCH  11  12
HETATM   12  C   UNL     1     -12.267  10.858  70.012  1.00  0.00    -0.347 C  
HETATM   13  O   UNL     1     -13.252  10.687  70.713  1.00  0.00    -0.293 OA 
BRANCH  12  14
HETATM   14  O   UNL     1     -12.151  11.820  69.055  1.00  0.00    -0.305 OA 
BRANCH  14  15
HETATM   15  C   UNL     1     -11.669  13.078  69.544  1.00  0.00    -0.317 C  
BRANCH  15  16
HETATM   16  C   UNL     1     -12.040  14.118  68.481  1.00  0.00    -0.277 C  
BRANCH  16  17
HETATM   17  N   UNL     1     -11.215  14.071  67.285  1.00  0.00    -0.302 N  
HETATM   18  C   UNL     1     -11.749  13.694  66.076  1.00  0.00    -0.358 C  
HETATM   19  H   UNL     1     -10.228  14.320  67.343  1.00  0.00     0.000 HD 
HETATM   20  O   UNL     1     -12.894  13.273  65.946  1.00  0.00    -0.360 OA 
BRANCH  18  21
HETATM   21  C   UNL     1     -10.808  13.738  64.890  1.00  0.00    -0.391 C  
BRANCH  21  22
HETATM   22  N   UNL     1     -10.289  12.377  64.636  1.00  0.00    -0.297 NA 
HETATM   23  C   UNL     1      -9.792  11.643  65.664  1.00  0.00    -0.240 A  
HETATM   24  C   UNL     1      -9.280  10.373  65.441  1.00  0.00    -0.233 A  
HETATM   25  C   UNL     1      -9.297   9.846  64.158  1.00  0.00    -0.295 A  
HETATM   26  C   UNL     1      -9.825  10.600  63.118  1.00  0.00    -0.351 A  
HETATM   27  C   UNL     1     -10.319  11.871  63.383  1.00  0.00    -0.444 A  
ENDBRANCH  21  22
ENDBRANCH  18  21
ENDBRANCH  16  17
ENDBRANCH  15  16
ENDBRANCH  14  15
ENDBRANCH  12  14
ENDBRANCH  11  12
ENDBRANCH  10  11
ENDBRANCH   9  10
ENDBRANCH   8   9
ENDBRANCH   7   8
ENDBRANCH   6   7
ENDBRANCH   5   6
ENDBRANCH   4   5
ENDBRANCH   3   4
ENDBRANCH   2   3
TORSDOF 16
ENDMDL
MODEL      203
REMARK 921   NORMALIZED FREE ENERGY PREDICTED BY IDOCK:   -3.64 KCAL/MOL
REMARK 922        TOTAL FREE ENERGY PREDICTED BY IDOCK:   -9.13 KCAL/MOL
REMARK 923 INTER-LIGAND FREE ENERGY PREDICTED BY IDOCK:   -7.82 KCAL/MOL
REMARK 924 INTRA-LIGAND FREE ENERGY PREDICTED BY IDOCK:   -1.31 KCAL/MOL
REMARK 927      BINDING AFFINITY PREDICTED BY RF-SCORE:    0.00 PKD
ROOT
HETATM    1  C   UNL     1     -10.430   5.655  67.831  1.00  0.00    -0.274 C  
HETATM    2  C   UNL     1      -9.037   6.260  67.784  1.00  0.00    -0.114 C  
ENDROOT
BRANCH   2   3
HETATM    3  C   UNL     1      -8.670   6.899  69.122  1.00  0.00    -0.135 C  
BRANCH   3   4
HETATM    4  C   UNL     1      -9.842   7.689  69.698  1.00  0.00    -0.181 C  
BRANCH   4   5
HETATM    5  C   UNL     1     -10.000   7.413  71.192  1.00  0.00    -0.188 C  
BRANCH   5   6
HETATM    6  C   UNL     1     -11.330   6.725  71.473  1.00  0.00    -0.316 C  
BRANCH   6   7
HETATM    7  C   UNL     1     -12.511   7.649  71.190  1.00  0.00    -0.273 C  
BRANCH   7   8
HETATM    8  C   UNL     1     -12.731   8.577  72.382  1.00  0.00    -0.394 C  
BRANCH   8   9
HETATM    9  C   UNL     1     -12.839  10.034  71.954  1.00  0.00    -0.524 C  
BRANCH   9  10
HETATM   10  C   UNL     1     -12.392  10.243  70.499  1.00  0.00    -0.371 C  
BRANCH  10  11
HETATM   11  C   UNL     1     -12.159  11.712  70.118  1.00  0.00    -0.414 C  
BRANCH  11  12
HETATM   12  C   UNL     1     -11.630  11.811  68.709  1.00  0.00    -0.307 C  
HETATM   13  O   UNL     1     -12.006  11.129  67.768  1.00  0.00    -0.630 OA 
BRANCH  12  14
HETATM   14  O   UNL     1     -10.814  12.896  68.606  1.00  0.00    -0.246 OA 
BRANCH  14  15
HETATM   15  C   UNL     1      -9.663  12.687  67.779  1.00  0.00    -0.206 C  
BRANCH  15  16
HETATM   16  C   UNL     1      -9.070  14.075  67.516  1.00  0.00    -0.196 C  
BRANCH  16  17
HETATM   17  N   UNL     1      -9.913  15.177  67.949  1.00  0.00    -0.220 N  
HETATM   18  C   UNL     1      -9.417  16.164  68.766  1.00  0.00    -0.230 C  
HETATM   19  H   UNL     1     -10.885  15.218  67.642  1.00  0.00     0.000 HD 
HETATM   20  O   UNL     1      -8.298  16.126  69.267  1.00  0.00    -0.238 OA 
BRANCH  18  21
HETATM   21  C   UNL     1     -10.372  17.290  69.104  1.00  0.00    -0.290 C  
BRANCH  21  22
HETATM   22  N   UNL     1     -10.111  18.431  68.202  1.00  0.00    -0.363 NA 
HETATM   23  C   UNL     1     -10.981  18.707  67.197  1.00  0.00    -0.125 A  
HETATM   24  C   UNL     1     -10.741  19.760  66.325  1.00  0.00    -0.499 A  
HETATM   25  C   UNL     1      -9.612  20.547  66.501  1.00  0.00    -0.338 A  
HETATM   26  C   UNL     1      -8.740  20.265  67.543  1.00  0.00    -0.401 A  
HETATM   27  C   UNL     1      -9.012  19.195  68.387  1.00  0.00    -0.349 A  
ENDBRANCH  21  22
ENDBRANCH  18  21
ENDBRANCH  16  17
ENDBRANCH  15  16
ENDBRANCH  14  15
ENDBRANCH  12  14
ENDBRANCH  11  12
ENDBRANCH  10  11
ENDBRANCH   9  10
ENDBRANCH   8   9
ENDBRANCH   7   8
ENDBRANCH   6   7
ENDBRANCH   5   6
ENDBRANCH   4   5
ENDBRANCH   3   4
ENDBRANCH   2   3
TORSDOF 16
ENDMDL
MODEL      204
REMARK 921   NORMALIZED FREE ENERGY PREDICTED BY IDOCK:   -3.64 KCAL/MOL
REMARK 922        TOTAL FREE ENERGY PREDICTED BY IDOCK:   -9.12 KCAL/MOL
REMARK 923 INTER-LIGAND FREE ENERGY PREDICTED BY IDOCK:   -8.50 KCAL/MOL
REMARK 924 INTRA-LIGAND FREE ENERGY PREDICTED BY IDOCK:   -0.62 KCAL/MOL
REMARK 927      BINDING AFFINITY PREDICTED BY RF-SCORE:    0.00 PKD
ROOT
HETATM    1  C   UNL     1     -10.022  20.552  67.334  1.00  0.00    -0.525 C  
HETATM    2  C   UNL     1      -9.366  19.681  66.276  1.00  0.00    -0.453 C  
ENDROOT
BRANCH   2   3
HETATM    3  C   UNL     1      -7.869  19.536  66.535  1.00  0.00    -0.305 C  
BRANCH   3   4
HETATM    4  C   UNL     1      -7.576  19.394  68.027  1.00  0.00    -0.324 C  
BRANCH   4   5
HETATM    5  C   UNL     1      -8.159  18.091  68.572  1.00  0.00    -0.306 C  
BRANCH   5   6
HETATM    6  C   UNL     1      -7.536  16.891  67.872  1.00  0.00    -0.178 C  
BRANCH   6   7
HETATM    7  C   UNL     1      -8.569  15.801  67.597  1.00  0.00    -0.173 C  
BRANCH   7   8
HETATM    8  C   UNL     1      -9.384  16.170  66.360  1.00  0.00    -0.329 C  
BRANCH   8   9
HETATM    9  C   UNL     1     -10.715  15.432  66.318  1.00  0.00    -0.312 C  
BRANCH   9  10
HETATM   10  C   UNL     1     -11.184  15.170  64.879  1.00  0.00    -0.424 C  
BRANCH  10  11
HETATM   11  C   UNL     1     -12.516  14.411  64.780  1.00  0.00    -0.371 C  
BRANCH  11  12
HETATM   12  C   UNL     1     -12.270  12.958  64.460  1.00  0.00    -0.426 C  
HETATM   13  O   UNL     1     -13.125  12.163  64.103  1.00  0.00    -0.694 OA 
BRANCH  12  14
HETATM   14  O   UNL     1     -10.930  12.717  64.448  1.00  0.00    -0.311 OA 
BRANCH  14  15
HETATM   15  C   UNL     1     -10.522  11.630  65.289  1.00  0.00    -0.273 C  
BRANCH  15  16
HETATM   16  C   UNL     1     -11.339  11.760  66.579  1.00  0.00    -0.305 C  
BRANCH  16  17
HETATM   17  N   UNL     1     -10.593  11.463  67.791  1.00  0.00    -0.187 N  
HETATM   18  C   UNL     1     -10.348  10.165  68.166  1.00  0.00    -0.185 C  
HETATM   19  H   UNL     1     -10.247  12.228  68.370  1.00  0.00     0.000 HD 
HETATM   20  O   UNL     1     -10.824   9.193  67.587  1.00  0.00    -0.234 OA 
BRANCH  18  21
HETATM   21  C   UNL     1      -9.512   9.979  69.416  1.00  0.00    -0.223 C  
BRANCH  21  22
HETATM   22  N   UNL     1     -10.348   9.362  70.467  1.00  0.00    -0.259 NA 
HETATM   23  C   UNL     1      -9.957   8.194  71.038  1.00  0.00    -0.187 A  
HETATM   24  C   UNL     1     -10.739   7.587  72.011  1.00  0.00    -0.264 A  
HETATM   25  C   UNL     1     -11.920   8.195  72.413  1.00  0.00    -0.431 A  
HETATM   26  C   UNL     1     -12.299   9.398  71.834  1.00  0.00    -0.450 A  
HETATM   27  C   UNL     1     -11.492   9.967  70.857  1.00  0.00    -0.371 A  
ENDBRANCH  21  22
ENDBRANCH  18  21
ENDBRANCH  16  17
ENDBRANCH  15  16
ENDBRANCH  14  15
ENDBRANCH  12  14
ENDBRANCH  11  12
ENDBRANCH  10  11
ENDBRANCH   9  10
ENDBRANCH   8   9
ENDBRANCH   7   8
ENDBRANCH   6   7
ENDBRANCH   5   6
ENDBRANCH   4   5
ENDBRANCH   3   4
ENDBRANCH   2   3
TORSDOF 16
ENDMDL
MODEL      205
REMARK 921   NORMALIZED FREE ENERGY PREDICTED BY IDOCK:   -3.64 KCAL/MOL
REMARK 922        TOTAL FREE ENERGY PREDICTED BY IDOCK:   -9.12 KCAL/MOL
REMARK 923 INTER-LIGAND FREE ENERGY PREDICTED BY IDOCK:   -7.88 KCAL/MOL
REMARK 924 INTRA-LIGAND FREE ENERGY PREDICTED BY IDOCK:   -1.24 KCAL/MOL
REMARK 927      BINDING AFFINITY PREDICTED BY RF-SCORE:    0.00 PKD
ROOT
HETATM    1  C   UNL     1     -12.243  11.870  70.617  1.00  0.00    -0.424 C  
HETATM    2  C   UNL     1     -12.989  11.084  71.681  1.00  0.00    -0.561 C  
ENDROOT
BRANCH   2   3
HETATM    3  C   UNL     1     -12.430   9.669  71.812  1.00  0.00    -0.487 C  
BRANCH   3   4
HETATM    4  C   UNL     1     -13.541   8.625  71.730  1.00  0.00    -0.439 C  
BRANCH   4   5
HETATM    5  C   UNL     1     -12.956   7.220  71.599  1.00  0.00    -0.417 C  
BRANCH   5   6
HETATM    6  C   UNL     1     -11.591   7.267  70.926  1.00  0.00    -0.331 C  
BRANCH   6   7
HETATM    7  C   UNL     1     -11.531   6.346  69.710  1.00  0.00    -0.468 C  
BRANCH   7   8
HETATM    8  C   UNL     1     -10.122   6.362  69.125  1.00  0.00    -0.194 C  
BRANCH   8   9
HETATM    9  C   UNL     1      -9.902   5.219  68.144  1.00  0.00    -0.198 C  
BRANCH   9  10
HETATM   10  C   UNL     1      -9.301   5.706  66.816  1.00  0.00    -0.139 C  
BRANCH  10  11
HETATM   11  C   UNL     1      -9.610   7.174  66.487  1.00  0.00    -0.203 C  
BRANCH  11  12
HETATM   12  C   UNL     1      -8.373   7.868  65.974  1.00  0.00    -0.128 C  
HETATM   13  O   UNL     1      -7.717   7.511  65.007  1.00  0.00    -0.101 OA 
BRANCH  12  14
HETATM   14  O   UNL     1      -8.210   9.050  66.630  1.00  0.00    -0.115 OA 
BRANCH  14  15
HETATM   15  C   UNL     1      -8.115  10.191  65.769  1.00  0.00    -0.142 C  
BRANCH  15  16
HETATM   16  C   UNL     1      -7.404  11.279  66.581  1.00  0.00    -0.131 C  
BRANCH  16  17
HETATM   17  N   UNL     1      -8.204  12.469  66.814  1.00  0.00    -0.391 N  
HETATM   18  C   UNL     1      -9.047  12.550  67.896  1.00  0.00    -0.199 C  
HETATM   19  H   UNL     1      -8.140  13.255  66.166  1.00  0.00     0.000 HD 
HETATM   20  O   UNL     1      -9.265  11.610  68.653  1.00  0.00    -0.179 OA 
BRANCH  18  21
HETATM   21  C   UNL     1      -9.787  13.861  68.067  1.00  0.00    -0.234 C  
BRANCH  21  22
HETATM   22  N   UNL     1     -10.614  14.109  66.867  1.00  0.00    -0.279 NA 
HETATM   23  C   UNL     1     -11.764  13.411  66.687  1.00  0.00    -0.385 A  
HETATM   24  C   UNL     1     -12.542  13.614  65.555  1.00  0.00    -0.541 A  
HETATM   25  C   UNL     1     -12.145  14.552  64.614  1.00  0.00    -0.486 A  
HETATM   26  C   UNL     1     -10.975  15.270  64.819  1.00  0.00    -0.403 A  
HETATM   27  C   UNL     1     -10.220  15.031  65.960  1.00  0.00    -0.301 A  
ENDBRANCH  21  22
ENDBRANCH  18  21
ENDBRANCH  16  17
ENDBRANCH  15  16
ENDBRANCH  14  15
ENDBRANCH  12  14
ENDBRANCH  11  12
ENDBRANCH  10  11
ENDBRANCH   9  10
ENDBRANCH   8   9
ENDBRANCH   7   8
ENDBRANCH   6   7
ENDBRANCH   5   6
ENDBRANCH   4   5
ENDBRANCH   3   4
ENDBRANCH   2   3
TORSDOF 16
ENDMDL
MODEL      206
REMARK 921   NORMALIZED FREE ENERGY PREDICTED BY IDOCK:   -3.63 KCAL/MOL
REMARK 922        TOTAL FREE ENERGY PREDICTED BY IDOCK:   -9.12 KCAL/MOL
REMARK 923 INTER-LIGAND FREE ENERGY PREDICTED BY IDOCK:   -7.25 KCAL/MOL
REMARK 924 INTRA-LIGAND FREE ENERGY PREDICTED BY IDOCK:   -1.86 KCAL/MOL
REMARK 927      BINDING AFFINITY PREDICTED BY RF-SCORE:    0.00 PKD
ROOT
HETATM    1  C   UNL     1     -12.284  13.025  63.351  1.00  0.00    -0.552 C  
HETATM    2  C   UNL     1     -11.696  12.629  64.695  1.00  0.00    -0.411 C  
ENDROOT
BRANCH   2   3
HETATM    3  C   UNL     1     -10.274  12.096  64.537  1.00  0.00    -0.321 C  
BRANCH   3   4
HETATM    4  C   UNL     1     -10.138  10.698  65.133  1.00  0.00    -0.374 C  
BRANCH   4   5
HETATM    5  C   UNL     1      -9.094  10.683  66.249  1.00  0.00    -0.186 C  
BRANCH   5   6
HETATM    6  C   UNL     1      -9.693  10.134  67.537  1.00  0.00    -0.190 C  
BRANCH   6   7
HETATM    7  C   UNL     1     -10.236  11.250  68.425  1.00  0.00    -0.205 C  
BRANCH   7   8
HETATM    8  C   UNL     1      -9.270  12.431  68.411  1.00  0.00    -0.145 C  
BRANCH   8   9
HETATM    9  C   UNL     1     -10.004  13.765  68.398  1.00  0.00    -0.229 C  
BRANCH   9  10
HETATM   10  C   UNL     1      -9.547  14.663  67.238  1.00  0.00    -0.221 C  
BRANCH  10  11
HETATM   11  C   UNL     1     -10.519  15.806  66.909  1.00  0.00    -0.315 C  
BRANCH  11  12
HETATM   12  C   UNL     1     -10.171  16.423  65.577  1.00  0.00    -0.269 C  
HETATM   13  O   UNL     1     -10.567  16.024  64.493  1.00  0.00    -0.480 OA 
BRANCH  12  14
HETATM   14  O   UNL     1      -9.508  17.595  65.779  1.00  0.00    -0.516 OA 
BRANCH  14  15
HETATM   15  C   UNL     1     -10.298  18.616  66.401  1.00  0.00    -0.432 C  
BRANCH  15  16
HETATM   16  C   UNL     1      -9.410  19.864  66.462  1.00  0.00    -0.401 C  
BRANCH  16  17
HETATM   17  N   UNL     1      -8.045  19.604  66.887  1.00  0.00    -0.275 N  
HETATM   18  C   UNL     1      -6.991  19.805  66.029  1.00  0.00    -0.268 C  
HETATM   19  H   UNL     1      -7.866  19.269  67.833  1.00  0.00     0.000 HD 
HETATM   20  O   UNL     1      -7.130  20.097  64.845  1.00  0.00    -0.287 OA 
BRANCH  18  21
HETATM   21  C   UNL     1      -5.610  19.557  66.600  1.00  0.00    -0.165 C  
BRANCH  21  22
HETATM   22  N   UNL     1      -5.664  18.383  67.498  1.00  0.00    -0.149 NA 
HETATM   23  C   UNL     1      -5.876  17.148  66.978  1.00  0.00    -0.174 A  
HETATM   24  C   UNL     1      -5.953  16.037  67.806  1.00  0.00    -0.162 A  
HETATM   25  C   UNL     1      -5.790  16.194  69.175  1.00  0.00    -0.123 A  
HETATM   26  C   UNL     1      -5.556  17.462  69.692  1.00  0.00    -0.213 A  
HETATM   27  C   UNL     1      -5.496  18.548  68.829  1.00  0.00    -0.190 A  
ENDBRANCH  21  22
ENDBRANCH  18  21
ENDBRANCH  16  17
ENDBRANCH  15  16
ENDBRANCH  14  15
ENDBRANCH  12  14
ENDBRANCH  11  12
ENDBRANCH  10  11
ENDBRANCH   9  10
ENDBRANCH   8   9
ENDBRANCH   7   8
ENDBRANCH   6   7
ENDBRANCH   5   6
ENDBRANCH   4   5
ENDBRANCH   3   4
ENDBRANCH   2   3
TORSDOF 16
ENDMDL
MODEL      207
REMARK 921   NORMALIZED FREE ENERGY PREDICTED BY IDOCK:   -3.63 KCAL/MOL
REMARK 922        TOTAL FREE ENERGY PREDICTED BY IDOCK:   -9.11 KCAL/MOL
REMARK 923 INTER-LIGAND FREE ENERGY PREDICTED BY IDOCK:   -7.72 KCAL/MOL
REMARK 924 INTRA-LIGAND FREE ENERGY PREDICTED BY IDOCK:   -1.39 KCAL/MOL
REMARK 927      BINDING AFFINITY PREDICTED BY RF-SCORE:    0.00 PKD
ROOT
HETATM    1  C   UNL     1     -13.256   8.818  72.242  1.00  0.00    -0.456 C  
HETATM    2  C   UNL     1     -12.974   7.451  71.643  1.00  0.00    -0.409 C  
ENDROOT
BRANCH   2   3
HETATM    3  C   UNL     1     -11.477   7.246  71.423  1.00  0.00    -0.294 C  
BRANCH   3   4
HETATM    4  C   UNL     1     -11.112   5.765  71.440  1.00  0.00    -0.273 C  
BRANCH   4   5
HETATM    5  C   UNL     1     -10.041   5.457  70.395  1.00  0.00    -0.314 C  
BRANCH   5   6
HETATM    6  C   UNL     1     -10.139   6.427  69.225  1.00  0.00    -0.203 C  
BRANCH   6   7
HETATM    7  C   UNL     1      -8.775   7.006  68.859  1.00  0.00    -0.131 C  
BRANCH   7   8
HETATM    8  C   UNL     1      -8.900   8.512  68.645  1.00  0.00    -0.136 C  
BRANCH   8   9
HETATM    9  C   UNL     1     -10.348   8.977  68.717  1.00  0.00    -0.236 C  
BRANCH   9  10
HETATM   10  C   UNL     1     -10.501  10.261  69.547  1.00  0.00    -0.268 C  
BRANCH  10  11
HETATM   11  C   UNL     1     -11.669  11.156  69.108  1.00  0.00    -0.408 C  
BRANCH  11  12
HETATM   12  C   UNL     1     -11.288  11.956  67.888  1.00  0.00    -0.291 C  
HETATM   13  O   UNL     1     -11.961  12.054  66.873  1.00  0.00    -0.612 OA 
BRANCH  12  14
HETATM   14  O   UNL     1     -10.179  12.698  68.159  1.00  0.00    -0.226 OA 
BRANCH  14  15
HETATM   15  C   UNL     1     -10.238  14.043  67.666  1.00  0.00    -0.241 C  
BRANCH  15  16
HETATM   16  C   UNL     1      -9.228  14.120  66.517  1.00  0.00    -0.224 C  
BRANCH  16  17
HETATM   17  N   UNL     1      -8.553  15.402  66.401  1.00  0.00    -0.407 N  
HETATM   18  C   UNL     1      -7.351  15.624  67.028  1.00  0.00    -0.168 C  
HETATM   19  H   UNL     1      -8.976  16.146  65.847  1.00  0.00     0.000 HD 
HETATM   20  O   UNL     1      -6.834  14.823  67.801  1.00  0.00    -0.146 OA 
BRANCH  18  21
HETATM   21  C   UNL     1      -6.715  16.978  66.788  1.00  0.00    -0.230 C  
BRANCH  21  22
HETATM   22  N   UNL     1      -7.684  18.036  67.143  1.00  0.00    -0.214 NA 
HETATM   23  C   UNL     1      -8.240  18.795  66.165  1.00  0.00    -0.190 A  
HETATM   24  C   UNL     1      -9.135  19.809  66.480  1.00  0.00    -0.450 A  
HETATM   25  C   UNL     1      -9.474  20.030  67.807  1.00  0.00    -0.486 A  
HETATM   26  C   UNL     1      -8.912  19.235  68.796  1.00  0.00    -0.399 A  
HETATM   27  C   UNL     1      -8.013  18.237  68.439  1.00  0.00    -0.306 A  
ENDBRANCH  21  22
ENDBRANCH  18  21
ENDBRANCH  16  17
ENDBRANCH  15  16
ENDBRANCH  14  15
ENDBRANCH  12  14
ENDBRANCH  11  12
ENDBRANCH  10  11
ENDBRANCH   9  10
ENDBRANCH   8   9
ENDBRANCH   7   8
ENDBRANCH   6   7
ENDBRANCH   5   6
ENDBRANCH   4   5
ENDBRANCH   3   4
ENDBRANCH   2   3
TORSDOF 16
ENDMDL
MODEL      208
REMARK 921   NORMALIZED FREE ENERGY PREDICTED BY IDOCK:   -3.63 KCAL/MOL
REMARK 922        TOTAL FREE ENERGY PREDICTED BY IDOCK:   -9.10 KCAL/MOL
REMARK 923 INTER-LIGAND FREE ENERGY PREDICTED BY IDOCK:   -8.67 KCAL/MOL
REMARK 924 INTRA-LIGAND FREE ENERGY PREDICTED BY IDOCK:   -0.43 KCAL/MOL
REMARK 927      BINDING AFFINITY PREDICTED BY RF-SCORE:    0.00 PKD
ROOT
HETATM    1  C   UNL     1     -11.989  11.863  64.041  1.00  0.00    -0.455 C  
HETATM    2  C   UNL     1     -10.652  12.049  63.346  1.00  0.00    -0.478 C  
ENDROOT
BRANCH   2   3
HETATM    3  C   UNL     1      -9.626  11.036  63.849  1.00  0.00    -0.309 C  
BRANCH   3   4
HETATM    4  C   UNL     1      -9.728  10.850  65.361  1.00  0.00    -0.287 C  
BRANCH   4   5
HETATM    5  C   UNL     1      -9.419   9.405  65.752  1.00  0.00    -0.325 C  
BRANCH   5   6
HETATM    6  C   UNL     1     -10.429   8.898  66.772  1.00  0.00    -0.269 C  
BRANCH   6   7
HETATM    7  C   UNL     1      -9.918   7.658  67.501  1.00  0.00    -0.233 C  
BRANCH   7   8
HETATM    8  C   UNL     1      -8.489   7.900  67.981  1.00  0.00    -0.123 C  
BRANCH   8   9
HETATM    9  C   UNL     1      -8.287   7.437  69.417  1.00  0.00    -0.132 C  
BRANCH   9  10
HETATM   10  C   UNL     1      -9.027   6.123  69.710  1.00  0.00    -0.138 C  
BRANCH  10  11
HETATM   11  C   UNL     1      -9.743   6.094  71.068  1.00  0.00    -0.202 C  
BRANCH  11  12
HETATM   12  C   UNL     1     -11.196   6.461  70.903  1.00  0.00    -0.326 C  
HETATM   13  O   UNL     1     -11.860   6.270  69.896  1.00  0.00    -0.340 OA 
BRANCH  12  14
HETATM   14  O   UNL     1     -11.701   6.862  72.103  1.00  0.00    -0.279 OA 
BRANCH  14  15
HETATM   15  C   UNL     1     -11.421   8.229  72.430  1.00  0.00    -0.394 C  
BRANCH  15  16
HETATM   16  C   UNL     1     -12.197   9.078  71.417  1.00  0.00    -0.323 C  
BRANCH  16  17
HETATM   17  N   UNL     1     -12.950  10.172  72.008  1.00  0.00    -0.427 N  
HETATM   18  C   UNL     1     -12.910  11.430  71.459  1.00  0.00    -0.403 C  
HETATM   19  H   UNL     1     -13.515  10.003  72.840  1.00  0.00     0.000 HD 
HETATM   20  O   UNL     1     -12.170  11.739  70.530  1.00  0.00    -0.358 OA 
BRANCH  18  21
HETATM   21  C   UNL     1     -13.780  12.476  72.126  1.00  0.00    -0.243 C  
BRANCH  21  22
HETATM   22  N   UNL     1     -13.113  13.792  72.028  1.00  0.00    -0.382 NA 
HETATM   23  C   UNL     1     -12.947  14.372  70.812  1.00  0.00    -0.326 A  
HETATM   24  C   UNL     1     -12.303  15.597  70.697  1.00  0.00    -0.457 A  
HETATM   25  C   UNL     1     -11.847  16.237  71.840  1.00  0.00    -0.538 A  
HETATM   26  C   UNL     1     -12.039  15.640  73.079  1.00  0.00    -0.590 A  
HETATM   27  C   UNL     1     -12.680  14.409  73.149  1.00  0.00    -0.334 A  
ENDBRANCH  21  22
ENDBRANCH  18  21
ENDBRANCH  16  17
ENDBRANCH  15  16
ENDBRANCH  14  15
ENDBRANCH  12  14
ENDBRANCH  11  12
ENDBRANCH  10  11
ENDBRANCH   9  10
ENDBRANCH   8   9
ENDBRANCH   7   8
ENDBRANCH   6   7
ENDBRANCH   5   6
ENDBRANCH   4   5
ENDBRANCH   3   4
ENDBRANCH   2   3
TORSDOF 16
ENDMDL
MODEL      209
REMARK 921   NORMALIZED FREE ENERGY PREDICTED BY IDOCK:   -3.63 KCAL/MOL
REMARK 922        TOTAL FREE ENERGY PREDICTED BY IDOCK:   -9.10 KCAL/MOL
REMARK 923 INTER-LIGAND FREE ENERGY PREDICTED BY IDOCK:   -7.98 KCAL/MOL
REMARK 924 INTRA-LIGAND FREE ENERGY PREDICTED BY IDOCK:   -1.12 KCAL/MOL
REMARK 927      BINDING AFFINITY PREDICTED BY RF-SCORE:    0.00 PKD
ROOT
HETATM    1  C   UNL     1     -14.403   8.067  71.521  1.00  0.00    -0.546 C  
HETATM    2  C   UNL     1     -13.686   9.348  71.908  1.00  0.00    -0.440 C  
ENDROOT
BRANCH   2   3
HETATM    3  C   UNL     1     -12.206   9.088  72.182  1.00  0.00    -0.427 C  
BRANCH   3   4
HETATM    4  C   UNL     1     -11.575   8.258  71.068  1.00  0.00    -0.301 C  
BRANCH   4   5
HETATM    5  C   UNL     1     -10.073   8.094  71.297  1.00  0.00    -0.240 C  
BRANCH   5   6
HETATM    6  C   UNL     1      -9.304   9.235  70.643  1.00  0.00    -0.329 C  
BRANCH   6   7
HETATM    7  C   UNL     1      -8.695   8.810  69.309  1.00  0.00    -0.135 C  
BRANCH   7   8
HETATM    8  C   UNL     1      -8.862   9.934  68.290  1.00  0.00    -0.119 C  
BRANCH   8   9
HETATM    9  C   UNL     1      -8.001  11.141  68.631  1.00  0.00    -0.145 C  
BRANCH   9  10
HETATM   10  C   UNL     1      -8.622  12.454  68.129  1.00  0.00    -0.185 C  
BRANCH  10  11
HETATM   11  C   UNL     1      -9.670  12.271  67.023  1.00  0.00    -0.207 C  
BRANCH  11  12
HETATM   12  C   UNL     1     -11.034  12.682  67.519  1.00  0.00    -0.246 C  
HETATM   13  O   UNL     1     -12.080  12.110  67.254  1.00  0.00    -0.565 OA 
BRANCH  12  14
HETATM   14  O   UNL     1     -10.900  13.665  68.451  1.00  0.00    -0.241 OA 
BRANCH  14  15
HETATM   15  C   UNL     1     -12.013  14.565  68.518  1.00  0.00    -0.286 C  
BRANCH  15  16
HETATM   16  C   UNL     1     -11.419  15.964  68.716  1.00  0.00    -0.393 C  
BRANCH  16  17
HETATM   17  N   UNL     1     -10.262  16.245  67.883  1.00  0.00    -0.254 N  
HETATM   18  C   UNL     1     -10.069  17.494  67.344  1.00  0.00    -0.325 C  
HETATM   19  H   UNL     1      -9.584  15.506  67.696  1.00  0.00     0.000 HD 
HETATM   20  O   UNL     1     -10.892  18.400  67.429  1.00  0.00    -0.403 OA 
BRANCH  18  21
HETATM   21  C   UNL     1      -8.799  17.684  66.541  1.00  0.00    -0.263 C  
BRANCH  21  22
HETATM   22  N   UNL     1      -7.971  18.724  67.186  1.00  0.00    -0.242 NA 
HETATM   23  C   UNL     1      -7.603  19.825  66.482  1.00  0.00    -0.278 A  
HETATM   24  C   UNL     1      -6.807  20.801  67.063  1.00  0.00    -0.385 A  
HETATM   25  C   UNL     1      -6.403  20.655  68.383  1.00  0.00    -0.341 A  
HETATM   26  C   UNL     1      -6.800  19.533  69.097  1.00  0.00    -0.381 A  
HETATM   27  C   UNL     1      -7.589  18.574  68.474  1.00  0.00    -0.306 A  
ENDBRANCH  21  22
ENDBRANCH  18  21
ENDBRANCH  16  17
ENDBRANCH  15  16
ENDBRANCH  14  15
ENDBRANCH  12  14
ENDBRANCH  11  12
ENDBRANCH  10  11
ENDBRANCH   9  10
ENDBRANCH   8   9
ENDBRANCH   7   8
ENDBRANCH   6   7
ENDBRANCH   5   6
ENDBRANCH   4   5
ENDBRANCH   3   4
ENDBRANCH   2   3
TORSDOF 16
ENDMDL
MODEL      210
REMARK 921   NORMALIZED FREE ENERGY PREDICTED BY IDOCK:   -3.62 KCAL/MOL
REMARK 922        TOTAL FREE ENERGY PREDICTED BY IDOCK:   -9.08 KCAL/MOL
REMARK 923 INTER-LIGAND FREE ENERGY PREDICTED BY IDOCK:   -8.70 KCAL/MOL
REMARK 924 INTRA-LIGAND FREE ENERGY PREDICTED BY IDOCK:   -0.38 KCAL/MOL
REMARK 927      BINDING AFFINITY PREDICTED BY RF-SCORE:    0.00 PKD
ROOT
HETATM    1  C   UNL     1      -9.758  20.789  67.435  1.00  0.00    -0.473 C  
HETATM    2  C   UNL     1      -9.478  19.751  66.362  1.00  0.00    -0.496 C  
ENDROOT
BRANCH   2   3
HETATM    3  C   UNL     1      -8.036  19.256  66.440  1.00  0.00    -0.310 C  
BRANCH   3   4
HETATM    4  C   UNL     1      -7.600  19.047  67.887  1.00  0.00    -0.291 C  
BRANCH   4   5
HETATM    5  C   UNL     1      -8.102  17.704  68.416  1.00  0.00    -0.285 C  
BRANCH   5   6
HETATM    6  C   UNL     1      -7.624  16.564  67.526  1.00  0.00    -0.170 C  
BRANCH   6   7
HETATM    7  C   UNL     1      -8.757  15.597  67.194  1.00  0.00    -0.233 C  
BRANCH   7   8
HETATM    8  C   UNL     1      -9.547  16.125  65.999  1.00  0.00    -0.381 C  
BRANCH   8   9
HETATM    9  C   UNL     1     -10.969  15.584  65.975  1.00  0.00    -0.251 C  
BRANCH   9  10
HETATM   10  C   UNL     1     -11.488  15.387  64.542  1.00  0.00    -0.314 C  
BRANCH  10  11
HETATM   11  C   UNL     1     -12.399  14.164  64.365  1.00  0.00    -0.410 C  
BRANCH  11  12
HETATM   12  C   UNL     1     -11.576  12.935  64.072  1.00  0.00    -0.426 C  
HETATM   13  O   UNL     1     -11.874  12.064  63.270  1.00  0.00    -0.426 OA 
BRANCH  12  14
HETATM   14  O   UNL     1     -10.369  13.038  64.694  1.00  0.00    -0.347 OA 
BRANCH  14  15
HETATM   15  C   UNL     1      -9.707  11.784  64.902  1.00  0.00    -0.175 C  
BRANCH  15  16
HETATM   16  C   UNL     1     -10.518  11.046  65.972  1.00  0.00    -0.245 C  
BRANCH  16  17
HETATM   17  N   UNL     1     -11.205  11.920  66.909  1.00  0.00    -0.308 N  
HETATM   18  C   UNL     1     -10.565  12.393  68.029  1.00  0.00    -0.221 C  
HETATM   19  H   UNL     1     -12.174  12.186  66.733  1.00  0.00     0.000 HD 
HETATM   20  O   UNL     1      -9.444  12.030  68.369  1.00  0.00    -0.201 OA 
BRANCH  18  21
HETATM   21  C   UNL     1     -11.363  13.341  68.901  1.00  0.00    -0.288 C  
BRANCH  21  22
HETATM   22  N   UNL     1     -12.017  12.570  69.979  1.00  0.00    -0.334 NA 
HETATM   23  C   UNL     1     -11.942  11.214  69.978  1.00  0.00    -0.367 A  
HETATM   24  C   UNL     1     -12.568  10.472  70.970  1.00  0.00    -0.499 A  
HETATM   25  C   UNL     1     -13.259  11.128  71.979  1.00  0.00    -0.428 A  
HETATM   26  C   UNL     1     -13.313  12.515  71.977  1.00  0.00    -0.528 A  
HETATM   27  C   UNL     1     -12.680  13.220  70.961  1.00  0.00    -0.293 A  
ENDBRANCH  21  22
ENDBRANCH  18  21
ENDBRANCH  16  17
ENDBRANCH  15  16
ENDBRANCH  14  15
ENDBRANCH  12  14
ENDBRANCH  11  12
ENDBRANCH  10  11
ENDBRANCH   9  10
ENDBRANCH   8   9
ENDBRANCH   7   8
ENDBRANCH   6   7
ENDBRANCH   5   6
ENDBRANCH   4   5
ENDBRANCH   3   4
ENDBRANCH   2   3
TORSDOF 16
ENDMDL
MODEL      211
REMARK 921   NORMALIZED FREE ENERGY PREDICTED BY IDOCK:   -3.61 KCAL/MOL
REMARK 922        TOTAL FREE ENERGY PREDICTED BY IDOCK:   -9.06 KCAL/MOL
REMARK 923 INTER-LIGAND FREE ENERGY PREDICTED BY IDOCK:   -8.24 KCAL/MOL
REMARK 924 INTRA-LIGAND FREE ENERGY PREDICTED BY IDOCK:   -0.82 KCAL/MOL
REMARK 927      BINDING AFFINITY PREDICTED BY RF-SCORE:    0.00 PKD
ROOT
HETATM    1  C   UNL     1     -10.234  11.109  63.985  1.00  0.00    -0.419 C  
HETATM    2  C   UNL     1     -11.431  11.479  63.127  1.00  0.00    -0.039 C  
ENDROOT
BRANCH   2   3
HETATM    3  C   UNL     1     -11.934  12.882  63.461  1.00  0.00    -0.629 C  
BRANCH   3   4
HETATM    4  C   UNL     1     -12.909  12.855  64.635  1.00  0.00    -0.323 C  
BRANCH   4   5
HETATM    5  C   UNL     1     -12.391  13.710  65.791  1.00  0.00    -0.524 C  
BRANCH   5   6
HETATM    6  C   UNL     1     -10.981  13.287  66.181  1.00  0.00    -0.292 C  
BRANCH   6   7
HETATM    7  C   UNL     1      -9.975  14.414  65.963  1.00  0.00    -0.337 C  
BRANCH   7   8
HETATM    8  C   UNL     1     -10.704  15.755  65.951  1.00  0.00    -0.320 C  
BRANCH   8   9
HETATM    9  C   UNL     1      -9.737  16.925  65.844  1.00  0.00    -0.205 C  
BRANCH   9  10
HETATM   10  C   UNL     1      -8.297  16.518  66.194  1.00  0.00    -0.305 C  
BRANCH  10  11
HETATM   11  C   UNL     1      -7.599  17.464  67.182  1.00  0.00    -0.226 C  
BRANCH  11  12
HETATM   12  C   UNL     1      -7.693  16.919  68.585  1.00  0.00    -0.235 C  
HETATM   13  O   UNL     1      -6.746  16.750  69.338  1.00  0.00    -0.229 OA 
BRANCH  12  14
HETATM   14  O   UNL     1      -9.002  16.824  68.948  1.00  0.00    -0.255 OA 
BRANCH  14  15
HETATM   15  C   UNL     1      -9.331  15.615  69.644  1.00  0.00    -0.217 C  
BRANCH  15  16
HETATM   16  C   UNL     1     -10.774  15.782  70.130  1.00  0.00    -0.344 C  
BRANCH  16  17
HETATM   17  N   UNL     1     -11.335  14.597  70.758  1.00  0.00    -0.491 N  
HETATM   18  C   UNL     1     -12.685  14.496  70.992  1.00  0.00    -0.343 C  
HETATM   19  H   UNL     1     -10.718  13.831  71.028  1.00  0.00     0.000 HD 
HETATM   20  O   UNL     1     -13.474  15.416  70.800  1.00  0.00    -0.412 OA 
BRANCH  18  21
HETATM   21  C   UNL     1     -13.159  13.192  71.598  1.00  0.00    -0.353 C  
BRANCH  21  22
HETATM   22  N   UNL     1     -12.507  12.067  70.896  1.00  0.00    -0.347 NA 
HETATM   23  C   UNL     1     -12.230  10.922  71.570  1.00  0.00    -0.150 A  
HETATM   24  C   UNL     1     -11.597   9.863  70.934  1.00  0.00    -0.456 A  
HETATM   25  C   UNL     1     -11.265   9.975  69.591  1.00  0.00    -0.285 A  
HETATM   26  C   UNL     1     -11.569  11.145  68.909  1.00  0.00    -0.385 A  
HETATM   27  C   UNL     1     -12.195  12.185  69.586  1.00  0.00    -0.120 A  
ENDBRANCH  21  22
ENDBRANCH  18  21
ENDBRANCH  16  17
ENDBRANCH  15  16
ENDBRANCH  14  15
ENDBRANCH  12  14
ENDBRANCH  11  12
ENDBRANCH  10  11
ENDBRANCH   9  10
ENDBRANCH   8   9
ENDBRANCH   7   8
ENDBRANCH   6   7
ENDBRANCH   5   6
ENDBRANCH   4   5
ENDBRANCH   3   4
ENDBRANCH   2   3
TORSDOF 16
ENDMDL
MODEL      212
REMARK 921   NORMALIZED FREE ENERGY PREDICTED BY IDOCK:   -3.60 KCAL/MOL
REMARK 922        TOTAL FREE ENERGY PREDICTED BY IDOCK:   -9.05 KCAL/MOL
REMARK 923 INTER-LIGAND FREE ENERGY PREDICTED BY IDOCK:   -7.82 KCAL/MOL
REMARK 924 INTRA-LIGAND FREE ENERGY PREDICTED BY IDOCK:   -1.24 KCAL/MOL
REMARK 927      BINDING AFFINITY PREDICTED BY RF-SCORE:    0.00 PKD
ROOT
HETATM    1  C   UNL     1      -9.810   4.809  71.332  1.00  0.00    -0.255 C  
HETATM    2  C   UNL     1     -10.940   5.821  71.417  1.00  0.00    -0.304 C  
ENDROOT
BRANCH   2   3
HETATM    3  C   UNL     1     -11.000   6.461  72.802  1.00  0.00    -0.289 C  
BRANCH   3   4
HETATM    4  C   UNL     1     -10.800   7.972  72.721  1.00  0.00    -0.438 C  
BRANCH   4   5
HETATM    5  C   UNL     1      -9.314   8.322  72.680  1.00  0.00    -0.350 C  
BRANCH   5   6
HETATM    6  C   UNL     1      -8.927   8.862  71.310  1.00  0.00    -0.312 C  
BRANCH   6   7
HETATM    7  C   UNL     1     -10.154   9.113  70.437  1.00  0.00    -0.264 C  
BRANCH   7   8
HETATM    8  C   UNL     1      -9.720   9.719  69.106  1.00  0.00    -0.188 C  
BRANCH   8   9
HETATM    9  C   UNL     1     -10.387  11.063  68.850  1.00  0.00    -0.223 C  
BRANCH   9  10
HETATM   10  C   UNL     1     -11.339  11.461  69.989  1.00  0.00    -0.260 C  
BRANCH  10  11
HETATM   11  C   UNL     1     -12.572  10.556  70.121  1.00  0.00    -0.246 C  
BRANCH  11  12
HETATM   12  C   UNL     1     -13.228  10.757  71.464  1.00  0.00    -0.334 C  
HETATM   13  O   UNL     1     -13.948   9.944  72.024  1.00  0.00    -0.180 OA 
BRANCH  12  14
HETATM   14  O   UNL     1     -12.748  11.894  72.039  1.00  0.00    -0.204 OA 
BRANCH  14  15
HETATM   15  C   UNL     1     -13.728  12.926  72.207  1.00  0.00    -0.458 C  
BRANCH  15  16
HETATM   16  C   UNL     1     -12.963  14.252  72.161  1.00  0.00    -0.373 C  
BRANCH  16  17
HETATM   17  N   UNL     1     -12.960  14.895  70.857  1.00  0.00    -0.365 N  
HETATM   18  C   UNL     1     -11.787  15.329  70.289  1.00  0.00    -0.318 C  
HETATM   19  H   UNL     1     -13.839  15.025  70.357  1.00  0.00     0.000 HD 
HETATM   20  O   UNL     1     -10.707  15.312  70.873  1.00  0.00    -0.266 OA 
BRANCH  18  21
HETATM   21  C   UNL     1     -11.900  15.931  68.904  1.00  0.00    -0.304 C  
BRANCH  21  22
HETATM   22  N   UNL     1     -11.328  14.988  67.919  1.00  0.00    -0.323 NA 
HETATM   23  C   UNL     1      -9.993  14.999  67.675  1.00  0.00    -0.225 A  
HETATM   24  C   UNL     1      -9.441  14.137  66.738  1.00  0.00    -0.290 A  
HETATM   25  C   UNL     1     -10.262  13.245  66.063  1.00  0.00    -0.291 A  
HETATM   26  C   UNL     1     -11.624  13.233  66.336  1.00  0.00    -0.387 A  
HETATM   27  C   UNL     1     -12.138  14.119  67.274  1.00  0.00    -0.372 A  
ENDBRANCH  21  22
ENDBRANCH  18  21
ENDBRANCH  16  17
ENDBRANCH  15  16
ENDBRANCH  14  15
ENDBRANCH  12  14
ENDBRANCH  11  12
ENDBRANCH  10  11
ENDBRANCH   9  10
ENDBRANCH   8   9
ENDBRANCH   7   8
ENDBRANCH   6   7
ENDBRANCH   5   6
ENDBRANCH   4   5
ENDBRANCH   3   4
ENDBRANCH   2   3
TORSDOF 16
ENDMDL
MODEL      213
REMARK 921   NORMALIZED FREE ENERGY PREDICTED BY IDOCK:   -3.60 KCAL/MOL
REMARK 922        TOTAL FREE ENERGY PREDICTED BY IDOCK:   -9.05 KCAL/MOL
REMARK 923 INTER-LIGAND FREE ENERGY PREDICTED BY IDOCK:   -7.25 KCAL/MOL
REMARK 924 INTRA-LIGAND FREE ENERGY PREDICTED BY IDOCK:   -1.80 KCAL/MOL
REMARK 927      BINDING AFFINITY PREDICTED BY RF-SCORE:    0.00 PKD
ROOT
HETATM    1  C   UNL     1      -6.839  12.599  68.865  1.00  0.00    -0.097 C  
HETATM    2  C   UNL     1      -5.673  13.392  69.431  1.00  0.00    -0.087 C  
ENDROOT
BRANCH   2   3
HETATM    3  C   UNL     1      -6.166  14.544  70.304  1.00  0.00    -0.176 C  
BRANCH   3   4
HETATM    4  C   UNL     1      -7.202  15.391  69.570  1.00  0.00    -0.202 C  
BRANCH   4   5
HETATM    5  C   UNL     1      -6.785  16.860  69.546  1.00  0.00    -0.169 C  
BRANCH   5   6
HETATM    6  C   UNL     1      -6.513  17.318  68.119  1.00  0.00    -0.162 C  
BRANCH   6   7
HETATM    7  C   UNL     1      -6.803  16.211  67.109  1.00  0.00    -0.240 C  
BRANCH   7   8
HETATM    8  C   UNL     1      -7.923  16.654  66.171  1.00  0.00    -0.237 C  
BRANCH   8   9
HETATM    9  C   UNL     1      -8.371  18.081  66.457  1.00  0.00    -0.293 C  
BRANCH   9  10
HETATM   10  C   UNL     1      -9.900  18.201  66.532  1.00  0.00    -0.362 C  
BRANCH  10  11
HETATM   11  C   UNL     1     -10.588  17.034  67.254  1.00  0.00    -0.267 C  
BRANCH  11  12
HETATM   12  C   UNL     1     -10.404  17.158  68.746  1.00  0.00    -0.353 C  
HETATM   13  O   UNL     1     -10.236  18.207  69.349  1.00  0.00    -0.207 OA 
BRANCH  12  14
HETATM   14  O   UNL     1     -10.640  15.953  69.334  1.00  0.00    -0.222 OA 
BRANCH  14  15
HETATM   15  C   UNL     1     -11.291  15.002  68.483  1.00  0.00    -0.303 C  
BRANCH  15  16
HETATM   16  C   UNL     1     -10.799  13.622  68.931  1.00  0.00    -0.235 C  
BRANCH  16  17
HETATM   17  N   UNL     1     -11.515  13.073  70.070  1.00  0.00    -0.522 N  
HETATM   18  C   UNL     1     -12.188  11.880  69.970  1.00  0.00    -0.217 C  
HETATM   19  H   UNL     1     -11.517  13.579  70.956  1.00  0.00     0.000 HD 
HETATM   20  O   UNL     1     -12.327  11.270  68.915  1.00  0.00    -0.485 OA 
BRANCH  18  21
HETATM   21  C   UNL     1     -12.849  11.380  71.238  1.00  0.00    -0.379 C  
BRANCH  21  22
HETATM   22  N   UNL     1     -12.591   9.931  71.377  1.00  0.00    -0.366 NA 
HETATM   23  C   UNL     1     -11.320   9.487  71.549  1.00  0.00    -0.385 A  
HETATM   24  C   UNL     1     -11.056   8.128  71.659  1.00  0.00    -0.310 A  
HETATM   25  C   UNL     1     -12.106   7.223  71.611  1.00  0.00    -0.359 A  
HETATM   26  C   UNL     1     -13.403   7.692  71.451  1.00  0.00    -0.340 A  
HETATM   27  C   UNL     1     -13.623   9.059  71.336  1.00  0.00    -0.277 A  
ENDBRANCH  21  22
ENDBRANCH  18  21
ENDBRANCH  16  17
ENDBRANCH  15  16
ENDBRANCH  14  15
ENDBRANCH  12  14
ENDBRANCH  11  12
ENDBRANCH  10  11
ENDBRANCH   9  10
ENDBRANCH   8   9
ENDBRANCH   7   8
ENDBRANCH   6   7
ENDBRANCH   5   6
ENDBRANCH   4   5
ENDBRANCH   3   4
ENDBRANCH   2   3
TORSDOF 16
ENDMDL
MODEL      214
REMARK 921   NORMALIZED FREE ENERGY PREDICTED BY IDOCK:   -3.60 KCAL/MOL
REMARK 922        TOTAL FREE ENERGY PREDICTED BY IDOCK:   -9.05 KCAL/MOL
REMARK 923 INTER-LIGAND FREE ENERGY PREDICTED BY IDOCK:   -7.66 KCAL/MOL
REMARK 924 INTRA-LIGAND FREE ENERGY PREDICTED BY IDOCK:   -1.39 KCAL/MOL
REMARK 927      BINDING AFFINITY PREDICTED BY RF-SCORE:    0.00 PKD
ROOT
HETATM    1  C   UNL     1      -7.444   2.837  71.325  1.00  0.00    -0.036 C  
HETATM    2  C   UNL     1      -8.343   3.958  70.832  1.00  0.00    -0.089 C  
ENDROOT
BRANCH   2   3
HETATM    3  C   UNL     1      -9.814   3.631  71.081  1.00  0.00    -0.200 C  
BRANCH   3   4
HETATM    4  C   UNL     1      -9.965   2.490  72.083  1.00  0.00    -0.232 C  
BRANCH   4   5
HETATM    5  C   UNL     1     -10.598   2.990  73.381  1.00  0.00    -0.269 C  
BRANCH   5   6
HETATM    6  C   UNL     1     -11.154   4.396  73.201  1.00  0.00    -0.326 C  
BRANCH   6   7
HETATM    7  C   UNL     1     -10.537   5.376  74.195  1.00  0.00    -0.278 C  
BRANCH   7   8
HETATM    8  C   UNL     1      -9.686   6.398  73.445  1.00  0.00    -0.177 C  
BRANCH   8   9
HETATM    9  C   UNL     1     -10.466   7.667  73.133  1.00  0.00    -0.433 C  
BRANCH   9  10
HETATM   10  C   UNL     1     -10.928   7.715  71.669  1.00  0.00    -0.267 C  
BRANCH  10  11
HETATM   11  C   UNL     1     -12.436   7.499  71.478  1.00  0.00    -0.375 C  
BRANCH  11  12
HETATM   12  C   UNL     1     -13.195   8.754  71.831  1.00  0.00    -0.381 C  
HETATM   13  O   UNL     1     -14.160   8.805  72.576  1.00  0.00    -0.440 OA 
BRANCH  12  14
HETATM   14  O   UNL     1     -12.529   9.838  71.345  1.00  0.00    -0.333 OA 
BRANCH  14  15
HETATM   15  C   UNL     1     -12.799  11.056  72.051  1.00  0.00    -0.191 C  
BRANCH  15  16
HETATM   16  C   UNL     1     -12.895  12.153  70.986  1.00  0.00    -0.166 C  
BRANCH  16  17
HETATM   17  N   UNL     1     -11.637  12.457  70.325  1.00  0.00    -0.530 N  
HETATM   18  C   UNL     1     -11.447  12.155  68.998  1.00  0.00    -0.297 C  
HETATM   19  H   UNL     1     -10.885  12.901  70.853  1.00  0.00     0.000 HD 
HETATM   20  O   UNL     1     -12.257  11.523  68.328  1.00  0.00    -0.561 OA 
BRANCH  18  21
HETATM   21  C   UNL     1     -10.117  12.570  68.405  1.00  0.00    -0.216 C  
BRANCH  21  22
HETATM   22  N   UNL     1     -10.269  12.727  66.943  1.00  0.00    -0.234 NA 
HETATM   23  C   UNL     1      -9.930  11.705  66.117  1.00  0.00    -0.221 A  
HETATM   24  C   UNL     1     -10.044  11.841  64.740  1.00  0.00    -0.302 A  
HETATM   25  C   UNL     1     -10.529  13.029  64.211  1.00  0.00    -0.424 A  
HETATM   26  C   UNL     1     -10.889  14.060  65.068  1.00  0.00    -0.401 A  
HETATM   27  C   UNL     1     -10.750  13.886  66.439  1.00  0.00    -0.281 A  
ENDBRANCH  21  22
ENDBRANCH  18  21
ENDBRANCH  16  17
ENDBRANCH  15  16
ENDBRANCH  14  15
ENDBRANCH  12  14
ENDBRANCH  11  12
ENDBRANCH  10  11
ENDBRANCH   9  10
ENDBRANCH   8   9
ENDBRANCH   7   8
ENDBRANCH   6   7
ENDBRANCH   5   6
ENDBRANCH   4   5
ENDBRANCH   3   4
ENDBRANCH   2   3
TORSDOF 16
ENDMDL
MODEL      215
REMARK 921   NORMALIZED FREE ENERGY PREDICTED BY IDOCK:   -3.59 KCAL/MOL
REMARK 922        TOTAL FREE ENERGY PREDICTED BY IDOCK:   -9.04 KCAL/MOL
REMARK 923 INTER-LIGAND FREE ENERGY PREDICTED BY IDOCK:   -7.89 KCAL/MOL
REMARK 924 INTRA-LIGAND FREE ENERGY PREDICTED BY IDOCK:   -1.15 KCAL/MOL
REMARK 927      BINDING AFFINITY PREDICTED BY RF-SCORE:    0.00 PKD
ROOT
HETATM    1  C   UNL     1      -6.436   7.795  64.530  1.00  0.00    -0.048 C  
HETATM    2  C   UNL     1      -6.313   8.665  63.291  1.00  0.00    -0.086 C  
ENDROOT
BRANCH   2   3
HETATM    3  C   UNL     1      -6.694  10.112  63.597  1.00  0.00    -0.117 C  
BRANCH   3   4
HETATM    4  C   UNL     1      -8.191  10.342  63.411  1.00  0.00    -0.164 C  
BRANCH   4   5
HETATM    5  C   UNL     1      -8.864  10.642  64.750  1.00  0.00    -0.196 C  
BRANCH   5   6
HETATM    6  C   UNL     1     -10.376  10.728  64.582  1.00  0.00    -0.394 C  
BRANCH   6   7
HETATM    7  C   UNL     1     -10.763  11.659  63.437  1.00  0.00    -0.460 C  
BRANCH   7   8
HETATM    8  C   UNL     1     -12.229  12.061  63.577  1.00  0.00    -0.653 C  
BRANCH   8   9
HETATM    9  C   UNL     1     -12.384  13.542  63.893  1.00  0.00    -0.397 C  
BRANCH   9  10
HETATM   10  C   UNL     1     -12.507  13.800  65.402  1.00  0.00    -0.532 C  
BRANCH  10  11
HETATM   11  C   UNL     1     -11.169  14.079  66.103  1.00  0.00    -0.318 C  
BRANCH  11  12
HETATM   12  C   UNL     1     -11.403  14.497  67.533  1.00  0.00    -0.340 C  
HETATM   13  O   UNL     1     -11.164  15.604  67.990  1.00  0.00    -0.329 OA 
BRANCH  12  14
HETATM   14  O   UNL     1     -12.092  13.519  68.185  1.00  0.00    -0.346 OA 
BRANCH  14  15
HETATM   15  C   UNL     1     -11.303  12.371  68.522  1.00  0.00    -0.293 C  
BRANCH  15  16
HETATM   16  C   UNL     1     -12.057  11.652  69.646  1.00  0.00    -0.280 C  
BRANCH  16  17
HETATM   17  N   UNL     1     -11.240  10.732  70.420  1.00  0.00    -0.448 N  
HETATM   18  C   UNL     1     -11.818   9.729  71.160  1.00  0.00    -0.382 C  
HETATM   19  H   UNL     1     -10.225  10.832  70.414  1.00  0.00     0.000 HD 
HETATM   20  O   UNL     1     -13.030   9.613  71.308  1.00  0.00    -0.345 OA 
BRANCH  18  21
HETATM   21  C   UNL     1     -10.864   8.798  71.879  1.00  0.00    -0.360 C  
BRANCH  21  22
HETATM   22  N   UNL     1     -10.407   7.754  70.937  1.00  0.00    -0.200 NA 
HETATM   23  C   UNL     1     -11.273   6.792  70.528  1.00  0.00    -0.320 A  
HETATM   24  C   UNL     1     -10.857   5.790  69.662  1.00  0.00    -0.418 A  
HETATM   25  C   UNL     1      -9.549   5.789  69.199  1.00  0.00    -0.171 A  
HETATM   26  C   UNL     1      -8.679   6.788  69.612  1.00  0.00    -0.137 A  
HETATM   27  C   UNL     1      -9.133   7.767  70.487  1.00  0.00    -0.154 A  
ENDBRANCH  21  22
ENDBRANCH  18  21
ENDBRANCH  16  17
ENDBRANCH  15  16
ENDBRANCH  14  15
ENDBRANCH  12  14
ENDBRANCH  11  12
ENDBRANCH  10  11
ENDBRANCH   9  10
ENDBRANCH   8   9
ENDBRANCH   7   8
ENDBRANCH   6   7
ENDBRANCH   5   6
ENDBRANCH   4   5
ENDBRANCH   3   4
ENDBRANCH   2   3
TORSDOF 16
ENDMDL
MODEL      216
REMARK 921   NORMALIZED FREE ENERGY PREDICTED BY IDOCK:   -3.59 KCAL/MOL
REMARK 922        TOTAL FREE ENERGY PREDICTED BY IDOCK:   -9.03 KCAL/MOL
REMARK 923 INTER-LIGAND FREE ENERGY PREDICTED BY IDOCK:   -8.22 KCAL/MOL
REMARK 924 INTRA-LIGAND FREE ENERGY PREDICTED BY IDOCK:   -0.81 KCAL/MOL
REMARK 927      BINDING AFFINITY PREDICTED BY RF-SCORE:    0.00 PKD
ROOT
HETATM    1  C   UNL     1      -5.300  20.438  71.418  1.00  0.00    -0.318 C  
HETATM    2  C   UNL     1      -5.563  20.323  69.926  1.00  0.00    -0.342 C  
ENDROOT
BRANCH   2   3
HETATM    3  C   UNL     1      -6.831  19.516  69.653  1.00  0.00    -0.282 C  
BRANCH   3   4
HETATM    4  C   UNL     1      -6.949  19.155  68.175  1.00  0.00    -0.280 C  
BRANCH   4   5
HETATM    5  C   UNL     1      -8.304  19.586  67.617  1.00  0.00    -0.340 C  
BRANCH   5   6
HETATM    6  C   UNL     1      -9.372  19.534  68.702  1.00  0.00    -0.430 C  
BRANCH   6   7
HETATM    7  C   UNL     1     -10.394  18.433  68.433  1.00  0.00    -0.357 C  
BRANCH   7   8
HETATM    8  C   UNL     1     -10.163  17.274  69.399  1.00  0.00    -0.139 C  
BRANCH   8   9
HETATM    9  C   UNL     1     -11.403  16.403  69.546  1.00  0.00    -0.192 C  
BRANCH   9  10
HETATM   10  C   UNL     1     -11.554  15.849  70.971  1.00  0.00    -0.465 C  
BRANCH  10  11
HETATM   11  C   UNL     1     -13.008  15.615  71.403  1.00  0.00    -0.555 C  
BRANCH  11  12
HETATM   12  C   UNL     1     -13.209  14.178  71.815  1.00  0.00    -0.373 C  
HETATM   13  O   UNL     1     -14.086  13.778  72.564  1.00  0.00    -0.686 OA 
BRANCH  12  14
HETATM   14  O   UNL     1     -12.387  13.377  71.082  1.00  0.00    -0.349 OA 
BRANCH  14  15
HETATM   15  C   UNL     1     -12.899  12.056  70.863  1.00  0.00    -0.115 C  
BRANCH  15  16
HETATM   16  C   UNL     1     -11.731  11.235  70.306  1.00  0.00    -0.324 C  
BRANCH  16  17
HETATM   17  N   UNL     1     -10.941  11.925  69.300  1.00  0.00    -0.397 N  
HETATM   18  C   UNL     1     -11.030  11.577  67.974  1.00  0.00    -0.231 C  
HETATM   19  H   UNL     1     -10.313  12.678  69.582  1.00  0.00     0.000 HD 
HETATM   20  O   UNL     1     -11.674  10.613  67.571  1.00  0.00    -0.445 OA 
BRANCH  18  21
HETATM   21  C   UNL     1     -10.203  12.404  67.012  1.00  0.00    -0.220 C  
BRANCH  21  22
HETATM   22  N   UNL     1      -9.588  11.507  66.010  1.00  0.00    -0.221 NA 
HETATM   23  C   UNL     1      -8.353  10.992  66.237  1.00  0.00    -0.166 A  
HETATM   24  C   UNL     1      -7.749  10.166  65.299  1.00  0.00    -0.144 A  
HETATM   25  C   UNL     1      -8.428   9.853  64.130  1.00  0.00    -0.179 A  
HETATM   26  C   UNL     1      -9.698  10.372  63.918  1.00  0.00    -0.367 A  
HETATM   27  C   UNL     1     -10.262  11.202  64.879  1.00  0.00    -0.303 A  
ENDBRANCH  21  22
ENDBRANCH  18  21
ENDBRANCH  16  17
ENDBRANCH  15  16
ENDBRANCH  14  15
ENDBRANCH  12  14
ENDBRANCH  11  12
ENDBRANCH  10  11
ENDBRANCH   9  10
ENDBRANCH   8   9
ENDBRANCH   7   8
ENDBRANCH   6   7
ENDBRANCH   5   6
ENDBRANCH   4   5
ENDBRANCH   3   4
ENDBRANCH   2   3
TORSDOF 16
ENDMDL
MODEL      217
REMARK 921   NORMALIZED FREE ENERGY PREDICTED BY IDOCK:   -3.58 KCAL/MOL
REMARK 922        TOTAL FREE ENERGY PREDICTED BY IDOCK:   -9.02 KCAL/MOL
REMARK 923 INTER-LIGAND FREE ENERGY PREDICTED BY IDOCK:   -7.56 KCAL/MOL
REMARK 924 INTRA-LIGAND FREE ENERGY PREDICTED BY IDOCK:   -1.45 KCAL/MOL
REMARK 927      BINDING AFFINITY PREDICTED BY RF-SCORE:    0.00 PKD
ROOT
HETATM    1  C   UNL     1      -6.249  13.797  68.466  1.00  0.00    -0.092 C  
HETATM    2  C   UNL     1      -7.760  13.657  68.513  1.00  0.00    -0.129 C  
ENDROOT
BRANCH   2   3
HETATM    3  C   UNL     1      -8.308  13.163  67.176  1.00  0.00    -0.146 C  
BRANCH   3   4
HETATM    4  C   UNL     1      -9.512  13.989  66.732  1.00  0.00    -0.292 C  
BRANCH   4   5
HETATM    5  C   UNL     1      -9.244  15.482  66.918  1.00  0.00    -0.257 C  
BRANCH   5   6
HETATM    6  C   UNL     1     -10.535  16.279  66.784  1.00  0.00    -0.287 C  
BRANCH   6   7
HETATM    7  C   UNL     1     -11.280  16.369  68.113  1.00  0.00    -0.273 C  
BRANCH   7   8
HETATM    8  C   UNL     1     -10.276  16.396  69.262  1.00  0.00    -0.278 C  
BRANCH   8   9
HETATM    9  C   UNL     1     -10.816  15.702  70.505  1.00  0.00    -0.347 C  
BRANCH   9  10
HETATM   10  C   UNL     1     -12.164  15.012  70.241  1.00  0.00    -0.390 C  
BRANCH  10  11
HETATM   11  C   UNL     1     -13.252  15.345  71.271  1.00  0.00    -0.585 C  
BRANCH  11  12
HETATM   12  C   UNL     1     -13.302  14.285  72.342  1.00  0.00    -0.474 C  
HETATM   13  O   UNL     1     -13.003  14.455  73.514  1.00  0.00    -0.514 OA 
BRANCH  12  14
HETATM   14  O   UNL     1     -13.908  13.169  71.849  1.00  0.00    -0.345 OA 
BRANCH  14  15
HETATM   15  C   UNL     1     -13.193  11.954  72.102  1.00  0.00    -0.261 C  
BRANCH  15  16
HETATM   16  C   UNL     1     -12.740  11.433  70.734  1.00  0.00    -0.253 C  
BRANCH  16  17
HETATM   17  N   UNL     1     -12.788   9.986  70.599  1.00  0.00    -0.539 N  
HETATM   18  C   UNL     1     -11.654   9.227  70.757  1.00  0.00    -0.285 C  
HETATM   19  H   UNL     1     -13.674   9.529  70.385  1.00  0.00     0.000 HD 
HETATM   20  O   UNL     1     -10.535   9.708  70.903  1.00  0.00    -0.300 OA 
BRANCH  18  21
HETATM   21  C   UNL     1     -11.837   7.727  70.651  1.00  0.00    -0.124 C  
BRANCH  21  22
HETATM   22  N   UNL     1     -10.937   7.061  71.616  1.00  0.00    -0.228 NA 
HETATM   23  C   UNL     1      -9.947   6.251  71.164  1.00  0.00    -0.181 A  
HETATM   24  C   UNL     1      -9.106   5.599  72.055  1.00  0.00    -0.145 A  
HETATM   25  C   UNL     1      -9.271   5.798  73.418  1.00  0.00    -0.132 A  
HETATM   26  C   UNL     1     -10.278   6.643  73.867  1.00  0.00    -0.379 A  
HETATM   27  C   UNL     1     -11.104   7.268  72.941  1.00  0.00    -0.325 A  
ENDBRANCH  21  22
ENDBRANCH  18  21
ENDBRANCH  16  17
ENDBRANCH  15  16
ENDBRANCH  14  15
ENDBRANCH  12  14
ENDBRANCH  11  12
ENDBRANCH  10  11
ENDBRANCH   9  10
ENDBRANCH   8   9
ENDBRANCH   7   8
ENDBRANCH   6   7
ENDBRANCH   5   6
ENDBRANCH   4   5
ENDBRANCH   3   4
ENDBRANCH   2   3
TORSDOF 16
ENDMDL
MODEL      218
REMARK 921   NORMALIZED FREE ENERGY PREDICTED BY IDOCK:   -3.58 KCAL/MOL
REMARK 922        TOTAL FREE ENERGY PREDICTED BY IDOCK:   -9.01 KCAL/MOL
REMARK 923 INTER-LIGAND FREE ENERGY PREDICTED BY IDOCK:   -7.19 KCAL/MOL
REMARK 924 INTRA-LIGAND FREE ENERGY PREDICTED BY IDOCK:   -1.82 KCAL/MOL
REMARK 927      BINDING AFFINITY PREDICTED BY RF-SCORE:    0.00 PKD
ROOT
HETATM    1  C   UNL     1      -9.245   7.710  71.015  1.00  0.00    -0.152 C  
HETATM    2  C   UNL     1      -9.488   7.877  72.506  1.00  0.00    -0.262 C  
ENDROOT
BRANCH   2   3
HETATM    3  C   UNL     1     -10.857   7.331  72.904  1.00  0.00    -0.380 C  
BRANCH   3   4
HETATM    4  C   UNL     1     -11.607   6.781  71.693  1.00  0.00    -0.336 C  
BRANCH   4   5
HETATM    5  C   UNL     1     -12.975   7.446  71.555  1.00  0.00    -0.421 C  
BRANCH   5   6
HETATM    6  C   UNL     1     -13.042   8.717  72.391  1.00  0.00    -0.396 C  
BRANCH   6   7
HETATM    7  C   UNL     1     -13.218   9.956  71.518  1.00  0.00    -0.501 C  
BRANCH   7   8
HETATM    8  C   UNL     1     -11.849  10.528  71.160  1.00  0.00    -0.391 C  
BRANCH   8   9
HETATM    9  C   UNL     1     -11.720  10.797  69.667  1.00  0.00    -0.395 C  
BRANCH   9  10
HETATM   10  C   UNL     1     -11.171  12.203  69.378  1.00  0.00    -0.248 C  
BRANCH  10  11
HETATM   11  C   UNL     1     -12.247  13.231  69.001  1.00  0.00    -0.156 C  
BRANCH  11  12
HETATM   12  C   UNL     1     -12.242  13.474  67.513  1.00  0.00    -0.206 C  
HETATM   13  O   UNL     1     -12.151  14.569  66.979  1.00  0.00    -0.398 OA 
BRANCH  12  14
HETATM   14  O   UNL     1     -12.165  12.282  66.859  1.00  0.00    -0.530 OA 
BRANCH  14  15
HETATM   15  C   UNL     1     -11.570  12.364  65.558  1.00  0.00    -0.385 C  
BRANCH  15  16
HETATM   16  C   UNL     1     -10.065  12.540  65.788  1.00  0.00    -0.262 C  
BRANCH  16  17
HETATM   17  N   UNL     1      -9.304  11.303  65.742  1.00  0.00    -0.219 N  
HETATM   18  C   UNL     1      -8.442  10.968  66.757  1.00  0.00    -0.148 C  
HETATM   19  H   UNL     1      -9.412  10.675  64.945  1.00  0.00     0.000 HD 
HETATM   20  O   UNL     1      -8.173  11.719  67.689  1.00  0.00    -0.131 OA 
BRANCH  18  21
HETATM   21  C   UNL     1      -7.748   9.628  66.626  1.00  0.00    -0.098 C  
BRANCH  21  22
HETATM   22  N   UNL     1      -8.747   8.550  66.780  1.00  0.00    -0.119 NA 
HETATM   23  C   UNL     1      -8.576   7.374  66.123  1.00  0.00    -0.146 A  
HETATM   24  C   UNL     1      -9.515   6.359  66.237  1.00  0.00    -0.133 A  
HETATM   25  C   UNL     1     -10.626   6.545  67.047  1.00  0.00    -0.402 A  
HETATM   26  C   UNL     1     -10.780   7.745  67.727  1.00  0.00    -0.197 A  
HETATM   27  C   UNL     1      -9.822   8.740  67.578  1.00  0.00    -0.179 A  
ENDBRANCH  21  22
ENDBRANCH  18  21
ENDBRANCH  16  17
ENDBRANCH  15  16
ENDBRANCH  14  15
ENDBRANCH  12  14
ENDBRANCH  11  12
ENDBRANCH  10  11
ENDBRANCH   9  10
ENDBRANCH   8   9
ENDBRANCH   7   8
ENDBRANCH   6   7
ENDBRANCH   5   6
ENDBRANCH   4   5
ENDBRANCH   3   4
ENDBRANCH   2   3
TORSDOF 16
ENDMDL
MODEL      219
REMARK 921   NORMALIZED FREE ENERGY PREDICTED BY IDOCK:   -3.58 KCAL/MOL
REMARK 922        TOTAL FREE ENERGY PREDICTED BY IDOCK:   -9.01 KCAL/MOL
REMARK 923 INTER-LIGAND FREE ENERGY PREDICTED BY IDOCK:   -8.06 KCAL/MOL
REMARK 924 INTRA-LIGAND FREE ENERGY PREDICTED BY IDOCK:   -0.96 KCAL/MOL
REMARK 927      BINDING AFFINITY PREDICTED BY RF-SCORE:    0.00 PKD
ROOT
HETATM    1  C   UNL     1      -7.505   8.603  62.490  1.00  0.00    -0.104 C  
HETATM    2  C   UNL     1      -8.181   9.851  63.032  1.00  0.00    -0.152 C  
ENDROOT
BRANCH   2   3
HETATM    3  C   UNL     1      -8.759   9.602  64.424  1.00  0.00    -0.230 C  
BRANCH   3   4
HETATM    4  C   UNL     1     -10.079  10.344  64.615  1.00  0.00    -0.378 C  
BRANCH   4   5
HETATM    5  C   UNL     1     -10.356  11.272  63.434  1.00  0.00    -0.449 C  
BRANCH   5   6
HETATM    6  C   UNL     1     -11.422  12.299  63.797  1.00  0.00    -0.545 C  
BRANCH   6   7
HETATM    7  C   UNL     1     -10.968  13.198  64.944  1.00  0.00    -0.337 C  
BRANCH   7   8
HETATM    8  C   UNL     1     -11.792  12.890  66.192  1.00  0.00    -0.487 C  
BRANCH   8   9
HETATM    9  C   UNL     1     -12.101  14.148  66.992  1.00  0.00    -0.449 C  
BRANCH   9  10
HETATM   10  C   UNL     1     -11.898  13.938  68.500  1.00  0.00    -0.401 C  
BRANCH  10  11
HETATM   11  C   UNL     1     -11.647  12.478  68.903  1.00  0.00    -0.364 C  
BRANCH  11  12
HETATM   12  C   UNL     1     -12.113  12.236  70.316  1.00  0.00    -0.295 C  
HETATM   13  O   UNL     1     -12.393  13.109  71.124  1.00  0.00    -0.333 OA 
BRANCH  12  14
HETATM   14  O   UNL     1     -12.354  10.907  70.494  1.00  0.00    -0.318 OA 
BRANCH  14  15
HETATM   15  C   UNL     1     -13.066  10.596  71.698  1.00  0.00    -0.450 C  
BRANCH  15  16
HETATM   16  C   UNL     1     -12.667   9.164  72.071  1.00  0.00    -0.398 C  
BRANCH  16  17
HETATM   17  N   UNL     1     -12.064   8.410  70.984  1.00  0.00    -0.418 N  
HETATM   18  C   UNL     1     -11.936   7.044  71.062  1.00  0.00    -0.361 C  
HETATM   19  H   UNL     1     -11.731   8.900  70.154  1.00  0.00     0.000 HD 
HETATM   20  O   UNL     1     -12.206   6.397  72.068  1.00  0.00    -0.341 OA 
BRANCH  18  21
HETATM   21  C   UNL     1     -11.345   6.361  69.846  1.00  0.00    -0.434 C  
BRANCH  21  22
HETATM   22  N   UNL     1      -9.978   5.899  70.169  1.00  0.00    -0.182 NA 
HETATM   23  C   UNL     1      -9.773   4.608  70.535  1.00  0.00    -0.214 A  
HETATM   24  C   UNL     1      -8.501   4.161  70.864  1.00  0.00    -0.101 A  
HETATM   25  C   UNL     1      -7.431   5.042  70.796  1.00  0.00    -0.069 A  
HETATM   26  C   UNL     1      -7.652   6.355  70.404  1.00  0.00    -0.096 A  
HETATM   27  C   UNL     1      -8.942   6.764  70.092  1.00  0.00    -0.149 A  
ENDBRANCH  21  22
ENDBRANCH  18  21
ENDBRANCH  16  17
ENDBRANCH  15  16
ENDBRANCH  14  15
ENDBRANCH  12  14
ENDBRANCH  11  12
ENDBRANCH  10  11
ENDBRANCH   9  10
ENDBRANCH   8   9
ENDBRANCH   7   8
ENDBRANCH   6   7
ENDBRANCH   5   6
ENDBRANCH   4   5
ENDBRANCH   3   4
ENDBRANCH   2   3
TORSDOF 16
ENDMDL
MODEL      220
REMARK 921   NORMALIZED FREE ENERGY PREDICTED BY IDOCK:   -3.58 KCAL/MOL
REMARK 922        TOTAL FREE ENERGY PREDICTED BY IDOCK:   -9.01 KCAL/MOL
REMARK 923 INTER-LIGAND FREE ENERGY PREDICTED BY IDOCK:   -7.32 KCAL/MOL
REMARK 924 INTRA-LIGAND FREE ENERGY PREDICTED BY IDOCK:   -1.69 KCAL/MOL
REMARK 927      BINDING AFFINITY PREDICTED BY RF-SCORE:    0.00 PKD
ROOT
HETATM    1  C   UNL     1     -11.904  11.769  63.807  1.00  0.00    -0.484 C  
HETATM    2  C   UNL     1     -12.225  13.129  63.212  1.00  0.00    -0.438 C  
ENDROOT
BRANCH   2   3
HETATM    3  C   UNL     1     -12.149  14.225  64.273  1.00  0.00    -0.467 C  
BRANCH   3   4
HETATM    4  C   UNL     1     -12.710  13.742  65.608  1.00  0.00    -0.523 C  
BRANCH   4   5
HETATM    5  C   UNL     1     -12.016  14.445  66.774  1.00  0.00    -0.423 C  
BRANCH   5   6
HETATM    6  C   UNL     1     -11.701  13.453  67.886  1.00  0.00    -0.396 C  
BRANCH   6   7
HETATM    7  C   UNL     1     -10.997  12.210  67.349  1.00  0.00    -0.308 C  
BRANCH   7   8
HETATM    8  C   UNL     1      -9.721  12.620  66.620  1.00  0.00    -0.249 C  
BRANCH   8   9
HETATM    9  C   UNL     1      -8.501  11.881  67.151  1.00  0.00    -0.173 C  
BRANCH   9  10
HETATM   10  C   UNL     1      -8.527  11.750  68.682  1.00  0.00    -0.068 C  
BRANCH  10  11
HETATM   11  C   UNL     1      -7.225  11.207  69.288  1.00  0.00    -0.112 C  
BRANCH  11  12
HETATM   12  C   UNL     1      -7.423   9.794  69.777  1.00  0.00    -0.127 C  
HETATM   13  O   UNL     1      -7.926   8.890  69.128  1.00  0.00    -0.101 OA 
BRANCH  12  14
HETATM   14  O   UNL     1      -6.788   9.634  70.971  1.00  0.00    -0.253 OA 
BRANCH  14  15
HETATM   15  C   UNL     1      -6.098   8.385  71.106  1.00  0.00    -0.037 C  
BRANCH  15  16
HETATM   16  C   UNL     1      -6.594   7.764  72.416  1.00  0.00    -0.060 C  
BRANCH  16  17
HETATM   17  N   UNL     1      -7.975   7.313  72.378  1.00  0.00    -0.095 N  
HETATM   18  C   UNL     1      -8.927   7.893  73.181  1.00  0.00    -0.243 C  
HETATM   19  H   UNL     1      -8.241   6.557  71.748  1.00  0.00     0.000 HD 
HETATM   20  O   UNL     1      -8.667   8.727  74.043  1.00  0.00    -0.058 OA 
BRANCH  18  21
HETATM   21  C   UNL     1     -10.343   7.379  73.013  1.00  0.00    -0.306 C  
BRANCH  21  22
HETATM   22  N   UNL     1     -11.157   8.417  72.345  1.00  0.00    -0.365 NA 
HETATM   23  C   UNL     1     -10.576   9.252  71.446  1.00  0.00    -0.347 A  
HETATM   24  C   UNL     1     -11.319  10.247  70.826  1.00  0.00    -0.421 A  
HETATM   25  C   UNL     1     -12.670  10.371  71.116  1.00  0.00    -0.514 A  
HETATM   26  C   UNL     1     -13.255   9.499  72.025  1.00  0.00    -0.539 A  
HETATM   27  C   UNL     1     -12.474   8.523  72.630  1.00  0.00    -0.211 A  
ENDBRANCH  21  22
ENDBRANCH  18  21
ENDBRANCH  16  17
ENDBRANCH  15  16
ENDBRANCH  14  15
ENDBRANCH  12  14
ENDBRANCH  11  12
ENDBRANCH  10  11
ENDBRANCH   9  10
ENDBRANCH   8   9
ENDBRANCH   7   8
ENDBRANCH   6   7
ENDBRANCH   5   6
ENDBRANCH   4   5
ENDBRANCH   3   4
ENDBRANCH   2   3
TORSDOF 16
ENDMDL
MODEL      221
REMARK 921   NORMALIZED FREE ENERGY PREDICTED BY IDOCK:   -3.58 KCAL/MOL
REMARK 922        TOTAL FREE ENERGY PREDICTED BY IDOCK:   -9.01 KCAL/MOL
REMARK 923 INTER-LIGAND FREE ENERGY PREDICTED BY IDOCK:   -7.86 KCAL/MOL
REMARK 924 INTRA-LIGAND FREE ENERGY PREDICTED BY IDOCK:   -1.15 KCAL/MOL
REMARK 927      BINDING AFFINITY PREDICTED BY RF-SCORE:    0.00 PKD
ROOT
HETATM    1  C   UNL     1      -6.254   6.880  70.028  1.00  0.00    -0.031 C  
HETATM    2  C   UNL     1      -6.939   8.224  70.206  1.00  0.00    -0.036 C  
ENDROOT
BRANCH   2   3
HETATM    3  C   UNL     1      -8.452   8.058  70.322  1.00  0.00    -0.127 C  
BRANCH   3   4
HETATM    4  C   UNL     1      -8.937   8.378  71.734  1.00  0.00    -0.262 C  
BRANCH   4   5
HETATM    5  C   UNL     1      -9.175   7.096  72.530  1.00  0.00    -0.159 C  
BRANCH   5   6
HETATM    6  C   UNL     1     -10.509   7.159  73.262  1.00  0.00    -0.391 C  
BRANCH   6   7
HETATM    7  C   UNL     1     -11.573   6.314  72.566  1.00  0.00    -0.273 C  
BRANCH   7   8
HETATM    8  C   UNL     1     -12.186   7.110  71.416  1.00  0.00    -0.399 C  
BRANCH   8   9
HETATM    9  C   UNL     1     -13.191   8.140  71.911  1.00  0.00    -0.348 C  
BRANCH   9  10
HETATM   10  C   UNL     1     -12.554   9.525  72.098  1.00  0.00    -0.411 C  
BRANCH  10  11
HETATM   11  C   UNL     1     -12.993  10.565  71.058  1.00  0.00    -0.475 C  
BRANCH  11  12
HETATM   12  C   UNL     1     -11.840  10.925  70.156  1.00  0.00    -0.353 C  
HETATM   13  O   UNL     1     -11.307  10.167  69.360  1.00  0.00    -0.226 OA 
BRANCH  12  14
HETATM   14  O   UNL     1     -11.609  12.265  70.227  1.00  0.00    -0.196 OA 
BRANCH  14  15
HETATM   15  C   UNL     1     -12.680  13.015  70.813  1.00  0.00    -0.165 C  
BRANCH  15  16
HETATM   16  C   UNL     1     -12.078  14.360  71.233  1.00  0.00    -0.335 C  
BRANCH  16  17
HETATM   17  N   UNL     1     -10.918  14.764  70.456  1.00  0.00    -0.492 N  
HETATM   18  C   UNL     1     -11.065  15.463  69.283  1.00  0.00    -0.280 C  
HETATM   19  H   UNL     1      -9.983  14.527  70.787  1.00  0.00     0.000 HD 
HETATM   20  O   UNL     1     -12.154  15.688  68.763  1.00  0.00    -0.301 OA 
BRANCH  18  21
HETATM   21  C   UNL     1      -9.784  15.880  68.591  1.00  0.00    -0.207 C  
BRANCH  21  22
HETATM   22  N   UNL     1      -9.902  17.291  68.166  1.00  0.00    -0.277 NA 
HETATM   23  C   UNL     1      -9.713  18.284  69.071  1.00  0.00    -0.206 A  
HETATM   24  C   UNL     1      -9.842  19.614  68.697  1.00  0.00    -0.519 A  
HETATM   25  C   UNL     1     -10.146  19.925  67.379  1.00  0.00    -0.567 A  
HETATM   26  C   UNL     1     -10.320  18.900  66.460  1.00  0.00    -0.493 A  
HETATM   27  C   UNL     1     -10.192  17.581  66.878  1.00  0.00    -0.329 A  
ENDBRANCH  21  22
ENDBRANCH  18  21
ENDBRANCH  16  17
ENDBRANCH  15  16
ENDBRANCH  14  15
ENDBRANCH  12  14
ENDBRANCH  11  12
ENDBRANCH  10  11
ENDBRANCH   9  10
ENDBRANCH   8   9
ENDBRANCH   7   8
ENDBRANCH   6   7
ENDBRANCH   5   6
ENDBRANCH   4   5
ENDBRANCH   3   4
ENDBRANCH   2   3
TORSDOF 16
ENDMDL
MODEL      222
REMARK 921   NORMALIZED FREE ENERGY PREDICTED BY IDOCK:   -3.57 KCAL/MOL
REMARK 922        TOTAL FREE ENERGY PREDICTED BY IDOCK:   -9.00 KCAL/MOL
REMARK 923 INTER-LIGAND FREE ENERGY PREDICTED BY IDOCK:   -7.38 KCAL/MOL
REMARK 924 INTRA-LIGAND FREE ENERGY PREDICTED BY IDOCK:   -1.62 KCAL/MOL
REMARK 927      BINDING AFFINITY PREDICTED BY RF-SCORE:    0.00 PKD
ROOT
HETATM    1  C   UNL     1     -12.975  12.549  71.418  1.00  0.00    -0.347 C  
HETATM    2  C   UNL     1     -12.612  11.214  70.790  1.00  0.00    -0.445 C  
ENDROOT
BRANCH   2   3
HETATM    3  C   UNL     1     -13.160  10.053  71.617  1.00  0.00    -0.547 C  
BRANCH   3   4
HETATM    4  C   UNL     1     -12.057   9.063  71.980  1.00  0.00    -0.440 C  
BRANCH   4   5
HETATM    5  C   UNL     1     -11.727   8.159  70.793  1.00  0.00    -0.211 C  
BRANCH   5   6
HETATM    6  C   UNL     1     -12.186   6.731  71.063  1.00  0.00    -0.405 C  
BRANCH   6   7
HETATM    7  C   UNL     1     -11.016   5.828  71.445  1.00  0.00    -0.304 C  
BRANCH   7   8
HETATM    8  C   UNL     1     -11.153   5.405  72.905  1.00  0.00    -0.360 C  
BRANCH   8   9
HETATM    9  C   UNL     1     -10.355   6.308  73.835  1.00  0.00    -0.318 C  
BRANCH   9  10
HETATM   10  C   UNL     1      -8.941   6.583  73.299  1.00  0.00    -0.138 C  
BRANCH  10  11
HETATM   11  C   UNL     1      -8.636   8.070  73.067  1.00  0.00    -0.265 C  
BRANCH  11  12
HETATM   12  C   UNL     1      -8.331   8.322  71.612  1.00  0.00    -0.147 C  
HETATM   13  O   UNL     1      -8.164   9.422  71.109  1.00  0.00    -0.314 OA 
BRANCH  12  14
HETATM   14  O   UNL     1      -8.084   7.137  70.988  1.00  0.00    -0.102 OA 
BRANCH  14  15
HETATM   15  C   UNL     1      -7.539   7.271  69.669  1.00  0.00    -0.099 C  
BRANCH  15  16
HETATM   16  C   UNL     1      -8.738   7.295  68.714  1.00  0.00    -0.125 C  
BRANCH  16  17
HETATM   17  N   UNL     1      -9.060   8.614  68.194  1.00  0.00    -0.141 N  
HETATM   18  C   UNL     1     -10.166   8.807  67.402  1.00  0.00    -0.252 C  
HETATM   19  H   UNL     1      -8.458   9.406  68.420  1.00  0.00     0.000 HD 
HETATM   20  O   UNL     1     -10.872   7.890  66.994  1.00  0.00    -0.305 OA 
BRANCH  18  21
HETATM   21  C   UNL     1     -10.432  10.233  66.966  1.00  0.00    -0.244 C  
BRANCH  21  22
HETATM   22  N   UNL     1     -10.084  10.373  65.536  1.00  0.00    -0.287 NA 
HETATM   23  C   UNL     1     -10.727  11.296  64.775  1.00  0.00    -0.285 A  
HETATM   24  C   UNL     1     -10.431  11.427  63.425  1.00  0.00    -0.452 A  
HETATM   25  C   UNL     1      -9.454  10.620  62.860  1.00  0.00    -0.367 A  
HETATM   26  C   UNL     1      -8.792   9.693  63.654  1.00  0.00    -0.256 A  
HETATM   27  C   UNL     1      -9.126   9.587  64.998  1.00  0.00    -0.228 A  
ENDBRANCH  21  22
ENDBRANCH  18  21
ENDBRANCH  16  17
ENDBRANCH  15  16
ENDBRANCH  14  15
ENDBRANCH  12  14
ENDBRANCH  11  12
ENDBRANCH  10  11
ENDBRANCH   9  10
ENDBRANCH   8   9
ENDBRANCH   7   8
ENDBRANCH   6   7
ENDBRANCH   5   6
ENDBRANCH   4   5
ENDBRANCH   3   4
ENDBRANCH   2   3
TORSDOF 16
ENDMDL
MODEL      223
REMARK 921   NORMALIZED FREE ENERGY PREDICTED BY IDOCK:   -3.57 KCAL/MOL
REMARK 922        TOTAL FREE ENERGY PREDICTED BY IDOCK:   -8.98 KCAL/MOL
REMARK 923 INTER-LIGAND FREE ENERGY PREDICTED BY IDOCK:   -6.42 KCAL/MOL
REMARK 924 INTRA-LIGAND FREE ENERGY PREDICTED BY IDOCK:   -2.56 KCAL/MOL
REMARK 927      BINDING AFFINITY PREDICTED BY RF-SCORE:    0.00 PKD
ROOT
HETATM    1  C   UNL     1     -13.362  12.390  71.987  1.00  0.00    -0.511 C  
HETATM    2  C   UNL     1     -12.613  11.309  71.224  1.00  0.00    -0.487 C  
ENDROOT
BRANCH   2   3
HETATM    3  C   UNL     1     -13.235   9.936  71.466  1.00  0.00    -0.501 C  
BRANCH   3   4
HETATM    4  C   UNL     1     -12.209   8.955  72.027  1.00  0.00    -0.447 C  
BRANCH   4   5
HETATM    5  C   UNL     1     -11.519   8.188  70.900  1.00  0.00    -0.288 C  
BRANCH   5   6
HETATM    6  C   UNL     1     -11.943   6.725  70.909  1.00  0.00    -0.437 C  
BRANCH   6   7
HETATM    7  C   UNL     1     -10.828   5.820  71.427  1.00  0.00    -0.316 C  
BRANCH   7   8
HETATM    8  C   UNL     1     -11.120   5.424  72.872  1.00  0.00    -0.360 C  
BRANCH   8   9
HETATM    9  C   UNL     1     -10.434   6.354  73.864  1.00  0.00    -0.307 C  
BRANCH   9  10
HETATM   10  C   UNL     1      -8.969   6.621  73.487  1.00  0.00    -0.143 C  
BRANCH  10  11
HETATM   11  C   UNL     1      -8.626   8.108  73.315  1.00  0.00    -0.308 C  
BRANCH  11  12
HETATM   12  C   UNL     1      -7.867   8.325  72.029  1.00  0.00    -0.130 C  
HETATM   13  O   UNL     1      -7.971   9.306  71.309  1.00  0.00    -0.322 OA 
BRANCH  12  14
HETATM   14  O   UNL     1      -6.918   7.359  71.893  1.00  0.00    -0.061 OA 
BRANCH  14  15
HETATM   15  C   UNL     1      -5.929   7.644  70.897  1.00  0.00    -0.034 C  
BRANCH  15  16
HETATM   16  C   UNL     1      -6.261   6.750  69.698  1.00  0.00    -0.034 C  
BRANCH  16  17
HETATM   17  N   UNL     1      -6.742   7.470  68.530  1.00  0.00    -0.056 N  
HETATM   18  C   UNL     1      -8.080   7.489  68.217  1.00  0.00    -0.124 C  
HETATM   19  H   UNL     1      -6.079   7.967  67.937  1.00  0.00     0.000 HD 
HETATM   20  O   UNL     1      -8.922   6.826  68.813  1.00  0.00    -0.131 OA 
BRANCH  18  21
HETATM   21  C   UNL     1      -8.469   8.319  67.011  1.00  0.00    -0.122 C  
BRANCH  21  22
HETATM   22  N   UNL     1      -9.155   9.545  67.470  1.00  0.00    -0.130 NA 
HETATM   23  C   UNL     1      -8.424  10.603  67.903  1.00  0.00    -0.120 A  
HETATM   24  C   UNL     1      -9.051  11.754  68.360  1.00  0.00    -0.176 A  
HETATM   25  C   UNL     1     -10.436  11.825  68.352  1.00  0.00    -0.231 A  
HETATM   26  C   UNL     1     -11.172  10.742  67.890  1.00  0.00    -0.386 A  
HETATM   27  C   UNL     1     -10.505   9.605  67.451  1.00  0.00    -0.257 A  
ENDBRANCH  21  22
ENDBRANCH  18  21
ENDBRANCH  16  17
ENDBRANCH  15  16
ENDBRANCH  14  15
ENDBRANCH  12  14
ENDBRANCH  11  12
ENDBRANCH  10  11
ENDBRANCH   9  10
ENDBRANCH   8   9
ENDBRANCH   7   8
ENDBRANCH   6   7
ENDBRANCH   5   6
ENDBRANCH   4   5
ENDBRANCH   3   4
ENDBRANCH   2   3
TORSDOF 16
ENDMDL
MODEL      224
REMARK 921   NORMALIZED FREE ENERGY PREDICTED BY IDOCK:   -3.56 KCAL/MOL
REMARK 922        TOTAL FREE ENERGY PREDICTED BY IDOCK:   -8.97 KCAL/MOL
REMARK 923 INTER-LIGAND FREE ENERGY PREDICTED BY IDOCK:   -7.72 KCAL/MOL
REMARK 924 INTRA-LIGAND FREE ENERGY PREDICTED BY IDOCK:   -1.25 KCAL/MOL
REMARK 927      BINDING AFFINITY PREDICTED BY RF-SCORE:    0.00 PKD
ROOT
HETATM    1  C   UNL     1     -10.185  19.742  67.069  1.00  0.00    -0.579 C  
HETATM    2  C   UNL     1     -10.467  18.329  66.588  1.00  0.00    -0.382 C  
ENDROOT
BRANCH   2   3
HETATM    3  C   UNL     1      -9.264  17.419  66.824  1.00  0.00    -0.274 C  
BRANCH   3   4
HETATM    4  C   UNL     1      -9.260  16.864  68.245  1.00  0.00    -0.241 C  
BRANCH   4   5
HETATM    5  C   UNL     1     -10.638  16.316  68.618  1.00  0.00    -0.297 C  
BRANCH   5   6
HETATM    6  C   UNL     1     -10.504  15.045  69.446  1.00  0.00    -0.254 C  
BRANCH   6   7
HETATM    7  C   UNL     1     -11.538  13.999  69.041  1.00  0.00    -0.345 C  
BRANCH   7   8
HETATM    8  C   UNL     1     -11.605  13.908  67.519  1.00  0.00    -0.392 C  
BRANCH   8   9
HETATM    9  C   UNL     1     -11.781  12.473  67.043  1.00  0.00    -0.437 C  
BRANCH   9  10
HETATM   10  C   UNL     1     -10.434  11.773  66.809  1.00  0.00    -0.260 C  
BRANCH  10  11
HETATM   11  C   UNL     1     -10.024  10.809  67.931  1.00  0.00    -0.196 C  
BRANCH  11  12
HETATM   12  C   UNL     1      -9.153   9.706  67.384  1.00  0.00    -0.130 C  
HETATM   13  O   UNL     1      -7.992   9.502  67.704  1.00  0.00    -0.105 OA 
BRANCH  12  14
HETATM   14  O   UNL     1      -9.910   8.864  66.627  1.00  0.00    -0.215 OA 
BRANCH  14  15
HETATM   15  C   UNL     1      -9.411   7.522  66.566  1.00  0.00    -0.179 C  
BRANCH  15  16
HETATM   16  C   UNL     1     -10.568   6.618  67.006  1.00  0.00    -0.333 C  
BRANCH  16  17
HETATM   17  N   UNL     1     -11.259   7.072  68.201  1.00  0.00    -0.519 N  
HETATM   18  C   UNL     1     -11.185   6.356  69.372  1.00  0.00    -0.394 C  
HETATM   19  H   UNL     1     -11.807   7.932  68.171  1.00  0.00     0.000 HD 
HETATM   20  O   UNL     1     -10.643   5.259  69.459  1.00  0.00    -0.279 OA 
BRANCH  18  21
HETATM   21  C   UNL     1     -11.899   6.956  70.565  1.00  0.00    -0.333 C  
BRANCH  21  22
HETATM   22  N   UNL     1     -10.942   7.088  71.684  1.00  0.00    -0.228 NA 
HETATM   23  C   UNL     1     -11.035   6.254  72.751  1.00  0.00    -0.260 A  
HETATM   24  C   UNL     1     -10.160   6.377  73.821  1.00  0.00    -0.282 A  
HETATM   25  C   UNL     1      -9.171   7.350  73.785  1.00  0.00    -0.305 A  
HETATM   26  C   UNL     1      -9.077   8.185  72.680  1.00  0.00    -0.317 A  
HETATM   27  C   UNL     1      -9.978   8.035  71.634  1.00  0.00    -0.184 A  
ENDBRANCH  21  22
ENDBRANCH  18  21
ENDBRANCH  16  17
ENDBRANCH  15  16
ENDBRANCH  14  15
ENDBRANCH  12  14
ENDBRANCH  11  12
ENDBRANCH  10  11
ENDBRANCH   9  10
ENDBRANCH   8   9
ENDBRANCH   7   8
ENDBRANCH   6   7
ENDBRANCH   5   6
ENDBRANCH   4   5
ENDBRANCH   3   4
ENDBRANCH   2   3
TORSDOF 16
ENDMDL
MODEL      225
REMARK 921   NORMALIZED FREE ENERGY PREDICTED BY IDOCK:   -3.56 KCAL/MOL
REMARK 922        TOTAL FREE ENERGY PREDICTED BY IDOCK:   -8.97 KCAL/MOL
REMARK 923 INTER-LIGAND FREE ENERGY PREDICTED BY IDOCK:   -8.04 KCAL/MOL
REMARK 924 INTRA-LIGAND FREE ENERGY PREDICTED BY IDOCK:   -0.93 KCAL/MOL
REMARK 927      BINDING AFFINITY PREDICTED BY RF-SCORE:    0.00 PKD
ROOT
HETATM    1  C   UNL     1     -13.512  15.843  72.894  1.00  0.00    -0.637 C  
HETATM    2  C   UNL     1     -14.001  14.831  71.871  1.00  0.00    -0.577 C  
ENDROOT
BRANCH   2   3
HETATM    3  C   UNL     1     -13.558  13.418  72.242  1.00  0.00    -0.703 C  
BRANCH   3   4
HETATM    4  C   UNL     1     -12.690  12.805  71.146  1.00  0.00    -0.355 C  
BRANCH   4   5
HETATM    5  C   UNL     1     -12.115  13.891  70.239  1.00  0.00    -0.423 C  
BRANCH   5   6
HETATM    6  C   UNL     1     -12.034  13.400  68.799  1.00  0.00    -0.359 C  
BRANCH   6   7
HETATM    7  C   UNL     1     -11.812  14.552  67.824  1.00  0.00    -0.390 C  
BRANCH   7   8
HETATM    8  C   UNL     1     -12.269  14.137  66.428  1.00  0.00    -0.473 C  
BRANCH   8   9
HETATM    9  C   UNL     1     -12.116  12.639  66.204  1.00  0.00    -0.399 C  
BRANCH   9  10
HETATM   10  C   UNL     1     -10.682  12.259  65.804  1.00  0.00    -0.298 C  
BRANCH  10  11
HETATM   11  C   UNL     1     -10.371  10.761  65.930  1.00  0.00    -0.302 C  
BRANCH  11  12
HETATM   12  C   UNL     1      -9.090  10.554  66.698  1.00  0.00    -0.155 C  
HETATM   13  O   UNL     1      -8.386  11.447  67.145  1.00  0.00    -0.143 OA 
BRANCH  12  14
HETATM   14  O   UNL     1      -8.938   9.230  66.980  1.00  0.00    -0.125 OA 
BRANCH  14  15
HETATM   15  C   UNL     1     -10.099   8.436  66.709  1.00  0.00    -0.303 C  
BRANCH  15  16
HETATM   16  C   UNL     1     -10.320   7.566  67.951  1.00  0.00    -0.210 C  
BRANCH  16  17
HETATM   17  N   UNL     1      -9.521   7.954  69.102  1.00  0.00    -0.155 N  
HETATM   18  C   UNL     1     -10.031   8.794  70.062  1.00  0.00    -0.187 C  
HETATM   19  H   UNL     1      -8.570   7.598  69.198  1.00  0.00     0.000 HD 
HETATM   20  O   UNL     1     -11.119   9.352  69.961  1.00  0.00    -0.236 OA 
BRANCH  18  21
HETATM   21  C   UNL     1      -9.127   9.082  71.242  1.00  0.00    -0.232 C  
BRANCH  21  22
HETATM   22  N   UNL     1      -9.447   8.140  72.336  1.00  0.00    -0.223 NA 
HETATM   23  C   UNL     1     -10.709   7.656  72.459  1.00  0.00    -0.296 A  
HETATM   24  C   UNL     1     -11.034   6.788  73.492  1.00  0.00    -0.131 A  
HETATM   25  C   UNL     1     -10.051   6.401  74.392  1.00  0.00    -0.367 A  
HETATM   26  C   UNL     1      -8.761   6.890  74.244  1.00  0.00    -0.201 A  
HETATM   27  C   UNL     1      -8.479   7.764  73.202  1.00  0.00    -0.163 A  
ENDBRANCH  21  22
ENDBRANCH  18  21
ENDBRANCH  16  17
ENDBRANCH  15  16
ENDBRANCH  14  15
ENDBRANCH  12  14
ENDBRANCH  11  12
ENDBRANCH  10  11
ENDBRANCH   9  10
ENDBRANCH   8   9
ENDBRANCH   7   8
ENDBRANCH   6   7
ENDBRANCH   5   6
ENDBRANCH   4   5
ENDBRANCH   3   4
ENDBRANCH   2   3
TORSDOF 16
ENDMDL
MODEL      226
REMARK 921   NORMALIZED FREE ENERGY PREDICTED BY IDOCK:   -3.56 KCAL/MOL
REMARK 922        TOTAL FREE ENERGY PREDICTED BY IDOCK:   -8.97 KCAL/MOL
REMARK 923 INTER-LIGAND FREE ENERGY PREDICTED BY IDOCK:   -7.54 KCAL/MOL
REMARK 924 INTRA-LIGAND FREE ENERGY PREDICTED BY IDOCK:   -1.43 KCAL/MOL
REMARK 927      BINDING AFFINITY PREDICTED BY RF-SCORE:    0.00 PKD
ROOT
HETATM    1  C   UNL     1      -7.641   2.923  71.450  1.00  0.00    -0.040 C  
HETATM    2  C   UNL     1      -8.532   4.043  70.941  1.00  0.00    -0.096 C  
ENDROOT
BRANCH   2   3
HETATM    3  C   UNL     1      -9.983   3.827  71.367  1.00  0.00    -0.178 C  
BRANCH   3   4
HETATM    4  C   UNL     1     -10.067   2.976  72.631  1.00  0.00    -0.231 C  
BRANCH   4   5
HETATM    5  C   UNL     1     -10.593   3.800  73.805  1.00  0.00    -0.288 C  
BRANCH   5   6
HETATM    6  C   UNL     1     -11.060   5.170  73.333  1.00  0.00    -0.385 C  
BRANCH   6   7
HETATM    7  C   UNL     1     -10.400   6.294  74.128  1.00  0.00    -0.319 C  
BRANCH   7   8
HETATM    8  C   UNL     1      -9.221   6.856  73.338  1.00  0.00    -0.170 C  
BRANCH   8   9
HETATM    9  C   UNL     1      -9.510   8.252  72.805  1.00  0.00    -0.343 C  
BRANCH   9  10
HETATM   10  C   UNL     1      -9.959   8.228  71.336  1.00  0.00    -0.250 C  
BRANCH  10  11
HETATM   11  C   UNL     1     -11.483   8.222  71.145  1.00  0.00    -0.307 C  
BRANCH  11  12
HETATM   12  C   UNL     1     -12.023   9.629  71.197  1.00  0.00    -0.367 C  
HETATM   13  O   UNL     1     -12.984   9.989  71.859  1.00  0.00    -0.408 OA 
BRANCH  12  14
HETATM   14  O   UNL     1     -11.170  10.468  70.547  1.00  0.00    -0.314 OA 
BRANCH  14  15
HETATM   15  C   UNL     1     -11.811  11.578  69.908  1.00  0.00    -0.355 C  
BRANCH  15  16
HETATM   16  C   UNL     1     -11.599  11.384  68.403  1.00  0.00    -0.315 C  
BRANCH  16  17
HETATM   17  N   UNL     1     -11.907  12.556  67.600  1.00  0.00    -0.359 N  
HETATM   18  C   UNL     1     -10.913  13.243  66.947  1.00  0.00    -0.283 C  
HETATM   19  H   UNL     1     -12.874  12.873  67.521  1.00  0.00     0.000 HD 
HETATM   20  O   UNL     1      -9.719  12.994  67.083  1.00  0.00    -0.219 OA 
BRANCH  18  21
HETATM   21  C   UNL     1     -11.361  14.413  66.095  1.00  0.00    -0.350 C  
BRANCH  21  22
HETATM   22  N   UNL     1     -10.843  15.666  66.685  1.00  0.00    -0.299 NA 
HETATM   23  C   UNL     1     -10.196  16.563  65.899  1.00  0.00    -0.349 A  
HETATM   24  C   UNL     1      -9.683  17.734  66.439  1.00  0.00    -0.315 A  
HETATM   25  C   UNL     1      -9.853  17.993  67.791  1.00  0.00    -0.306 A  
HETATM   26  C   UNL     1     -10.532  17.075  68.581  1.00  0.00    -0.363 A  
HETATM   27  C   UNL     1     -11.022  15.910  68.003  1.00  0.00    -0.336 A  
ENDBRANCH  21  22
ENDBRANCH  18  21
ENDBRANCH  16  17
ENDBRANCH  15  16
ENDBRANCH  14  15
ENDBRANCH  12  14
ENDBRANCH  11  12
ENDBRANCH  10  11
ENDBRANCH   9  10
ENDBRANCH   8   9
ENDBRANCH   7   8
ENDBRANCH   6   7
ENDBRANCH   5   6
ENDBRANCH   4   5
ENDBRANCH   3   4
ENDBRANCH   2   3
TORSDOF 16
ENDMDL
MODEL      227
REMARK 921   NORMALIZED FREE ENERGY PREDICTED BY IDOCK:   -3.56 KCAL/MOL
REMARK 922        TOTAL FREE ENERGY PREDICTED BY IDOCK:   -8.97 KCAL/MOL
REMARK 923 INTER-LIGAND FREE ENERGY PREDICTED BY IDOCK:   -7.71 KCAL/MOL
REMARK 924 INTRA-LIGAND FREE ENERGY PREDICTED BY IDOCK:   -1.26 KCAL/MOL
REMARK 927      BINDING AFFINITY PREDICTED BY RF-SCORE:    0.00 PKD
ROOT
HETATM    1  C   UNL     1     -11.581   8.527  71.063  1.00  0.00    -0.317 C  
HETATM    2  C   UNL     1     -12.040   7.084  70.934  1.00  0.00    -0.403 C  
ENDROOT
BRANCH   2   3
HETATM    3  C   UNL     1     -11.159   6.152  71.764  1.00  0.00    -0.327 C  
BRANCH   3   4
HETATM    4  C   UNL     1     -10.488   5.098  70.888  1.00  0.00    -0.258 C  
BRANCH   4   5
HETATM    5  C   UNL     1      -9.777   5.750  69.703  1.00  0.00    -0.208 C  
BRANCH   5   6
HETATM    6  C   UNL     1     -10.201   5.094  68.396  1.00  0.00    -0.175 C  
BRANCH   6   7
HETATM    7  C   UNL     1     -10.223   6.096  67.245  1.00  0.00    -0.236 C  
BRANCH   7   8
HETATM    8  C   UNL     1      -9.933   7.496  67.780  1.00  0.00    -0.214 C  
BRANCH   8   9
HETATM    9  C   UNL     1     -10.523   8.578  66.887  1.00  0.00    -0.345 C  
BRANCH   9  10
HETATM   10  C   UNL     1     -10.624   9.931  67.609  1.00  0.00    -0.325 C  
BRANCH  10  11
HETATM   11  C   UNL     1     -10.870  11.124  66.675  1.00  0.00    -0.308 C  
BRANCH  11  12
HETATM   12  C   UNL     1     -10.159  12.350  67.191  1.00  0.00    -0.213 C  
HETATM   13  O   UNL     1      -9.309  12.979  66.580  1.00  0.00    -0.245 OA 
BRANCH  12  14
HETATM   14  O   UNL     1     -10.740  12.756  68.354  1.00  0.00    -0.235 OA 
BRANCH  14  15
HETATM   15  C   UNL     1     -11.807  13.696  68.180  1.00  0.00    -0.372 C  
BRANCH  15  16
HETATM   16  C   UNL     1     -11.296  15.028  68.739  1.00  0.00    -0.291 C  
BRANCH  16  17
HETATM   17  N   UNL     1     -11.193  16.090  67.751  1.00  0.00    -0.281 N  
HETATM   18  C   UNL     1     -10.635  17.302  68.076  1.00  0.00    -0.394 C  
HETATM   19  H   UNL     1     -11.539  15.933  66.804  1.00  0.00     0.000 HD 
HETATM   20  O   UNL     1     -10.300  17.607  69.217  1.00  0.00    -0.319 OA 
BRANCH  18  21
HETATM   21  C   UNL     1     -10.530  18.310  66.951  1.00  0.00    -0.373 C  
BRANCH  21  22
HETATM   22  N   UNL     1      -9.109  18.461  66.569  1.00  0.00    -0.294 NA 
HETATM   23  C   UNL     1      -8.297  17.373  66.560  1.00  0.00    -0.273 A  
HETATM   24  C   UNL     1      -6.955  17.498  66.226  1.00  0.00    -0.332 A  
HETATM   25  C   UNL     1      -6.451  18.744  65.880  1.00  0.00    -0.270 A  
HETATM   26  C   UNL     1      -7.298  19.844  65.877  1.00  0.00    -0.335 A  
HETATM   27  C   UNL     1      -8.632  19.678  66.226  1.00  0.00    -0.366 A  
ENDBRANCH  21  22
ENDBRANCH  18  21
ENDBRANCH  16  17
ENDBRANCH  15  16
ENDBRANCH  14  15
ENDBRANCH  12  14
ENDBRANCH  11  12
ENDBRANCH  10  11
ENDBRANCH   9  10
ENDBRANCH   8   9
ENDBRANCH   7   8
ENDBRANCH   6   7
ENDBRANCH   5   6
ENDBRANCH   4   5
ENDBRANCH   3   4
ENDBRANCH   2   3
TORSDOF 16
ENDMDL
MODEL      228
REMARK 921   NORMALIZED FREE ENERGY PREDICTED BY IDOCK:   -3.54 KCAL/MOL
REMARK 922        TOTAL FREE ENERGY PREDICTED BY IDOCK:   -8.94 KCAL/MOL
REMARK 923 INTER-LIGAND FREE ENERGY PREDICTED BY IDOCK:   -7.54 KCAL/MOL
REMARK 924 INTRA-LIGAND FREE ENERGY PREDICTED BY IDOCK:   -1.40 KCAL/MOL
REMARK 927      BINDING AFFINITY PREDICTED BY RF-SCORE:    0.00 PKD
ROOT
HETATM    1  C   UNL     1      -7.929   2.481  65.905  1.00  0.00    -0.082 C  
HETATM    2  C   UNL     1      -8.508   3.867  65.674  1.00  0.00    -0.110 C  
ENDROOT
BRANCH   2   3
HETATM    3  C   UNL     1      -9.677   4.138  66.619  1.00  0.00    -0.233 C  
BRANCH   3   4
HETATM    4  C   UNL     1      -9.245   5.006  67.797  1.00  0.00    -0.131 C  
BRANCH   4   5
HETATM    5  C   UNL     1      -9.270   4.205  69.099  1.00  0.00    -0.211 C  
BRANCH   5   6
HETATM    6  C   UNL     1     -10.218   4.845  70.104  1.00  0.00    -0.310 C  
BRANCH   6   7
HETATM    7  C   UNL     1     -11.007   5.993  69.481  1.00  0.00    -0.467 C  
BRANCH   7   8
HETATM    8  C   UNL     1     -11.817   6.704  70.562  1.00  0.00    -0.430 C  
BRANCH   8   9
HETATM    9  C   UNL     1     -11.080   7.913  71.121  1.00  0.00    -0.278 C  
BRANCH   9  10
HETATM   10  C   UNL     1     -11.799   9.230  70.793  1.00  0.00    -0.303 C  
BRANCH  10  11
HETATM   11  C   UNL     1     -10.871  10.344  70.288  1.00  0.00    -0.308 C  
BRANCH  11  12
HETATM   12  C   UNL     1     -11.093  10.585  68.816  1.00  0.00    -0.265 C  
HETATM   13  O   UNL     1     -12.133  10.988  68.319  1.00  0.00    -0.604 OA 
BRANCH  12  14
HETATM   14  O   UNL     1      -9.910  10.467  68.153  1.00  0.00    -0.149 OA 
BRANCH  14  15
HETATM   15  C   UNL     1      -9.501   9.114  67.919  1.00  0.00    -0.141 C  
BRANCH  15  16
HETATM   16  C   UNL     1      -9.979   8.763  66.506  1.00  0.00    -0.290 C  
BRANCH  16  17
HETATM   17  N   UNL     1     -10.448   9.901  65.734  1.00  0.00    -0.078 N  
HETATM   18  C   UNL     1      -9.708  10.395  64.687  1.00  0.00    -0.329 C  
HETATM   19  H   UNL     1     -11.338  10.339  65.972  1.00  0.00     0.000 HD 
HETATM   20  O   UNL     1      -8.580   9.998  64.411  1.00  0.00    -0.162 OA 
BRANCH  18  21
HETATM   21  C   UNL     1     -10.325  11.547  63.921  1.00  0.00    -0.371 C  
BRANCH  21  22
HETATM   22  N   UNL     1     -10.903  12.511  64.881  1.00  0.00    -0.283 NA 
HETATM   23  C   UNL     1     -12.219  12.832  64.802  1.00  0.00    -0.459 A  
HETATM   24  C   UNL     1     -12.775  13.752  65.680  1.00  0.00    -0.523 A  
HETATM   25  C   UNL     1     -11.977  14.330  66.657  1.00  0.00    -0.454 A  
HETATM   26  C   UNL     1     -10.636  13.980  66.737  1.00  0.00    -0.277 A  
HETATM   27  C   UNL     1     -10.117  13.062  65.833  1.00  0.00    -0.288 A  
ENDBRANCH  21  22
ENDBRANCH  18  21
ENDBRANCH  16  17
ENDBRANCH  15  16
ENDBRANCH  14  15
ENDBRANCH  12  14
ENDBRANCH  11  12
ENDBRANCH  10  11
ENDBRANCH   9  10
ENDBRANCH   8   9
ENDBRANCH   7   8
ENDBRANCH   6   7
ENDBRANCH   5   6
ENDBRANCH   4   5
ENDBRANCH   3   4
ENDBRANCH   2   3
TORSDOF 16
ENDMDL
MODEL      229
REMARK 921   NORMALIZED FREE ENERGY PREDICTED BY IDOCK:   -3.54 KCAL/MOL
REMARK 922        TOTAL FREE ENERGY PREDICTED BY IDOCK:   -8.94 KCAL/MOL
REMARK 923 INTER-LIGAND FREE ENERGY PREDICTED BY IDOCK:   -6.76 KCAL/MOL
REMARK 924 INTRA-LIGAND FREE ENERGY PREDICTED BY IDOCK:   -2.18 KCAL/MOL
REMARK 927      BINDING AFFINITY PREDICTED BY RF-SCORE:    0.00 PKD
ROOT
HETATM    1  C   UNL     1      -7.487  10.872  66.736  1.00  0.00    -0.134 C  
HETATM    2  C   UNL     1      -8.890  11.228  67.196  1.00  0.00    -0.153 C  
ENDROOT
BRANCH   2   3
HETATM    3  C   UNL     1      -9.646  11.991  66.111  1.00  0.00    -0.252 C  
BRANCH   3   4
HETATM    4  C   UNL     1     -11.132  11.643  66.124  1.00  0.00    -0.335 C  
BRANCH   4   5
HETATM    5  C   UNL     1     -11.983  12.889  65.881  1.00  0.00    -0.504 C  
BRANCH   5   6
HETATM    6  C   UNL     1     -11.306  14.123  66.464  1.00  0.00    -0.348 C  
BRANCH   6   7
HETATM    7  C   UNL     1     -11.959  14.556  67.774  1.00  0.00    -0.345 C  
BRANCH   7   8
HETATM    8  C   UNL     1     -11.117  14.069  68.950  1.00  0.00    -0.296 C  
BRANCH   8   9
HETATM    9  C   UNL     1     -11.979  13.477  70.057  1.00  0.00    -0.410 C  
BRANCH   9  10
HETATM   10  C   UNL     1     -12.010  11.941  70.005  1.00  0.00    -0.409 C  
BRANCH  10  11
HETATM   11  C   UNL     1     -12.639  11.284  71.241  1.00  0.00    -0.487 C  
BRANCH  11  12
HETATM   12  C   UNL     1     -12.069   9.903  71.448  1.00  0.00    -0.413 C  
HETATM   13  O   UNL     1     -10.950   9.546  71.113  1.00  0.00    -0.317 OA 
BRANCH  12  14
HETATM   14  O   UNL     1     -12.915   9.175  72.228  1.00  0.00    -0.396 OA 
BRANCH  14  15
HETATM   15  C   UNL     1     -13.614   8.138  71.528  1.00  0.00    -0.297 C  
BRANCH  15  16
HETATM   16  C   UNL     1     -12.935   6.823  71.926  1.00  0.00    -0.178 C  
BRANCH  16  17
HETATM   17  N   UNL     1     -11.804   6.457  71.089  1.00  0.00    -0.316 N  
HETATM   18  C   UNL     1     -10.937   5.464  71.474  1.00  0.00    -0.094 C  
HETATM   19  H   UNL     1     -11.653   6.944  70.206  1.00  0.00     0.000 HD 
HETATM   20  O   UNL     1     -10.985   4.912  72.569  1.00  0.00    -0.202 OA 
BRANCH  18  21
HETATM   21  C   UNL     1      -9.829   5.132  70.495  1.00  0.00    -0.215 C  
BRANCH  21  22
HETATM   22  N   UNL     1      -8.998   6.335  70.280  1.00  0.00    -0.152 NA 
HETATM   23  C   UNL     1      -8.348   6.899  71.330  1.00  0.00    -0.115 A  
HETATM   24  C   UNL     1      -7.580   8.042  71.153  1.00  0.00    -0.082 A  
HETATM   25  C   UNL     1      -7.464   8.596  69.886  1.00  0.00    -0.056 A  
HETATM   26  C   UNL     1      -8.121   7.999  68.818  1.00  0.00    -0.125 A  
HETATM   27  C   UNL     1      -8.886   6.861  69.040  1.00  0.00    -0.130 A  
ENDBRANCH  21  22
ENDBRANCH  18  21
ENDBRANCH  16  17
ENDBRANCH  15  16
ENDBRANCH  14  15
ENDBRANCH  12  14
ENDBRANCH  11  12
ENDBRANCH  10  11
ENDBRANCH   9  10
ENDBRANCH   8   9
ENDBRANCH   7   8
ENDBRANCH   6   7
ENDBRANCH   5   6
ENDBRANCH   4   5
ENDBRANCH   3   4
ENDBRANCH   2   3
TORSDOF 16
ENDMDL
MODEL      230
REMARK 921   NORMALIZED FREE ENERGY PREDICTED BY IDOCK:   -3.54 KCAL/MOL
REMARK 922        TOTAL FREE ENERGY PREDICTED BY IDOCK:   -8.93 KCAL/MOL
REMARK 923 INTER-LIGAND FREE ENERGY PREDICTED BY IDOCK:   -7.94 KCAL/MOL
REMARK 924 INTRA-LIGAND FREE ENERGY PREDICTED BY IDOCK:   -0.99 KCAL/MOL
REMARK 927      BINDING AFFINITY PREDICTED BY RF-SCORE:    0.00 PKD
ROOT
HETATM    1  C   UNL     1     -11.273  11.287  67.820  1.00  0.00    -0.354 C  
HETATM    2  C   UNL     1     -11.117  10.676  69.202  1.00  0.00    -0.309 C  
ENDROOT
BRANCH   2   3
HETATM    3  C   UNL     1     -12.472  10.516  69.887  1.00  0.00    -0.190 C  
BRANCH   3   4
HETATM    4  C   UNL     1     -12.334  10.571  71.406  1.00  0.00    -0.477 C  
BRANCH   4   5
HETATM    5  C   UNL     1     -13.402  11.479  72.016  1.00  0.00    -0.397 C  
BRANCH   5   6
HETATM    6  C   UNL     1     -13.151  12.932  71.637  1.00  0.00    -0.430 C  
BRANCH   6   7
HETATM    7  C   UNL     1     -13.420  13.873  72.808  1.00  0.00    -0.547 C  
BRANCH   7   8
HETATM    8  C   UNL     1     -12.902  15.269  72.472  1.00  0.00    -0.465 C  
BRANCH   8   9
HETATM    9  C   UNL     1     -13.007  15.570  70.984  1.00  0.00    -0.550 C  
BRANCH   9  10
HETATM   10  C   UNL     1     -11.633  15.838  70.351  1.00  0.00    -0.376 C  
BRANCH  10  11
HETATM   11  C   UNL     1     -11.256  14.860  69.230  1.00  0.00    -0.300 C  
BRANCH  11  12
HETATM   12  C   UNL     1     -11.106  15.593  67.921  1.00  0.00    -0.324 C  
HETATM   13  O   UNL     1     -10.442  16.605  67.754  1.00  0.00    -0.296 OA 
BRANCH  12  14
HETATM   14  O   UNL     1     -11.664  14.857  66.921  1.00  0.00    -0.343 OA 
BRANCH  14  15
HETATM   15  C   UNL     1     -11.766  15.548  65.670  1.00  0.00     0.265 C  
BRANCH  15  16
HETATM   16  C   UNL     1     -10.628  15.013  64.793  1.00  0.00    -0.291 C  
BRANCH  16  17
HETATM   17  N   UNL     1     -10.916  13.741  64.151  1.00  0.00    -0.581 N  
HETATM   18  C   UNL     1     -10.328  12.581  64.592  1.00  0.00    -0.317 C  
HETATM   19  H   UNL     1     -11.563  13.710  63.363  1.00  0.00     0.000 HD 
HETATM   20  O   UNL     1      -9.456  12.552  65.456  1.00  0.00    -0.106 OA 
BRANCH  18  21
HETATM   21  C   UNL     1     -10.748  11.310  63.882  1.00  0.00    -0.384 C  
BRANCH  21  22
HETATM   22  N   UNL     1      -9.602  10.377  63.846  1.00  0.00    -0.298 NA 
HETATM   23  C   UNL     1      -8.843  10.287  62.724  1.00  0.00    -0.236 A  
HETATM   24  C   UNL     1      -7.777   9.400  62.662  1.00  0.00    -0.115 A  
HETATM   25  C   UNL     1      -7.478   8.616  63.767  1.00  0.00    -0.116 A  
HETATM   26  C   UNL     1      -8.252   8.730  64.914  1.00  0.00    -0.160 A  
HETATM   27  C   UNL     1      -9.316   9.623  64.931  1.00  0.00    -0.242 A  
ENDBRANCH  21  22
ENDBRANCH  18  21
ENDBRANCH  16  17
ENDBRANCH  15  16
ENDBRANCH  14  15
ENDBRANCH  12  14
ENDBRANCH  11  12
ENDBRANCH  10  11
ENDBRANCH   9  10
ENDBRANCH   8   9
ENDBRANCH   7   8
ENDBRANCH   6   7
ENDBRANCH   5   6
ENDBRANCH   4   5
ENDBRANCH   3   4
ENDBRANCH   2   3
TORSDOF 16
ENDMDL
MODEL      231
REMARK 921   NORMALIZED FREE ENERGY PREDICTED BY IDOCK:   -3.54 KCAL/MOL
REMARK 922        TOTAL FREE ENERGY PREDICTED BY IDOCK:   -8.93 KCAL/MOL
REMARK 923 INTER-LIGAND FREE ENERGY PREDICTED BY IDOCK:   -7.79 KCAL/MOL
REMARK 924 INTRA-LIGAND FREE ENERGY PREDICTED BY IDOCK:   -1.14 KCAL/MOL
REMARK 927      BINDING AFFINITY PREDICTED BY RF-SCORE:    0.00 PKD
ROOT
HETATM    1  C   UNL     1     -10.833   6.524  71.570  1.00  0.00    -0.288 C  
HETATM    2  C   UNL     1     -12.069   6.764  70.720  1.00  0.00    -0.402 C  
ENDROOT
BRANCH   2   3
HETATM    3  C   UNL     1     -13.318   6.887  71.590  1.00  0.00    -0.296 C  
BRANCH   3   4
HETATM    4  C   UNL     1     -13.986   8.248  71.410  1.00  0.00    -0.341 C  
BRANCH   4   5
HETATM    5  C   UNL     1     -13.386   9.278  72.365  1.00  0.00    -0.521 C  
BRANCH   5   6
HETATM    6  C   UNL     1     -12.226  10.012  71.704  1.00  0.00    -0.456 C  
BRANCH   6   7
HETATM    7  C   UNL     1     -12.622  10.576  70.342  1.00  0.00    -0.364 C  
BRANCH   7   8
HETATM    8  C   UNL     1     -11.477  11.418  69.785  1.00  0.00    -0.376 C  
BRANCH   8   9
HETATM    9  C   UNL     1     -11.959  12.774  69.290  1.00  0.00    -0.300 C  
BRANCH   9  10
HETATM   10  C   UNL     1     -11.748  12.945  67.778  1.00  0.00    -0.412 C  
BRANCH  10  11
HETATM   11  C   UNL     1     -10.666  12.030  67.187  1.00  0.00    -0.277 C  
BRANCH  11  12
HETATM   12  C   UNL     1     -10.990  11.692  65.753  1.00  0.00    -0.274 C  
HETATM   13  O   UNL     1     -10.401  10.864  65.076  1.00  0.00    -0.285 OA 
BRANCH  12  14
HETATM   14  O   UNL     1     -12.151  12.306  65.393  1.00  0.00    -0.479 OA 
BRANCH  14  15
HETATM   15  C   UNL     1     -12.047  13.110  64.211  1.00  0.00    -0.414 C  
BRANCH  15  16
HETATM   16  C   UNL     1     -12.071  14.568  64.684  1.00  0.00    -0.473 C  
BRANCH  16  17
HETATM   17  N   UNL     1     -10.757  15.171  64.828  1.00  0.00    -0.582 N  
HETATM   18  C   UNL     1     -10.467  15.978  65.901  1.00  0.00    -0.359 C  
HETATM   19  H   UNL     1     -10.041  14.994  64.123  1.00  0.00     0.000 HD 
HETATM   20  O   UNL     1     -11.303  16.330  66.727  1.00  0.00     0.114 OA 
BRANCH  18  21
HETATM   21  C   UNL     1      -9.048  16.504  65.974  1.00  0.00    -0.255 C  
BRANCH  21  22
HETATM   22  N   UNL     1      -8.328  15.801  67.057  1.00  0.00    -0.204 NA 
HETATM   23  C   UNL     1      -6.985  15.622  66.966  1.00  0.00    -0.038 A  
HETATM   24  C   UNL     1      -6.295  14.944  67.962  1.00  0.00    -0.163 A  
HETATM   25  C   UNL     1      -6.986  14.467  69.066  1.00  0.00    -0.114 A  
HETATM   26  C   UNL     1      -8.356  14.672  69.154  1.00  0.00    -0.055 A  
HETATM   27  C   UNL     1      -9.010  15.347  68.131  1.00  0.00    -0.176 A  
ENDBRANCH  21  22
ENDBRANCH  18  21
ENDBRANCH  16  17
ENDBRANCH  15  16
ENDBRANCH  14  15
ENDBRANCH  12  14
ENDBRANCH  11  12
ENDBRANCH  10  11
ENDBRANCH   9  10
ENDBRANCH   8   9
ENDBRANCH   7   8
ENDBRANCH   6   7
ENDBRANCH   5   6
ENDBRANCH   4   5
ENDBRANCH   3   4
ENDBRANCH   2   3
TORSDOF 16
ENDMDL
MODEL      232
REMARK 921   NORMALIZED FREE ENERGY PREDICTED BY IDOCK:   -3.53 KCAL/MOL
REMARK 922        TOTAL FREE ENERGY PREDICTED BY IDOCK:   -8.90 KCAL/MOL
REMARK 923 INTER-LIGAND FREE ENERGY PREDICTED BY IDOCK:   -7.53 KCAL/MOL
REMARK 924 INTRA-LIGAND FREE ENERGY PREDICTED BY IDOCK:   -1.37 KCAL/MOL
REMARK 927      BINDING AFFINITY PREDICTED BY RF-SCORE:    0.00 PKD
ROOT
HETATM    1  C   UNL     1     -10.485   2.738  72.978  1.00  0.00    -0.251 C  
HETATM    2  C   UNL     1     -10.181   4.124  72.436  1.00  0.00    -0.239 C  
ENDROOT
BRANCH   2   3
HETATM    3  C   UNL     1      -9.166   4.848  73.318  1.00  0.00    -0.122 C  
BRANCH   3   4
HETATM    4  C   UNL     1      -8.713   6.158  72.680  1.00  0.00    -0.124 C  
BRANCH   4   5
HETATM    5  C   UNL     1      -9.327   7.356  73.404  1.00  0.00    -0.260 C  
BRANCH   5   6
HETATM    6  C   UNL     1     -10.602   7.809  72.706  1.00  0.00    -0.401 C  
BRANCH   6   7
HETATM    7  C   UNL     1     -10.487   7.685  71.189  1.00  0.00    -0.220 C  
BRANCH   7   8
HETATM    8  C   UNL     1     -10.143   9.046  70.590  1.00  0.00    -0.284 C  
BRANCH   8   9
HETATM    9  C   UNL     1      -8.949   8.966  69.649  1.00  0.00    -0.147 C  
BRANCH   9  10
HETATM   10  C   UNL     1      -9.060   9.968  68.489  1.00  0.00    -0.127 C  
BRANCH  10  11
HETATM   11  C   UNL     1      -9.886   9.462  67.298  1.00  0.00    -0.232 C  
BRANCH  11  12
HETATM   12  C   UNL     1      -9.310   9.979  66.003  1.00  0.00    -0.174 C  
HETATM   13  O   UNL     1      -8.136   9.906  65.677  1.00  0.00    -0.120 OA 
BRANCH  12  14
HETATM   14  O   UNL     1     -10.323  10.365  65.179  1.00  0.00    -0.295 OA 
BRANCH  14  15
HETATM   15  C   UNL     1      -9.895  10.757  63.868  1.00  0.00    -0.332 C  
BRANCH  15  16
HETATM   16  C   UNL     1     -10.658  12.045  63.539  1.00  0.00    -0.465 C  
BRANCH  16  17
HETATM   17  N   UNL     1     -10.535  13.086  64.546  1.00  0.00    -0.382 N  
HETATM   18  C   UNL     1     -11.648  13.719  65.043  1.00  0.00    -0.341 C  
HETATM   19  H   UNL     1      -9.611  13.350  64.888  1.00  0.00     0.000 HD 
HETATM   20  O   UNL     1     -12.780  13.539  64.604  1.00  0.00    -0.641 OA 
BRANCH  18  21
HETATM   21  C   UNL     1     -11.401  14.746  66.129  1.00  0.00    -0.330 C  
BRANCH  21  22
HETATM   22  N   UNL     1     -11.568  14.102  67.449  1.00  0.00    -0.351 NA 
HETATM   23  C   UNL     1     -11.527  14.857  68.576  1.00  0.00    -0.315 A  
HETATM   24  C   UNL     1     -11.659  14.268  69.826  1.00  0.00    -0.350 A  
HETATM   25  C   UNL     1     -11.855  12.897  69.916  1.00  0.00    -0.373 A  
HETATM   26  C   UNL     1     -11.912  12.139  68.755  1.00  0.00    -0.292 A  
HETATM   27  C   UNL     1     -11.766  12.767  67.524  1.00  0.00    -0.364 A  
ENDBRANCH  21  22
ENDBRANCH  18  21
ENDBRANCH  16  17
ENDBRANCH  15  16
ENDBRANCH  14  15
ENDBRANCH  12  14
ENDBRANCH  11  12
ENDBRANCH  10  11
ENDBRANCH   9  10
ENDBRANCH   8   9
ENDBRANCH   7   8
ENDBRANCH   6   7
ENDBRANCH   5   6
ENDBRANCH   4   5
ENDBRANCH   3   4
ENDBRANCH   2   3
TORSDOF 16
ENDMDL
MODEL      233
REMARK 921   NORMALIZED FREE ENERGY PREDICTED BY IDOCK:   -3.52 KCAL/MOL
REMARK 922        TOTAL FREE ENERGY PREDICTED BY IDOCK:   -8.90 KCAL/MOL
REMARK 923 INTER-LIGAND FREE ENERGY PREDICTED BY IDOCK:   -7.94 KCAL/MOL
REMARK 924 INTRA-LIGAND FREE ENERGY PREDICTED BY IDOCK:   -0.96 KCAL/MOL
REMARK 927      BINDING AFFINITY PREDICTED BY RF-SCORE:    0.00 PKD
ROOT
HETATM    1  C   UNL     1     -11.019   6.088  69.609  1.00  0.00    -0.470 C  
HETATM    2  C   UNL     1     -11.509   6.956  70.755  1.00  0.00    -0.381 C  
ENDROOT
BRANCH   2   3
HETATM    3  C   UNL     1     -10.664   8.222  70.886  1.00  0.00    -0.250 C  
BRANCH   3   4
HETATM    4  C   UNL     1     -11.117   9.292  69.897  1.00  0.00    -0.200 C  
BRANCH   4   5
HETATM    5  C   UNL     1     -10.020   9.583  68.873  1.00  0.00    -0.187 C  
BRANCH   5   6
HETATM    6  C   UNL     1     -10.446   9.121  67.485  1.00  0.00    -0.335 C  
BRANCH   6   7
HETATM    7  C   UNL     1      -9.251   8.987  66.546  1.00  0.00    -0.226 C  
BRANCH   7   8
HETATM    8  C   UNL     1      -9.537   9.731  65.245  1.00  0.00    -0.368 C  
BRANCH   8   9
HETATM    9  C   UNL     1     -10.586  10.818  65.432  1.00  0.00    -0.224 C  
BRANCH   9  10
HETATM   10  C   UNL     1     -10.922  11.529  64.112  1.00  0.00    -0.434 C  
BRANCH  10  11
HETATM   11  C   UNL     1     -12.220  12.348  64.152  1.00  0.00    -0.558 C  
BRANCH  11  12
HETATM   12  C   UNL     1     -11.926  13.809  63.917  1.00  0.00    -0.371 C  
HETATM   13  O   UNL     1     -12.759  14.656  63.633  1.00  0.00    -0.735 OA 
BRANCH  12  14
HETATM   14  O   UNL     1     -10.633  14.072  64.252  1.00  0.00    -0.290 OA 
BRANCH  14  15
HETATM   15  C   UNL     1     -10.467  14.615  65.568  1.00  0.00    -0.356 C  
BRANCH  15  16
HETATM   16  C   UNL     1     -10.560  16.137  65.415  1.00  0.00    -0.380 C  
BRANCH  16  17
HETATM   17  N   UNL     1      -9.562  16.875  66.172  1.00  0.00    -0.272 N  
HETATM   18  C   UNL     1      -9.821  17.298  67.453  1.00  0.00    -0.272 C  
HETATM   19  H   UNL     1      -8.659  17.082  65.746  1.00  0.00     0.000 HD 
HETATM   20  O   UNL     1     -10.919  17.189  67.991  1.00  0.00    -0.362 OA 
BRANCH  18  21
HETATM   21  C   UNL     1      -8.687  18.008  68.162  1.00  0.00    -0.272 C  
BRANCH  21  22
HETATM   22  N   UNL     1      -7.643  17.021  68.511  1.00  0.00    -0.220 NA 
HETATM   23  C   UNL     1      -6.360  17.232  68.122  1.00  0.00    -0.155 A  
HETATM   24  C   UNL     1      -5.370  16.306  68.421  1.00  0.00    -0.105 A  
HETATM   25  C   UNL     1      -5.699  15.165  69.140  1.00  0.00    -0.098 A  
HETATM   26  C   UNL     1      -7.012  14.970  69.546  1.00  0.00    -0.187 A  
HETATM   27  C   UNL     1      -7.974  15.917  69.218  1.00  0.00    -0.229 A  
ENDBRANCH  21  22
ENDBRANCH  18  21
ENDBRANCH  16  17
ENDBRANCH  15  16
ENDBRANCH  14  15
ENDBRANCH  12  14
ENDBRANCH  11  12
ENDBRANCH  10  11
ENDBRANCH   9  10
ENDBRANCH   8   9
ENDBRANCH   7   8
ENDBRANCH   6   7
ENDBRANCH   5   6
ENDBRANCH   4   5
ENDBRANCH   3   4
ENDBRANCH   2   3
TORSDOF 16
ENDMDL
MODEL      234
REMARK 921   NORMALIZED FREE ENERGY PREDICTED BY IDOCK:   -3.52 KCAL/MOL
REMARK 922        TOTAL FREE ENERGY PREDICTED BY IDOCK:   -8.89 KCAL/MOL
REMARK 923 INTER-LIGAND FREE ENERGY PREDICTED BY IDOCK:   -7.77 KCAL/MOL
REMARK 924 INTRA-LIGAND FREE ENERGY PREDICTED BY IDOCK:   -1.12 KCAL/MOL
REMARK 927      BINDING AFFINITY PREDICTED BY RF-SCORE:    0.00 PKD
ROOT
HETATM    1  C   UNL     1     -14.407   7.650  71.641  1.00  0.00    -0.613 C  
HETATM    2  C   UNL     1     -13.658   8.971  71.699  1.00  0.00    -0.446 C  
ENDROOT
BRANCH   2   3
HETATM    3  C   UNL     1     -12.208   8.762  72.130  1.00  0.00    -0.448 C  
BRANCH   3   4
HETATM    4  C   UNL     1     -11.527   7.693  71.280  1.00  0.00    -0.293 C  
BRANCH   4   5
HETATM    5  C   UNL     1     -10.101   7.441  71.767  1.00  0.00    -0.197 C  
BRANCH   5   6
HETATM    6  C   UNL     1      -9.152   8.501  71.223  1.00  0.00    -0.250 C  
BRANCH   6   7
HETATM    7  C   UNL     1      -8.304   7.960  70.074  1.00  0.00    -0.121 C  
BRANCH   7   8
HETATM    8  C   UNL     1      -8.384   8.915  68.886  1.00  0.00    -0.122 C  
BRANCH   8   9
HETATM    9  C   UNL     1      -7.687  10.238  69.174  1.00  0.00    -0.119 C  
BRANCH   9  10
HETATM   10  C   UNL     1      -8.352  11.412  68.440  1.00  0.00    -0.153 C  
BRANCH  10  11
HETATM   11  C   UNL     1      -9.336  10.990  67.340  1.00  0.00    -0.165 C  
BRANCH  11  12
HETATM   12  C   UNL     1     -10.744  11.374  67.720  1.00  0.00    -0.211 C  
HETATM   13  O   UNL     1     -11.754  10.791  67.358  1.00  0.00    -0.462 OA 
BRANCH  12  14
HETATM   14  O   UNL     1     -10.708  12.347  68.673  1.00  0.00    -0.227 OA 
BRANCH  14  15
HETATM   15  C   UNL     1     -11.997  12.839  69.057  1.00  0.00    -0.242 C  
BRANCH  15  16
HETATM   16  C   UNL     1     -12.009  14.328  68.697  1.00  0.00    -0.313 C  
BRANCH  16  17
HETATM   17  N   UNL     1     -10.994  14.718  67.733  1.00  0.00    -0.282 N  
HETATM   18  C   UNL     1     -11.264  14.717  66.386  1.00  0.00    -0.342 C  
HETATM   19  H   UNL     1     -10.069  14.996  68.060  1.00  0.00     0.000 HD 
HETATM   20  O   UNL     1     -12.311  14.290  65.908  1.00  0.00    -0.430 OA 
BRANCH  18  21
HETATM   21  C   UNL     1     -10.147  15.197  65.482  1.00  0.00    -0.370 C  
BRANCH  21  22
HETATM   22  N   UNL     1      -9.705  16.534  65.930  1.00  0.00    -0.470 NA 
HETATM   23  C   UNL     1      -8.492  16.678  66.523  1.00  0.00    -0.292 A  
HETATM   24  C   UNL     1      -8.069  17.922  66.971  1.00  0.00    -0.238 A  
HETATM   25  C   UNL     1      -8.888  19.027  66.790  1.00  0.00    -0.321 A  
HETATM   26  C   UNL     1     -10.118  18.868  66.166  1.00  0.00    -0.438 A  
HETATM   27  C   UNL     1     -10.508  17.605  65.741  1.00  0.00    -0.205 A  
ENDBRANCH  21  22
ENDBRANCH  18  21
ENDBRANCH  16  17
ENDBRANCH  15  16
ENDBRANCH  14  15
ENDBRANCH  12  14
ENDBRANCH  11  12
ENDBRANCH  10  11
ENDBRANCH   9  10
ENDBRANCH   8   9
ENDBRANCH   7   8
ENDBRANCH   6   7
ENDBRANCH   5   6
ENDBRANCH   4   5
ENDBRANCH   3   4
ENDBRANCH   2   3
TORSDOF 16
ENDMDL
MODEL      235
REMARK 921   NORMALIZED FREE ENERGY PREDICTED BY IDOCK:   -3.52 KCAL/MOL
REMARK 922        TOTAL FREE ENERGY PREDICTED BY IDOCK:   -8.88 KCAL/MOL
REMARK 923 INTER-LIGAND FREE ENERGY PREDICTED BY IDOCK:   -7.34 KCAL/MOL
REMARK 924 INTRA-LIGAND FREE ENERGY PREDICTED BY IDOCK:   -1.54 KCAL/MOL
REMARK 927      BINDING AFFINITY PREDICTED BY RF-SCORE:    0.00 PKD
ROOT
HETATM    1  C   UNL     1      -7.399  16.763  66.482  1.00  0.00    -0.306 C  
HETATM    2  C   UNL     1      -8.388  17.852  66.859  1.00  0.00    -0.260 C  
ENDROOT
BRANCH   2   3
HETATM    3  C   UNL     1      -9.275  17.410  68.021  1.00  0.00    -0.266 C  
BRANCH   3   4
HETATM    4  C   UNL     1     -10.668  17.017  67.536  1.00  0.00    -0.266 C  
BRANCH   4   5
HETATM    5  C   UNL     1     -10.967  15.557  67.872  1.00  0.00    -0.316 C  
BRANCH   5   6
HETATM    6  C   UNL     1     -11.660  14.869  66.703  1.00  0.00    -0.265 C  
BRANCH   6   7
HETATM    7  C   UNL     1     -10.683  14.563  65.571  1.00  0.00    -0.350 C  
BRANCH   7   8
HETATM    8  C   UNL     1     -10.255  13.100  65.645  1.00  0.00    -0.294 C  
BRANCH   8   9
HETATM    9  C   UNL     1     -11.383  12.203  66.136  1.00  0.00    -0.414 C  
BRANCH   9  10
HETATM   10  C   UNL     1     -11.001  11.442  67.414  1.00  0.00    -0.326 C  
BRANCH  10  11
HETATM   11  C   UNL     1     -11.811  11.847  68.653  1.00  0.00    -0.365 C  
BRANCH  11  12
HETATM   12  C   UNL     1     -11.570  10.875  69.780  1.00  0.00    -0.322 C  
HETATM   13  O   UNL     1     -10.492  10.677  70.319  1.00  0.00    -0.075 OA 
BRANCH  12  14
HETATM   14  O   UNL     1     -12.762  10.394  70.228  1.00  0.00    -0.283 OA 
BRANCH  14  15
HETATM   15  C   UNL     1     -13.123  10.849  71.538  1.00  0.00    -0.399 C  
BRANCH  15  16
HETATM   16  C   UNL     1     -13.002   9.631  72.461  1.00  0.00    -0.154 C  
BRANCH  16  17
HETATM   17  N   UNL     1     -11.929   8.717  72.105  1.00  0.00    -0.367 N  
HETATM   18  C   UNL     1     -12.204   7.497  71.536  1.00  0.00    -0.331 C  
HETATM   19  H   UNL     1     -10.961   8.984  72.280  1.00  0.00     0.000 HD 
HETATM   20  O   UNL     1     -13.342   7.058  71.398  1.00  0.00    -0.354 OA 
BRANCH  18  21
HETATM   21  C   UNL     1     -11.005   6.654  71.156  1.00  0.00    -0.257 C  
BRANCH  21  22
HETATM   22  N   UNL     1     -10.653   6.924  69.745  1.00  0.00    -0.223 NA 
HETATM   23  C   UNL     1     -11.377   6.351  68.750  1.00  0.00    -0.162 A  
HETATM   24  C   UNL     1     -11.048   6.574  67.420  1.00  0.00    -0.411 A  
HETATM   25  C   UNL     1      -9.981   7.406  67.112  1.00  0.00    -0.281 A  
HETATM   26  C   UNL     1      -9.260   7.998  68.139  1.00  0.00    -0.134 A  
HETATM   27  C   UNL     1      -9.616   7.742  69.457  1.00  0.00    -0.160 A  
ENDBRANCH  21  22
ENDBRANCH  18  21
ENDBRANCH  16  17
ENDBRANCH  15  16
ENDBRANCH  14  15
ENDBRANCH  12  14
ENDBRANCH  11  12
ENDBRANCH  10  11
ENDBRANCH   9  10
ENDBRANCH   8   9
ENDBRANCH   7   8
ENDBRANCH   6   7
ENDBRANCH   5   6
ENDBRANCH   4   5
ENDBRANCH   3   4
ENDBRANCH   2   3
TORSDOF 16
ENDMDL
MODEL      236
REMARK 921   NORMALIZED FREE ENERGY PREDICTED BY IDOCK:   -3.50 KCAL/MOL
REMARK 922        TOTAL FREE ENERGY PREDICTED BY IDOCK:   -8.85 KCAL/MOL
REMARK 923 INTER-LIGAND FREE ENERGY PREDICTED BY IDOCK:   -7.82 KCAL/MOL
REMARK 924 INTRA-LIGAND FREE ENERGY PREDICTED BY IDOCK:   -1.04 KCAL/MOL
REMARK 927      BINDING AFFINITY PREDICTED BY RF-SCORE:    0.00 PKD
ROOT
HETATM    1  C   UNL     1     -10.360   4.248  65.330  1.00  0.00    -0.220 C  
HETATM    2  C   UNL     1      -9.806   4.990  66.534  1.00  0.00    -0.218 C  
ENDROOT
BRANCH   2   3
HETATM    3  C   UNL     1     -10.710   6.157  66.922  1.00  0.00    -0.413 C  
BRANCH   3   4
HETATM    4  C   UNL     1      -9.934   7.471  66.956  1.00  0.00    -0.304 C  
BRANCH   4   5
HETATM    5  C   UNL     1     -10.278   8.273  68.210  1.00  0.00    -0.246 C  
BRANCH   5   6
HETATM    6  C   UNL     1     -10.683   7.343  69.347  1.00  0.00    -0.220 C  
BRANCH   6   7
HETATM    7  C   UNL     1     -10.237   7.885  70.702  1.00  0.00    -0.199 C  
BRANCH   7   8
HETATM    8  C   UNL     1     -11.428   7.922  71.656  1.00  0.00    -0.304 C  
BRANCH   8   9
HETATM    9  C   UNL     1     -12.482   8.924  71.207  1.00  0.00    -0.321 C  
BRANCH   9  10
HETATM   10  C   UNL     1     -11.880  10.310  70.928  1.00  0.00    -0.473 C  
BRANCH  10  11
HETATM   11  C   UNL     1     -12.373  10.959  69.627  1.00  0.00    -0.290 C  
BRANCH  11  12
HETATM   12  C   UNL     1     -11.950  12.405  69.569  1.00  0.00    -0.261 C  
HETATM   13  O   UNL     1     -12.458  13.313  70.210  1.00  0.00    -0.270 OA 
BRANCH  12  14
HETATM   14  O   UNL     1     -10.802  12.514  68.844  1.00  0.00    -0.234 OA 
BRANCH  14  15
HETATM   15  C   UNL     1     -10.911  12.033  67.498  1.00  0.00    -0.241 C  
BRANCH  15  16
HETATM   16  C   UNL     1     -12.014  12.866  66.836  1.00  0.00    -0.335 C  
BRANCH  16  17
HETATM   17  N   UNL     1     -11.616  14.221  66.493  1.00  0.00    -0.364 N  
HETATM   18  C   UNL     1     -10.996  14.490  65.296  1.00  0.00    -0.360 C  
HETATM   19  H   UNL     1     -11.798  14.981  67.147  1.00  0.00     0.000 HD 
HETATM   20  O   UNL     1     -10.641  13.619  64.508  1.00  0.00    -0.417 OA 
BRANCH  18  21
HETATM   21  C   UNL     1     -10.679  15.946  65.024  1.00  0.00    -0.404 C  
BRANCH  21  22
HETATM   22  N   UNL     1      -9.907  16.493  66.160  1.00  0.00    -0.316 NA 
HETATM   23  C   UNL     1      -8.599  16.161  66.306  1.00  0.00    -0.338 A  
HETATM   24  C   UNL     1      -7.864  16.646  67.379  1.00  0.00    -0.188 A  
HETATM   25  C   UNL     1      -8.471  17.492  68.295  1.00  0.00    -0.266 A  
HETATM   26  C   UNL     1      -9.805  17.837  68.124  1.00  0.00    -0.326 A  
HETATM   27  C   UNL     1     -10.508  17.322  67.042  1.00  0.00    -0.287 A  
ENDBRANCH  21  22
ENDBRANCH  18  21
ENDBRANCH  16  17
ENDBRANCH  15  16
ENDBRANCH  14  15
ENDBRANCH  12  14
ENDBRANCH  11  12
ENDBRANCH  10  11
ENDBRANCH   9  10
ENDBRANCH   8   9
ENDBRANCH   7   8
ENDBRANCH   6   7
ENDBRANCH   5   6
ENDBRANCH   4   5
ENDBRANCH   3   4
ENDBRANCH   2   3
TORSDOF 16
ENDMDL
MODEL      237
REMARK 921   NORMALIZED FREE ENERGY PREDICTED BY IDOCK:   -3.50 KCAL/MOL
REMARK 922        TOTAL FREE ENERGY PREDICTED BY IDOCK:   -8.85 KCAL/MOL
REMARK 923 INTER-LIGAND FREE ENERGY PREDICTED BY IDOCK:   -8.16 KCAL/MOL
REMARK 924 INTRA-LIGAND FREE ENERGY PREDICTED BY IDOCK:   -0.68 KCAL/MOL
REMARK 927      BINDING AFFINITY PREDICTED BY RF-SCORE:    0.00 PKD
ROOT
HETATM    1  C   UNL     1     -12.653   6.865  71.451  1.00  0.00    -0.400 C  
HETATM    2  C   UNL     1     -11.275   6.451  71.939  1.00  0.00    -0.325 C  
ENDROOT
BRANCH   2   3
HETATM    3  C   UNL     1     -10.572   5.567  70.911  1.00  0.00    -0.309 C  
BRANCH   3   4
HETATM    4  C   UNL     1      -9.068   5.824  70.897  1.00  0.00    -0.157 C  
BRANCH   4   5
HETATM    5  C   UNL     1      -8.707   6.876  69.849  1.00  0.00    -0.142 C  
BRANCH   5   6
HETATM    6  C   UNL     1      -9.620   6.759  68.635  1.00  0.00    -0.131 C  
BRANCH   6   7
HETATM    7  C   UNL     1     -10.312   8.083  68.322  1.00  0.00    -0.240 C  
BRANCH   7   8
HETATM    8  C   UNL     1     -10.076   8.450  66.859  1.00  0.00    -0.364 C  
BRANCH   8   9
HETATM    9  C   UNL     1      -9.468   9.838  66.714  1.00  0.00    -0.209 C  
BRANCH   9  10
HETATM   10  C   UNL     1     -10.526  10.900  66.379  1.00  0.00    -0.307 C  
BRANCH  10  11
HETATM   11  C   UNL     1     -10.216  11.721  65.119  1.00  0.00    -0.309 C  
BRANCH  11  12
HETATM   12  C   UNL     1     -11.395  12.586  64.753  1.00  0.00    -0.313 C  
HETATM   13  O   UNL     1     -12.563  12.323  64.997  1.00  0.00    -0.575 OA 
BRANCH  12  14
HETATM   14  O   UNL     1     -10.951  13.785  64.283  1.00  0.00    -0.367 OA 
BRANCH  14  15
HETATM   15  C   UNL     1     -11.504  14.921  64.958  1.00  0.00    -0.379 C  
BRANCH  15  16
HETATM   16  C   UNL     1     -10.451  15.366  65.978  1.00  0.00    -0.321 C  
BRANCH  16  17
HETATM   17  N   UNL     1     -10.268  16.805  66.059  1.00  0.00    -0.347 N  
HETATM   18  C   UNL     1     -10.481  17.477  67.238  1.00  0.00    -0.327 C  
HETATM   19  H   UNL     1      -9.977  17.324  65.230  1.00  0.00     0.000 HD 
HETATM   20  O   UNL     1     -10.939  16.945  68.245  1.00  0.00    -0.364 OA 
BRANCH  18  21
HETATM   21  C   UNL     1     -10.203  18.966  67.216  1.00  0.00    -0.390 C  
BRANCH  21  22
HETATM   22  N   UNL     1      -8.817  19.204  67.669  1.00  0.00    -0.291 NA 
HETATM   23  C   UNL     1      -8.170  20.336  67.289  1.00  0.00    -0.343 A  
HETATM   24  C   UNL     1      -6.860  20.567  67.685  1.00  0.00    -0.363 A  
HETATM   25  C   UNL     1      -6.218  19.640  68.493  1.00  0.00    -0.279 A  
HETATM   26  C   UNL     1      -6.897  18.495  68.889  1.00  0.00    -0.296 A  
HETATM   27  C   UNL     1      -8.204  18.297  68.463  1.00  0.00    -0.312 A  
ENDBRANCH  21  22
ENDBRANCH  18  21
ENDBRANCH  16  17
ENDBRANCH  15  16
ENDBRANCH  14  15
ENDBRANCH  12  14
ENDBRANCH  11  12
ENDBRANCH  10  11
ENDBRANCH   9  10
ENDBRANCH   8   9
ENDBRANCH   7   8
ENDBRANCH   6   7
ENDBRANCH   5   6
ENDBRANCH   4   5
ENDBRANCH   3   4
ENDBRANCH   2   3
TORSDOF 16
ENDMDL
MODEL      238
REMARK 921   NORMALIZED FREE ENERGY PREDICTED BY IDOCK:   -3.50 KCAL/MOL
REMARK 922        TOTAL FREE ENERGY PREDICTED BY IDOCK:   -8.84 KCAL/MOL
REMARK 923 INTER-LIGAND FREE ENERGY PREDICTED BY IDOCK:   -7.38 KCAL/MOL
REMARK 924 INTRA-LIGAND FREE ENERGY PREDICTED BY IDOCK:   -1.47 KCAL/MOL
REMARK 927      BINDING AFFINITY PREDICTED BY RF-SCORE:    0.00 PKD
ROOT
HETATM    1  C   UNL     1     -10.938   6.153  66.717  1.00  0.00    -0.322 C  
HETATM    2  C   UNL     1     -10.627   7.584  67.122  1.00  0.00    -0.415 C  
ENDROOT
BRANCH   2   3
HETATM    3  C   UNL     1      -9.192   7.711  67.629  1.00  0.00    -0.144 C  
BRANCH   3   4
HETATM    4  C   UNL     1      -9.125   8.569  68.889  1.00  0.00    -0.146 C  
BRANCH   4   5
HETATM    5  C   UNL     1      -9.230   7.702  70.143  1.00  0.00    -0.154 C  
BRANCH   5   6
HETATM    6  C   UNL     1     -10.687   7.513  70.544  1.00  0.00    -0.244 C  
BRANCH   6   7
HETATM    7  C   UNL     1     -10.988   8.164  71.891  1.00  0.00    -0.338 C  
BRANCH   7   8
HETATM    8  C   UNL     1     -11.299   9.644  71.686  1.00  0.00    -0.336 C  
BRANCH   8   9
HETATM    9  C   UNL     1     -12.394   9.856  70.651  1.00  0.00    -0.299 C  
BRANCH   9  10
HETATM   10  C   UNL     1     -12.315  11.247  70.003  1.00  0.00    -0.330 C  
BRANCH  10  11
HETATM   11  C   UNL     1     -11.815  11.237  68.552  1.00  0.00    -0.355 C  
BRANCH  11  12
HETATM   12  C   UNL     1     -11.481  12.638  68.102  1.00  0.00    -0.313 C  
HETATM   13  O   UNL     1     -12.132  13.636  68.368  1.00  0.00    -0.361 OA 
BRANCH  12  14
HETATM   14  O   UNL     1     -10.250  12.646  67.519  1.00  0.00    -0.211 OA 
BRANCH  14  15
HETATM   15  C   UNL     1     -10.276  12.518  66.092  1.00  0.00    -0.252 C  
BRANCH  15  16
HETATM   16  C   UNL     1     -10.062  13.929  65.534  1.00  0.00    -0.298 C  
BRANCH  16  17
HETATM   17  N   UNL     1      -9.049  14.701  66.234  1.00  0.00    -0.479 N  
HETATM   18  C   UNL     1      -9.397  15.774  67.018  1.00  0.00    -0.220 C  
HETATM   19  H   UNL     1      -8.066  14.443  66.142  1.00  0.00     0.000 HD 
HETATM   20  O   UNL     1     -10.540  16.214  67.089  1.00  0.00    -0.305 OA 
BRANCH  18  21
HETATM   21  C   UNL     1      -8.262  16.466  67.743  1.00  0.00    -0.154 C  
BRANCH  21  22
HETATM   22  N   UNL     1      -7.860  17.664  66.977  1.00  0.00    -0.207 NA 
HETATM   23  C   UNL     1      -6.874  17.570  66.048  1.00  0.00    -0.246 A  
HETATM   24  C   UNL     1      -6.467  18.689  65.335  1.00  0.00    -0.299 A  
HETATM   25  C   UNL     1      -7.090  19.907  65.563  1.00  0.00    -0.327 A  
HETATM   26  C   UNL     1      -8.109  19.986  66.503  1.00  0.00    -0.346 A  
HETATM   27  C   UNL     1      -8.480  18.844  67.202  1.00  0.00    -0.276 A  
ENDBRANCH  21  22
ENDBRANCH  18  21
ENDBRANCH  16  17
ENDBRANCH  15  16
ENDBRANCH  14  15
ENDBRANCH  12  14
ENDBRANCH  11  12
ENDBRANCH  10  11
ENDBRANCH   9  10
ENDBRANCH   8   9
ENDBRANCH   7   8
ENDBRANCH   6   7
ENDBRANCH   5   6
ENDBRANCH   4   5
ENDBRANCH   3   4
ENDBRANCH   2   3
TORSDOF 16
ENDMDL
MODEL      239
REMARK 921   NORMALIZED FREE ENERGY PREDICTED BY IDOCK:   -3.49 KCAL/MOL
REMARK 922        TOTAL FREE ENERGY PREDICTED BY IDOCK:   -8.84 KCAL/MOL
REMARK 923 INTER-LIGAND FREE ENERGY PREDICTED BY IDOCK:   -7.78 KCAL/MOL
REMARK 924 INTRA-LIGAND FREE ENERGY PREDICTED BY IDOCK:   -1.06 KCAL/MOL
REMARK 927      BINDING AFFINITY PREDICTED BY RF-SCORE:    0.00 PKD
ROOT
HETATM    1  C   UNL     1     -10.878   5.432  72.424  1.00  0.00    -0.297 C  
HETATM    2  C   UNL     1     -11.373   6.041  71.124  1.00  0.00    -0.300 C  
ENDROOT
BRANCH   2   3
HETATM    3  C   UNL     1     -11.590   7.546  71.270  1.00  0.00    -0.305 C  
BRANCH   3   4
HETATM    4  C   UNL     1     -11.010   8.306  70.081  1.00  0.00    -0.222 C  
BRANCH   4   5
HETATM    5  C   UNL     1     -10.141   9.471  70.553  1.00  0.00    -0.347 C  
BRANCH   5   6
HETATM    6  C   UNL     1      -8.733   8.990  70.882  1.00  0.00    -0.280 C  
BRANCH   6   7
HETATM    7  C   UNL     1      -7.674   9.812  70.152  1.00  0.00    -0.188 C  
BRANCH   7   8
HETATM    8  C   UNL     1      -8.014   9.881  68.665  1.00  0.00    -0.087 C  
BRANCH   8   9
HETATM    9  C   UNL     1      -8.229  11.313  68.199  1.00  0.00    -0.140 C  
BRANCH   9  10
HETATM   10  C   UNL     1      -8.754  11.378  66.756  1.00  0.00    -0.174 C  
BRANCH  10  11
HETATM   11  C   UNL     1     -10.220  10.950  66.600  1.00  0.00    -0.282 C  
BRANCH  11  12
HETATM   12  C   UNL     1     -11.000  12.008  65.862  1.00  0.00    -0.298 C  
HETATM   13  O   UNL     1     -12.214  12.022  65.729  1.00  0.00    -0.520 OA 
BRANCH  12  14
HETATM   14  O   UNL     1     -10.171  13.037  65.532  1.00  0.00    -0.284 OA 
BRANCH  14  15
HETATM   15  C   UNL     1     -10.778  14.038  64.707  1.00  0.00    -0.427 C  
BRANCH  15  16
HETATM   16  C   UNL     1     -11.396  15.062  65.664  1.00  0.00    -0.297 C  
BRANCH  16  17
HETATM   17  N   UNL     1     -10.439  15.713  66.543  1.00  0.00    -0.297 N  
HETATM   18  C   UNL     1     -10.728  15.919  67.870  1.00  0.00    -0.312 C  
HETATM   19  H   UNL     1      -9.540  16.020  66.170  1.00  0.00     0.000 HD 
HETATM   20  O   UNL     1     -11.825  15.683  68.366  1.00  0.00    -0.346 OA 
BRANCH  18  21
HETATM   21  C   UNL     1      -9.631  16.555  68.699  1.00  0.00    -0.241 C  
BRANCH  21  22
HETATM   22  N   UNL     1      -9.335  17.899  68.160  1.00  0.00    -0.277 NA 
HETATM   23  C   UNL     1      -8.145  18.132  67.550  1.00  0.00    -0.238 A  
HETATM   24  C   UNL     1      -7.840  19.393  67.057  1.00  0.00    -0.275 A  
HETATM   25  C   UNL     1      -8.771  20.415  67.174  1.00  0.00    -0.413 A  
HETATM   26  C   UNL     1      -9.991  20.158  67.785  1.00  0.00    -0.549 A  
HETATM   27  C   UNL     1     -10.254  18.884  68.273  1.00  0.00    -0.380 A  
ENDBRANCH  21  22
ENDBRANCH  18  21
ENDBRANCH  16  17
ENDBRANCH  15  16
ENDBRANCH  14  15
ENDBRANCH  12  14
ENDBRANCH  11  12
ENDBRANCH  10  11
ENDBRANCH   9  10
ENDBRANCH   8   9
ENDBRANCH   7   8
ENDBRANCH   6   7
ENDBRANCH   5   6
ENDBRANCH   4   5
ENDBRANCH   3   4
ENDBRANCH   2   3
TORSDOF 16
ENDMDL
MODEL      240
REMARK 921   NORMALIZED FREE ENERGY PREDICTED BY IDOCK:   -3.49 KCAL/MOL
REMARK 922        TOTAL FREE ENERGY PREDICTED BY IDOCK:   -8.84 KCAL/MOL
REMARK 923 INTER-LIGAND FREE ENERGY PREDICTED BY IDOCK:   -7.77 KCAL/MOL
REMARK 924 INTRA-LIGAND FREE ENERGY PREDICTED BY IDOCK:   -1.07 KCAL/MOL
REMARK 927      BINDING AFFINITY PREDICTED BY RF-SCORE:    0.00 PKD
ROOT
HETATM    1  C   UNL     1      -8.337   3.689  70.891  1.00  0.00    -0.088 C  
HETATM    2  C   UNL     1      -8.679   4.887  70.022  1.00  0.00    -0.118 C  
ENDROOT
BRANCH   2   3
HETATM    3  C   UNL     1     -10.169   4.919  69.691  1.00  0.00    -0.265 C  
BRANCH   3   4
HETATM    4  C   UNL     1     -10.840   6.158  70.277  1.00  0.00    -0.385 C  
BRANCH   4   5
HETATM    5  C   UNL     1     -10.748   7.335  69.306  1.00  0.00    -0.212 C  
BRANCH   5   6
HETATM    6  C   UNL     1     -10.875   6.853  67.867  1.00  0.00    -0.287 C  
BRANCH   6   7
HETATM    7  C   UNL     1      -9.772   7.428  66.983  1.00  0.00    -0.248 C  
BRANCH   7   8
HETATM    8  C   UNL     1     -10.244   8.741  66.363  1.00  0.00    -0.256 C  
BRANCH   8   9
HETATM    9  C   UNL     1      -9.180   9.825  66.451  1.00  0.00    -0.200 C  
BRANCH   9  10
HETATM   10  C   UNL     1      -9.600  11.107  65.715  1.00  0.00    -0.255 C  
BRANCH  10  11
HETATM   11  C   UNL     1     -10.268  10.860  64.355  1.00  0.00    -0.423 C  
BRANCH  11  12
HETATM   12  C   UNL     1     -11.213  11.987  64.022  1.00  0.00    -0.397 C  
HETATM   13  O   UNL     1     -12.190  11.894  63.296  1.00  0.00    -0.506 OA 
BRANCH  12  14
HETATM   14  O   UNL     1     -10.922  13.068  64.798  1.00  0.00    -0.299 OA 
BRANCH  14  15
HETATM   15  C   UNL     1     -12.071  13.807  65.229  1.00  0.00    -0.407 C  
BRANCH  15  16
HETATM   16  C   UNL     1     -12.103  13.691  66.757  1.00  0.00    -0.399 C  
BRANCH  16  17
HETATM   17  N   UNL     1     -11.898  14.949  67.456  1.00  0.00    -0.432 N  
HETATM   18  C   UNL     1     -11.389  14.970  68.732  1.00  0.00    -0.291 C  
HETATM   19  H   UNL     1     -12.136  15.827  66.994  1.00  0.00     0.000 HD 
HETATM   20  O   UNL     1     -11.186  13.958  69.395  1.00  0.00    -0.253 OA 
BRANCH  18  21
HETATM   21  C   UNL     1     -11.167  16.341  69.337  1.00  0.00    -0.311 C  
BRANCH  21  22
HETATM   22  N   UNL     1     -10.242  17.105  68.474  1.00  0.00    -0.323 NA 
HETATM   23  C   UNL     1     -10.703  18.170  67.770  1.00  0.00    -0.335 A  
HETATM   24  C   UNL     1      -9.855  18.886  66.936  1.00  0.00    -0.371 A  
HETATM   25  C   UNL     1      -8.521  18.518  66.841  1.00  0.00    -0.277 A  
HETATM   26  C   UNL     1      -8.058  17.437  67.580  1.00  0.00    -0.203 A  
HETATM   27  C   UNL     1      -8.942  16.741  68.395  1.00  0.00    -0.233 A  
ENDBRANCH  21  22
ENDBRANCH  18  21
ENDBRANCH  16  17
ENDBRANCH  15  16
ENDBRANCH  14  15
ENDBRANCH  12  14
ENDBRANCH  11  12
ENDBRANCH  10  11
ENDBRANCH   9  10
ENDBRANCH   8   9
ENDBRANCH   7   8
ENDBRANCH   6   7
ENDBRANCH   5   6
ENDBRANCH   4   5
ENDBRANCH   3   4
ENDBRANCH   2   3
TORSDOF 16
ENDMDL
MODEL      241
REMARK 921   NORMALIZED FREE ENERGY PREDICTED BY IDOCK:   -3.49 KCAL/MOL
REMARK 922        TOTAL FREE ENERGY PREDICTED BY IDOCK:   -8.84 KCAL/MOL
REMARK 923 INTER-LIGAND FREE ENERGY PREDICTED BY IDOCK:   -6.88 KCAL/MOL
REMARK 924 INTRA-LIGAND FREE ENERGY PREDICTED BY IDOCK:   -1.96 KCAL/MOL
REMARK 927      BINDING AFFINITY PREDICTED BY RF-SCORE:    0.00 PKD
ROOT
HETATM    1  C   UNL     1      -6.863  12.040  68.736  1.00  0.00    -0.094 C  
HETATM    2  C   UNL     1      -8.199  11.918  68.025  1.00  0.00    -0.157 C  
ENDROOT
BRANCH   2   3
HETATM    3  C   UNL     1      -9.142  10.986  68.783  1.00  0.00    -0.161 C  
BRANCH   3   4
HETATM    4  C   UNL     1      -8.456   9.668  69.130  1.00  0.00    -0.143 C  
BRANCH   4   5
HETATM    5  C   UNL     1      -9.182   8.491  68.481  1.00  0.00    -0.135 C  
BRANCH   5   6
HETATM    6  C   UNL     1      -8.341   7.895  67.359  1.00  0.00    -0.123 C  
BRANCH   6   7
HETATM    7  C   UNL     1      -6.900   8.396  67.409  1.00  0.00    -0.070 C  
BRANCH   7   8
HETATM    8  C   UNL     1      -6.522   9.002  66.060  1.00  0.00    -0.064 C  
BRANCH   8   9
HETATM    9  C   UNL     1      -7.689   8.987  65.084  1.00  0.00    -0.101 C  
BRANCH   9  10
HETATM   10  C   UNL     1      -8.034  10.395  64.574  1.00  0.00    -0.093 C  
BRANCH  10  11
HETATM   11  C   UNL     1      -9.485  10.553  64.099  1.00  0.00    -0.342 C  
BRANCH  11  12
HETATM   12  C   UNL     1     -10.375  10.940  65.254  1.00  0.00    -0.268 C  
HETATM   13  O   UNL     1     -10.893  10.158  66.035  1.00  0.00     0.020 OA 
BRANCH  12  14
HETATM   14  O   UNL     1     -10.360  12.294  65.404  1.00  0.00    -0.256 OA 
BRANCH  14  15
HETATM   15  C   UNL     1     -11.311  12.986  64.585  1.00  0.00    -0.327 C  
BRANCH  15  16
HETATM   16  C   UNL     1     -12.474  13.363  65.509  1.00  0.00    -0.483 C  
BRANCH  16  17
HETATM   17  N   UNL     1     -12.079  14.107  66.694  1.00  0.00    -0.447 N  
HETATM   18  C   UNL     1     -11.898  13.469  67.897  1.00  0.00    -0.362 C  
HETATM   19  H   UNL     1     -11.934  15.114  66.631  1.00  0.00     0.000 HD 
HETATM   20  O   UNL     1     -12.160  12.284  68.079  1.00  0.00    -0.439 OA 
BRANCH  18  21
HETATM   21  C   UNL     1     -11.431  14.337  69.047  1.00  0.00    -0.284 C  
BRANCH  21  22
HETATM   22  N   UNL     1     -12.410  14.243  70.151  1.00  0.00    -0.340 NA 
HETATM   23  C   UNL     1     -12.502  13.097  70.872  1.00  0.00    -0.323 A  
HETATM   24  C   UNL     1     -13.430  12.982  71.898  1.00  0.00    -0.498 A  
HETATM   25  C   UNL     1     -14.254  14.057  72.195  1.00  0.00    -0.628 A  
HETATM   26  C   UNL     1     -14.138  15.229  71.461  1.00  0.00    -0.625 A  
HETATM   27  C   UNL     1     -13.202  15.300  70.436  1.00  0.00    -0.131 A  
ENDBRANCH  21  22
ENDBRANCH  18  21
ENDBRANCH  16  17
ENDBRANCH  15  16
ENDBRANCH  14  15
ENDBRANCH  12  14
ENDBRANCH  11  12
ENDBRANCH  10  11
ENDBRANCH   9  10
ENDBRANCH   8   9
ENDBRANCH   7   8
ENDBRANCH   6   7
ENDBRANCH   5   6
ENDBRANCH   4   5
ENDBRANCH   3   4
ENDBRANCH   2   3
TORSDOF 16
ENDMDL
MODEL      242
REMARK 921   NORMALIZED FREE ENERGY PREDICTED BY IDOCK:   -3.48 KCAL/MOL
REMARK 922        TOTAL FREE ENERGY PREDICTED BY IDOCK:   -8.82 KCAL/MOL
REMARK 923 INTER-LIGAND FREE ENERGY PREDICTED BY IDOCK:   -7.78 KCAL/MOL
REMARK 924 INTRA-LIGAND FREE ENERGY PREDICTED BY IDOCK:   -1.04 KCAL/MOL
REMARK 927      BINDING AFFINITY PREDICTED BY RF-SCORE:    0.00 PKD
ROOT
HETATM    1  C   UNL     1      -7.313  12.193  68.656  1.00  0.00    -0.109 C  
HETATM    2  C   UNL     1      -6.086  12.936  68.154  1.00  0.00    -0.094 C  
ENDROOT
BRANCH   2   3
HETATM    3  C   UNL     1      -5.446  13.757  69.271  1.00  0.00    -0.078 C  
BRANCH   3   4
HETATM    4  C   UNL     1      -6.320  14.948  69.652  1.00  0.00    -0.142 C  
BRANCH   4   5
HETATM    5  C   UNL     1      -5.461  16.132  70.095  1.00  0.00    -0.167 C  
BRANCH   5   6
HETATM    6  C   UNL     1      -5.201  17.073  68.926  1.00  0.00    -0.137 C  
BRANCH   6   7
HETATM    7  C   UNL     1      -6.493  17.437  68.200  1.00  0.00    -0.168 C  
BRANCH   7   8
HETATM    8  C   UNL     1      -6.423  18.886  67.725  1.00  0.00    -0.220 C  
BRANCH   8   9
HETATM    9  C   UNL     1      -7.397  19.778  68.481  1.00  0.00    -0.351 C  
BRANCH   9  10
HETATM   10  C   UNL     1      -8.423  20.435  67.545  1.00  0.00    -0.349 C  
BRANCH  10  11
HETATM   11  C   UNL     1      -8.797  19.582  66.324  1.00  0.00    -0.391 C  
BRANCH  11  12
HETATM   12  C   UNL     1     -10.286  19.350  66.282  1.00  0.00    -0.493 C  
HETATM   13  O   UNL     1     -11.031  19.721  65.387  1.00  0.00    -0.414 OA 
BRANCH  12  14
HETATM   14  O   UNL     1     -10.643  18.508  67.290  1.00  0.00    -0.405 OA 
BRANCH  14  15
HETATM   15  C   UNL     1      -9.996  17.230  67.244  1.00  0.00    -0.283 C  
BRANCH  15  16
HETATM   16  C   UNL     1     -10.959  16.241  67.910  1.00  0.00    -0.310 C  
BRANCH  16  17
HETATM   17  N   UNL     1     -10.687  14.846  67.605  1.00  0.00    -0.265 N  
HETATM   18  C   UNL     1     -11.429  13.842  68.178  1.00  0.00    -0.312 C  
HETATM   19  H   UNL     1      -9.936  14.608  66.957  1.00  0.00     0.000 HD 
HETATM   20  O   UNL     1     -12.271  14.039  69.049  1.00  0.00    -0.346 OA 
BRANCH  18  21
HETATM   21  C   UNL     1     -11.092  12.431  67.742  1.00  0.00    -0.247 C  
BRANCH  21  22
HETATM   22  N   UNL     1     -11.256  12.328  66.276  1.00  0.00    -0.306 NA 
HETATM   23  C   UNL     1     -12.223  13.049  65.655  1.00  0.00    -0.466 A  
HETATM   24  C   UNL     1     -12.407  12.948  64.283  1.00  0.00    -0.458 A  
HETATM   25  C   UNL     1     -11.579  12.116  63.543  1.00  0.00    -0.562 A  
HETATM   26  C   UNL     1     -10.582  11.398  64.189  1.00  0.00    -0.430 A  
HETATM   27  C   UNL     1     -10.438  11.520  65.565  1.00  0.00    -0.275 A  
ENDBRANCH  21  22
ENDBRANCH  18  21
ENDBRANCH  16  17
ENDBRANCH  15  16
ENDBRANCH  14  15
ENDBRANCH  12  14
ENDBRANCH  11  12
ENDBRANCH  10  11
ENDBRANCH   9  10
ENDBRANCH   8   9
ENDBRANCH   7   8
ENDBRANCH   6   7
ENDBRANCH   5   6
ENDBRANCH   4   5
ENDBRANCH   3   4
ENDBRANCH   2   3
TORSDOF 16
ENDMDL
MODEL      243
REMARK 921   NORMALIZED FREE ENERGY PREDICTED BY IDOCK:   -3.47 KCAL/MOL
REMARK 922        TOTAL FREE ENERGY PREDICTED BY IDOCK:   -8.81 KCAL/MOL
REMARK 923 INTER-LIGAND FREE ENERGY PREDICTED BY IDOCK:   -8.35 KCAL/MOL
REMARK 924 INTRA-LIGAND FREE ENERGY PREDICTED BY IDOCK:   -0.45 KCAL/MOL
REMARK 927      BINDING AFFINITY PREDICTED BY RF-SCORE:    0.00 PKD
ROOT
HETATM    1  C   UNL     1     -12.598  15.782  74.415  1.00  0.00    -0.693 C  
HETATM    2  C   UNL     1     -12.577  15.885  72.899  1.00  0.00    -0.581 C  
ENDROOT
BRANCH   2   3
HETATM    3  C   UNL     1     -13.938  15.530  72.305  1.00  0.00    -0.642 C  
BRANCH   3   4
HETATM    4  C   UNL     1     -14.007  14.054  71.923  1.00  0.00    -0.537 C  
BRANCH   4   5
HETATM    5  C   UNL     1     -12.667  13.576  71.365  1.00  0.00    -0.423 C  
BRANCH   5   6
HETATM    6  C   UNL     1     -12.401  14.198  70.000  1.00  0.00    -0.403 C  
BRANCH   6   7
HETATM    7  C   UNL     1     -10.934  14.588  69.837  1.00  0.00    -0.147 C  
BRANCH   7   8
HETATM    8  C   UNL     1     -10.534  14.471  68.369  1.00  0.00    -0.246 C  
BRANCH   8   9
HETATM    9  C   UNL     1     -11.749  14.394  67.454  1.00  0.00    -0.424 C  
BRANCH   9  10
HETATM   10  C   UNL     1     -11.621  13.268  66.417  1.00  0.00    -0.387 C  
BRANCH  10  11
HETATM   11  C   UNL     1     -12.717  13.275  65.343  1.00  0.00    -0.460 C  
BRANCH  11  12
HETATM   12  C   UNL     1     -12.287  12.460  64.149  1.00  0.00    -0.467 C  
HETATM   13  O   UNL     1     -13.007  12.155  63.210  1.00  0.00    -0.735 OA 
BRANCH  12  14
HETATM   14  O   UNL     1     -10.938  12.278  64.185  1.00  0.00    -0.308 OA 
BRANCH  14  15
HETATM   15  C   UNL     1     -10.477  11.153  63.426  1.00  0.00    -0.317 C  
BRANCH  15  16
HETATM   16  C   UNL     1      -8.961  11.088  63.639  1.00  0.00    -0.085 C  
BRANCH  16  17
HETATM   17  N   UNL     1      -8.545  10.187  64.701  1.00  0.00    -0.172 N  
HETATM   18  C   UNL     1      -8.192   8.889  64.424  1.00  0.00    -0.164 C  
HETATM   19  H   UNL     1      -8.514  10.523  65.663  1.00  0.00     0.000 HD 
HETATM   20  O   UNL     1      -8.310   8.379  63.314  1.00  0.00    -0.157 OA 
BRANCH  18  21
HETATM   21  C   UNL     1      -7.721   8.061  65.602  1.00  0.00    -0.094 C  
BRANCH  21  22
HETATM   22  N   UNL     1      -8.586   6.870  65.732  1.00  0.00    -0.146 NA 
HETATM   23  C   UNL     1      -9.353   6.713  66.840  1.00  0.00    -0.148 A  
HETATM   24  C   UNL     1     -10.155   5.590  66.990  1.00  0.00    -0.226 A  
HETATM   25  C   UNL     1     -10.183   4.633  65.986  1.00  0.00    -0.306 A  
HETATM   26  C   UNL     1      -9.406   4.814  64.850  1.00  0.00    -0.090 A  
HETATM   27  C   UNL     1      -8.611   5.948  64.743  1.00  0.00     0.003 A  
ENDBRANCH  21  22
ENDBRANCH  18  21
ENDBRANCH  16  17
ENDBRANCH  15  16
ENDBRANCH  14  15
ENDBRANCH  12  14
ENDBRANCH  11  12
ENDBRANCH  10  11
ENDBRANCH   9  10
ENDBRANCH   8   9
ENDBRANCH   7   8
ENDBRANCH   6   7
ENDBRANCH   5   6
ENDBRANCH   4   5
ENDBRANCH   3   4
ENDBRANCH   2   3
TORSDOF 16
ENDMDL
MODEL      244
REMARK 921   NORMALIZED FREE ENERGY PREDICTED BY IDOCK:   -3.47 KCAL/MOL
REMARK 922        TOTAL FREE ENERGY PREDICTED BY IDOCK:   -8.80 KCAL/MOL
REMARK 923 INTER-LIGAND FREE ENERGY PREDICTED BY IDOCK:   -6.62 KCAL/MOL
REMARK 924 INTRA-LIGAND FREE ENERGY PREDICTED BY IDOCK:   -2.18 KCAL/MOL
REMARK 927      BINDING AFFINITY PREDICTED BY RF-SCORE:    0.00 PKD
ROOT
HETATM    1  C   UNL     1      -9.333   9.392  70.661  1.00  0.00    -0.314 C  
HETATM    2  C   UNL     1     -10.791   9.340  71.082  1.00  0.00    -0.407 C  
ENDROOT
BRANCH   2   3
HETATM    3  C   UNL     1     -11.431   8.012  70.681  1.00  0.00    -0.237 C  
BRANCH   3   4
HETATM    4  C   UNL     1     -12.276   7.441  71.816  1.00  0.00    -0.359 C  
BRANCH   4   5
HETATM    5  C   UNL     1     -11.847   6.012  72.146  1.00  0.00    -0.304 C  
BRANCH   5   6
HETATM    6  C   UNL     1     -10.670   6.014  73.112  1.00  0.00    -0.285 C  
BRANCH   6   7
HETATM    7  C   UNL     1      -9.452   5.314  72.516  1.00  0.00    -0.164 C  
BRANCH   7   8
HETATM    8  C   UNL     1      -8.245   6.246  72.577  1.00  0.00    -0.106 C  
BRANCH   8   9
HETATM    9  C   UNL     1      -7.452   6.234  71.278  1.00  0.00    -0.093 C  
BRANCH   9  10
HETATM   10  C   UNL     1      -8.337   5.908  70.065  1.00  0.00    -0.122 C  
BRANCH  10  11
HETATM   11  C   UNL     1      -7.727   6.314  68.716  1.00  0.00    -0.100 C  
BRANCH  11  12
HETATM   12  C   UNL     1      -8.236   5.414  67.617  1.00  0.00    -0.100 C  
HETATM   13  O   UNL     1      -8.272   4.195  67.668  1.00  0.00    -0.094 OA 
BRANCH  12  14
HETATM   14  O   UNL     1      -8.820   6.169  66.646  1.00  0.00    -0.120 OA 
BRANCH  14  15
HETATM   15  C   UNL     1     -10.246   6.047  66.586  1.00  0.00    -0.189 C  
BRANCH  15  16
HETATM   16  C   UNL     1     -10.809   7.405  67.017  1.00  0.00    -0.237 C  
BRANCH  16  17
HETATM   17  N   UNL     1     -10.139   8.547  66.417  1.00  0.00    -0.407 N  
HETATM   18  C   UNL     1     -10.339   9.816  66.903  1.00  0.00    -0.234 C  
HETATM   19  H   UNL     1      -9.512   8.405  65.625  1.00  0.00     0.000 HD 
HETATM   20  O   UNL     1     -11.160  10.083  67.775  1.00  0.00    -0.286 OA 
BRANCH  18  21
HETATM   21  C   UNL     1      -9.544  10.919  66.235  1.00  0.00    -0.200 C  
BRANCH  21  22
HETATM   22  N   UNL     1     -10.442  11.693  65.351  1.00  0.00    -0.265 NA 
HETATM   23  C   UNL     1     -10.846  12.934  65.723  1.00  0.00    -0.269 A  
HETATM   24  C   UNL     1     -11.706  13.667  64.917  1.00  0.00    -0.379 A  
HETATM   25  C   UNL     1     -12.137  13.129  63.713  1.00  0.00    -0.563 A  
HETATM   26  C   UNL     1     -11.702  11.865  63.337  1.00  0.00    -0.500 A  
HETATM   27  C   UNL     1     -10.849  11.161  64.177  1.00  0.00    -0.285 A  
ENDBRANCH  21  22
ENDBRANCH  18  21
ENDBRANCH  16  17
ENDBRANCH  15  16
ENDBRANCH  14  15
ENDBRANCH  12  14
ENDBRANCH  11  12
ENDBRANCH  10  11
ENDBRANCH   9  10
ENDBRANCH   8   9
ENDBRANCH   7   8
ENDBRANCH   6   7
ENDBRANCH   5   6
ENDBRANCH   4   5
ENDBRANCH   3   4
ENDBRANCH   2   3
TORSDOF 16
ENDMDL
MODEL      245
REMARK 921   NORMALIZED FREE ENERGY PREDICTED BY IDOCK:   -3.47 KCAL/MOL
REMARK 922        TOTAL FREE ENERGY PREDICTED BY IDOCK:   -8.79 KCAL/MOL
REMARK 923 INTER-LIGAND FREE ENERGY PREDICTED BY IDOCK:   -7.49 KCAL/MOL
REMARK 924 INTRA-LIGAND FREE ENERGY PREDICTED BY IDOCK:   -1.30 KCAL/MOL
REMARK 927      BINDING AFFINITY PREDICTED BY RF-SCORE:    0.00 PKD
ROOT
HETATM    1  C   UNL     1     -13.578  15.811  72.858  1.00  0.00    -0.660 C  
HETATM    2  C   UNL     1     -14.088  14.705  71.950  1.00  0.00    -0.606 C  
ENDROOT
BRANCH   2   3
HETATM    3  C   UNL     1     -13.541  13.346  72.379  1.00  0.00    -0.708 C  
BRANCH   3   4
HETATM    4  C   UNL     1     -12.704  12.711  71.272  1.00  0.00    -0.354 C  
BRANCH   4   5
HETATM    5  C   UNL     1     -11.876  13.768  70.544  1.00  0.00    -0.296 C  
BRANCH   5   6
HETATM    6  C   UNL     1     -11.911  13.535  69.039  1.00  0.00    -0.376 C  
BRANCH   6   7
HETATM    7  C   UNL     1     -11.638  14.822  68.264  1.00  0.00    -0.348 C  
BRANCH   7   8
HETATM    8  C   UNL     1     -11.559  14.513  66.771  1.00  0.00    -0.388 C  
BRANCH   8   9
HETATM    9  C   UNL     1     -10.803  13.220  66.499  1.00  0.00    -0.288 C  
BRANCH   9  10
HETATM   10  C   UNL     1      -9.298  13.363  66.771  1.00  0.00    -0.260 C  
BRANCH  10  11
HETATM   11  C   UNL     1      -8.490  12.080  66.525  1.00  0.00    -0.065 C  
BRANCH  11  12
HETATM   12  C   UNL     1      -7.267  12.053  67.407  1.00  0.00    -0.144 C  
HETATM   13  O   UNL     1      -6.874  12.984  68.093  1.00  0.00    -0.081 OA 
BRANCH  12  14
HETATM   14  O   UNL     1      -6.779  10.783  67.468  1.00  0.00    -0.070 OA 
BRANCH  14  15
HETATM   15  C   UNL     1      -7.590   9.811  66.797  1.00  0.00    -0.095 C  
BRANCH  15  16
HETATM   16  C   UNL     1      -7.938   8.750  67.847  1.00  0.00    -0.107 C  
BRANCH  16  17
HETATM   17  N   UNL     1      -8.897   9.191  68.846  1.00  0.00    -0.137 N  
HETATM   18  C   UNL     1     -10.242   9.215  68.569  1.00  0.00    -0.198 C  
HETATM   19  H   UNL     1      -8.567   9.486  69.765  1.00  0.00     0.000 HD 
HETATM   20  O   UNL     1     -10.706   8.985  67.456  1.00  0.00    -0.267 OA 
BRANCH  18  21
HETATM   21  C   UNL     1     -11.149   9.639  69.706  1.00  0.00    -0.217 C  
BRANCH  21  22
HETATM   22  N   UNL     1     -11.248   8.533  70.682  1.00  0.00    -0.254 NA 
HETATM   23  C   UNL     1     -11.654   7.305  70.268  1.00  0.00    -0.174 A  
HETATM   24  C   UNL     1     -11.774   6.260  71.173  1.00  0.00    -0.292 A  
HETATM   25  C   UNL     1     -11.457   6.473  72.507  1.00  0.00    -0.274 A  
HETATM   26  C   UNL     1     -11.027   7.729  72.913  1.00  0.00    -0.467 A  
HETATM   27  C   UNL     1     -10.929   8.750  71.977  1.00  0.00    -0.368 A  
ENDBRANCH  21  22
ENDBRANCH  18  21
ENDBRANCH  16  17
ENDBRANCH  15  16
ENDBRANCH  14  15
ENDBRANCH  12  14
ENDBRANCH  11  12
ENDBRANCH  10  11
ENDBRANCH   9  10
ENDBRANCH   8   9
ENDBRANCH   7   8
ENDBRANCH   6   7
ENDBRANCH   5   6
ENDBRANCH   4   5
ENDBRANCH   3   4
ENDBRANCH   2   3
TORSDOF 16
ENDMDL
MODEL      246
REMARK 921   NORMALIZED FREE ENERGY PREDICTED BY IDOCK:   -3.46 KCAL/MOL
REMARK 922        TOTAL FREE ENERGY PREDICTED BY IDOCK:   -8.78 KCAL/MOL
REMARK 923 INTER-LIGAND FREE ENERGY PREDICTED BY IDOCK:   -7.37 KCAL/MOL
REMARK 924 INTRA-LIGAND FREE ENERGY PREDICTED BY IDOCK:   -1.41 KCAL/MOL
REMARK 927      BINDING AFFINITY PREDICTED BY RF-SCORE:    0.00 PKD
ROOT
HETATM    1  C   UNL     1      -9.741   4.749  67.823  1.00  0.00    -0.202 C  
HETATM    2  C   UNL     1      -8.308   5.173  67.552  1.00  0.00    -0.106 C  
ENDROOT
BRANCH   2   3
HETATM    3  C   UNL     1      -7.568   5.472  68.854  1.00  0.00    -0.087 C  
BRANCH   3   4
HETATM    4  C   UNL     1      -8.461   6.224  69.837  1.00  0.00    -0.130 C  
BRANCH   4   5
HETATM    5  C   UNL     1      -8.284   5.681  71.255  1.00  0.00    -0.125 C  
BRANCH   5   6
HETATM    6  C   UNL     1      -9.484   4.834  71.658  1.00  0.00    -0.206 C  
BRANCH   6   7
HETATM    7  C   UNL     1     -10.795   5.598  71.486  1.00  0.00    -0.297 C  
BRANCH   7   8
HETATM    8  C   UNL     1     -11.256   6.133  72.839  1.00  0.00    -0.250 C  
BRANCH   8   9
HETATM    9  C   UNL     1     -11.156   7.650  72.913  1.00  0.00    -0.448 C  
BRANCH   9  10
HETATM   10  C   UNL     1     -11.655   8.325  71.626  1.00  0.00    -0.337 C  
BRANCH  10  11
HETATM   11  C   UNL     1     -10.626   9.251  70.962  1.00  0.00    -0.386 C  
BRANCH  11  12
HETATM   12  C   UNL     1     -11.298  10.497  70.444  1.00  0.00    -0.328 C  
HETATM   13  O   UNL     1     -12.240  11.062  70.978  1.00  0.00    -0.354 OA 
BRANCH  12  14
HETATM   14  O   UNL     1     -10.581  10.999  69.401  1.00  0.00    -0.223 OA 
BRANCH  14  15
HETATM   15  C   UNL     1     -10.549  10.149  68.248  1.00  0.00    -0.226 C  
BRANCH  15  16
HETATM   16  C   UNL     1     -10.100  11.033  67.079  1.00  0.00    -0.196 C  
BRANCH  16  17
HETATM   17  N   UNL     1     -10.624  12.388  67.119  1.00  0.00    -0.223 N  
HETATM   18  C   UNL     1     -11.713  12.744  66.362  1.00  0.00    -0.403 C  
HETATM   19  H   UNL     1     -10.178  13.083  67.718  1.00  0.00     0.000 HD 
HETATM   20  O   UNL     1     -12.233  12.001  65.536  1.00  0.00    -0.483 OA 
BRANCH  18  21
HETATM   21  C   UNL     1     -12.204  14.168  66.529  1.00  0.00    -0.433 C  
BRANCH  21  22
HETATM   22  N   UNL     1     -11.804  14.662  67.864  1.00  0.00    -0.343 NA 
HETATM   23  C   UNL     1     -10.968  15.726  67.964  1.00  0.00    -0.330 A  
HETATM   24  C   UNL     1     -10.563  16.191  69.208  1.00  0.00    -0.280 A  
HETATM   25  C   UNL     1     -11.036  15.570  70.355  1.00  0.00    -0.357 A  
HETATM   26  C   UNL     1     -11.905  14.494  70.238  1.00  0.00    -0.373 A  
HETATM   27  C   UNL     1     -12.278  14.054  68.974  1.00  0.00    -0.245 A  
ENDBRANCH  21  22
ENDBRANCH  18  21
ENDBRANCH  16  17
ENDBRANCH  15  16
ENDBRANCH  14  15
ENDBRANCH  12  14
ENDBRANCH  11  12
ENDBRANCH  10  11
ENDBRANCH   9  10
ENDBRANCH   8   9
ENDBRANCH   7   8
ENDBRANCH   6   7
ENDBRANCH   5   6
ENDBRANCH   4   5
ENDBRANCH   3   4
ENDBRANCH   2   3
TORSDOF 16
ENDMDL
MODEL      247
REMARK 921   NORMALIZED FREE ENERGY PREDICTED BY IDOCK:   -3.44 KCAL/MOL
REMARK 922        TOTAL FREE ENERGY PREDICTED BY IDOCK:   -8.74 KCAL/MOL
REMARK 923 INTER-LIGAND FREE ENERGY PREDICTED BY IDOCK:   -6.76 KCAL/MOL
REMARK 924 INTRA-LIGAND FREE ENERGY PREDICTED BY IDOCK:   -1.98 KCAL/MOL
REMARK 927      BINDING AFFINITY PREDICTED BY RF-SCORE:    0.00 PKD
ROOT
HETATM    1  C   UNL     1     -13.020  15.591  71.709  1.00  0.00    -0.528 C  
HETATM    2  C   UNL     1     -13.766  14.269  71.782  1.00  0.00    -0.496 C  
ENDROOT
BRANCH   2   3
HETATM    3  C   UNL     1     -12.905  13.123  71.255  1.00  0.00    -0.384 C  
BRANCH   3   4
HETATM    4  C   UNL     1     -12.194  13.514  69.963  1.00  0.00    -0.381 C  
BRANCH   4   5
HETATM    5  C   UNL     1     -11.538  12.295  69.315  1.00  0.00    -0.383 C  
BRANCH   5   6
HETATM    6  C   UNL     1     -11.778  12.293  67.811  1.00  0.00    -0.403 C  
BRANCH   6   7
HETATM    7  C   UNL     1     -12.150  13.681  67.299  1.00  0.00    -0.385 C  
BRANCH   7   8
HETATM    8  C   UNL     1     -12.189  13.671  65.773  1.00  0.00    -0.503 C  
BRANCH   8   9
HETATM    9  C   UNL     1     -11.423  14.843  65.178  1.00  0.00    -0.357 C  
BRANCH   9  10
HETATM   10  C   UNL     1     -10.720  15.681  66.257  1.00  0.00    -0.295 C  
BRANCH  10  11
HETATM   11  C   UNL     1      -9.189  15.706  66.135  1.00  0.00    -0.378 C  
BRANCH  11  12
HETATM   12  C   UNL     1      -8.575  14.655  67.026  1.00  0.00    -0.224 C  
HETATM   13  O   UNL     1      -8.717  13.450  66.892  1.00  0.00    -0.210 OA 
BRANCH  12  14
HETATM   14  O   UNL     1      -7.692  15.244  67.880  1.00  0.00    -0.120 OA 
BRANCH  14  15
HETATM   15  C   UNL     1      -6.318  14.954  67.594  1.00  0.00    -0.123 C  
BRANCH  15  16
HETATM   16  C   UNL     1      -5.932  13.780  68.500  1.00  0.00    -0.093 C  
BRANCH  16  17
HETATM   17  N   UNL     1      -5.848  12.500  67.817  1.00  0.00    -0.102 N  
HETATM   18  C   UNL     1      -6.445  11.381  68.344  1.00  0.00    -0.050 C  
HETATM   19  H   UNL     1      -5.340  12.432  66.935  1.00  0.00     0.000 HD 
HETATM   20  O   UNL     1      -6.976  11.356  69.450  1.00  0.00    -0.114 OA 
BRANCH  18  21
HETATM   21  C   UNL     1      -6.340  10.117  67.515  1.00  0.00    -0.059 C  
BRANCH  21  22
HETATM   22  N   UNL     1      -7.700   9.641  67.186  1.00  0.00    -0.092 NA 
HETATM   23  C   UNL     1      -8.287   8.694  67.961  1.00  0.00    -0.123 A  
HETATM   24  C   UNL     1      -9.554   8.217  67.654  1.00  0.00    -0.187 A  
HETATM   25  C   UNL     1     -10.229   8.732  66.557  1.00  0.00    -0.314 A  
HETATM   26  C   UNL     1      -9.624   9.713  65.783  1.00  0.00    -0.329 A  
HETATM   27  C   UNL     1      -8.351  10.156  66.119  1.00  0.00    -0.131 A  
ENDBRANCH  21  22
ENDBRANCH  18  21
ENDBRANCH  16  17
ENDBRANCH  15  16
ENDBRANCH  14  15
ENDBRANCH  12  14
ENDBRANCH  11  12
ENDBRANCH  10  11
ENDBRANCH   9  10
ENDBRANCH   8   9
ENDBRANCH   7   8
ENDBRANCH   6   7
ENDBRANCH   5   6
ENDBRANCH   4   5
ENDBRANCH   3   4
ENDBRANCH   2   3
TORSDOF 16
ENDMDL
MODEL      248
REMARK 921   NORMALIZED FREE ENERGY PREDICTED BY IDOCK:   -3.42 KCAL/MOL
REMARK 922        TOTAL FREE ENERGY PREDICTED BY IDOCK:   -8.71 KCAL/MOL
REMARK 923 INTER-LIGAND FREE ENERGY PREDICTED BY IDOCK:   -7.73 KCAL/MOL
REMARK 924 INTRA-LIGAND FREE ENERGY PREDICTED BY IDOCK:   -0.98 KCAL/MOL
REMARK 927      BINDING AFFINITY PREDICTED BY RF-SCORE:    0.00 PKD
ROOT
HETATM    1  C   UNL     1     -13.921   8.858  72.025  1.00  0.00    -0.497 C  
HETATM    2  C   UNL     1     -12.411   8.867  72.188  1.00  0.00    -0.459 C  
ENDROOT
BRANCH   2   3
HETATM    3  C   UNL     1     -11.820   7.489  71.901  1.00  0.00    -0.331 C  
BRANCH   3   4
HETATM    4  C   UNL     1     -10.311   7.569  71.684  1.00  0.00    -0.217 C  
BRANCH   4   5
HETATM    5  C   UNL     1      -9.748   6.206  71.281  1.00  0.00    -0.196 C  
BRANCH   5   6
HETATM    6  C   UNL     1     -10.725   5.469  70.375  1.00  0.00    -0.321 C  
BRANCH   6   7
HETATM    7  C   UNL     1     -10.294   5.536  68.912  1.00  0.00    -0.289 C  
BRANCH   7   8
HETATM    8  C   UNL     1     -10.909   6.768  68.253  1.00  0.00    -0.290 C  
BRANCH   8   9
HETATM    9  C   UNL     1     -10.384   6.977  66.840  1.00  0.00    -0.338 C  
BRANCH   9  10
HETATM   10  C   UNL     1      -9.393   8.148  66.759  1.00  0.00    -0.233 C  
BRANCH  10  11
HETATM   11  C   UNL     1      -9.934   9.378  66.016  1.00  0.00    -0.352 C  
BRANCH  11  12
HETATM   12  C   UNL     1      -9.017  10.558  66.219  1.00  0.00    -0.158 C  
HETATM   13  O   UNL     1      -7.798  10.503  66.260  1.00  0.00    -0.129 OA 
BRANCH  12  14
HETATM   14  O   UNL     1      -9.741  11.710  66.160  1.00  0.00    -0.216 OA 
BRANCH  14  15
HETATM   15  C   UNL     1     -10.609  11.916  67.281  1.00  0.00    -0.228 C  
BRANCH  15  16
HETATM   16  C   UNL     1      -9.777  12.657  68.334  1.00  0.00    -0.187 C  
BRANCH  16  17
HETATM   17  N   UNL     1     -10.366  13.905  68.791  1.00  0.00    -0.306 N  
HETATM   18  C   UNL     1      -9.589  15.022  68.981  1.00  0.00    -0.225 C  
HETATM   19  H   UNL     1     -11.368  13.952  68.973  1.00  0.00     0.000 HD 
HETATM   20  O   UNL     1      -8.365  15.015  68.894  1.00  0.00    -0.163 OA 
BRANCH  18  21
HETATM   21  C   UNL     1     -10.322  16.278  69.404  1.00  0.00    -0.278 C  
BRANCH  21  22
HETATM   22  N   UNL     1     -10.298  17.249  68.290  1.00  0.00    -0.340 NA 
HETATM   23  C   UNL     1     -10.124  18.569  68.551  1.00  0.00    -0.378 A  
HETATM   24  C   UNL     1     -10.121  19.499  67.520  1.00  0.00    -0.524 A  
HETATM   25  C   UNL     1     -10.278  19.066  66.212  1.00  0.00    -0.510 A  
HETATM   26  C   UNL     1     -10.438  17.710  65.957  1.00  0.00    -0.278 A  
HETATM   27  C   UNL     1     -10.444  16.814  67.018  1.00  0.00    -0.285 A  
ENDBRANCH  21  22
ENDBRANCH  18  21
ENDBRANCH  16  17
ENDBRANCH  15  16
ENDBRANCH  14  15
ENDBRANCH  12  14
ENDBRANCH  11  12
ENDBRANCH  10  11
ENDBRANCH   9  10
ENDBRANCH   8   9
ENDBRANCH   7   8
ENDBRANCH   6   7
ENDBRANCH   5   6
ENDBRANCH   4   5
ENDBRANCH   3   4
ENDBRANCH   2   3
TORSDOF 16
ENDMDL
MODEL      249
REMARK 921   NORMALIZED FREE ENERGY PREDICTED BY IDOCK:   -3.42 KCAL/MOL
REMARK 922        TOTAL FREE ENERGY PREDICTED BY IDOCK:   -8.71 KCAL/MOL
REMARK 923 INTER-LIGAND FREE ENERGY PREDICTED BY IDOCK:   -7.19 KCAL/MOL
REMARK 924 INTRA-LIGAND FREE ENERGY PREDICTED BY IDOCK:   -1.52 KCAL/MOL
REMARK 927      BINDING AFFINITY PREDICTED BY RF-SCORE:    0.00 PKD
ROOT
HETATM    1  C   UNL     1     -11.314   6.092  69.456  1.00  0.00    -0.426 C  
HETATM    2  C   UNL     1     -11.773   6.724  70.759  1.00  0.00    -0.439 C  
ENDROOT
BRANCH   2   3
HETATM    3  C   UNL     1     -10.603   7.367  71.500  1.00  0.00    -0.226 C  
BRANCH   3   4
HETATM    4  C   UNL     1     -10.501   8.857  71.189  1.00  0.00    -0.336 C  
BRANCH   4   5
HETATM    5  C   UNL     1      -9.059   9.248  70.869  1.00  0.00    -0.288 C  
BRANCH   5   6
HETATM    6  C   UNL     1      -8.751   9.001  69.398  1.00  0.00    -0.142 C  
BRANCH   6   7
HETATM    7  C   UNL     1      -7.420   9.627  68.989  1.00  0.00    -0.075 C  
BRANCH   7   8
HETATM    8  C   UNL     1      -7.644  11.077  68.570  1.00  0.00    -0.114 C  
BRANCH   8   9
HETATM    9  C   UNL     1      -8.624  11.187  67.410  1.00  0.00    -0.137 C  
BRANCH   9  10
HETATM   10  C   UNL     1      -8.006  10.717  66.085  1.00  0.00    -0.151 C  
BRANCH  10  11
HETATM   11  C   UNL     1      -8.823   9.640  65.357  1.00  0.00    -0.204 C  
BRANCH  11  12
HETATM   12  C   UNL     1      -8.891   9.941  63.881  1.00  0.00    -0.227 C  
HETATM   13  O   UNL     1      -8.732   9.123  62.988  1.00  0.00    -0.213 OA 
BRANCH  12  14
HETATM   14  O   UNL     1      -9.340  11.214  63.697  1.00  0.00    -0.223 OA 
BRANCH  14  15
HETATM   15  C   UNL     1     -10.696  11.297  63.242  1.00  0.00    -0.202 C  
BRANCH  15  16
HETATM   16  C   UNL     1     -11.264  12.594  63.829  1.00  0.00    -0.463 C  
BRANCH  16  17
HETATM   17  N   UNL     1     -11.251  12.648  65.281  1.00  0.00    -0.292 N  
HETATM   18  C   UNL     1     -12.145  13.436  65.964  1.00  0.00    -0.438 C  
HETATM   19  H   UNL     1     -10.570  12.094  65.800  1.00  0.00     0.000 HD 
HETATM   20  O   UNL     1     -12.918  14.214  65.413  1.00  0.00    -0.706 OA 
BRANCH  18  21
HETATM   21  C   UNL     1     -12.074  13.367  67.475  1.00  0.00    -0.279 C  
BRANCH  21  22
HETATM   22  N   UNL     1     -11.207  14.459  67.968  1.00  0.00    -0.268 NA 
HETATM   23  C   UNL     1     -11.726  15.417  68.776  1.00  0.00    -0.351 A  
HETATM   24  C   UNL     1     -10.934  16.463  69.230  1.00  0.00    -0.322 A  
HETATM   25  C   UNL     1      -9.596  16.511  68.867  1.00  0.00    -0.261 A  
HETATM   26  C   UNL     1      -9.073  15.515  68.053  1.00  0.00    -0.182 A  
HETATM   27  C   UNL     1      -9.903  14.491  67.613  1.00  0.00    -0.223 A  
ENDBRANCH  21  22
ENDBRANCH  18  21
ENDBRANCH  16  17
ENDBRANCH  15  16
ENDBRANCH  14  15
ENDBRANCH  12  14
ENDBRANCH  11  12
ENDBRANCH  10  11
ENDBRANCH   9  10
ENDBRANCH   8   9
ENDBRANCH   7   8
ENDBRANCH   6   7
ENDBRANCH   5   6
ENDBRANCH   4   5
ENDBRANCH   3   4
ENDBRANCH   2   3
TORSDOF 16
ENDMDL
MODEL      250
REMARK 921   NORMALIZED FREE ENERGY PREDICTED BY IDOCK:   -3.42 KCAL/MOL
REMARK 922        TOTAL FREE ENERGY PREDICTED BY IDOCK:   -8.69 KCAL/MOL
REMARK 923 INTER-LIGAND FREE ENERGY PREDICTED BY IDOCK:   -7.49 KCAL/MOL
REMARK 924 INTRA-LIGAND FREE ENERGY PREDICTED BY IDOCK:   -1.21 KCAL/MOL
REMARK 927      BINDING AFFINITY PREDICTED BY RF-SCORE:    0.00 PKD
ROOT
HETATM    1  C   UNL     1      -9.248   4.432  71.158  1.00  0.00    -0.199 C  
HETATM    2  C   UNL     1     -10.625   5.006  70.872  1.00  0.00    -0.148 C  
ENDROOT
BRANCH   2   3
HETATM    3  C   UNL     1     -11.204   5.684  72.111  1.00  0.00    -0.288 C  
BRANCH   3   4
HETATM    4  C   UNL     1     -11.437   7.173  71.870  1.00  0.00    -0.305 C  
BRANCH   4   5
HETATM    5  C   UNL     1     -10.538   8.016  72.773  1.00  0.00    -0.420 C  
BRANCH   5   6
HETATM    6  C   UNL     1      -9.450   8.703  71.958  1.00  0.00    -0.370 C  
BRANCH   6   7
HETATM    7  C   UNL     1      -9.807   8.753  70.474  1.00  0.00    -0.224 C  
BRANCH   7   8
HETATM    8  C   UNL     1      -8.806   9.640  69.738  1.00  0.00    -0.224 C  
BRANCH   8   9
HETATM    9  C   UNL     1      -9.454  10.383  68.578  1.00  0.00    -0.159 C  
BRANCH   9  10
HETATM   10  C   UNL     1     -10.548  11.352  69.052  1.00  0.00    -0.224 C  
BRANCH  10  11
HETATM   11  C   UNL     1     -11.967  10.771  69.000  1.00  0.00    -0.258 C  
BRANCH  11  12
HETATM   12  C   UNL     1     -12.625  10.870  70.354  1.00  0.00    -0.294 C  
HETATM   13  O   UNL     1     -13.373  10.033  70.835  1.00  0.00    -0.382 OA 
BRANCH  12  14
HETATM   14  O   UNL     1     -12.112  11.935  71.031  1.00  0.00    -0.259 OA 
BRANCH  14  15
HETATM   15  C   UNL     1     -13.096  12.878  71.472  1.00  0.00    -0.298 C  
BRANCH  15  16
HETATM   16  C   UNL     1     -12.383  14.232  71.550  1.00  0.00    -0.339 C  
BRANCH  16  17
HETATM   17  N   UNL     1     -11.381  14.441  70.518  1.00  0.00    -0.496 N  
HETATM   18  C   UNL     1     -10.724  15.642  70.407  1.00  0.00    -0.317 C  
HETATM   19  H   UNL     1     -11.163  13.686  69.868  1.00  0.00     0.000 HD 
HETATM   20  O   UNL     1     -11.009  16.631  71.075  1.00  0.00     0.019 OA 
BRANCH  18  21
HETATM   21  C   UNL     1      -9.662  15.723  69.330  1.00  0.00    -0.286 C  
BRANCH  21  22
HETATM   22  N   UNL     1      -9.636  17.094  68.779  1.00  0.00    -0.273 NA 
HETATM   23  C   UNL     1     -10.649  17.517  67.980  1.00  0.00    -0.384 A  
HETATM   24  C   UNL     1     -10.631  18.794  67.435  1.00  0.00    -0.505 A  
HETATM   25  C   UNL     1      -9.577  19.646  67.730  1.00  0.00    -0.460 A  
HETATM   26  C   UNL     1      -8.557  19.207  68.562  1.00  0.00    -0.398 A  
HETATM   27  C   UNL     1      -8.608  17.919  69.079  1.00  0.00     0.003 A  
ENDBRANCH  21  22
ENDBRANCH  18  21
ENDBRANCH  16  17
ENDBRANCH  15  16
ENDBRANCH  14  15
ENDBRANCH  12  14
ENDBRANCH  11  12
ENDBRANCH  10  11
ENDBRANCH   9  10
ENDBRANCH   8   9
ENDBRANCH   7   8
ENDBRANCH   6   7
ENDBRANCH   5   6
ENDBRANCH   4   5
ENDBRANCH   3   4
ENDBRANCH   2   3
TORSDOF 16
ENDMDL
MODEL      251
REMARK 921   NORMALIZED FREE ENERGY PREDICTED BY IDOCK:   -3.41 KCAL/MOL
REMARK 922        TOTAL FREE ENERGY PREDICTED BY IDOCK:   -8.68 KCAL/MOL
REMARK 923 INTER-LIGAND FREE ENERGY PREDICTED BY IDOCK:   -7.15 KCAL/MOL
REMARK 924 INTRA-LIGAND FREE ENERGY PREDICTED BY IDOCK:   -1.53 KCAL/MOL
REMARK 927      BINDING AFFINITY PREDICTED BY RF-SCORE:    0.00 PKD
ROOT
HETATM    1  C   UNL     1     -11.036   6.406  66.864  1.00  0.00    -0.413 C  
HETATM    2  C   UNL     1     -10.784   6.715  68.330  1.00  0.00    -0.314 C  
ENDROOT
BRANCH   2   3
HETATM    3  C   UNL     1      -9.298   6.946  68.595  1.00  0.00    -0.135 C  
BRANCH   3   4
HETATM    4  C   UNL     1      -8.939   6.631  70.045  1.00  0.00    -0.144 C  
BRANCH   4   5
HETATM    5  C   UNL     1      -8.680   5.136  70.227  1.00  0.00    -0.132 C  
BRANCH   5   6
HETATM    6  C   UNL     1      -9.842   4.475  70.957  1.00  0.00    -0.266 C  
BRANCH   6   7
HETATM    7  C   UNL     1      -9.510   4.220  72.425  1.00  0.00    -0.175 C  
BRANCH   7   8
HETATM    8  C   UNL     1     -10.118   5.325  73.286  1.00  0.00    -0.198 C  
BRANCH   8   9
HETATM    9  C   UNL     1     -11.447   5.813  72.727  1.00  0.00    -0.304 C  
BRANCH   9  10
HETATM   10  C   UNL     1     -11.487   7.342  72.586  1.00  0.00    -0.337 C  
BRANCH  10  11
HETATM   11  C   UNL     1     -12.287   7.840  71.374  1.00  0.00    -0.346 C  
BRANCH  11  12
HETATM   12  C   UNL     1     -12.208   9.343  71.275  1.00  0.00    -0.345 C  
HETATM   13  O   UNL     1     -12.838  10.127  71.969  1.00  0.00    -0.411 OA 
BRANCH  12  14
HETATM   14  O   UNL     1     -11.197   9.691  70.432  1.00  0.00    -0.248 OA 
BRANCH  14  15
HETATM   15  C   UNL     1     -11.626  10.396  69.261  1.00  0.00    -0.176 C  
BRANCH  15  16
HETATM   16  C   UNL     1     -11.030  11.804  69.369  1.00  0.00    -0.125 C  
BRANCH  16  17
HETATM   17  N   UNL     1     -11.558  12.752  68.403  1.00  0.00    -0.303 N  
HETATM   18  C   UNL     1     -10.787  13.193  67.355  1.00  0.00    -0.255 C  
HETATM   19  H   UNL     1     -12.514  13.095  68.503  1.00  0.00     0.000 HD 
HETATM   20  O   UNL     1      -9.598  12.916  67.229  1.00  0.00    -0.209 OA 
BRANCH  18  21
HETATM   21  C   UNL     1     -11.463  14.135  66.380  1.00  0.00    -0.354 C  
BRANCH  21  22
HETATM   22  N   UNL     1     -11.054  15.522  66.688  1.00  0.00    -0.251 NA 
HETATM   23  C   UNL     1     -10.625  16.334  65.688  1.00  0.00    -0.346 A  
HETATM   24  C   UNL     1     -10.215  17.632  65.960  1.00  0.00    -0.301 A  
HETATM   25  C   UNL     1     -10.265  18.104  67.264  1.00  0.00    -0.377 A  
HETATM   26  C   UNL     1     -10.722  17.268  68.274  1.00  0.00    -0.349 A  
HETATM   27  C   UNL     1     -11.114  15.973  67.960  1.00  0.00    -0.334 A  
ENDBRANCH  21  22
ENDBRANCH  18  21
ENDBRANCH  16  17
ENDBRANCH  15  16
ENDBRANCH  14  15
ENDBRANCH  12  14
ENDBRANCH  11  12
ENDBRANCH  10  11
ENDBRANCH   9  10
ENDBRANCH   8   9
ENDBRANCH   7   8
ENDBRANCH   6   7
ENDBRANCH   5   6
ENDBRANCH   4   5
ENDBRANCH   3   4
ENDBRANCH   2   3
TORSDOF 16
ENDMDL
MODEL      252
REMARK 921   NORMALIZED FREE ENERGY PREDICTED BY IDOCK:   -3.41 KCAL/MOL
REMARK 922        TOTAL FREE ENERGY PREDICTED BY IDOCK:   -8.68 KCAL/MOL
REMARK 923 INTER-LIGAND FREE ENERGY PREDICTED BY IDOCK:   -6.67 KCAL/MOL
REMARK 924 INTRA-LIGAND FREE ENERGY PREDICTED BY IDOCK:   -2.00 KCAL/MOL
REMARK 927      BINDING AFFINITY PREDICTED BY RF-SCORE:    0.00 PKD
ROOT
HETATM    1  C   UNL     1     -11.780  14.802  65.011  1.00  0.00    -0.364 C  
HETATM    2  C   UNL     1     -12.749  13.646  65.191  1.00  0.00    -0.443 C  
ENDROOT
BRANCH   2   3
HETATM    3  C   UNL     1     -12.062  12.307  64.930  1.00  0.00    -0.422 C  
BRANCH   3   4
HETATM    4  C   UNL     1     -11.594  12.198  63.482  1.00  0.00    -0.562 C  
BRANCH   4   5
HETATM    5  C   UNL     1     -10.086  11.956  63.415  1.00  0.00    -0.464 C  
BRANCH   5   6
HETATM    6  C   UNL     1      -9.760  10.509  63.763  1.00  0.00    -0.385 C  
BRANCH   6   7
HETATM    7  C   UNL     1      -8.438  10.397  64.518  1.00  0.00    -0.172 C  
BRANCH   7   8
HETATM    8  C   UNL     1      -7.391   9.741  63.620  1.00  0.00    -0.121 C  
BRANCH   8   9
HETATM    9  C   UNL     1      -7.675   8.261  63.407  1.00  0.00    -0.142 C  
BRANCH   9  10
HETATM   10  C   UNL     1      -7.056   7.390  64.511  1.00  0.00    -0.061 C  
BRANCH  10  11
HETATM   11  C   UNL     1      -8.061   6.475  65.227  1.00  0.00    -0.133 C  
BRANCH  11  12
HETATM   12  C   UNL     1      -8.202   6.881  66.672  1.00  0.00    -0.115 C  
HETATM   13  O   UNL     1      -7.525   6.450  67.593  1.00  0.00    -0.089 OA 
BRANCH  12  14
HETATM   14  O   UNL     1      -9.065   7.930  66.767  1.00  0.00    -0.141 OA 
BRANCH  14  15
HETATM   15  C   UNL     1     -10.381   7.569  67.205  1.00  0.00    -0.313 C  
BRANCH  15  16
HETATM   16  C   UNL     1     -10.622   8.338  68.508  1.00  0.00    -0.100 C  
BRANCH  16  17
HETATM   17  N   UNL     1     -11.323   9.600  68.337  1.00  0.00    -0.502 N  
HETATM   18  C   UNL     1     -11.275  10.569  69.309  1.00  0.00    -0.262 C  
HETATM   19  H   UNL     1     -11.857   9.768  67.484  1.00  0.00     0.000 HD 
HETATM   20  O   UNL     1     -10.751  10.400  70.406  1.00  0.00    -0.269 OA 
BRANCH  18  21
HETATM   21  C   UNL     1     -11.996  11.864  68.995  1.00  0.00    -0.262 C  
BRANCH  21  22
HETATM   22  N   UNL     1     -11.017  12.853  68.498  1.00  0.00    -0.249 NA 
HETATM   23  C   UNL     1      -9.986  12.445  67.715  1.00  0.00    -0.205 A  
HETATM   24  C   UNL     1      -9.043  13.356  67.258  1.00  0.00    -0.222 A  
HETATM   25  C   UNL     1      -9.173  14.696  67.591  1.00  0.00    -0.193 A  
HETATM   26  C   UNL     1     -10.242  15.103  68.378  1.00  0.00    -0.221 A  
HETATM   27  C   UNL     1     -11.158  14.158  68.823  1.00  0.00    -0.262 A  
ENDBRANCH  21  22
ENDBRANCH  18  21
ENDBRANCH  16  17
ENDBRANCH  15  16
ENDBRANCH  14  15
ENDBRANCH  12  14
ENDBRANCH  11  12
ENDBRANCH  10  11
ENDBRANCH   9  10
ENDBRANCH   8   9
ENDBRANCH   7   8
ENDBRANCH   6   7
ENDBRANCH   5   6
ENDBRANCH   4   5
ENDBRANCH   3   4
ENDBRANCH   2   3
TORSDOF 16
ENDMDL
MODEL      253
REMARK 921   NORMALIZED FREE ENERGY PREDICTED BY IDOCK:   -3.40 KCAL/MOL
REMARK 922        TOTAL FREE ENERGY PREDICTED BY IDOCK:   -8.65 KCAL/MOL
REMARK 923 INTER-LIGAND FREE ENERGY PREDICTED BY IDOCK:   -8.01 KCAL/MOL
REMARK 924 INTRA-LIGAND FREE ENERGY PREDICTED BY IDOCK:   -0.65 KCAL/MOL
REMARK 927      BINDING AFFINITY PREDICTED BY RF-SCORE:    0.00 PKD
ROOT
HETATM    1  C   UNL     1     -12.570  15.668  74.521  1.00  0.00    -0.609 C  
HETATM    2  C   UNL     1     -12.757  16.024  73.057  1.00  0.00    -0.593 C  
ENDROOT
BRANCH   2   3
HETATM    3  C   UNL     1     -14.080  15.479  72.523  1.00  0.00    -0.595 C  
BRANCH   3   4
HETATM    4  C   UNL     1     -13.986  13.982  72.237  1.00  0.00    -0.651 C  
BRANCH   4   5
HETATM    5  C   UNL     1     -12.671  13.646  71.535  1.00  0.00    -0.420 C  
BRANCH   5   6
HETATM    6  C   UNL     1     -12.696  14.128  70.090  1.00  0.00    -0.227 C  
BRANCH   6   7
HETATM    7  C   UNL     1     -11.512  15.041  69.782  1.00  0.00    -0.324 C  
BRANCH   7   8
HETATM    8  C   UNL     1     -10.924  14.675  68.422  1.00  0.00    -0.260 C  
BRANCH   8   9
HETATM    9  C   UNL     1     -11.992  14.180  67.457  1.00  0.00    -0.419 C  
BRANCH   9  10
HETATM   10  C   UNL     1     -11.659  12.792  66.889  1.00  0.00    -0.428 C  
BRANCH  10  11
HETATM   11  C   UNL     1     -11.941  12.643  65.387  1.00  0.00    -0.496 C  
BRANCH  11  12
HETATM   12  C   UNL     1     -10.928  11.724  64.751  1.00  0.00    -0.303 C  
HETATM   13  O   UNL     1     -10.828  11.510  63.553  1.00  0.00    -0.392 OA 
BRANCH  12  14
HETATM   14  O   UNL     1     -10.028  11.321  65.690  1.00  0.00    -0.225 OA 
BRANCH  14  15
HETATM   15  C   UNL     1      -9.696   9.929  65.625  1.00  0.00    -0.279 C  
BRANCH  15  16
HETATM   16  C   UNL     1      -8.719   9.669  66.776  1.00  0.00    -0.134 C  
BRANCH  16  17
HETATM   17  N   UNL     1      -9.344   9.601  68.087  1.00  0.00    -0.133 N  
HETATM   18  C   UNL     1      -9.357   8.427  68.800  1.00  0.00    -0.143 C  
HETATM   19  H   UNL     1      -9.778  10.435  68.482  1.00  0.00     0.000 HD 
HETATM   20  O   UNL     1      -8.959   7.358  68.348  1.00  0.00    -0.135 OA 
BRANCH  18  21
HETATM   21  C   UNL     1      -9.987   8.491  70.176  1.00  0.00    -0.181 C  
BRANCH  21  22
HETATM   22  N   UNL     1      -9.732   7.218  70.883  1.00  0.00    -0.171 NA 
HETATM   23  C   UNL     1      -8.783   7.165  71.852  1.00  0.00    -0.120 A  
HETATM   24  C   UNL     1      -8.513   5.974  72.512  1.00  0.00    -0.119 A  
HETATM   25  C   UNL     1      -9.236   4.835  72.186  1.00  0.00    -0.155 A  
HETATM   26  C   UNL     1     -10.216   4.908  71.205  1.00  0.00    -0.261 A  
HETATM   27  C   UNL     1     -10.448   6.117  70.562  1.00  0.00    -0.234 A  
ENDBRANCH  21  22
ENDBRANCH  18  21
ENDBRANCH  16  17
ENDBRANCH  15  16
ENDBRANCH  14  15
ENDBRANCH  12  14
ENDBRANCH  11  12
ENDBRANCH  10  11
ENDBRANCH   9  10
ENDBRANCH   8   9
ENDBRANCH   7   8
ENDBRANCH   6   7
ENDBRANCH   5   6
ENDBRANCH   4   5
ENDBRANCH   3   4
ENDBRANCH   2   3
TORSDOF 16
ENDMDL
MODEL      254
REMARK 921   NORMALIZED FREE ENERGY PREDICTED BY IDOCK:   -3.39 KCAL/MOL
REMARK 922        TOTAL FREE ENERGY PREDICTED BY IDOCK:   -8.65 KCAL/MOL
REMARK 923 INTER-LIGAND FREE ENERGY PREDICTED BY IDOCK:   -7.24 KCAL/MOL
REMARK 924 INTRA-LIGAND FREE ENERGY PREDICTED BY IDOCK:   -1.40 KCAL/MOL
REMARK 927      BINDING AFFINITY PREDICTED BY RF-SCORE:    0.00 PKD
ROOT
HETATM    1  C   UNL     1      -9.267  17.387  67.674  1.00  0.00    -0.234 C  
HETATM    2  C   UNL     1      -9.478  15.969  67.170  1.00  0.00    -0.225 C  
ENDROOT
BRANCH   2   3
HETATM    3  C   UNL     1     -10.890  15.788  66.616  1.00  0.00    -0.241 C  
BRANCH   3   4
HETATM    4  C   UNL     1     -10.860  15.430  65.132  1.00  0.00    -0.447 C  
BRANCH   4   5
HETATM    5  C   UNL     1     -12.256  15.058  64.636  1.00  0.00    -0.286 C  
BRANCH   5   6
HETATM    6  C   UNL     1     -12.179  13.936  63.609  1.00  0.00    -0.232 C  
BRANCH   6   7
HETATM    7  C   UNL     1     -12.820  12.652  64.130  1.00  0.00    -0.279 C  
BRANCH   7   8
HETATM    8  C   UNL     1     -11.737  11.606  64.382  1.00  0.00    -0.226 C  
BRANCH   8   9
HETATM    9  C   UNL     1     -11.062  11.802  65.732  1.00  0.00    -0.351 C  
BRANCH   9  10
HETATM   10  C   UNL     1      -9.619  11.273  65.738  1.00  0.00    -0.256 C  
BRANCH  10  11
HETATM   11  C   UNL     1      -9.370  10.118  64.758  1.00  0.00    -0.324 C  
BRANCH  11  12
HETATM   12  C   UNL     1      -8.789   8.931  65.484  1.00  0.00    -0.197 C  
HETATM   13  O   UNL     1      -8.305   7.946  64.947  1.00  0.00    -0.142 OA 
BRANCH  12  14
HETATM   14  O   UNL     1      -8.716   9.204  66.816  1.00  0.00    -0.124 OA 
BRANCH  14  15
HETATM   15  C   UNL     1      -8.793   8.046  67.657  1.00  0.00    -0.125 C  
BRANCH  15  16
HETATM   16  C   UNL     1      -9.033   8.568  69.078  1.00  0.00    -0.146 C  
BRANCH  16  17
HETATM   17  N   UNL     1     -10.430   8.801  69.401  1.00  0.00    -0.221 N  
HETATM   18  C   UNL     1     -10.820   9.062  70.692  1.00  0.00    -0.243 C  
HETATM   19  H   UNL     1     -11.131   8.770  68.660  1.00  0.00     0.000 HD 
HETATM   20  O   UNL     1     -10.058   9.005  71.652  1.00  0.00    -0.316 OA 
BRANCH  18  21
HETATM   21  C   UNL     1     -12.294   9.345  70.898  1.00  0.00    -0.193 C  
BRANCH  21  22
HETATM   22  N   UNL     1     -12.493  10.805  71.022  1.00  0.00    -0.384 NA 
HETATM   23  C   UNL     1     -13.211  11.301  72.061  1.00  0.00    -0.331 A  
HETATM   24  C   UNL     1     -13.427  12.666  72.182  1.00  0.00    -0.561 A  
HETATM   25  C   UNL     1     -12.885  13.528  71.240  1.00  0.00    -0.420 A  
HETATM   26  C   UNL     1     -12.139  13.010  70.191  1.00  0.00    -0.377 A  
HETATM   27  C   UNL     1     -11.954  11.636  70.101  1.00  0.00    -0.359 A  
ENDBRANCH  21  22
ENDBRANCH  18  21
ENDBRANCH  16  17
ENDBRANCH  15  16
ENDBRANCH  14  15
ENDBRANCH  12  14
ENDBRANCH  11  12
ENDBRANCH  10  11
ENDBRANCH   9  10
ENDBRANCH   8   9
ENDBRANCH   7   8
ENDBRANCH   6   7
ENDBRANCH   5   6
ENDBRANCH   4   5
ENDBRANCH   3   4
ENDBRANCH   2   3
TORSDOF 16
ENDMDL
MODEL      255
REMARK 921   NORMALIZED FREE ENERGY PREDICTED BY IDOCK:   -3.38 KCAL/MOL
REMARK 922        TOTAL FREE ENERGY PREDICTED BY IDOCK:   -8.62 KCAL/MOL
REMARK 923 INTER-LIGAND FREE ENERGY PREDICTED BY IDOCK:   -7.53 KCAL/MOL
REMARK 924 INTRA-LIGAND FREE ENERGY PREDICTED BY IDOCK:   -1.10 KCAL/MOL
REMARK 927      BINDING AFFINITY PREDICTED BY RF-SCORE:    0.00 PKD
ROOT
HETATM    1  C   UNL     1      -6.870  12.301  68.910  1.00  0.00    -0.096 C  
HETATM    2  C   UNL     1      -5.600  13.095  68.655  1.00  0.00    -0.074 C  
ENDROOT
BRANCH   2   3
HETATM    3  C   UNL     1      -5.314  14.058  69.805  1.00  0.00    -0.094 C  
BRANCH   3   4
HETATM    4  C   UNL     1      -6.291  15.230  69.802  1.00  0.00    -0.162 C  
BRANCH   4   5
HETATM    5  C   UNL     1      -5.569  16.540  70.111  1.00  0.00    -0.200 C  
BRANCH   5   6
HETATM    6  C   UNL     1      -5.207  17.270  68.824  1.00  0.00    -0.146 C  
BRANCH   6   7
HETATM    7  C   UNL     1      -6.439  17.531  67.961  1.00  0.00    -0.172 C  
BRANCH   7   8
HETATM    8  C   UNL     1      -6.369  18.942  67.382  1.00  0.00    -0.195 C  
BRANCH   8   9
HETATM    9  C   UNL     1      -7.240  19.917  68.160  1.00  0.00    -0.330 C  
BRANCH   9  10
HETATM   10  C   UNL     1      -8.335  20.542  67.281  1.00  0.00    -0.355 C  
BRANCH  10  11
HETATM   11  C   UNL     1      -8.792  19.650  66.118  1.00  0.00    -0.367 C  
BRANCH  11  12
HETATM   12  C   UNL     1     -10.289  19.477  66.146  1.00  0.00    -0.520 C  
HETATM   13  O   UNL     1     -11.041  19.701  65.210  1.00  0.00    -0.409 OA 
BRANCH  12  14
HETATM   14  O   UNL     1     -10.654  18.859  67.304  1.00  0.00    -0.417 OA 
BRANCH  14  15
HETATM   15  C   UNL     1     -10.093  17.551  67.472  1.00  0.00    -0.326 C  
BRANCH  15  16
HETATM   16  C   UNL     1     -10.853  16.908  68.637  1.00  0.00    -0.314 C  
BRANCH  16  17
HETATM   17  N   UNL     1     -11.417  15.603  68.336  1.00  0.00    -0.367 N  
HETATM   18  C   UNL     1     -10.762  14.452  68.701  1.00  0.00    -0.253 C  
HETATM   19  H   UNL     1     -12.310  15.541  67.847  1.00  0.00     0.000 HD 
HETATM   20  O   UNL     1      -9.636  14.442  69.188  1.00  0.00    -0.112 OA 
BRANCH  18  21
HETATM   21  C   UNL     1     -11.474  13.153  68.385  1.00  0.00    -0.315 C  
BRANCH  21  22
HETATM   22  N   UNL     1     -12.077  12.619  69.625  1.00  0.00    -0.256 NA 
HETATM   23  C   UNL     1     -12.601  13.473  70.539  1.00  0.00    -0.241 A  
HETATM   24  C   UNL     1     -13.152  12.993  71.720  1.00  0.00    -0.469 A  
HETATM   25  C   UNL     1     -13.180  11.625  71.951  1.00  0.00    -0.475 A  
HETATM   26  C   UNL     1     -12.656  10.761  70.999  1.00  0.00    -0.520 A  
HETATM   27  C   UNL     1     -12.106  11.284  69.836  1.00  0.00    -0.341 A  
ENDBRANCH  21  22
ENDBRANCH  18  21
ENDBRANCH  16  17
ENDBRANCH  15  16
ENDBRANCH  14  15
ENDBRANCH  12  14
ENDBRANCH  11  12
ENDBRANCH  10  11
ENDBRANCH   9  10
ENDBRANCH   8   9
ENDBRANCH   7   8
ENDBRANCH   6   7
ENDBRANCH   5   6
ENDBRANCH   4   5
ENDBRANCH   3   4
ENDBRANCH   2   3
TORSDOF 16
ENDMDL
MODEL      256
REMARK 921   NORMALIZED FREE ENERGY PREDICTED BY IDOCK:   -3.36 KCAL/MOL
REMARK 922        TOTAL FREE ENERGY PREDICTED BY IDOCK:   -8.59 KCAL/MOL
REMARK 923 INTER-LIGAND FREE ENERGY PREDICTED BY IDOCK:   -7.40 KCAL/MOL
REMARK 924 INTRA-LIGAND FREE ENERGY PREDICTED BY IDOCK:   -1.19 KCAL/MOL
REMARK 927      BINDING AFFINITY PREDICTED BY RF-SCORE:    0.00 PKD
ROOT
HETATM    1  C   UNL     1     -12.627  13.275  71.103  1.00  0.00    -0.412 C  
HETATM    2  C   UNL     1     -13.197  12.031  71.763  1.00  0.00    -0.421 C  
ENDROOT
BRANCH   2   3
HETATM    3  C   UNL     1     -12.644  10.763  71.116  1.00  0.00    -0.532 C  
BRANCH   3   4
HETATM    4  C   UNL     1     -13.013   9.523  71.925  1.00  0.00    -0.514 C  
BRANCH   4   5
HETATM    5  C   UNL     1     -11.770   8.693  72.242  1.00  0.00    -0.428 C  
BRANCH   5   6
HETATM    6  C   UNL     1     -11.832   7.343  71.539  1.00  0.00    -0.327 C  
BRANCH   6   7
HETATM    7  C   UNL     1     -10.735   7.206  70.487  1.00  0.00    -0.259 C  
BRANCH   7   8
HETATM    8  C   UNL     1     -11.042   6.017  69.580  1.00  0.00    -0.474 C  
BRANCH   8   9
HETATM    9  C   UNL     1     -11.081   6.418  68.113  1.00  0.00    -0.358 C  
BRANCH   9  10
HETATM   10  C   UNL     1      -9.998   7.452  67.768  1.00  0.00    -0.208 C  
BRANCH  10  11
HETATM   11  C   UNL     1     -10.512   8.656  66.966  1.00  0.00    -0.354 C  
BRANCH  11  12
HETATM   12  C   UNL     1      -9.950   9.939  67.528  1.00  0.00    -0.185 C  
HETATM   13  O   UNL     1      -9.261  10.024  68.532  1.00  0.00    -0.135 OA 
BRANCH  12  14
HETATM   14  O   UNL     1     -10.168  10.954  66.646  1.00  0.00    -0.218 OA 
BRANCH  14  15
HETATM   15  C   UNL     1     -11.395  11.663  66.860  1.00  0.00    -0.295 C  
BRANCH  15  16
HETATM   16  C   UNL     1     -11.050  12.849  67.766  1.00  0.00    -0.259 C  
BRANCH  16  17
HETATM   17  N   UNL     1     -10.199  13.849  67.143  1.00  0.00    -0.256 N  
HETATM   18  C   UNL     1     -10.106  15.117  67.664  1.00  0.00    -0.231 C  
HETATM   19  H   UNL     1      -9.664  13.607  66.309  1.00  0.00     0.000 HD 
HETATM   20  O   UNL     1     -10.801  15.518  68.593  1.00  0.00    -0.246 OA 
BRANCH  18  21
HETATM   21  C   UNL     1      -9.146  16.056  66.963  1.00  0.00    -0.214 C  
BRANCH  21  22
HETATM   22  N   UNL     1      -8.012  16.348  67.866  1.00  0.00    -0.151 NA 
HETATM   23  C   UNL     1      -7.188  15.344  68.259  1.00  0.00    -0.116 A  
HETATM   24  C   UNL     1      -6.132  15.594  69.124  1.00  0.00    -0.112 A  
HETATM   25  C   UNL     1      -5.911  16.888  69.573  1.00  0.00    -0.200 A  
HETATM   26  C   UNL     1      -6.751  17.910  69.150  1.00  0.00    -0.239 A  
HETATM   27  C   UNL     1      -7.802  17.614  68.291  1.00  0.00    -0.256 A  
ENDBRANCH  21  22
ENDBRANCH  18  21
ENDBRANCH  16  17
ENDBRANCH  15  16
ENDBRANCH  14  15
ENDBRANCH  12  14
ENDBRANCH  11  12
ENDBRANCH  10  11
ENDBRANCH   9  10
ENDBRANCH   8   9
ENDBRANCH   7   8
ENDBRANCH   6   7
ENDBRANCH   5   6
ENDBRANCH   4   5
ENDBRANCH   3   4
ENDBRANCH   2   3
TORSDOF 16
ENDMDL
MODEL      257
REMARK 921   NORMALIZED FREE ENERGY PREDICTED BY IDOCK:   -3.36 KCAL/MOL
REMARK 922        TOTAL FREE ENERGY PREDICTED BY IDOCK:   -8.59 KCAL/MOL
REMARK 923 INTER-LIGAND FREE ENERGY PREDICTED BY IDOCK:   -5.95 KCAL/MOL
REMARK 924 INTRA-LIGAND FREE ENERGY PREDICTED BY IDOCK:   -2.64 KCAL/MOL
REMARK 927      BINDING AFFINITY PREDICTED BY RF-SCORE:    0.00 PKD
ROOT
HETATM    1  C   UNL     1     -11.086   6.450  67.592  1.00  0.00    -0.388 C  
HETATM    2  C   UNL     1     -10.090   7.395  66.940  1.00  0.00    -0.327 C  
ENDROOT
BRANCH   2   3
HETATM    3  C   UNL     1     -10.000   8.712  67.707  1.00  0.00    -0.240 C  
BRANCH   3   4
HETATM    4  C   UNL     1     -10.158   9.908  66.773  1.00  0.00    -0.292 C  
BRANCH   4   5
HETATM    5  C   UNL     1      -9.541   9.615  65.406  1.00  0.00    -0.361 C  
BRANCH   5   6
HETATM    6  C   UNL     1      -8.513  10.678  65.043  1.00  0.00    -0.135 C  
BRANCH   6   7
HETATM    7  C   UNL     1      -7.165  10.058  64.685  1.00  0.00    -0.140 C  
BRANCH   7   8
HETATM    8  C   UNL     1      -7.298   8.538  64.635  1.00  0.00    -0.092 C  
BRANCH   8   9
HETATM    9  C   UNL     1      -6.510   7.863  65.749  1.00  0.00    -0.042 C  
BRANCH   9  10
HETATM   10  C   UNL     1      -5.902   8.881  66.725  1.00  0.00    -0.052 C  
BRANCH  10  11
HETATM   11  C   UNL     1      -6.107   8.532  68.206  1.00  0.00    -0.050 C  
BRANCH  11  12
HETATM   12  C   UNL     1      -6.804   9.662  68.921  1.00  0.00    -0.054 C  
HETATM   13  O   UNL     1      -7.356   9.573  70.007  1.00  0.00    -0.083 OA 
BRANCH  12  14
HETATM   14  O   UNL     1      -6.564  10.831  68.264  1.00  0.00    -0.058 OA 
BRANCH  14  15
HETATM   15  C   UNL     1      -7.592  11.816  68.424  1.00  0.00    -0.123 C  
BRANCH  15  16
HETATM   16  C   UNL     1      -7.019  13.124  67.869  1.00  0.00    -0.132 C  
BRANCH  16  17
HETATM   17  N   UNL     1      -7.855  13.764  66.866  1.00  0.00    -0.326 N  
HETATM   18  C   UNL     1      -8.450  14.976  67.115  1.00  0.00    -0.218 C  
HETATM   19  H   UNL     1      -8.001  13.307  65.966  1.00  0.00     0.000 HD 
HETATM   20  O   UNL     1      -8.416  15.533  68.208  1.00  0.00    -0.151 OA 
BRANCH  18  21
HETATM   21  C   UNL     1      -9.251  15.572  65.976  1.00  0.00    -0.326 C  
BRANCH  21  22
HETATM   22  N   UNL     1     -10.395  14.686  65.675  1.00  0.00    -0.328 NA 
HETATM   23  C   UNL     1     -10.435  14.015  64.496  1.00  0.00    -0.259 A  
HETATM   24  C   UNL     1     -11.513  13.196  64.186  1.00  0.00    -0.449 A  
HETATM   25  C   UNL     1     -12.544  13.051  65.102  1.00  0.00    -0.530 A  
HETATM   26  C   UNL     1     -12.482  13.729  66.312  1.00  0.00    -0.441 A  
HETATM   27  C   UNL     1     -11.391  14.546  66.579  1.00  0.00    -0.352 A  
ENDBRANCH  21  22
ENDBRANCH  18  21
ENDBRANCH  16  17
ENDBRANCH  15  16
ENDBRANCH  14  15
ENDBRANCH  12  14
ENDBRANCH  11  12
ENDBRANCH  10  11
ENDBRANCH   9  10
ENDBRANCH   8   9
ENDBRANCH   7   8
ENDBRANCH   6   7
ENDBRANCH   5   6
ENDBRANCH   4   5
ENDBRANCH   3   4
ENDBRANCH   2   3
TORSDOF 16
ENDMDL
MODEL      258
REMARK 921   NORMALIZED FREE ENERGY PREDICTED BY IDOCK:   -3.35 KCAL/MOL
REMARK 922        TOTAL FREE ENERGY PREDICTED BY IDOCK:   -8.56 KCAL/MOL
REMARK 923 INTER-LIGAND FREE ENERGY PREDICTED BY IDOCK:   -6.48 KCAL/MOL
REMARK 924 INTRA-LIGAND FREE ENERGY PREDICTED BY IDOCK:   -2.09 KCAL/MOL
REMARK 927      BINDING AFFINITY PREDICTED BY RF-SCORE:    0.00 PKD
ROOT
HETATM    1  C   UNL     1     -11.478   6.299  69.748  1.00  0.00    -0.449 C  
HETATM    2  C   UNL     1     -10.929   6.033  71.139  1.00  0.00    -0.341 C  
ENDROOT
BRANCH   2   3
HETATM    3  C   UNL     1      -9.471   5.581  71.076  1.00  0.00    -0.203 C  
BRANCH   3   4
HETATM    4  C   UNL     1      -8.523   6.775  71.022  1.00  0.00    -0.132 C  
BRANCH   4   5
HETATM    5  C   UNL     1      -7.493   6.600  69.906  1.00  0.00    -0.095 C  
BRANCH   5   6
HETATM    6  C   UNL     1      -8.059   7.075  68.574  1.00  0.00    -0.124 C  
BRANCH   6   7
HETATM    7  C   UNL     1      -6.969   7.201  67.513  1.00  0.00    -0.079 C  
BRANCH   7   8
HETATM    8  C   UNL     1      -6.351   8.595  67.578  1.00  0.00    -0.057 C  
BRANCH   8   9
HETATM    9  C   UNL     1      -7.312   9.665  67.080  1.00  0.00    -0.087 C  
BRANCH   9  10
HETATM   10  C   UNL     1      -7.493   9.614  65.555  1.00  0.00    -0.106 C  
BRANCH  10  11
HETATM   11  C   UNL     1      -8.937   9.353  65.102  1.00  0.00    -0.258 C  
BRANCH  11  12
HETATM   12  C   UNL     1      -9.327  10.318  64.011  1.00  0.00    -0.289 C  
HETATM   13  O   UNL     1      -9.268  10.087  62.813  1.00  0.00    -0.266 OA 
BRANCH  12  14
HETATM   14  O   UNL     1      -9.929  11.408  64.564  1.00  0.00    -0.242 OA 
BRANCH  14  15
HETATM   15  C   UNL     1     -10.636  12.227  63.624  1.00  0.00    -0.462 C  
BRANCH  15  16
HETATM   16  C   UNL     1     -11.226  13.388  64.431  1.00  0.00    -0.384 C  
BRANCH  16  17
HETATM   17  N   UNL     1     -10.656  13.544  65.759  1.00  0.00    -0.278 N  
HETATM   18  C   UNL     1     -11.464  13.708  66.857  1.00  0.00    -0.345 C  
HETATM   19  H   UNL     1      -9.643  13.531  65.877  1.00  0.00     0.000 HD 
HETATM   20  O   UNL     1     -12.681  13.848  66.785  1.00  0.00    -0.193 OA 
BRANCH  18  21
HETATM   21  C   UNL     1     -10.759  13.803  68.195  1.00  0.00    -0.248 C  
BRANCH  21  22
HETATM   22  N   UNL     1     -10.893  12.512  68.903  1.00  0.00    -0.224 NA 
HETATM   23  C   UNL     1     -11.834  12.370  69.870  1.00  0.00    -0.305 A  
HETATM   24  C   UNL     1     -11.960  11.174  70.562  1.00  0.00    -0.475 A  
HETATM   25  C   UNL     1     -11.127  10.111  70.244  1.00  0.00    -0.384 A  
HETATM   26  C   UNL     1     -10.180  10.264  69.241  1.00  0.00    -0.244 A  
HETATM   27  C   UNL     1     -10.080  11.482  68.579  1.00  0.00    -0.207 A  
ENDBRANCH  21  22
ENDBRANCH  18  21
ENDBRANCH  16  17
ENDBRANCH  15  16
ENDBRANCH  14  15
ENDBRANCH  12  14
ENDBRANCH  11  12
ENDBRANCH  10  11
ENDBRANCH   9  10
ENDBRANCH   8   9
ENDBRANCH   7   8
ENDBRANCH   6   7
ENDBRANCH   5   6
ENDBRANCH   4   5
ENDBRANCH   3   4
ENDBRANCH   2   3
TORSDOF 16
ENDMDL
MODEL      259
REMARK 921   NORMALIZED FREE ENERGY PREDICTED BY IDOCK:   -3.34 KCAL/MOL
REMARK 922        TOTAL FREE ENERGY PREDICTED BY IDOCK:   -8.55 KCAL/MOL
REMARK 923 INTER-LIGAND FREE ENERGY PREDICTED BY IDOCK:   -7.33 KCAL/MOL
REMARK 924 INTRA-LIGAND FREE ENERGY PREDICTED BY IDOCK:   -1.22 KCAL/MOL
REMARK 927      BINDING AFFINITY PREDICTED BY RF-SCORE:    0.00 PKD
ROOT
HETATM    1  C   UNL     1     -10.980   6.797  73.541  1.00  0.00    -0.131 C  
HETATM    2  C   UNL     1     -11.576   5.448  73.175  1.00  0.00    -0.204 C  
ENDROOT
BRANCH   2   3
HETATM    3  C   UNL     1     -10.761   4.306  73.778  1.00  0.00    -0.339 C  
BRANCH   3   4
HETATM    4  C   UNL     1     -10.589   3.162  72.783  1.00  0.00    -0.169 C  
BRANCH   4   5
HETATM    5  C   UNL     1      -9.401   3.422  71.857  1.00  0.00    -0.193 C  
BRANCH   5   6
HETATM    6  C   UNL     1      -9.782   3.156  70.407  1.00  0.00    -0.099 C  
BRANCH   6   7
HETATM    7  C   UNL     1      -9.428   4.336  69.506  1.00  0.00    -0.257 C  
BRANCH   7   8
HETATM    8  C   UNL     1     -10.573   5.347  69.514  1.00  0.00    -0.316 C  
BRANCH   8   9
HETATM    9  C   UNL     1     -10.596   6.187  68.245  1.00  0.00    -0.324 C  
BRANCH   9  10
HETATM   10  C   UNL     1     -10.555   7.692  68.549  1.00  0.00    -0.162 C  
BRANCH  10  11
HETATM   11  C   UNL     1     -10.189   8.031  70.001  1.00  0.00    -0.205 C  
BRANCH  11  12
HETATM   12  C   UNL     1     -10.930   9.263  70.455  1.00  0.00    -0.265 C  
HETATM   13  O   UNL     1     -11.385   9.437  71.575  1.00  0.00    -0.354 OA 
BRANCH  12  14
HETATM   14  O   UNL     1     -10.851  10.222  69.492  1.00  0.00    -0.222 OA 
BRANCH  14  15
HETATM   15  C   UNL     1     -12.000  11.075  69.416  1.00  0.00    -0.337 C  
BRANCH  15  16
HETATM   16  C   UNL     1     -11.463  12.509  69.360  1.00  0.00    -0.263 C  
BRANCH  16  17
HETATM   17  N   UNL     1     -11.049  12.940  68.035  1.00  0.00    -0.241 N  
HETATM   18  C   UNL     1     -11.045  14.271  67.697  1.00  0.00    -0.292 C  
HETATM   19  H   UNL     1     -10.757  12.245  67.347  1.00  0.00     0.000 HD 
HETATM   20  O   UNL     1     -11.487  15.154  68.425  1.00  0.00    -0.304 OA 
BRANCH  18  21
HETATM   21  C   UNL     1     -10.539  14.604  66.308  1.00  0.00    -0.306 C  
BRANCH  21  22
HETATM   22  N   UNL     1     -11.183  13.701  65.331  1.00  0.00    -0.295 NA 
HETATM   23  C   UNL     1     -10.415  12.966  64.487  1.00  0.00    -0.377 A  
HETATM   24  C   UNL     1     -11.002  12.129  63.547  1.00  0.00    -0.521 A  
HETATM   25  C   UNL     1     -12.385  12.034  63.488  1.00  0.00    -0.661 A  
HETATM   26  C   UNL     1     -13.158  12.778  64.369  1.00  0.00    -0.015 A  
HETATM   27  C   UNL     1     -12.531  13.611  65.288  1.00  0.00    -0.479 A  
ENDBRANCH  21  22
ENDBRANCH  18  21
ENDBRANCH  16  17
ENDBRANCH  15  16
ENDBRANCH  14  15
ENDBRANCH  12  14
ENDBRANCH  11  12
ENDBRANCH  10  11
ENDBRANCH   9  10
ENDBRANCH   8   9
ENDBRANCH   7   8
ENDBRANCH   6   7
ENDBRANCH   5   6
ENDBRANCH   4   5
ENDBRANCH   3   4
ENDBRANCH   2   3
TORSDOF 16
ENDMDL
MODEL      260
REMARK 921   NORMALIZED FREE ENERGY PREDICTED BY IDOCK:   -3.33 KCAL/MOL
REMARK 922        TOTAL FREE ENERGY PREDICTED BY IDOCK:   -8.52 KCAL/MOL
REMARK 923 INTER-LIGAND FREE ENERGY PREDICTED BY IDOCK:   -7.63 KCAL/MOL
REMARK 924 INTRA-LIGAND FREE ENERGY PREDICTED BY IDOCK:   -0.89 KCAL/MOL
REMARK 927      BINDING AFFINITY PREDICTED BY RF-SCORE:    0.00 PKD
ROOT
HETATM    1  C   UNL     1     -10.239  19.638  68.194  1.00  0.00    -0.580 C  
HETATM    2  C   UNL     1      -9.183  19.882  67.130  1.00  0.00    -0.463 C  
ENDROOT
BRANCH   2   3
HETATM    3  C   UNL     1      -8.521  18.573  66.704  1.00  0.00    -0.288 C  
BRANCH   3   4
HETATM    4  C   UNL     1      -9.337  17.367  67.159  1.00  0.00    -0.246 C  
BRANCH   4   5
HETATM    5  C   UNL     1      -9.315  16.266  66.099  1.00  0.00    -0.374 C  
BRANCH   5   6
HETATM    6  C   UNL     1     -10.731  15.904  65.673  1.00  0.00    -0.350 C  
BRANCH   6   7
HETATM    7  C   UNL     1     -11.267  14.710  66.459  1.00  0.00    -0.346 C  
BRANCH   7   8
HETATM    8  C   UNL     1     -10.520  13.446  66.041  1.00  0.00    -0.294 C  
BRANCH   8   9
HETATM    9  C   UNL     1     -10.004  12.669  67.244  1.00  0.00    -0.212 C  
BRANCH   9  10
HETATM   10  C   UNL     1      -9.575  11.242  66.869  1.00  0.00    -0.210 C  
BRANCH  10  11
HETATM   11  C   UNL     1     -10.512  10.146  67.395  1.00  0.00    -0.310 C  
BRANCH  11  12
HETATM   12  C   UNL     1     -11.388  10.688  68.497  1.00  0.00    -0.284 C  
HETATM   13  O   UNL     1     -12.516  11.130  68.344  1.00  0.00    -0.390 OA 
BRANCH  12  14
HETATM   14  O   UNL     1     -10.808  10.437  69.703  1.00  0.00    -0.240 OA 
BRANCH  14  15
HETATM   15  C   UNL     1     -11.670  10.660  70.826  1.00  0.00    -0.335 C  
BRANCH  15  16
HETATM   16  C   UNL     1     -12.039   9.272  71.361  1.00  0.00    -0.348 C  
BRANCH  16  17
HETATM   17  N   UNL     1     -10.899   8.404  71.606  1.00  0.00    -0.249 N  
HETATM   18  C   UNL     1     -10.823   7.162  71.025  1.00  0.00    -0.240 C  
HETATM   19  H   UNL     1     -10.147   8.721  72.217  1.00  0.00     0.000 HD 
HETATM   20  O   UNL     1     -11.735   6.665  70.371  1.00  0.00    -0.379 OA 
BRANCH  18  21
HETATM   21  C   UNL     1      -9.563   6.370  71.307  1.00  0.00    -0.170 C  
BRANCH  21  22
HETATM   22  N   UNL     1      -9.903   5.207  72.153  1.00  0.00    -0.169 NA 
HETATM   23  C   UNL     1     -10.264   5.399  73.448  1.00  0.00    -0.196 A  
HETATM   24  C   UNL     1     -10.565   4.318  74.264  1.00  0.00    -0.307 A  
HETATM   25  C   UNL     1     -10.514   3.034  73.742  1.00  0.00    -0.246 A  
HETATM   26  C   UNL     1     -10.160   2.853  72.411  1.00  0.00    -0.231 A  
HETATM   27  C   UNL     1      -9.857   3.961  71.631  1.00  0.00    -0.177 A  
ENDBRANCH  21  22
ENDBRANCH  18  21
ENDBRANCH  16  17
ENDBRANCH  15  16
ENDBRANCH  14  15
ENDBRANCH  12  14
ENDBRANCH  11  12
ENDBRANCH  10  11
ENDBRANCH   9  10
ENDBRANCH   8   9
ENDBRANCH   7   8
ENDBRANCH   6   7
ENDBRANCH   5   6
ENDBRANCH   4   5
ENDBRANCH   3   4
ENDBRANCH   2   3
TORSDOF 16
ENDMDL
MODEL      261
REMARK 921   NORMALIZED FREE ENERGY PREDICTED BY IDOCK:   -3.32 KCAL/MOL
REMARK 922        TOTAL FREE ENERGY PREDICTED BY IDOCK:   -8.51 KCAL/MOL
REMARK 923 INTER-LIGAND FREE ENERGY PREDICTED BY IDOCK:   -6.74 KCAL/MOL
REMARK 924 INTRA-LIGAND FREE ENERGY PREDICTED BY IDOCK:   -1.77 KCAL/MOL
REMARK 927      BINDING AFFINITY PREDICTED BY RF-SCORE:    0.00 PKD
ROOT
HETATM    1  C   UNL     1      -8.726  10.880  65.339  1.00  0.00    -0.162 C  
HETATM    2  C   UNL     1     -10.084  10.633  64.704  1.00  0.00    -0.417 C  
ENDROOT
BRANCH   2   3
HETATM    3  C   UNL     1     -10.444  11.749  63.726  1.00  0.00    -0.466 C  
BRANCH   3   4
HETATM    4  C   UNL     1     -11.955  11.854  63.538  1.00  0.00    -0.567 C  
BRANCH   4   5
HETATM    5  C   UNL     1     -12.393  13.317  63.473  1.00  0.00    -0.442 C  
BRANCH   5   6
HETATM    6  C   UNL     1     -11.824  14.100  64.649  1.00  0.00    -0.443 C  
BRANCH   6   7
HETATM    7  C   UNL     1     -12.296  13.531  65.984  1.00  0.00    -0.486 C  
BRANCH   7   8
HETATM    8  C   UNL     1     -11.128  13.496  66.966  1.00  0.00    -0.310 C  
BRANCH   8   9
HETATM    9  C   UNL     1     -11.521  12.861  68.293  1.00  0.00    -0.348 C  
BRANCH   9  10
HETATM   10  C   UNL     1     -10.645  11.646  68.633  1.00  0.00    -0.236 C  
BRANCH  10  11
HETATM   11  C   UNL     1     -11.083  10.344  67.947  1.00  0.00    -0.363 C  
BRANCH  11  12
HETATM   12  C   UNL     1     -10.564   9.150  68.707  1.00  0.00    -0.181 C  
HETATM   13  O   UNL     1     -10.037   9.192  69.808  1.00  0.00    -0.184 OA 
BRANCH  12  14
HETATM   14  O   UNL     1     -10.940   8.007  68.070  1.00  0.00    -0.012 OA 
BRANCH  14  15
HETATM   15  C   UNL     1     -10.044   7.591  67.032  1.00  0.00    -0.261 C  
BRANCH  15  16
HETATM   16  C   UNL     1      -9.755   6.108  67.288  1.00  0.00    -0.128 C  
BRANCH  16  17
HETATM   17  N   UNL     1      -8.915   5.854  68.447  1.00  0.00    -0.113 N  
HETATM   18  C   UNL     1      -9.447   5.329  69.600  1.00  0.00    -0.141 C  
HETATM   19  H   UNL     1      -7.919   6.067  68.404  1.00  0.00     0.000 HD 
HETATM   20  O   UNL     1     -10.649   5.151  69.769  1.00  0.00    -0.272 OA 
BRANCH  18  21
HETATM   21  C   UNL     1      -8.466   5.054  70.721  1.00  0.00    -0.115 C  
BRANCH  21  22
HETATM   22  N   UNL     1      -8.469   6.199  71.656  1.00  0.00    -0.129 NA 
HETATM   23  C   UNL     1      -7.508   7.153  71.555  1.00  0.00    -0.086 A  
HETATM   24  C   UNL     1      -7.481   8.223  72.438  1.00  0.00    -0.153 A  
HETATM   25  C   UNL     1      -8.458   8.324  73.418  1.00  0.00    -0.267 A  
HETATM   26  C   UNL     1      -9.445   7.350  73.499  1.00  0.00    -0.305 A  
HETATM   27  C   UNL     1      -9.430   6.290  72.601  1.00  0.00    -0.148 A  
ENDBRANCH  21  22
ENDBRANCH  18  21
ENDBRANCH  16  17
ENDBRANCH  15  16
ENDBRANCH  14  15
ENDBRANCH  12  14
ENDBRANCH  11  12
ENDBRANCH  10  11
ENDBRANCH   9  10
ENDBRANCH   8   9
ENDBRANCH   7   8
ENDBRANCH   6   7
ENDBRANCH   5   6
ENDBRANCH   4   5
ENDBRANCH   3   4
ENDBRANCH   2   3
TORSDOF 16
ENDMDL
MODEL      262
REMARK 921   NORMALIZED FREE ENERGY PREDICTED BY IDOCK:   -3.31 KCAL/MOL
REMARK 922        TOTAL FREE ENERGY PREDICTED BY IDOCK:   -8.50 KCAL/MOL
REMARK 923 INTER-LIGAND FREE ENERGY PREDICTED BY IDOCK:   -7.45 KCAL/MOL
REMARK 924 INTRA-LIGAND FREE ENERGY PREDICTED BY IDOCK:   -1.05 KCAL/MOL
REMARK 927      BINDING AFFINITY PREDICTED BY RF-SCORE:    0.00 PKD
ROOT
HETATM    1  C   UNL     1      -9.287   3.745  67.637  1.00  0.00    -0.240 C  
HETATM    2  C   UNL     1      -9.493   4.198  69.072  1.00  0.00    -0.244 C  
ENDROOT
BRANCH   2   3
HETATM    3  C   UNL     1     -10.140   5.581  69.124  1.00  0.00    -0.286 C  
BRANCH   3   4
HETATM    4  C   UNL     1     -10.065   6.174  70.528  1.00  0.00    -0.237 C  
BRANCH   4   5
HETATM    5  C   UNL     1     -11.395   6.002  71.261  1.00  0.00    -0.296 C  
BRANCH   5   6
HETATM    6  C   UNL     1     -12.308   7.193  71.003  1.00  0.00    -0.376 C  
BRANCH   6   7
HETATM    7  C   UNL     1     -12.092   8.300  72.031  1.00  0.00    -0.402 C  
BRANCH   7   8
HETATM    8  C   UNL     1     -11.456   9.511  71.353  1.00  0.00    -0.462 C  
BRANCH   8   9
HETATM    9  C   UNL     1     -12.411  10.178  70.373  1.00  0.00    -0.243 C  
BRANCH   9  10
HETATM   10  C   UNL     1     -11.688  10.679  69.113  1.00  0.00    -0.324 C  
BRANCH  10  11
HETATM   11  C   UNL     1     -10.385   9.931  68.797  1.00  0.00    -0.222 C  
BRANCH  11  12
HETATM   12  C   UNL     1     -10.298   9.629  67.322  1.00  0.00    -0.249 C  
HETATM   13  O   UNL     1     -10.415   8.520  66.824  1.00  0.00    -0.303 OA 
BRANCH  12  14
HETATM   14  O   UNL     1     -10.258  10.795  66.621  1.00  0.00    -0.217 OA 
BRANCH  14  15
HETATM   15  C   UNL     1      -9.589  10.697  65.357  1.00  0.00    -0.230 C  
BRANCH  15  16
HETATM   16  C   UNL     1      -9.863  12.016  64.627  1.00  0.00    -0.157 C  
BRANCH  16  17
HETATM   17  N   UNL     1     -10.829  12.876  65.289  1.00  0.00    -0.287 N  
HETATM   18  C   UNL     1     -10.418  13.955  66.034  1.00  0.00    -0.298 C  
HETATM   19  H   UNL     1     -11.826  12.677  65.200  1.00  0.00     0.000 HD 
HETATM   20  O   UNL     1      -9.240  14.194  66.282  1.00  0.00    -0.227 OA 
BRANCH  18  21
HETATM   21  C   UNL     1     -11.517  14.811  66.630  1.00  0.00    -0.335 C  
BRANCH  21  22
HETATM   22  N   UNL     1     -10.930  16.076  67.119  1.00  0.00    -0.244 NA 
HETATM   23  C   UNL     1     -10.641  17.068  66.239  1.00  0.00    -0.185 A  
HETATM   24  C   UNL     1     -10.069  18.255  66.677  1.00  0.00    -0.386 A  
HETATM   25  C   UNL     1      -9.812  18.430  68.029  1.00  0.00    -0.359 A  
HETATM   26  C   UNL     1     -10.130  17.414  68.920  1.00  0.00    -0.330 A  
HETATM   27  C   UNL     1     -10.692  16.239  68.440  1.00  0.00    -0.311 A  
ENDBRANCH  21  22
ENDBRANCH  18  21
ENDBRANCH  16  17
ENDBRANCH  15  16
ENDBRANCH  14  15
ENDBRANCH  12  14
ENDBRANCH  11  12
ENDBRANCH  10  11
ENDBRANCH   9  10
ENDBRANCH   8   9
ENDBRANCH   7   8
ENDBRANCH   6   7
ENDBRANCH   5   6
ENDBRANCH   4   5
ENDBRANCH   3   4
ENDBRANCH   2   3
TORSDOF 16
ENDMDL
MODEL      263
REMARK 921   NORMALIZED FREE ENERGY PREDICTED BY IDOCK:   -3.31 KCAL/MOL
REMARK 922        TOTAL FREE ENERGY PREDICTED BY IDOCK:   -8.49 KCAL/MOL
REMARK 923 INTER-LIGAND FREE ENERGY PREDICTED BY IDOCK:   -7.31 KCAL/MOL
REMARK 924 INTRA-LIGAND FREE ENERGY PREDICTED BY IDOCK:   -1.18 KCAL/MOL
REMARK 927      BINDING AFFINITY PREDICTED BY RF-SCORE:    0.00 PKD
ROOT
HETATM    1  C   UNL     1      -5.900   5.979  70.413  1.00  0.00    -0.021 C  
HETATM    2  C   UNL     1      -5.945   7.412  70.915  1.00  0.00    -0.035 C  
ENDROOT
BRANCH   2   3
HETATM    3  C   UNL     1      -7.386   7.896  71.065  1.00  0.00    -0.062 C  
BRANCH   3   4
HETATM    4  C   UNL     1      -7.755   8.088  72.533  1.00  0.00    -0.155 C  
BRANCH   4   5
HETATM    5  C   UNL     1      -8.846   7.103  72.951  1.00  0.00    -0.154 C  
BRANCH   5   6
HETATM    6  C   UNL     1     -10.194   7.806  73.048  1.00  0.00    -0.393 C  
BRANCH   6   7
HETATM    7  C   UNL     1     -11.294   7.012  72.348  1.00  0.00    -0.307 C  
BRANCH   7   8
HETATM    8  C   UNL     1     -11.291   7.339  70.857  1.00  0.00    -0.308 C  
BRANCH   8   9
HETATM    9  C   UNL     1     -11.636   8.798  70.596  1.00  0.00    -0.236 C  
BRANCH   9  10
HETATM   10  C   UNL     1     -10.602   9.483  69.689  1.00  0.00    -0.245 C  
BRANCH  10  11
HETATM   11  C   UNL     1     -11.204  10.495  68.704  1.00  0.00    -0.328 C  
BRANCH  11  12
HETATM   12  C   UNL     1     -10.121  11.370  68.124  1.00  0.00    -0.189 C  
HETATM   13  O   UNL     1      -9.136  10.966  67.524  1.00  0.00    -0.140 OA 
BRANCH  12  14
HETATM   14  O   UNL     1     -10.500  12.675  68.204  1.00  0.00    -0.217 OA 
BRANCH  14  15
HETATM   15  C   UNL     1     -11.700  12.983  67.485  1.00  0.00    -0.370 C  
BRANCH  15  16
HETATM   16  C   UNL     1     -11.848  14.508  67.536  1.00  0.00    -0.374 C  
BRANCH  16  17
HETATM   17  N   UNL     1     -10.600  15.235  67.379  1.00  0.00    -0.276 N  
HETATM   18  C   UNL     1     -10.165  15.627  66.136  1.00  0.00    -0.311 C  
HETATM   19  H   UNL     1     -10.039  15.458  68.201  1.00  0.00     0.000 HD 
HETATM   20  O   UNL     1     -10.722  15.300  65.092  1.00  0.00    -0.376 OA 
BRANCH  18  21
HETATM   21  C   UNL     1      -8.880  16.427  66.102  1.00  0.00    -0.314 C  
BRANCH  21  22
HETATM   22  N   UNL     1      -9.170  17.822  66.498  1.00  0.00    -0.275 NA 
HETATM   23  C   UNL     1      -8.281  18.501  67.266  1.00  0.00    -0.249 A  
HETATM   24  C   UNL     1      -8.545  19.804  67.668  1.00  0.00    -0.376 A  
HETATM   25  C   UNL     1      -9.721  20.417  67.260  1.00  0.00    -0.602 A  
HETATM   26  C   UNL     1     -10.614  19.716  66.460  1.00  0.00    -0.591 A  
HETATM   27  C   UNL     1     -10.315  18.411  66.088  1.00  0.00    -0.407 A  
ENDBRANCH  21  22
ENDBRANCH  18  21
ENDBRANCH  16  17
ENDBRANCH  15  16
ENDBRANCH  14  15
ENDBRANCH  12  14
ENDBRANCH  11  12
ENDBRANCH  10  11
ENDBRANCH   9  10
ENDBRANCH   8   9
ENDBRANCH   7   8
ENDBRANCH   6   7
ENDBRANCH   5   6
ENDBRANCH   4   5
ENDBRANCH   3   4
ENDBRANCH   2   3
TORSDOF 16
ENDMDL
MODEL      264
REMARK 921   NORMALIZED FREE ENERGY PREDICTED BY IDOCK:   -3.30 KCAL/MOL
REMARK 922        TOTAL FREE ENERGY PREDICTED BY IDOCK:   -8.47 KCAL/MOL
REMARK 923 INTER-LIGAND FREE ENERGY PREDICTED BY IDOCK:   -7.34 KCAL/MOL
REMARK 924 INTRA-LIGAND FREE ENERGY PREDICTED BY IDOCK:   -1.13 KCAL/MOL
REMARK 927      BINDING AFFINITY PREDICTED BY RF-SCORE:    0.00 PKD
ROOT
HETATM    1  C   UNL     1      -8.837   2.343  66.783  1.00  0.00    -0.144 C  
HETATM    2  C   UNL     1      -8.109   1.556  67.859  1.00  0.00    -0.063 C  
ENDROOT
BRANCH   2   3
HETATM    3  C   UNL     1      -7.025   2.405  68.521  1.00  0.00    -0.044 C  
BRANCH   3   4
HETATM    4  C   UNL     1      -7.464   3.861  68.648  1.00  0.00    -0.054 C  
BRANCH   4   5
HETATM    5  C   UNL     1      -7.823   4.195  70.096  1.00  0.00    -0.051 C  
BRANCH   5   6
HETATM    6  C   UNL     1      -9.325   4.073  70.317  1.00  0.00    -0.234 C  
BRANCH   6   7
HETATM    7  C   UNL     1      -9.685   4.173  71.797  1.00  0.00    -0.245 C  
BRANCH   7   8
HETATM    8  C   UNL     1      -9.003   5.394  72.408  1.00  0.00    -0.139 C  
BRANCH   8   9
HETATM    9  C   UNL     1     -10.014   6.425  72.892  1.00  0.00    -0.186 C  
BRANCH   9  10
HETATM   10  C   UNL     1     -11.461   5.930  72.740  1.00  0.00    -0.274 C  
BRANCH  10  11
HETATM   11  C   UNL     1     -12.408   6.949  72.091  1.00  0.00    -0.227 C  
BRANCH  11  12
HETATM   12  C   UNL     1     -11.818   7.468  70.804  1.00  0.00    -0.228 C  
HETATM   13  O   UNL     1     -11.504   6.778  69.846  1.00  0.00    -0.323 OA 
BRANCH  12  14
HETATM   14  O   UNL     1     -11.866   8.829  70.799  1.00  0.00    -0.266 OA 
BRANCH  14  15
HETATM   15  C   UNL     1     -10.615   9.460  71.100  1.00  0.00    -0.333 C  
BRANCH  15  16
HETATM   16  C   UNL     1     -10.114  10.061  69.783  1.00  0.00    -0.248 C  
BRANCH  16  17
HETATM   17  N   UNL     1     -10.380  11.483  69.635  1.00  0.00    -0.347 N  
HETATM   18  C   UNL     1     -11.561  11.925  69.090  1.00  0.00    -0.312 C  
HETATM   19  H   UNL     1      -9.681  12.160  69.939  1.00  0.00     0.000 HD 
HETATM   20  O   UNL     1     -12.399  11.176  68.598  1.00  0.00    -0.549 OA 
BRANCH  18  21
HETATM   21  C   UNL     1     -11.750  13.427  69.039  1.00  0.00    -0.323 C  
BRANCH  21  22
HETATM   22  N   UNL     1     -12.374  13.877  70.301  1.00  0.00    -0.343 NA 
HETATM   23  C   UNL     1     -12.719  12.964  71.244  1.00  0.00    -0.278 A  
HETATM   24  C   UNL     1     -13.327  13.366  72.426  1.00  0.00    -0.629 A  
HETATM   25  C   UNL     1     -13.564  14.715  72.646  1.00  0.00    -0.571 A  
HETATM   26  C   UNL     1     -13.190  15.640  71.680  1.00  0.00    -0.554 A  
HETATM   27  C   UNL     1     -12.593  15.195  70.508  1.00  0.00    -0.380 A  
ENDBRANCH  21  22
ENDBRANCH  18  21
ENDBRANCH  16  17
ENDBRANCH  15  16
ENDBRANCH  14  15
ENDBRANCH  12  14
ENDBRANCH  11  12
ENDBRANCH  10  11
ENDBRANCH   9  10
ENDBRANCH   8   9
ENDBRANCH   7   8
ENDBRANCH   6   7
ENDBRANCH   5   6
ENDBRANCH   4   5
ENDBRANCH   3   4
ENDBRANCH   2   3
TORSDOF 16
ENDMDL
MODEL      265
REMARK 921   NORMALIZED FREE ENERGY PREDICTED BY IDOCK:   -3.30 KCAL/MOL
REMARK 922        TOTAL FREE ENERGY PREDICTED BY IDOCK:   -8.47 KCAL/MOL
REMARK 923 INTER-LIGAND FREE ENERGY PREDICTED BY IDOCK:   -6.59 KCAL/MOL
REMARK 924 INTRA-LIGAND FREE ENERGY PREDICTED BY IDOCK:   -1.88 KCAL/MOL
REMARK 927      BINDING AFFINITY PREDICTED BY RF-SCORE:    0.00 PKD
ROOT
HETATM    1  C   UNL     1     -10.445   2.829  73.137  1.00  0.00    -0.250 C  
HETATM    2  C   UNL     1     -10.296   3.916  72.086  1.00  0.00    -0.139 C  
ENDROOT
BRANCH   2   3
HETATM    3  C   UNL     1      -9.099   4.814  72.390  1.00  0.00    -0.141 C  
BRANCH   3   4
HETATM    4  C   UNL     1      -9.154   6.104  71.577  1.00  0.00    -0.145 C  
BRANCH   4   5
HETATM    5  C   UNL     1      -8.978   7.323  72.481  1.00  0.00    -0.152 C  
BRANCH   5   6
HETATM    6  C   UNL     1     -10.298   7.695  73.143  1.00  0.00    -0.411 C  
BRANCH   6   7
HETATM    7  C   UNL     1     -11.459   7.638  72.154  1.00  0.00    -0.345 C  
BRANCH   7   8
HETATM    8  C   UNL     1     -11.752   9.040  71.626  1.00  0.00    -0.431 C  
BRANCH   8   9
HETATM    9  C   UNL     1     -11.187   9.249  70.229  1.00  0.00    -0.267 C  
BRANCH   9  10
HETATM   10  C   UNL     1     -10.879  10.728  69.946  1.00  0.00    -0.264 C  
BRANCH  10  11
HETATM   11  C   UNL     1     -12.029  11.492  69.275  1.00  0.00    -0.397 C  
BRANCH  11  12
HETATM   12  C   UNL     1     -11.527  12.245  68.069  1.00  0.00    -0.321 C  
HETATM   13  O   UNL     1     -12.031  12.208  66.957  1.00  0.00    -0.593 OA 
BRANCH  12  14
HETATM   14  O   UNL     1     -10.547  13.111  68.450  1.00  0.00    -0.239 OA 
BRANCH  14  15
HETATM   15  C   UNL     1     -10.023  13.910  67.382  1.00  0.00    -0.240 C  
BRANCH  15  16
HETATM   16  C   UNL     1      -8.589  13.422  67.150  1.00  0.00    -0.195 C  
BRANCH  16  17
HETATM   17  N   UNL     1      -8.478  12.320  66.209  1.00  0.00    -0.393 N  
HETATM   18  C   UNL     1      -8.170  11.053  66.642  1.00  0.00    -0.154 C  
HETATM   19  H   UNL     1      -8.630  12.489  65.215  1.00  0.00     0.000 HD 
HETATM   20  O   UNL     1      -7.864  10.791  67.801  1.00  0.00    -0.106 OA 
BRANCH  18  21
HETATM   21  C   UNL     1      -8.138   9.975  65.578  1.00  0.00    -0.137 C  
BRANCH  21  22
HETATM   22  N   UNL     1      -8.763   8.748  66.115  1.00  0.00    -0.150 NA 
HETATM   23  C   UNL     1     -10.055   8.776  66.528  1.00  0.00    -0.279 A  
HETATM   24  C   UNL     1     -10.652   7.640  67.057  1.00  0.00    -0.406 A  
HETATM   25  C   UNL     1      -9.922   6.463  67.142  1.00  0.00    -0.197 A  
HETATM   26  C   UNL     1      -8.606   6.443  66.700  1.00  0.00    -0.121 A  
HETATM   27  C   UNL     1      -8.044   7.605  66.186  1.00  0.00    -0.118 A  
ENDBRANCH  21  22
ENDBRANCH  18  21
ENDBRANCH  16  17
ENDBRANCH  15  16
ENDBRANCH  14  15
ENDBRANCH  12  14
ENDBRANCH  11  12
ENDBRANCH  10  11
ENDBRANCH   9  10
ENDBRANCH   8   9
ENDBRANCH   7   8
ENDBRANCH   6   7
ENDBRANCH   5   6
ENDBRANCH   4   5
ENDBRANCH   3   4
ENDBRANCH   2   3
TORSDOF 16
ENDMDL
MODEL      266
REMARK 921   NORMALIZED FREE ENERGY PREDICTED BY IDOCK:   -3.30 KCAL/MOL
REMARK 922        TOTAL FREE ENERGY PREDICTED BY IDOCK:   -8.47 KCAL/MOL
REMARK 923 INTER-LIGAND FREE ENERGY PREDICTED BY IDOCK:   -7.44 KCAL/MOL
REMARK 924 INTRA-LIGAND FREE ENERGY PREDICTED BY IDOCK:   -1.03 KCAL/MOL
REMARK 927      BINDING AFFINITY PREDICTED BY RF-SCORE:    0.00 PKD
ROOT
HETATM    1  C   UNL     1      -9.996   7.486  73.312  1.00  0.00    -0.368 C  
HETATM    2  C   UNL     1     -10.643   6.542  72.313  1.00  0.00    -0.238 C  
ENDROOT
BRANCH   2   3
HETATM    3  C   UNL     1      -9.972   5.171  72.339  1.00  0.00    -0.225 C  
BRANCH   3   4
HETATM    4  C   UNL     1     -10.140   4.447  71.006  1.00  0.00    -0.195 C  
BRANCH   4   5
HETATM    5  C   UNL     1      -8.876   4.574  70.157  1.00  0.00    -0.129 C  
BRANCH   5   6
HETATM    6  C   UNL     1      -9.222   4.556  68.674  1.00  0.00    -0.181 C  
BRANCH   6   7
HETATM    7  C   UNL     1      -9.076   5.939  68.046  1.00  0.00    -0.117 C  
BRANCH   7   8
HETATM    8  C   UNL     1     -10.413   6.672  68.106  1.00  0.00    -0.257 C  
BRANCH   8   9
HETATM    9  C   UNL     1     -10.443   7.877  67.176  1.00  0.00    -0.414 C  
BRANCH   9  10
HETATM   10  C   UNL     1     -10.526   9.202  67.950  1.00  0.00    -0.293 C  
BRANCH  10  11
HETATM   11  C   UNL     1     -10.506   9.040  69.476  1.00  0.00    -0.223 C  
BRANCH  11  12
HETATM   12  C   UNL     1     -11.174  10.220  70.138  1.00  0.00    -0.318 C  
HETATM   13  O   UNL     1     -11.707  10.201  71.237  1.00  0.00    -0.366 OA 
BRANCH  12  14
HETATM   14  O   UNL     1     -10.930  11.346  69.412  1.00  0.00    -0.240 OA 
BRANCH  14  15
HETATM   15  C   UNL     1     -12.091  12.148  69.165  1.00  0.00    -0.168 C  
BRANCH  15  16
HETATM   16  C   UNL     1     -11.726  13.571  69.601  1.00  0.00    -0.314 C  
BRANCH  16  17
HETATM   17  N   UNL     1     -10.657  14.178  68.825  1.00  0.00    -0.250 N  
HETATM   18  C   UNL     1     -10.454  15.537  68.849  1.00  0.00    -0.223 C  
HETATM   19  H   UNL     1     -10.051  13.589  68.255  1.00  0.00     0.000 HD 
HETATM   20  O   UNL     1     -11.207  16.322  69.417  1.00  0.00    -0.324 OA 
BRANCH  18  21
HETATM   21  C   UNL     1      -9.276  16.048  68.047  1.00  0.00    -0.193 C  
BRANCH  21  22
HETATM   22  N   UNL     1      -9.550  17.436  67.618  1.00  0.00    -0.257 NA 
HETATM   23  C   UNL     1      -8.967  18.471  68.274  1.00  0.00    -0.310 A  
HETATM   24  C   UNL     1      -9.230  19.782  67.901  1.00  0.00    -0.427 A  
HETATM   25  C   UNL     1     -10.081  20.029  66.833  1.00  0.00    -0.601 A  
HETATM   26  C   UNL     1     -10.658  18.960  66.160  1.00  0.00    -0.476 A  
HETATM   27  C   UNL     1     -10.375  17.664  66.571  1.00  0.00    -0.337 A  
ENDBRANCH  21  22
ENDBRANCH  18  21
ENDBRANCH  16  17
ENDBRANCH  15  16
ENDBRANCH  14  15
ENDBRANCH  12  14
ENDBRANCH  11  12
ENDBRANCH  10  11
ENDBRANCH   9  10
ENDBRANCH   8   9
ENDBRANCH   7   8
ENDBRANCH   6   7
ENDBRANCH   5   6
ENDBRANCH   4   5
ENDBRANCH   3   4
ENDBRANCH   2   3
TORSDOF 16
ENDMDL
MODEL      267
REMARK 921   NORMALIZED FREE ENERGY PREDICTED BY IDOCK:   -3.30 KCAL/MOL
REMARK 922        TOTAL FREE ENERGY PREDICTED BY IDOCK:   -8.47 KCAL/MOL
REMARK 923 INTER-LIGAND FREE ENERGY PREDICTED BY IDOCK:   -7.28 KCAL/MOL
REMARK 924 INTRA-LIGAND FREE ENERGY PREDICTED BY IDOCK:   -1.19 KCAL/MOL
REMARK 927      BINDING AFFINITY PREDICTED BY RF-SCORE:    0.00 PKD
ROOT
HETATM    1  C   UNL     1     -13.201  10.484  71.137  1.00  0.00    -0.358 C  
HETATM    2  C   UNL     1     -12.073   9.708  71.796  1.00  0.00    -0.446 C  
ENDROOT
BRANCH   2   3
HETATM    3  C   UNL     1     -11.830   8.380  71.083  1.00  0.00    -0.314 C  
BRANCH   3   4
HETATM    4  C   UNL     1     -10.501   7.761  71.505  1.00  0.00    -0.239 C  
BRANCH   4   5
HETATM    5  C   UNL     1     -10.450   6.279  71.134  1.00  0.00    -0.271 C  
BRANCH   5   6
HETATM    6  C   UNL     1     -11.075   6.047  69.765  1.00  0.00    -0.476 C  
BRANCH   6   7
HETATM    7  C   UNL     1     -10.100   6.380  68.638  1.00  0.00    -0.179 C  
BRANCH   7   8
HETATM    8  C   UNL     1     -10.730   7.411  67.705  1.00  0.00    -0.278 C  
BRANCH   8   9
HETATM    9  C   UNL     1      -9.761   7.860  66.620  1.00  0.00    -0.305 C  
BRANCH   9  10
HETATM   10  C   UNL     1      -9.260   9.294  66.851  1.00  0.00    -0.178 C  
BRANCH  10  11
HETATM   11  C   UNL     1      -9.579  10.263  65.704  1.00  0.00    -0.289 C  
BRANCH  11  12
HETATM   12  C   UNL     1      -9.757  11.664  66.234  1.00  0.00    -0.218 C  
HETATM   13  O   UNL     1      -9.222  12.109  67.238  1.00  0.00    -0.175 OA 
BRANCH  12  14
HETATM   14  O   UNL     1     -10.449  12.408  65.328  1.00  0.00    -0.272 OA 
BRANCH  14  15
HETATM   15  C   UNL     1     -11.872  12.351  65.487  1.00  0.00    -0.412 C  
BRANCH  15  16
HETATM   16  C   UNL     1     -12.250  13.542  66.373  1.00  0.00    -0.400 C  
BRANCH  16  17
HETATM   17  N   UNL     1     -11.656  14.804  65.964  1.00  0.00    -0.326 N  
HETATM   18  C   UNL     1     -10.906  15.547  66.842  1.00  0.00    -0.301 C  
HETATM   19  H   UNL     1     -11.798  15.142  65.012  1.00  0.00     0.000 HD 
HETATM   20  O   UNL     1     -10.783  15.266  68.030  1.00  0.00    -0.255 OA 
BRANCH  18  21
HETATM   21  C   UNL     1     -10.291  16.814  66.286  1.00  0.00    -0.310 C  
BRANCH  21  22
HETATM   22  N   UNL     1      -8.926  16.969  66.833  1.00  0.00    -0.221 NA 
HETATM   23  C   UNL     1      -8.664  17.967  67.715  1.00  0.00    -0.250 A  
HETATM   24  C   UNL     1      -7.384  18.142  68.223  1.00  0.00    -0.265 A  
HETATM   25  C   UNL     1      -6.373  17.274  67.836  1.00  0.00    -0.157 A  
HETATM   26  C   UNL     1      -6.658  16.248  66.947  1.00  0.00    -0.123 A  
HETATM   27  C   UNL     1      -7.951  16.113  66.455  1.00  0.00    -0.259 A  
ENDBRANCH  21  22
ENDBRANCH  18  21
ENDBRANCH  16  17
ENDBRANCH  15  16
ENDBRANCH  14  15
ENDBRANCH  12  14
ENDBRANCH  11  12
ENDBRANCH  10  11
ENDBRANCH   9  10
ENDBRANCH   8   9
ENDBRANCH   7   8
ENDBRANCH   6   7
ENDBRANCH   5   6
ENDBRANCH   4   5
ENDBRANCH   3   4
ENDBRANCH   2   3
TORSDOF 16
ENDMDL
MODEL      268
REMARK 921   NORMALIZED FREE ENERGY PREDICTED BY IDOCK:   -3.30 KCAL/MOL
REMARK 922        TOTAL FREE ENERGY PREDICTED BY IDOCK:   -8.47 KCAL/MOL
REMARK 923 INTER-LIGAND FREE ENERGY PREDICTED BY IDOCK:   -7.57 KCAL/MOL
REMARK 924 INTRA-LIGAND FREE ENERGY PREDICTED BY IDOCK:   -0.90 KCAL/MOL
REMARK 927      BINDING AFFINITY PREDICTED BY RF-SCORE:    0.00 PKD
ROOT
HETATM    1  C   UNL     1     -12.129  13.289  66.037  1.00  0.00    -0.491 C  
HETATM    2  C   UNL     1     -12.741  12.824  64.727  1.00  0.00    -0.469 C  
ENDROOT
BRANCH   2   3
HETATM    3  C   UNL     1     -11.664  12.353  63.754  1.00  0.00    -0.566 C  
BRANCH   3   4
HETATM    4  C   UNL     1     -10.332  12.134  64.466  1.00  0.00    -0.335 C  
BRANCH   4   5
HETATM    5  C   UNL     1      -9.832  10.706  64.256  1.00  0.00    -0.391 C  
BRANCH   5   6
HETATM    6  C   UNL     1      -9.984   9.890  65.533  1.00  0.00    -0.363 C  
BRANCH   6   7
HETATM    7  C   UNL     1      -8.976   8.746  65.593  1.00  0.00    -0.248 C  
BRANCH   7   8
HETATM    8  C   UNL     1      -7.558   9.312  65.574  1.00  0.00    -0.091 C  
BRANCH   8   9
HETATM    9  C   UNL     1      -6.857   9.130  66.912  1.00  0.00    -0.080 C  
BRANCH   9  10
HETATM   10  C   UNL     1      -7.291   7.837  67.620  1.00  0.00    -0.092 C  
BRANCH  10  11
HETATM   11  C   UNL     1      -7.864   8.054  69.028  1.00  0.00    -0.109 C  
BRANCH  11  12
HETATM   12  C   UNL     1      -9.283   7.547  69.100  1.00  0.00    -0.144 C  
HETATM   13  O   UNL     1      -9.835   6.877  68.241  1.00  0.00    -0.134 OA 
BRANCH  12  14
HETATM   14  O   UNL     1      -9.789   7.789  70.341  1.00  0.00    -0.183 OA 
BRANCH  14  15
HETATM   15  C   UNL     1      -9.626   9.140  70.788  1.00  0.00    -0.275 C  
BRANCH  15  16
HETATM   16  C   UNL     1     -10.792   9.932  70.186  1.00  0.00    -0.304 C  
BRANCH  16  17
HETATM   17  N   UNL     1     -11.545  10.715  71.152  1.00  0.00    -0.253 N  
HETATM   18  C   UNL     1     -12.571  11.533  70.748  1.00  0.00    -0.298 C  
HETATM   19  H   UNL     1     -11.308  10.655  72.143  1.00  0.00     0.000 HD 
HETATM   20  O   UNL     1     -12.842  11.745  69.570  1.00  0.00     0.301 OA 
BRANCH  18  21
HETATM   21  C   UNL     1     -13.320  12.255  71.850  1.00  0.00    -0.329 C  
BRANCH  21  22
HETATM   22  N   UNL     1     -12.825  13.645  71.939  1.00  0.00    -0.311 NA 
HETATM   23  C   UNL     1     -12.108  14.171  70.913  1.00  0.00    -0.344 A  
HETATM   24  C   UNL     1     -11.616  15.467  70.987  1.00  0.00    -0.410 A  
HETATM   25  C   UNL     1     -11.878  16.232  72.114  1.00  0.00    -0.585 A  
HETATM   26  C   UNL     1     -12.627  15.688  73.149  1.00  0.00    -0.588 A  
HETATM   27  C   UNL     1     -13.093  14.384  73.038  1.00  0.00    -0.481 A  
ENDBRANCH  21  22
ENDBRANCH  18  21
ENDBRANCH  16  17
ENDBRANCH  15  16
ENDBRANCH  14  15
ENDBRANCH  12  14
ENDBRANCH  11  12
ENDBRANCH  10  11
ENDBRANCH   9  10
ENDBRANCH   8   9
ENDBRANCH   7   8
ENDBRANCH   6   7
ENDBRANCH   5   6
ENDBRANCH   4   5
ENDBRANCH   3   4
ENDBRANCH   2   3
TORSDOF 16
ENDMDL
MODEL      269
REMARK 921   NORMALIZED FREE ENERGY PREDICTED BY IDOCK:   -3.28 KCAL/MOL
REMARK 922        TOTAL FREE ENERGY PREDICTED BY IDOCK:   -8.44 KCAL/MOL
REMARK 923 INTER-LIGAND FREE ENERGY PREDICTED BY IDOCK:   -7.24 KCAL/MOL
REMARK 924 INTRA-LIGAND FREE ENERGY PREDICTED BY IDOCK:   -1.19 KCAL/MOL
REMARK 927      BINDING AFFINITY PREDICTED BY RF-SCORE:    0.00 PKD
ROOT
HETATM    1  C   UNL     1     -11.621   6.490  70.216  1.00  0.00    -0.473 C  
HETATM    2  C   UNL     1     -11.587   7.755  71.056  1.00  0.00    -0.301 C  
ENDROOT
BRANCH   2   3
HETATM    3  C   UNL     1     -10.285   8.523  70.839  1.00  0.00    -0.246 C  
BRANCH   3   4
HETATM    4  C   UNL     1     -10.309   9.292  69.521  1.00  0.00    -0.223 C  
BRANCH   4   5
HETATM    5  C   UNL     1      -9.241   8.762  68.565  1.00  0.00    -0.141 C  
BRANCH   5   6
HETATM    6  C   UNL     1      -9.866   8.347  67.239  1.00  0.00    -0.264 C  
BRANCH   6   7
HETATM    7  C   UNL     1      -8.944   7.426  66.446  1.00  0.00    -0.190 C  
BRANCH   7   8
HETATM    8  C   UNL     1      -8.585   8.083  65.115  1.00  0.00    -0.077 C  
BRANCH   8   9
HETATM    9  C   UNL     1      -8.638   9.602  65.200  1.00  0.00    -0.175 C  
BRANCH   9  10
HETATM   10  C   UNL     1      -9.442  10.217  64.044  1.00  0.00    -0.356 C  
BRANCH  10  11
HETATM   11  C   UNL     1     -10.716  10.951  64.485  1.00  0.00    -0.258 C  
BRANCH  11  12
HETATM   12  C   UNL     1     -10.441  12.424  64.655  1.00  0.00    -0.309 C  
HETATM   13  O   UNL     1     -10.752  13.293  63.855  1.00  0.00    -0.318 OA 
BRANCH  12  14
HETATM   14  O   UNL     1      -9.969  12.656  65.910  1.00  0.00    -0.262 OA 
BRANCH  14  15
HETATM   15  C   UNL     1     -10.811  12.157  66.956  1.00  0.00    -0.247 C  
BRANCH  15  16
HETATM   16  C   UNL     1     -12.071  13.029  66.941  1.00  0.00    -0.285 C  
BRANCH  16  17
HETATM   17  N   UNL     1     -11.974  14.233  67.749  1.00  0.00    -0.509 N  
HETATM   18  C   UNL     1     -11.969  14.162  69.121  1.00  0.00    -0.349 C  
HETATM   19  H   UNL     1     -11.909  15.142  67.292  1.00  0.00     0.000 HD 
HETATM   20  O   UNL     1     -12.157  13.121  69.744  1.00  0.00    -0.307 OA 
BRANCH  18  21
HETATM   21  C   UNL     1     -11.806  15.476  69.856  1.00  0.00    -0.362 C  
BRANCH  21  22
HETATM   22  N   UNL     1     -10.607  16.171  69.341  1.00  0.00    -0.276 NA 
HETATM   23  C   UNL     1      -9.389  15.582  69.451  1.00  0.00    -0.279 A  
HETATM   24  C   UNL     1      -8.249  16.228  68.994  1.00  0.00    -0.238 A  
HETATM   25  C   UNL     1      -8.364  17.478  68.403  1.00  0.00    -0.278 A  
HETATM   26  C   UNL     1      -9.618  18.061  68.281  1.00  0.00    -0.321 A  
HETATM   27  C   UNL     1     -10.733  17.385  68.760  1.00  0.00    -0.197 A  
ENDBRANCH  21  22
ENDBRANCH  18  21
ENDBRANCH  16  17
ENDBRANCH  15  16
ENDBRANCH  14  15
ENDBRANCH  12  14
ENDBRANCH  11  12
ENDBRANCH  10  11
ENDBRANCH   9  10
ENDBRANCH   8   9
ENDBRANCH   7   8
ENDBRANCH   6   7
ENDBRANCH   5   6
ENDBRANCH   4   5
ENDBRANCH   3   4
ENDBRANCH   2   3
TORSDOF 16
ENDMDL
MODEL      270
REMARK 921   NORMALIZED FREE ENERGY PREDICTED BY IDOCK:   -3.28 KCAL/MOL
REMARK 922        TOTAL FREE ENERGY PREDICTED BY IDOCK:   -8.43 KCAL/MOL
REMARK 923 INTER-LIGAND FREE ENERGY PREDICTED BY IDOCK:   -5.93 KCAL/MOL
REMARK 924 INTRA-LIGAND FREE ENERGY PREDICTED BY IDOCK:   -2.51 KCAL/MOL
REMARK 927      BINDING AFFINITY PREDICTED BY RF-SCORE:    0.00 PKD
ROOT
HETATM    1  C   UNL     1      -8.605   9.089  70.902  1.00  0.00    -0.263 C  
HETATM    2  C   UNL     1      -8.892   9.631  69.512  1.00  0.00    -0.197 C  
ENDROOT
BRANCH   2   3
HETATM    3  C   UNL     1     -10.344   9.378  69.114  1.00  0.00    -0.221 C  
BRANCH   3   4
HETATM    4  C   UNL     1     -11.037  10.673  68.695  1.00  0.00    -0.315 C  
BRANCH   4   5
HETATM    5  C   UNL     1     -12.268  10.934  69.561  1.00  0.00    -0.331 C  
BRANCH   5   6
HETATM    6  C   UNL     1     -11.974  10.616  71.021  1.00  0.00    -0.442 C  
BRANCH   6   7
HETATM    7  C   UNL     1     -13.258  10.467  71.833  1.00  0.00    -0.535 C  
BRANCH   7   8
HETATM    8  C   UNL     1     -13.339   9.054  72.406  1.00  0.00    -0.516 C  
BRANCH   8   9
HETATM    9  C   UNL     1     -12.014   8.316  72.285  1.00  0.00    -0.448 C  
BRANCH   9  10
HETATM   10  C   UNL     1     -12.114   7.099  71.352  1.00  0.00    -0.381 C  
BRANCH  10  11
HETATM   11  C   UNL     1     -11.694   5.773  72.002  1.00  0.00    -0.175 C  
BRANCH  11  12
HETATM   12  C   UNL     1     -10.213   5.548  71.825  1.00  0.00    -0.202 C  
HETATM   13  O   UNL     1      -9.336   6.086  72.483  1.00  0.00    -0.143 OA 
BRANCH  12  14
HETATM   14  O   UNL     1     -10.011   4.519  70.956  1.00  0.00    -0.193 OA 
BRANCH  14  15
HETATM   15  C   UNL     1     -10.177   4.874  69.578  1.00  0.00    -0.177 C  
BRANCH  15  16
HETATM   16  C   UNL     1      -8.897   5.613  69.172  1.00  0.00    -0.110 C  
BRANCH  16  17
HETATM   17  N   UNL     1      -8.978   6.285  67.886  1.00  0.00    -0.115 N  
HETATM   18  C   UNL     1      -8.133   5.942  66.858  1.00  0.00    -0.102 C  
HETATM   19  H   UNL     1      -9.670   7.020  67.744  1.00  0.00     0.000 HD 
HETATM   20  O   UNL     1      -7.203   5.152  66.985  1.00  0.00    -0.078 OA 
BRANCH  18  21
HETATM   21  C   UNL     1      -8.348   6.671  65.548  1.00  0.00    -0.144 C  
BRANCH  21  22
HETATM   22  N   UNL     1      -8.169   8.122  65.768  1.00  0.00    -0.118 NA 
HETATM   23  C   UNL     1      -6.986   8.590  66.239  1.00  0.00    -0.077 A  
HETATM   24  C   UNL     1      -6.807   9.947  66.474  1.00  0.00    -0.085 A  
HETATM   25  C   UNL     1      -7.843  10.828  66.203  1.00  0.00    -0.155 A  
HETATM   26  C   UNL     1      -9.043  10.338  65.704  1.00  0.00    -0.208 A  
HETATM   27  C   UNL     1      -9.184   8.972  65.493  1.00  0.00    -0.198 A  
ENDBRANCH  21  22
ENDBRANCH  18  21
ENDBRANCH  16  17
ENDBRANCH  15  16
ENDBRANCH  14  15
ENDBRANCH  12  14
ENDBRANCH  11  12
ENDBRANCH  10  11
ENDBRANCH   9  10
ENDBRANCH   8   9
ENDBRANCH   7   8
ENDBRANCH   6   7
ENDBRANCH   5   6
ENDBRANCH   4   5
ENDBRANCH   3   4
ENDBRANCH   2   3
TORSDOF 16
ENDMDL
MODEL      271
REMARK 921   NORMALIZED FREE ENERGY PREDICTED BY IDOCK:   -3.28 KCAL/MOL
REMARK 922        TOTAL FREE ENERGY PREDICTED BY IDOCK:   -8.42 KCAL/MOL
REMARK 923 INTER-LIGAND FREE ENERGY PREDICTED BY IDOCK:   -5.64 KCAL/MOL
REMARK 924 INTRA-LIGAND FREE ENERGY PREDICTED BY IDOCK:   -2.79 KCAL/MOL
REMARK 927      BINDING AFFINITY PREDICTED BY RF-SCORE:    0.00 PKD
ROOT
HETATM    1  C   UNL     1      -8.237   7.301  70.439  1.00  0.00    -0.125 C  
HETATM    2  C   UNL     1      -8.129   7.810  71.867  1.00  0.00    -0.120 C  
ENDROOT
BRANCH   2   3
HETATM    3  C   UNL     1      -8.661   6.779  72.859  1.00  0.00    -0.131 C  
BRANCH   3   4
HETATM    4  C   UNL     1      -8.671   5.379  72.251  1.00  0.00    -0.129 C  
BRANCH   4   5
HETATM    5  C   UNL     1     -10.052   4.739  72.385  1.00  0.00    -0.235 C  
BRANCH   5   6
HETATM    6  C   UNL     1     -11.088   5.778  72.793  1.00  0.00    -0.327 C  
BRANCH   6   7
HETATM    7  C   UNL     1     -11.821   6.347  71.582  1.00  0.00    -0.361 C  
BRANCH   7   8
HETATM    8  C   UNL     1     -12.182   7.808  71.841  1.00  0.00    -0.341 C  
BRANCH   8   9
HETATM    9  C   UNL     1     -11.536   8.740  70.826  1.00  0.00    -0.309 C  
BRANCH   9  10
HETATM   10  C   UNL     1     -11.658  10.215  71.237  1.00  0.00    -0.387 C  
BRANCH  10  11
HETATM   11  C   UNL     1     -12.752  10.988  70.487  1.00  0.00    -0.331 C  
BRANCH  11  12
HETATM   12  C   UNL     1     -12.153  11.767  69.342  1.00  0.00    -0.238 C  
HETATM   13  O   UNL     1     -11.662  12.881  69.431  1.00  0.00    -0.292 OA 
BRANCH  12  14
HETATM   14  O   UNL     1     -12.072  10.967  68.242  1.00  0.00    -0.604 OA 
BRANCH  14  15
HETATM   15  C   UNL     1     -11.104  11.394  67.277  1.00  0.00    -0.303 C  
BRANCH  15  16
HETATM   16  C   UNL     1      -9.872  10.507  67.488  1.00  0.00    -0.168 C  
BRANCH  16  17
HETATM   17  N   UNL     1      -9.920   9.239  66.779  1.00  0.00    -0.224 N  
HETATM   18  C   UNL     1      -8.782   8.494  66.592  1.00  0.00    -0.125 C  
HETATM   19  H   UNL     1     -10.810   8.898  66.417  1.00  0.00     0.000 HD 
HETATM   20  O   UNL     1      -7.660   8.887  66.897  1.00  0.00    -0.086 OA 
BRANCH  18  21
HETATM   21  C   UNL     1      -8.964   7.164  65.890  1.00  0.00    -0.065 C  
BRANCH  21  22
HETATM   22  N   UNL     1      -9.011   6.087  66.901  1.00  0.00    -0.115 NA 
HETATM   23  C   UNL     1     -10.171   5.829  67.557  1.00  0.00    -0.196 A  
HETATM   24  C   UNL     1     -10.229   4.837  68.526  1.00  0.00    -0.054 A  
HETATM   25  C   UNL     1      -9.092   4.093  68.809  1.00  0.00    -0.188 A  
HETATM   26  C   UNL     1      -7.916   4.356  68.119  1.00  0.00    -0.079 A  
HETATM   27  C   UNL     1      -7.899   5.364  67.163  1.00  0.00    -0.101 A  
ENDBRANCH  21  22
ENDBRANCH  18  21
ENDBRANCH  16  17
ENDBRANCH  15  16
ENDBRANCH  14  15
ENDBRANCH  12  14
ENDBRANCH  11  12
ENDBRANCH  10  11
ENDBRANCH   9  10
ENDBRANCH   8   9
ENDBRANCH   7   8
ENDBRANCH   6   7
ENDBRANCH   5   6
ENDBRANCH   4   5
ENDBRANCH   3   4
ENDBRANCH   2   3
TORSDOF 16
ENDMDL
MODEL      272
REMARK 921   NORMALIZED FREE ENERGY PREDICTED BY IDOCK:   -3.27 KCAL/MOL
REMARK 922        TOTAL FREE ENERGY PREDICTED BY IDOCK:   -8.42 KCAL/MOL
REMARK 923 INTER-LIGAND FREE ENERGY PREDICTED BY IDOCK:   -7.25 KCAL/MOL
REMARK 924 INTRA-LIGAND FREE ENERGY PREDICTED BY IDOCK:   -1.16 KCAL/MOL
REMARK 927      BINDING AFFINITY PREDICTED BY RF-SCORE:    0.00 PKD
ROOT
HETATM    1  C   UNL     1     -12.391  12.708  70.586  1.00  0.00    -0.375 C  
HETATM    2  C   UNL     1     -12.606  11.652  71.657  1.00  0.00    -0.278 C  
ENDROOT
BRANCH   2   3
HETATM    3  C   UNL     1     -12.447  10.246  71.082  1.00  0.00    -0.495 C  
BRANCH   3   4
HETATM    4  C   UNL     1     -13.711   9.417  71.292  1.00  0.00    -0.248 C  
BRANCH   4   5
HETATM    5  C   UNL     1     -13.373   8.058  71.904  1.00  0.00    -0.336 C  
BRANCH   5   6
HETATM    6  C   UNL     1     -11.906   7.718  71.679  1.00  0.00    -0.321 C  
BRANCH   6   7
HETATM    7  C   UNL     1     -11.742   6.549  70.711  1.00  0.00    -0.427 C  
BRANCH   7   8
HETATM    8  C   UNL     1     -10.257   6.274  70.488  1.00  0.00    -0.240 C  
BRANCH   8   9
HETATM    9  C   UNL     1     -10.013   4.862  69.974  1.00  0.00    -0.323 C  
BRANCH   9  10
HETATM   10  C   UNL     1      -9.310   4.857  68.608  1.00  0.00    -0.182 C  
BRANCH  10  11
HETATM   11  C   UNL     1     -10.076   5.601  67.505  1.00  0.00    -0.208 C  
BRANCH  11  12
HETATM   12  C   UNL     1      -9.113   6.285  66.567  1.00  0.00    -0.153 C  
HETATM   13  O   UNL     1      -8.695   5.813  65.521  1.00  0.00    -0.150 OA 
BRANCH  12  14
HETATM   14  O   UNL     1      -8.928   7.574  66.967  1.00  0.00    -0.123 OA 
BRANCH  14  15
HETATM   15  C   UNL     1     -10.144   8.307  67.162  1.00  0.00    -0.264 C  
BRANCH  15  16
HETATM   16  C   UNL     1      -9.726   9.726  67.562  1.00  0.00    -0.157 C  
BRANCH  16  17
HETATM   17  N   UNL     1     -10.643  10.765  67.124  1.00  0.00    -0.241 N  
HETATM   18  C   UNL     1     -10.728  11.118  65.799  1.00  0.00    -0.188 C  
HETATM   19  H   UNL     1     -11.232  11.238  67.809  1.00  0.00     0.000 HD 
HETATM   20  O   UNL     1      -9.976  10.677  64.934  1.00  0.00    -0.271 OA 
BRANCH  18  21
HETATM   21  C   UNL     1     -11.759  12.172  65.455  1.00  0.00    -0.321 C  
BRANCH  21  22
HETATM   22  N   UNL     1     -11.223  13.504  65.804  1.00  0.00    -0.297 NA 
HETATM   23  C   UNL     1     -11.609  14.103  66.959  1.00  0.00    -0.382 A  
HETATM   24  C   UNL     1     -11.134  15.364  67.294  1.00  0.00    -0.302 A  
HETATM   25  C   UNL     1     -10.242  16.003  66.446  1.00  0.00    -0.315 A  
HETATM   26  C   UNL     1      -9.841  15.372  65.276  1.00  0.00    -0.239 A  
HETATM   27  C   UNL     1     -10.348  14.114  64.974  1.00  0.00    -0.418 A  
ENDBRANCH  21  22
ENDBRANCH  18  21
ENDBRANCH  16  17
ENDBRANCH  15  16
ENDBRANCH  14  15
ENDBRANCH  12  14
ENDBRANCH  11  12
ENDBRANCH  10  11
ENDBRANCH   9  10
ENDBRANCH   8   9
ENDBRANCH   7   8
ENDBRANCH   6   7
ENDBRANCH   5   6
ENDBRANCH   4   5
ENDBRANCH   3   4
ENDBRANCH   2   3
TORSDOF 16
ENDMDL
MODEL      273
REMARK 921   NORMALIZED FREE ENERGY PREDICTED BY IDOCK:   -3.27 KCAL/MOL
REMARK 922        TOTAL FREE ENERGY PREDICTED BY IDOCK:   -8.41 KCAL/MOL
REMARK 923 INTER-LIGAND FREE ENERGY PREDICTED BY IDOCK:   -7.03 KCAL/MOL
REMARK 924 INTRA-LIGAND FREE ENERGY PREDICTED BY IDOCK:   -1.38 KCAL/MOL
REMARK 927      BINDING AFFINITY PREDICTED BY RF-SCORE:    0.00 PKD
ROOT
HETATM    1  C   UNL     1      -8.509   4.965  65.364  1.00  0.00    -0.133 C  
HETATM    2  C   UNL     1      -8.880   5.196  66.818  1.00  0.00    -0.110 C  
ENDROOT
BRANCH   2   3
HETATM    3  C   UNL     1      -7.701   4.893  67.740  1.00  0.00    -0.083 C  
BRANCH   3   4
HETATM    4  C   UNL     1      -8.057   5.161  69.200  1.00  0.00    -0.084 C  
BRANCH   4   5
HETATM    5  C   UNL     1      -8.002   3.871  70.018  1.00  0.00    -0.053 C  
BRANCH   5   6
HETATM    6  C   UNL     1      -9.368   3.199  70.052  1.00  0.00    -0.226 C  
BRANCH   6   7
HETATM    7  C   UNL     1      -9.742   2.758  71.465  1.00  0.00    -0.225 C  
BRANCH   7   8
HETATM    8  C   UNL     1      -9.401   3.869  72.454  1.00  0.00    -0.166 C  
BRANCH   8   9
HETATM    9  C   UNL     1     -10.554   4.848  72.627  1.00  0.00    -0.272 C  
BRANCH   9  10
HETATM   10  C   UNL     1     -10.319   6.158  71.859  1.00  0.00    -0.244 C  
BRANCH  10  11
HETATM   11  C   UNL     1     -11.471   7.167  71.971  1.00  0.00    -0.310 C  
BRANCH  11  12
HETATM   12  C   UNL     1     -11.492   8.075  70.767  1.00  0.00    -0.263 C  
HETATM   13  O   UNL     1     -10.910   7.861  69.715  1.00  0.00    -0.249 OA 
BRANCH  12  14
HETATM   14  O   UNL     1     -12.404   9.068  70.963  1.00  0.00    -0.280 OA 
BRANCH  14  15
HETATM   15  C   UNL     1     -11.833  10.314  71.379  1.00  0.00    -0.283 C  
BRANCH  15  16
HETATM   16  C   UNL     1     -12.397  11.379  70.432  1.00  0.00    -0.319 C  
BRANCH  16  17
HETATM   17  N   UNL     1     -11.404  11.996  69.569  1.00  0.00    -0.426 N  
HETATM   18  C   UNL     1     -11.208  11.545  68.286  1.00  0.00    -0.261 C  
HETATM   19  H   UNL     1     -10.846  12.775  69.919  1.00  0.00     0.000 HD 
HETATM   20  O   UNL     1     -11.757  10.547  67.831  1.00  0.00    -0.453 OA 
BRANCH  18  21
HETATM   21  C   UNL     1     -10.188  12.303  67.462  1.00  0.00    -0.204 C  
BRANCH  21  22
HETATM   22  N   UNL     1     -10.721  12.502  66.098  1.00  0.00    -0.257 NA 
HETATM   23  C   UNL     1     -11.800  13.302  65.907  1.00  0.00    -0.393 A  
HETATM   24  C   UNL     1     -12.329  13.483  64.636  1.00  0.00    -0.419 A  
HETATM   25  C   UNL     1     -11.732  12.853  63.554  1.00  0.00    -0.576 A  
HETATM   26  C   UNL     1     -10.618  12.051  63.761  1.00  0.00    -0.478 A  
HETATM   27  C   UNL     1     -10.126  11.889  65.050  1.00  0.00    -0.264 A  
ENDBRANCH  21  22
ENDBRANCH  18  21
ENDBRANCH  16  17
ENDBRANCH  15  16
ENDBRANCH  14  15
ENDBRANCH  12  14
ENDBRANCH  11  12
ENDBRANCH  10  11
ENDBRANCH   9  10
ENDBRANCH   8   9
ENDBRANCH   7   8
ENDBRANCH   6   7
ENDBRANCH   5   6
ENDBRANCH   4   5
ENDBRANCH   3   4
ENDBRANCH   2   3
TORSDOF 16
ENDMDL
MODEL      274
REMARK 921   NORMALIZED FREE ENERGY PREDICTED BY IDOCK:   -3.27 KCAL/MOL
REMARK 922        TOTAL FREE ENERGY PREDICTED BY IDOCK:   -8.40 KCAL/MOL
REMARK 923 INTER-LIGAND FREE ENERGY PREDICTED BY IDOCK:   -6.84 KCAL/MOL
REMARK 924 INTRA-LIGAND FREE ENERGY PREDICTED BY IDOCK:   -1.56 KCAL/MOL
REMARK 927      BINDING AFFINITY PREDICTED BY RF-SCORE:    0.00 PKD
ROOT
HETATM    1  C   UNL     1     -10.585  19.495  67.303  1.00  0.00    -0.610 C  
HETATM    2  C   UNL     1     -10.410  18.165  66.592  1.00  0.00    -0.387 C  
ENDROOT
BRANCH   2   3
HETATM    3  C   UNL     1      -9.535  17.216  67.409  1.00  0.00    -0.247 C  
BRANCH   3   4
HETATM    4  C   UNL     1     -10.115  16.991  68.802  1.00  0.00    -0.307 C  
BRANCH   4   5
HETATM    5  C   UNL     1     -11.380  16.137  68.731  1.00  0.00    -0.359 C  
BRANCH   5   6
HETATM    6  C   UNL     1     -11.241  14.898  69.607  1.00  0.00    -0.300 C  
BRANCH   6   7
HETATM    7  C   UNL     1     -11.863  13.670  68.948  1.00  0.00    -0.402 C  
BRANCH   7   8
HETATM    8  C   UNL     1     -11.976  13.900  67.443  1.00  0.00    -0.436 C  
BRANCH   8   9
HETATM    9  C   UNL     1     -11.758  12.616  66.655  1.00  0.00    -0.464 C  
BRANCH   9  10
HETATM   10  C   UNL     1     -10.474  12.667  65.812  1.00  0.00    -0.299 C  
BRANCH  10  11
HETATM   11  C   UNL     1      -9.345  11.766  66.331  1.00  0.00    -0.229 C  
BRANCH  11  12
HETATM   12  C   UNL     1      -8.307  12.589  67.052  1.00  0.00    -0.144 C  
HETATM   13  O   UNL     1      -8.465  13.736  67.441  1.00  0.00    -0.181 OA 
BRANCH  12  14
HETATM   14  O   UNL     1      -7.242  11.802  67.368  1.00  0.00    -0.113 OA 
BRANCH  14  15
HETATM   15  C   UNL     1      -6.944  11.752  68.769  1.00  0.00    -0.103 C  
BRANCH  15  16
HETATM   16  C   UNL     1      -6.814  10.267  69.124  1.00  0.00    -0.062 C  
BRANCH  16  17
HETATM   17  N   UNL     1      -7.988   9.703  69.771  1.00  0.00    -0.132 N  
HETATM   18  C   UNL     1      -7.916   9.205  71.049  1.00  0.00    -0.125 C  
HETATM   19  H   UNL     1      -8.875   9.676  69.269  1.00  0.00     0.000 HD 
HETATM   20  O   UNL     1      -6.866   9.099  71.674  1.00  0.00    -0.246 OA 
BRANCH  18  21
HETATM   21  C   UNL     1      -9.215   8.696  71.638  1.00  0.00    -0.256 C  
BRANCH  21  22
HETATM   22  N   UNL     1      -9.691   7.548  70.837  1.00  0.00    -0.173 NA 
HETATM   23  C   UNL     1      -8.887   6.468  70.666  1.00  0.00    -0.144 A  
HETATM   24  C   UNL     1      -9.307   5.390  69.898  1.00  0.00    -0.184 A  
HETATM   25  C   UNL     1     -10.568   5.415  69.321  1.00  0.00    -0.271 A  
HETATM   26  C   UNL     1     -11.387   6.519  69.518  1.00  0.00    -0.419 A  
HETATM   27  C   UNL     1     -10.925   7.580  70.286  1.00  0.00    -0.250 A  
ENDBRANCH  21  22
ENDBRANCH  18  21
ENDBRANCH  16  17
ENDBRANCH  15  16
ENDBRANCH  14  15
ENDBRANCH  12  14
ENDBRANCH  11  12
ENDBRANCH  10  11
ENDBRANCH   9  10
ENDBRANCH   8   9
ENDBRANCH   7   8
ENDBRANCH   6   7
ENDBRANCH   5   6
ENDBRANCH   4   5
ENDBRANCH   3   4
ENDBRANCH   2   3
TORSDOF 16
ENDMDL
MODEL      275
REMARK 921   NORMALIZED FREE ENERGY PREDICTED BY IDOCK:   -3.25 KCAL/MOL
REMARK 922        TOTAL FREE ENERGY PREDICTED BY IDOCK:   -8.38 KCAL/MOL
REMARK 923 INTER-LIGAND FREE ENERGY PREDICTED BY IDOCK:   -6.84 KCAL/MOL
REMARK 924 INTRA-LIGAND FREE ENERGY PREDICTED BY IDOCK:   -1.54 KCAL/MOL
REMARK 927      BINDING AFFINITY PREDICTED BY RF-SCORE:    0.00 PKD
ROOT
HETATM    1  C   UNL     1     -14.406   7.594  71.225  1.00  0.00    -0.438 C  
HETATM    2  C   UNL     1     -13.949   8.886  71.881  1.00  0.00    -0.476 C  
ENDROOT
BRANCH   2   3
HETATM    3  C   UNL     1     -12.617   8.694  72.603  1.00  0.00    -0.277 C  
BRANCH   3   4
HETATM    4  C   UNL     1     -11.700   7.749  71.830  1.00  0.00    -0.335 C  
BRANCH   4   5
HETATM    5  C   UNL     1     -10.236   8.005  72.184  1.00  0.00    -0.308 C  
BRANCH   5   6
HETATM    6  C   UNL     1      -9.658   9.110  71.310  1.00  0.00    -0.331 C  
BRANCH   6   7
HETATM    7  C   UNL     1      -8.596   8.573  70.354  1.00  0.00    -0.146 C  
BRANCH   7   8
HETATM    8  C   UNL     1      -8.809   9.169  68.965  1.00  0.00    -0.139 C  
BRANCH   8   9
HETATM    9  C   UNL     1      -8.368  10.625  68.900  1.00  0.00    -0.150 C  
BRANCH   9  10
HETATM   10  C   UNL     1      -9.542  11.571  68.604  1.00  0.00    -0.159 C  
BRANCH  10  11
HETATM   11  C   UNL     1     -10.818  10.860  68.131  1.00  0.00    -0.283 C  
BRANCH  11  12
HETATM   12  C   UNL     1     -11.934  11.069  69.124  1.00  0.00    -0.324 C  
HETATM   13  O   UNL     1     -13.011  10.493  69.104  1.00  0.00     0.197 OA 
BRANCH  12  14
HETATM   14  O   UNL     1     -11.490  11.850  70.148  1.00  0.00    -0.210 OA 
BRANCH  14  15
HETATM   15  C   UNL     1     -12.531  12.358  70.992  1.00  0.00    -0.256 C  
BRANCH  15  16
HETATM   16  C   UNL     1     -12.300  13.870  71.091  1.00  0.00    -0.359 C  
BRANCH  16  17
HETATM   17  N   UNL     1     -11.896  14.495  69.842  1.00  0.00    -0.298 N  
HETATM   18  C   UNL     1     -11.482  15.805  69.813  1.00  0.00    -0.349 C  
HETATM   19  H   UNL     1     -11.919  13.955  68.977  1.00  0.00     0.000 HD 
HETATM   20  O   UNL     1     -11.534  16.551  70.786  1.00  0.00    -0.302 OA 
BRANCH  18  21
HETATM   21  C   UNL     1     -11.031  16.331  68.466  1.00  0.00    -0.345 C  
BRANCH  21  22
HETATM   22  N   UNL     1      -9.652  16.849  68.587  1.00  0.00    -0.257 NA 
HETATM   23  C   UNL     1      -9.439  18.188  68.645  1.00  0.00    -0.316 A  
HETATM   24  C   UNL     1      -8.150  18.694  68.736  1.00  0.00    -0.307 A  
HETATM   25  C   UNL     1      -7.075  17.818  68.789  1.00  0.00    -0.263 A  
HETATM   26  C   UNL     1      -7.309  16.450  68.746  1.00  0.00    -0.203 A  
HETATM   27  C   UNL     1      -8.614  15.985  68.645  1.00  0.00    -0.206 A  
ENDBRANCH  21  22
ENDBRANCH  18  21
ENDBRANCH  16  17
ENDBRANCH  15  16
ENDBRANCH  14  15
ENDBRANCH  12  14
ENDBRANCH  11  12
ENDBRANCH  10  11
ENDBRANCH   9  10
ENDBRANCH   8   9
ENDBRANCH   7   8
ENDBRANCH   6   7
ENDBRANCH   5   6
ENDBRANCH   4   5
ENDBRANCH   3   4
ENDBRANCH   2   3
TORSDOF 16
ENDMDL
MODEL      276
REMARK 921   NORMALIZED FREE ENERGY PREDICTED BY IDOCK:   -3.25 KCAL/MOL
REMARK 922        TOTAL FREE ENERGY PREDICTED BY IDOCK:   -8.37 KCAL/MOL
REMARK 923 INTER-LIGAND FREE ENERGY PREDICTED BY IDOCK:   -6.06 KCAL/MOL
REMARK 924 INTRA-LIGAND FREE ENERGY PREDICTED BY IDOCK:   -2.32 KCAL/MOL
REMARK 927      BINDING AFFINITY PREDICTED BY RF-SCORE:    0.00 PKD
ROOT
HETATM    1  C   UNL     1     -11.906  11.639  68.928  1.00  0.00    -0.392 C  
HETATM    2  C   UNL     1     -10.859  10.880  69.725  1.00  0.00    -0.247 C  
ENDROOT
BRANCH   2   3
HETATM    3  C   UNL     1      -9.676  10.488  68.843  1.00  0.00    -0.206 C  
BRANCH   3   4
HETATM    4  C   UNL     1      -8.531   9.918  69.675  1.00  0.00    -0.198 C  
BRANCH   4   5
HETATM    5  C   UNL     1      -7.884   8.729  68.966  1.00  0.00    -0.096 C  
BRANCH   5   6
HETATM    6  C   UNL     1      -7.227   9.172  67.666  1.00  0.00    -0.083 C  
BRANCH   6   7
HETATM    7  C   UNL     1      -6.147  10.223  67.912  1.00  0.00    -0.051 C  
BRANCH   7   8
HETATM    8  C   UNL     1      -6.358  11.404  66.968  1.00  0.00    -0.122 C  
BRANCH   8   9
HETATM    9  C   UNL     1      -5.868  12.710  67.577  1.00  0.00    -0.140 C  
BRANCH   9  10
HETATM   10  C   UNL     1      -6.831  13.245  68.649  1.00  0.00    -0.099 C  
BRANCH  10  11
HETATM   11  C   UNL     1      -7.866  14.248  68.120  1.00  0.00    -0.139 C  
BRANCH  11  12
HETATM   12  C   UNL     1      -7.204  15.562  67.793  1.00  0.00    -0.157 C  
HETATM   13  O   UNL     1      -6.970  15.970  66.666  1.00  0.00    -0.216 OA 
BRANCH  12  14
HETATM   14  O   UNL     1      -7.079  16.303  68.928  1.00  0.00    -0.157 OA 
BRANCH  14  15
HETATM   15  C   UNL     1      -6.086  17.334  68.851  1.00  0.00    -0.182 C  
BRANCH  15  16
HETATM   16  C   UNL     1      -6.841  18.662  68.974  1.00  0.00    -0.280 C  
BRANCH  16  17
HETATM   17  N   UNL     1      -8.277  18.553  68.780  1.00  0.00    -0.290 N  
HETATM   18  C   UNL     1      -8.866  18.986  67.617  1.00  0.00    -0.289 C  
HETATM   19  H   UNL     1      -8.856  18.151  69.518  1.00  0.00     0.000 HD 
HETATM   20  O   UNL     1      -8.257  19.581  66.733  1.00  0.00    -0.271 OA 
BRANCH  18  21
HETATM   21  C   UNL     1     -10.361  18.769  67.507  1.00  0.00    -0.416 C  
BRANCH  21  22
HETATM   22  N   UNL     1     -10.623  17.338  67.245  1.00  0.00    -0.319 NA 
HETATM   23  C   UNL     1     -10.355  16.817  66.021  1.00  0.00    -0.335 A  
HETATM   24  C   UNL     1     -10.616  15.481  65.749  1.00  0.00    -0.370 A  
HETATM   25  C   UNL     1     -11.136  14.671  66.749  1.00  0.00    -0.335 A  
HETATM   26  C   UNL     1     -11.389  15.212  68.002  1.00  0.00    -0.346 A  
HETATM   27  C   UNL     1     -11.122  16.557  68.229  1.00  0.00    -0.321 A  
ENDBRANCH  21  22
ENDBRANCH  18  21
ENDBRANCH  16  17
ENDBRANCH  15  16
ENDBRANCH  14  15
ENDBRANCH  12  14
ENDBRANCH  11  12
ENDBRANCH  10  11
ENDBRANCH   9  10
ENDBRANCH   8   9
ENDBRANCH   7   8
ENDBRANCH   6   7
ENDBRANCH   5   6
ENDBRANCH   4   5
ENDBRANCH   3   4
ENDBRANCH   2   3
TORSDOF 16
ENDMDL
MODEL      277
REMARK 921   NORMALIZED FREE ENERGY PREDICTED BY IDOCK:   -3.25 KCAL/MOL
REMARK 922        TOTAL FREE ENERGY PREDICTED BY IDOCK:   -8.37 KCAL/MOL
REMARK 923 INTER-LIGAND FREE ENERGY PREDICTED BY IDOCK:   -6.30 KCAL/MOL
REMARK 924 INTRA-LIGAND FREE ENERGY PREDICTED BY IDOCK:   -2.06 KCAL/MOL
REMARK 927      BINDING AFFINITY PREDICTED BY RF-SCORE:    0.00 PKD
ROOT
HETATM    1  C   UNL     1      -6.301  14.115  68.629  1.00  0.00    -0.089 C  
HETATM    2  C   UNL     1      -7.716  13.669  68.956  1.00  0.00     0.087 C  
ENDROOT
BRANCH   2   3
HETATM    3  C   UNL     1      -8.237  12.683  67.912  1.00  0.00    -0.170 C  
BRANCH   3   4
HETATM    4  C   UNL     1      -9.469  13.232  67.198  1.00  0.00    -0.240 C  
BRANCH   4   5
HETATM    5  C   UNL     1      -9.289  14.713  66.867  1.00  0.00    -0.258 C  
BRANCH   5   6
HETATM    6  C   UNL     1     -10.606  15.324  66.407  1.00  0.00    -0.308 C  
BRANCH   6   7
HETATM    7  C   UNL     1     -11.518  15.647  67.587  1.00  0.00    -0.167 C  
BRANCH   7   8
HETATM    8  C   UNL     1     -10.758  16.494  68.604  1.00  0.00    -0.334 C  
BRANCH   8   9
HETATM    9  C   UNL     1     -11.096  16.101  70.035  1.00  0.00    -0.363 C  
BRANCH   9  10
HETATM   10  C   UNL     1     -12.168  15.001  70.094  1.00  0.00    -0.392 C  
BRANCH  10  11
HETATM   11  C   UNL     1     -13.331  15.308  71.048  1.00  0.00    -0.537 C  
BRANCH  11  12
HETATM   12  C   UNL     1     -13.313  14.357  72.219  1.00  0.00    -0.421 C  
HETATM   13  O   UNL     1     -12.976  14.648  73.356  1.00  0.00    -0.526 OA 
BRANCH  12  14
HETATM   14  O   UNL     1     -13.907  13.185  71.861  1.00  0.00    -0.345 OA 
BRANCH  14  15
HETATM   15  C   UNL     1     -13.077  12.030  72.038  1.00  0.00    -0.351 C  
BRANCH  15  16
HETATM   16  C   UNL     1     -12.609  11.623  70.637  1.00  0.00    -0.230 C  
BRANCH  16  17
HETATM   17  N   UNL     1     -11.859  10.378  70.596  1.00  0.00    -0.322 N  
HETATM   18  C   UNL     1     -11.134  10.030  69.483  1.00  0.00    -0.238 C  
HETATM   19  H   UNL     1     -11.871   9.756  71.404  1.00  0.00     0.000 HD 
HETATM   20  O   UNL     1     -11.159  10.666  68.434  1.00  0.00    -0.233 OA 
BRANCH  18  21
HETATM   21  C   UNL     1     -10.347   8.738  69.577  1.00  0.00    -0.213 C  
BRANCH  21  22
HETATM   22  N   UNL     1      -8.928   9.014  69.270  1.00  0.00    -0.142 NA 
HETATM   23  C   UNL     1      -8.125   9.550  70.225  1.00  0.00    -0.181 A  
HETATM   24  C   UNL     1      -6.795   9.837  69.949  1.00  0.00    -0.085 A  
HETATM   25  C   UNL     1      -6.284   9.554  68.691  1.00  0.00    -0.044 A  
HETATM   26  C   UNL     1      -7.112   8.990  67.729  1.00  0.00    -0.079 A  
HETATM   27  C   UNL     1      -8.439   8.727  68.043  1.00  0.00    -0.126 A  
ENDBRANCH  21  22
ENDBRANCH  18  21
ENDBRANCH  16  17
ENDBRANCH  15  16
ENDBRANCH  14  15
ENDBRANCH  12  14
ENDBRANCH  11  12
ENDBRANCH  10  11
ENDBRANCH   9  10
ENDBRANCH   8   9
ENDBRANCH   7   8
ENDBRANCH   6   7
ENDBRANCH   5   6
ENDBRANCH   4   5
ENDBRANCH   3   4
ENDBRANCH   2   3
TORSDOF 16
ENDMDL
MODEL      278
REMARK 921   NORMALIZED FREE ENERGY PREDICTED BY IDOCK:   -3.24 KCAL/MOL
REMARK 922        TOTAL FREE ENERGY PREDICTED BY IDOCK:   -8.35 KCAL/MOL
REMARK 923 INTER-LIGAND FREE ENERGY PREDICTED BY IDOCK:   -6.23 KCAL/MOL
REMARK 924 INTRA-LIGAND FREE ENERGY PREDICTED BY IDOCK:   -2.12 KCAL/MOL
REMARK 927      BINDING AFFINITY PREDICTED BY RF-SCORE:    0.00 PKD
ROOT
HETATM    1  C   UNL     1      -6.182  13.170  69.397  1.00  0.00    -0.111 C  
HETATM    2  C   UNL     1      -5.912  13.353  67.913  1.00  0.00    -0.140 C  
ENDROOT
BRANCH   2   3
HETATM    3  C   UNL     1      -6.829  12.465  67.074  1.00  0.00    -0.006 C  
BRANCH   3   4
HETATM    4  C   UNL     1      -6.076  11.258  66.521  1.00  0.00    -0.139 C  
BRANCH   4   5
HETATM    5  C   UNL     1      -6.673   9.956  67.054  1.00  0.00    -0.075 C  
BRANCH   5   6
HETATM    6  C   UNL     1      -6.449   8.820  66.065  1.00  0.00    -0.057 C  
BRANCH   6   7
HETATM    7  C   UNL     1      -6.284   9.339  64.639  1.00  0.00    -0.072 C  
BRANCH   7   8
HETATM    8  C   UNL     1      -7.193   8.551  63.699  1.00  0.00    -0.095 C  
BRANCH   8   9
HETATM    9  C   UNL     1      -8.640   9.013  63.791  1.00  0.00    -0.147 C  
BRANCH   9  10
HETATM   10  C   UNL     1      -8.800  10.491  63.404  1.00  0.00    -0.210 C  
BRANCH  10  11
HETATM   11  C   UNL     1     -10.196  11.066  63.683  1.00  0.00    -0.431 C  
BRANCH  11  12
HETATM   12  C   UNL     1     -10.192  11.854  64.969  1.00  0.00    -0.278 C  
HETATM   13  O   UNL     1      -9.911  11.403  66.069  1.00  0.00    -0.207 OA 
BRANCH  12  14
HETATM   14  O   UNL     1     -10.364  13.176  64.692  1.00  0.00    -0.361 OA 
BRANCH  14  15
HETATM   15  C   UNL     1     -11.670  13.509  64.206  1.00  0.00    -0.416 C  
BRANCH  15  16
HETATM   16  C   UNL     1     -12.604  13.451  65.420  1.00  0.00    -0.475 C  
BRANCH  16  17
HETATM   17  N   UNL     1     -12.381  14.504  66.396  1.00  0.00    -0.386 N  
HETATM   18  C   UNL     1     -11.998  14.203  67.681  1.00  0.00    -0.370 C  
HETATM   19  H   UNL     1     -12.509  15.478  66.125  1.00  0.00     0.000 HD 
HETATM   20  O   UNL     1     -11.932  13.057  68.115  1.00  0.00    -0.343 OA 
BRANCH  18  21
HETATM   21  C   UNL     1     -11.739  15.385  68.593  1.00  0.00    -0.354 C  
BRANCH  21  22
HETATM   22  N   UNL     1     -10.595  16.159  68.067  1.00  0.00    -0.293 NA 
HETATM   23  C   UNL     1     -10.745  17.480  67.794  1.00  0.00    -0.332 A  
HETATM   24  C   UNL     1      -9.689  18.218  67.278  1.00  0.00    -0.301 A  
HETATM   25  C   UNL     1      -8.466  17.599  67.061  1.00  0.00    -0.252 A  
HETATM   26  C   UNL     1      -8.322  16.251  67.361  1.00  0.00    -0.189 A  
HETATM   27  C   UNL     1      -9.407  15.546  67.867  1.00  0.00    -0.192 A  
ENDBRANCH  21  22
ENDBRANCH  18  21
ENDBRANCH  16  17
ENDBRANCH  15  16
ENDBRANCH  14  15
ENDBRANCH  12  14
ENDBRANCH  11  12
ENDBRANCH  10  11
ENDBRANCH   9  10
ENDBRANCH   8   9
ENDBRANCH   7   8
ENDBRANCH   6   7
ENDBRANCH   5   6
ENDBRANCH   4   5
ENDBRANCH   3   4
ENDBRANCH   2   3
TORSDOF 16
ENDMDL
MODEL      279
REMARK 921   NORMALIZED FREE ENERGY PREDICTED BY IDOCK:   -3.24 KCAL/MOL
REMARK 922        TOTAL FREE ENERGY PREDICTED BY IDOCK:   -8.35 KCAL/MOL
REMARK 923 INTER-LIGAND FREE ENERGY PREDICTED BY IDOCK:   -6.11 KCAL/MOL
REMARK 924 INTRA-LIGAND FREE ENERGY PREDICTED BY IDOCK:   -2.23 KCAL/MOL
REMARK 927      BINDING AFFINITY PREDICTED BY RF-SCORE:    0.00 PKD
ROOT
HETATM    1  C   UNL     1      -8.221   7.972  70.568  1.00  0.00    -0.118 C  
HETATM    2  C   UNL     1      -7.964   8.398  72.003  1.00  0.00    -0.184 C  
ENDROOT
BRANCH   2   3
HETATM    3  C   UNL     1      -9.004   7.802  72.948  1.00  0.00    -0.243 C  
BRANCH   3   4
HETATM    4  C   UNL     1      -9.689   6.590  72.322  1.00  0.00    -0.159 C  
BRANCH   4   5
HETATM    5  C   UNL     1     -11.208   6.699  72.449  1.00  0.00    -0.302 C  
BRANCH   5   6
HETATM    6  C   UNL     1     -11.626   8.150  72.654  1.00  0.00    -0.441 C  
BRANCH   6   7
HETATM    7  C   UNL     1     -12.249   8.739  71.392  1.00  0.00    -0.359 C  
BRANCH   7   8
HETATM    8  C   UNL     1     -11.483   9.995  70.982  1.00  0.00    -0.463 C  
BRANCH   8   9
HETATM    9  C   UNL     1     -10.972   9.906  69.551  1.00  0.00    -0.274 C  
BRANCH   9  10
HETATM   10  C   UNL     1     -10.086  11.105  69.179  1.00  0.00    -0.134 C  
BRANCH  10  11
HETATM   11  C   UNL     1     -10.676  12.008  68.088  1.00  0.00    -0.246 C  
BRANCH  11  12
HETATM   12  C   UNL     1      -9.999  11.746  66.766  1.00  0.00    -0.201 C  
HETATM   13  O   UNL     1      -8.938  12.235  66.411  1.00  0.00    -0.195 OA 
BRANCH  12  14
HETATM   14  O   UNL     1     -10.650  10.744  66.113  1.00  0.00    -0.239 OA 
BRANCH  14  15
HETATM   15  C   UNL     1      -9.793   9.887  65.350  1.00  0.00    -0.313 C  
BRANCH  15  16
HETATM   16  C   UNL     1      -9.229   8.859  66.337  1.00  0.00    -0.189 C  
BRANCH  16  17
HETATM   17  N   UNL     1      -9.996   7.627  66.419  1.00  0.00    -0.457 N  
HETATM   18  C   UNL     1      -9.410   6.414  66.146  1.00  0.00    -0.076 C  
HETATM   19  H   UNL     1     -10.980   7.663  66.682  1.00  0.00     0.000 HD 
HETATM   20  O   UNL     1      -8.267   6.298  65.715  1.00  0.00    -0.122 OA 
BRANCH  18  21
HETATM   21  C   UNL     1     -10.292   5.195  66.320  1.00  0.00    -0.268 C  
BRANCH  21  22
HETATM   22  N   UNL     1      -9.842   4.440  67.508  1.00  0.00    -0.160 NA 
HETATM   23  C   UNL     1      -9.903   5.017  68.735  1.00  0.00    -0.168 A  
HETATM   24  C   UNL     1      -9.463   4.332  69.860  1.00  0.00    -0.260 A  
HETATM   25  C   UNL     1      -8.978   3.039  69.724  1.00  0.00    -0.172 A  
HETATM   26  C   UNL     1      -8.938   2.455  68.466  1.00  0.00    -0.178 A  
HETATM   27  C   UNL     1      -9.378   3.178  67.365  1.00  0.00    -0.191 A  
ENDBRANCH  21  22
ENDBRANCH  18  21
ENDBRANCH  16  17
ENDBRANCH  15  16
ENDBRANCH  14  15
ENDBRANCH  12  14
ENDBRANCH  11  12
ENDBRANCH  10  11
ENDBRANCH   9  10
ENDBRANCH   8   9
ENDBRANCH   7   8
ENDBRANCH   6   7
ENDBRANCH   5   6
ENDBRANCH   4   5
ENDBRANCH   3   4
ENDBRANCH   2   3
TORSDOF 16
ENDMDL
MODEL      280
REMARK 921   NORMALIZED FREE ENERGY PREDICTED BY IDOCK:   -3.24 KCAL/MOL
REMARK 922        TOTAL FREE ENERGY PREDICTED BY IDOCK:   -8.34 KCAL/MOL
REMARK 923 INTER-LIGAND FREE ENERGY PREDICTED BY IDOCK:   -6.41 KCAL/MOL
REMARK 924 INTRA-LIGAND FREE ENERGY PREDICTED BY IDOCK:   -1.93 KCAL/MOL
REMARK 927      BINDING AFFINITY PREDICTED BY RF-SCORE:    0.00 PKD
ROOT
HETATM    1  C   UNL     1     -12.006  13.595  69.287  1.00  0.00    -0.384 C  
HETATM    2  C   UNL     1     -12.437  13.113  70.661  1.00  0.00    -0.363 C  
ENDROOT
BRANCH   2   3
HETATM    3  C   UNL     1     -12.456  11.587  70.727  1.00  0.00    -0.444 C  
BRANCH   3   4
HETATM    4  C   UNL     1     -13.243  11.095  71.938  1.00  0.00    -0.488 C  
BRANCH   4   5
HETATM    5  C   UNL     1     -13.121   9.579  72.085  1.00  0.00    -0.522 C  
BRANCH   5   6
HETATM    6  C   UNL     1     -11.764   9.099  71.588  1.00  0.00    -0.448 C  
BRANCH   6   7
HETATM    7  C   UNL     1     -11.849   7.701  70.983  1.00  0.00    -0.306 C  
BRANCH   7   8
HETATM    8  C   UNL     1     -10.540   6.955  71.231  1.00  0.00    -0.244 C  
BRANCH   8   9
HETATM    9  C   UNL     1     -10.740   5.447  71.244  1.00  0.00    -0.249 C  
BRANCH   9  10
HETATM   10  C   UNL     1      -9.961   4.752  70.117  1.00  0.00    -0.321 C  
BRANCH  10  11
HETATM   11  C   UNL     1      -9.726   5.631  68.880  1.00  0.00    -0.181 C  
BRANCH  11  12
HETATM   12  C   UNL     1      -9.367   4.778  67.690  1.00  0.00    -0.138 C  
HETATM   13  O   UNL     1      -9.716   3.619  67.524  1.00  0.00    -0.184 OA 
BRANCH  12  14
HETATM   14  O   UNL     1      -8.759   5.548  66.746  1.00  0.00    -0.114 OA 
BRANCH  14  15
HETATM   15  C   UNL     1      -8.923   5.071  65.405  1.00  0.00    -0.152 C  
BRANCH  15  16
HETATM   16  C   UNL     1      -8.098   6.008  64.516  1.00  0.00    -0.126 C  
BRANCH  16  17
HETATM   17  N   UNL     1      -8.331   7.422  64.759  1.00  0.00    -0.328 N  
HETATM   18  C   UNL     1      -7.313   8.239  65.187  1.00  0.00    -0.081 C  
HETATM   19  H   UNL     1      -9.261   7.812  64.610  1.00  0.00     0.000 HD 
HETATM   20  O   UNL     1      -6.200   7.825  65.497  1.00  0.00    -0.038 OA 
BRANCH  18  21
HETATM   21  C   UNL     1      -7.660   9.704  65.352  1.00  0.00    -0.111 C  
BRANCH  21  22
HETATM   22  N   UNL     1      -8.712   9.838  66.382  1.00  0.00    -0.130 NA 
HETATM   23  C   UNL     1      -9.908  10.390  66.054  1.00  0.00    -0.232 A  
HETATM   24  C   UNL     1     -10.900  10.545  67.012  1.00  0.00    -0.288 A  
HETATM   25  C   UNL     1     -10.669  10.111  68.310  1.00  0.00    -0.277 A  
HETATM   26  C   UNL     1      -9.448   9.532  68.627  1.00  0.00    -0.143 A  
HETATM   27  C   UNL     1      -8.478   9.404  67.641  1.00  0.00    -0.119 A  
ENDBRANCH  21  22
ENDBRANCH  18  21
ENDBRANCH  16  17
ENDBRANCH  15  16
ENDBRANCH  14  15
ENDBRANCH  12  14
ENDBRANCH  11  12
ENDBRANCH  10  11
ENDBRANCH   9  10
ENDBRANCH   8   9
ENDBRANCH   7   8
ENDBRANCH   6   7
ENDBRANCH   5   6
ENDBRANCH   4   5
ENDBRANCH   3   4
ENDBRANCH   2   3
TORSDOF 16
ENDMDL
MODEL      281
REMARK 921   NORMALIZED FREE ENERGY PREDICTED BY IDOCK:   -3.23 KCAL/MOL
REMARK 922        TOTAL FREE ENERGY PREDICTED BY IDOCK:   -8.34 KCAL/MOL
REMARK 923 INTER-LIGAND FREE ENERGY PREDICTED BY IDOCK:   -7.20 KCAL/MOL
REMARK 924 INTRA-LIGAND FREE ENERGY PREDICTED BY IDOCK:   -1.15 KCAL/MOL
REMARK 927      BINDING AFFINITY PREDICTED BY RF-SCORE:    0.00 PKD
ROOT
HETATM    1  C   UNL     1     -10.518   6.617  73.609  1.00  0.00    -0.353 C  
HETATM    2  C   UNL     1     -11.038   5.192  73.535  1.00  0.00    -0.361 C  
ENDROOT
BRANCH   2   3
HETATM    3  C   UNL     1     -10.048   4.213  74.163  1.00  0.00    -0.213 C  
BRANCH   3   4
HETATM    4  C   UNL     1      -9.772   3.034  73.234  1.00  0.00    -0.153 C  
BRANCH   4   5
HETATM    5  C   UNL     1      -8.864   3.454  72.079  1.00  0.00    -0.129 C  
BRANCH   5   6
HETATM    6  C   UNL     1      -9.293   2.774  70.785  1.00  0.00    -0.221 C  
BRANCH   6   7
HETATM    7  C   UNL     1      -9.516   3.786  69.665  1.00  0.00    -0.258 C  
BRANCH   7   8
HETATM    8  C   UNL     1     -10.192   5.033  70.229  1.00  0.00    -0.328 C  
BRANCH   8   9
HETATM    9  C   UNL     1     -10.964   5.793  69.159  1.00  0.00    -0.308 C  
BRANCH   9  10
HETATM   10  C   UNL     1     -10.862   7.314  69.345  1.00  0.00    -0.206 C  
BRANCH  10  11
HETATM   11  C   UNL     1      -9.480   7.801  69.804  1.00  0.00    -0.160 C  
BRANCH  11  12
HETATM   12  C   UNL     1      -9.615   9.038  70.655  1.00  0.00    -0.237 C  
HETATM   13  O   UNL     1      -9.069   9.213  71.733  1.00  0.00    -0.346 OA 
BRANCH  12  14
HETATM   14  O   UNL     1     -10.281   9.999  69.957  1.00  0.00    -0.249 OA 
BRANCH  14  15
HETATM   15  C   UNL     1      -9.544  10.540  68.854  1.00  0.00    -0.193 C  
BRANCH  15  16
HETATM   16  C   UNL     1     -10.473  10.458  67.638  1.00  0.00    -0.233 C  
BRANCH  16  17
HETATM   17  N   UNL     1     -11.279  11.648  67.421  1.00  0.00    -0.280 N  
HETATM   18  C   UNL     1     -11.315  12.258  66.191  1.00  0.00    -0.353 C  
HETATM   19  H   UNL     1     -11.824  12.035  68.191  1.00  0.00     0.000 HD 
HETATM   20  O   UNL     1     -10.604  11.922  65.249  1.00  0.00    -0.257 OA 
BRANCH  18  21
HETATM   21  C   UNL     1     -12.234  13.457  66.069  1.00  0.00    -0.437 C  
BRANCH  21  22
HETATM   22  N   UNL     1     -11.668  14.579  66.847  1.00  0.00    -0.385 NA 
HETATM   23  C   UNL     1     -12.029  14.747  68.144  1.00  0.00    -0.230 A  
HETATM   24  C   UNL     1     -11.526  15.809  68.885  1.00  0.00    -0.381 A  
HETATM   25  C   UNL     1     -10.632  16.689  68.294  1.00  0.00    -0.338 A  
HETATM   26  C   UNL     1     -10.258  16.496  66.971  1.00  0.00    -0.288 A  
HETATM   27  C   UNL     1     -10.792  15.426  66.262  1.00  0.00    -0.301 A  
ENDBRANCH  21  22
ENDBRANCH  18  21
ENDBRANCH  16  17
ENDBRANCH  15  16
ENDBRANCH  14  15
ENDBRANCH  12  14
ENDBRANCH  11  12
ENDBRANCH  10  11
ENDBRANCH   9  10
ENDBRANCH   8   9
ENDBRANCH   7   8
ENDBRANCH   6   7
ENDBRANCH   5   6
ENDBRANCH   4   5
ENDBRANCH   3   4
ENDBRANCH   2   3
TORSDOF 16
ENDMDL
MODEL      282
REMARK 921   NORMALIZED FREE ENERGY PREDICTED BY IDOCK:   -3.23 KCAL/MOL
REMARK 922        TOTAL FREE ENERGY PREDICTED BY IDOCK:   -8.32 KCAL/MOL
REMARK 923 INTER-LIGAND FREE ENERGY PREDICTED BY IDOCK:   -6.44 KCAL/MOL
REMARK 924 INTRA-LIGAND FREE ENERGY PREDICTED BY IDOCK:   -1.88 KCAL/MOL
REMARK 927      BINDING AFFINITY PREDICTED BY RF-SCORE:    0.00 PKD
ROOT
HETATM    1  C   UNL     1      -9.399   3.428  70.332  1.00  0.00    -0.240 C  
HETATM    2  C   UNL     1      -9.449   4.748  69.581  1.00  0.00    -0.223 C  
ENDROOT
BRANCH   2   3
HETATM    3  C   UNL     1     -10.443   5.710  70.228  1.00  0.00    -0.363 C  
BRANCH   3   4
HETATM    4  C   UNL     1     -11.225   6.488  69.174  1.00  0.00    -0.367 C  
BRANCH   4   5
HETATM    5  C   UNL     1     -11.035   5.869  67.790  1.00  0.00    -0.245 C  
BRANCH   5   6
HETATM    6  C   UNL     1     -10.791   6.952  66.747  1.00  0.00    -0.270 C  
BRANCH   6   7
HETATM    7  C   UNL     1      -9.385   7.535  66.861  1.00  0.00    -0.197 C  
BRANCH   7   8
HETATM    8  C   UNL     1      -9.444   9.050  66.676  1.00  0.00    -0.251 C  
BRANCH   8   9
HETATM    9  C   UNL     1      -8.380   9.763  67.499  1.00  0.00    -0.114 C  
BRANCH   9  10
HETATM   10  C   UNL     1      -8.027   8.991  68.780  1.00  0.00    -0.101 C  
BRANCH  10  11
HETATM   11  C   UNL     1      -8.175   9.812  70.069  1.00  0.00    -0.207 C  
BRANCH  11  12
HETATM   12  C   UNL     1      -9.341   9.307  70.882  1.00  0.00    -0.245 C  
HETATM   13  O   UNL     1      -9.260   8.818  71.998  1.00  0.00    -0.268 OA 
BRANCH  12  14
HETATM   14  O   UNL     1     -10.506   9.651  70.267  1.00  0.00    -0.242 OA 
BRANCH  14  15
HETATM   15  C   UNL     1     -11.584   9.930  71.168  1.00  0.00    -0.389 C  
BRANCH  15  16
HETATM   16  C   UNL     1     -11.990  11.385  70.908  1.00  0.00    -0.166 C  
BRANCH  16  17
HETATM   17  N   UNL     1     -11.550  11.908  69.625  1.00  0.00    -0.374 N  
HETATM   18  C   UNL     1     -11.602  13.255  69.359  1.00  0.00    -0.305 C  
HETATM   19  H   UNL     1     -11.198  11.268  68.914  1.00  0.00     0.000 HD 
HETATM   20  O   UNL     1     -12.115  14.073  70.116  1.00  0.00    -0.309 OA 
BRANCH  18  21
HETATM   21  C   UNL     1     -11.063  13.689  68.011  1.00  0.00    -0.262 C  
BRANCH  21  22
HETATM   22  N   UNL     1     -10.040  14.735  68.215  1.00  0.00    -0.217 NA 
HETATM   23  C   UNL     1      -8.851  14.412  68.784  1.00  0.00    -0.131 A  
HETATM   24  C   UNL     1      -7.886  15.385  69.004  1.00  0.00    -0.194 A  
HETATM   25  C   UNL     1      -8.137  16.694  68.618  1.00  0.00    -0.237 A  
HETATM   26  C   UNL     1      -9.350  17.008  68.021  1.00  0.00    -0.245 A  
HETATM   27  C   UNL     1     -10.293  16.006  67.828  1.00  0.00    -0.279 A  
ENDBRANCH  21  22
ENDBRANCH  18  21
ENDBRANCH  16  17
ENDBRANCH  15  16
ENDBRANCH  14  15
ENDBRANCH  12  14
ENDBRANCH  11  12
ENDBRANCH  10  11
ENDBRANCH   9  10
ENDBRANCH   8   9
ENDBRANCH   7   8
ENDBRANCH   6   7
ENDBRANCH   5   6
ENDBRANCH   4   5
ENDBRANCH   3   4
ENDBRANCH   2   3
TORSDOF 16
ENDMDL
MODEL      283
REMARK 921   NORMALIZED FREE ENERGY PREDICTED BY IDOCK:   -3.22 KCAL/MOL
REMARK 922        TOTAL FREE ENERGY PREDICTED BY IDOCK:   -8.32 KCAL/MOL
REMARK 923 INTER-LIGAND FREE ENERGY PREDICTED BY IDOCK:   -7.41 KCAL/MOL
REMARK 924 INTRA-LIGAND FREE ENERGY PREDICTED BY IDOCK:   -0.91 KCAL/MOL
REMARK 927      BINDING AFFINITY PREDICTED BY RF-SCORE:    0.00 PKD
ROOT
HETATM    1  C   UNL     1      -6.193  12.383  69.514  1.00  0.00    -0.126 C  
HETATM    2  C   UNL     1      -6.679  13.267  68.378  1.00  0.00    -0.096 C  
ENDROOT
BRANCH   2   3
HETATM    3  C   UNL     1      -7.218  12.427  67.222  1.00  0.00    -0.125 C  
BRANCH   3   4
HETATM    4  C   UNL     1      -6.379  11.170  67.012  1.00  0.00    -0.097 C  
BRANCH   4   5
HETATM    5  C   UNL     1      -7.250   9.917  67.091  1.00  0.00    -0.086 C  
BRANCH   5   6
HETATM    6  C   UNL     1      -7.113   9.087  65.821  1.00  0.00    -0.085 C  
BRANCH   6   7
HETATM    7  C   UNL     1      -6.940   9.971  64.589  1.00  0.00    -0.137 C  
BRANCH   7   8
HETATM    8  C   UNL     1      -8.202   9.909  63.733  1.00  0.00    -0.158 C  
BRANCH   8   9
HETATM    9  C   UNL     1      -9.397  10.534  64.439  1.00  0.00    -0.307 C  
BRANCH   9  10
HETATM   10  C   UNL     1     -10.168  11.499  63.525  1.00  0.00    -0.462 C  
BRANCH  10  11
HETATM   11  C   UNL     1     -11.572  11.857  64.031  1.00  0.00    -0.476 C  
BRANCH  11  12
HETATM   12  C   UNL     1     -11.546  12.108  65.518  1.00  0.00    -0.343 C  
HETATM   13  O   UNL     1     -11.651  11.247  66.378  1.00  0.00    -0.300 OA 
BRANCH  12  14
HETATM   14  O   UNL     1     -11.201  13.404  65.753  1.00  0.00    -0.289 OA 
BRANCH  14  15
HETATM   15  C   UNL     1     -12.260  14.204  66.293  1.00  0.00    -0.449 C  
BRANCH  15  16
HETATM   16  C   UNL     1     -12.143  14.095  67.817  1.00  0.00    -0.286 C  
BRANCH  16  17
HETATM   17  N   UNL     1     -11.921  15.363  68.492  1.00  0.00    -0.550 N  
HETATM   18  C   UNL     1     -10.660  15.899  68.585  1.00  0.00    -0.250 C  
HETATM   19  H   UNL     1     -12.712  15.861  68.901  1.00  0.00     0.000 HD 
HETATM   20  O   UNL     1      -9.647  15.311  68.220  1.00  0.00    -0.200 OA 
BRANCH  18  21
HETATM   21  C   UNL     1     -10.560  17.252  69.261  1.00  0.00    -0.156 C  
BRANCH  21  22
HETATM   22  N   UNL     1     -10.162  18.263  68.259  1.00  0.00    -0.376 NA 
HETATM   23  C   UNL     1     -10.775  18.288  67.048  1.00  0.00    -0.276 A  
HETATM   24  C   UNL     1     -10.398  19.215  66.086  1.00  0.00    -0.561 A  
HETATM   25  C   UNL     1      -9.401  20.134  66.378  1.00  0.00    -0.446 A  
HETATM   26  C   UNL     1      -8.794  20.108  67.626  1.00  0.00    -0.396 A  
HETATM   27  C   UNL     1      -9.194  19.158  68.557  1.00  0.00    -0.376 A  
ENDBRANCH  21  22
ENDBRANCH  18  21
ENDBRANCH  16  17
ENDBRANCH  15  16
ENDBRANCH  14  15
ENDBRANCH  12  14
ENDBRANCH  11  12
ENDBRANCH  10  11
ENDBRANCH   9  10
ENDBRANCH   8   9
ENDBRANCH   7   8
ENDBRANCH   6   7
ENDBRANCH   5   6
ENDBRANCH   4   5
ENDBRANCH   3   4
ENDBRANCH   2   3
TORSDOF 16
ENDMDL
MODEL      284
REMARK 921   NORMALIZED FREE ENERGY PREDICTED BY IDOCK:   -3.20 KCAL/MOL
REMARK 922        TOTAL FREE ENERGY PREDICTED BY IDOCK:   -8.28 KCAL/MOL
REMARK 923 INTER-LIGAND FREE ENERGY PREDICTED BY IDOCK:   -7.84 KCAL/MOL
REMARK 924 INTRA-LIGAND FREE ENERGY PREDICTED BY IDOCK:   -0.44 KCAL/MOL
REMARK 927      BINDING AFFINITY PREDICTED BY RF-SCORE:    0.00 PKD
ROOT
HETATM    1  C   UNL     1     -10.990  11.570  67.745  1.00  0.00    -0.291 C  
HETATM    2  C   UNL     1     -10.358  11.112  69.048  1.00  0.00    -0.214 C  
ENDROOT
BRANCH   2   3
HETATM    3  C   UNL     1     -11.098   9.906  69.623  1.00  0.00    -0.279 C  
BRANCH   3   4
HETATM    4  C   UNL     1     -11.488  10.140  71.080  1.00  0.00    -0.436 C  
BRANCH   4   5
HETATM    5  C   UNL     1     -12.915  10.677  71.180  1.00  0.00    -0.483 C  
BRANCH   5   6
HETATM    6  C   UNL     1     -12.970  12.138  70.752  1.00  0.00     0.017 C  
BRANCH   6   7
HETATM    7  C   UNL     1     -13.020  13.075  71.956  1.00  0.00    -0.395 C  
BRANCH   7   8
HETATM    8  C   UNL     1     -13.337  14.493  71.488  1.00  0.00    -0.435 C  
BRANCH   8   9
HETATM    9  C   UNL     1     -12.562  14.862  70.231  1.00  0.00    -0.361 C  
BRANCH   9  10
HETATM   10  C   UNL     1     -11.079  15.133  70.526  1.00  0.00    -0.294 C  
BRANCH  10  11
HETATM   11  C   UNL     1     -10.164  15.025  69.298  1.00  0.00    -0.244 C  
BRANCH  11  12
HETATM   12  C   UNL     1      -9.281  16.243  69.193  1.00  0.00    -0.235 C  
HETATM   13  O   UNL     1      -8.062  16.235  69.254  1.00  0.00    -0.237 OA 
BRANCH  12  14
HETATM   14  O   UNL     1     -10.034  17.319  68.833  1.00  0.00    -0.296 OA 
BRANCH  14  15
HETATM   15  C   UNL     1      -9.339  18.278  68.025  1.00  0.00    -0.284 C  
BRANCH  15  16
HETATM   16  C   UNL     1      -9.657  17.918  66.570  1.00  0.00    -0.313 C  
BRANCH  16  17
HETATM   17  N   UNL     1     -10.785  17.016  66.410  1.00  0.00    -0.152 N  
HETATM   18  C   UNL     1     -10.651  15.837  65.718  1.00  0.00    -0.355 C  
HETATM   19  H   UNL     1     -11.688  17.260  66.817  1.00  0.00     0.000 HD 
HETATM   20  O   UNL     1      -9.634  15.525  65.106  1.00  0.00    -0.224 OA 
BRANCH  18  21
HETATM   21  C   UNL     1     -11.879  14.952  65.666  1.00  0.00    -0.131 C  
BRANCH  21  22
HETATM   22  N   UNL     1     -11.576  13.754  64.853  1.00  0.00    -0.337 NA 
HETATM   23  C   UNL     1     -12.548  13.201  64.083  1.00  0.00    -0.184 A  
HETATM   24  C   UNL     1     -12.290  12.063  63.331  1.00  0.00    -0.635 A  
HETATM   25  C   UNL     1     -11.021  11.504  63.354  1.00  0.00    -0.397 A  
HETATM   26  C   UNL     1     -10.032  12.090  64.133  1.00  0.00    -0.289 A  
HETATM   27  C   UNL     1     -10.334  13.222  64.878  1.00  0.00    -0.351 A  
ENDBRANCH  21  22
ENDBRANCH  18  21
ENDBRANCH  16  17
ENDBRANCH  15  16
ENDBRANCH  14  15
ENDBRANCH  12  14
ENDBRANCH  11  12
ENDBRANCH  10  11
ENDBRANCH   9  10
ENDBRANCH   8   9
ENDBRANCH   7   8
ENDBRANCH   6   7
ENDBRANCH   5   6
ENDBRANCH   4   5
ENDBRANCH   3   4
ENDBRANCH   2   3
TORSDOF 16
ENDMDL
MODEL      285
REMARK 921   NORMALIZED FREE ENERGY PREDICTED BY IDOCK:   -3.19 KCAL/MOL
REMARK 922        TOTAL FREE ENERGY PREDICTED BY IDOCK:   -8.26 KCAL/MOL
REMARK 923 INTER-LIGAND FREE ENERGY PREDICTED BY IDOCK:   -7.07 KCAL/MOL
REMARK 924 INTRA-LIGAND FREE ENERGY PREDICTED BY IDOCK:   -1.19 KCAL/MOL
REMARK 927      BINDING AFFINITY PREDICTED BY RF-SCORE:    0.00 PKD
ROOT
HETATM    1  C   UNL     1     -10.592  19.522  67.438  1.00  0.00    -0.607 C  
HETATM    2  C   UNL     1     -10.738  18.010  67.466  1.00  0.00    -0.352 C  
ENDROOT
BRANCH   2   3
HETATM    3  C   UNL     1     -10.322  17.443  68.821  1.00  0.00    -0.357 C  
BRANCH   3   4
HETATM    4  C   UNL     1     -11.090  16.165  69.145  1.00  0.00    -0.329 C  
BRANCH   4   5
HETATM    5  C   UNL     1     -11.477  15.425  67.866  1.00  0.00    -0.306 C  
BRANCH   5   6
HETATM    6  C   UNL     1     -11.205  13.933  68.006  1.00  0.00    -0.295 C  
BRANCH   6   7
HETATM    7  C   UNL     1     -11.866  13.133  66.886  1.00  0.00    -0.444 C  
BRANCH   7   8
HETATM    8  C   UNL     1     -11.296  11.717  66.863  1.00  0.00    -0.386 C  
BRANCH   8   9
HETATM    9  C   UNL     1     -11.724  10.914  68.083  1.00  0.00    -0.231 C  
BRANCH   9  10
HETATM   10  C   UNL     1     -10.806   9.707  68.331  1.00  0.00    -0.212 C  
BRANCH  10  11
HETATM   11  C   UNL     1     -10.170   9.130  67.058  1.00  0.00    -0.333 C  
BRANCH  11  12
HETATM   12  C   UNL     1     -10.240   7.623  67.074  1.00  0.00    -0.300 C  
HETATM   13  O   UNL     1     -11.259   6.965  66.937  1.00  0.00    -0.353 OA 
BRANCH  12  14
HETATM   14  O   UNL     1      -8.978   7.111  67.074  1.00  0.00    -0.123 OA 
BRANCH  14  15
HETATM   15  C   UNL     1      -7.946   8.094  66.926  1.00  0.00    -0.104 C  
BRANCH  15  16
HETATM   16  C   UNL     1      -7.032   7.939  68.147  1.00  0.00    -0.073 C  
BRANCH  16  17
HETATM   17  N   UNL     1      -7.643   8.337  69.405  1.00  0.00    -0.094 N  
HETATM   18  C   UNL     1      -8.004   7.399  70.340  1.00  0.00    -0.103 C  
HETATM   19  H   UNL     1      -7.805   9.326  69.595  1.00  0.00     0.000 HD 
HETATM   20  O   UNL     1      -7.946   6.189  70.141  1.00  0.00    -0.103 OA 
BRANCH  18  21
HETATM   21  C   UNL     1      -8.579   7.936  71.635  1.00  0.00    -0.120 C  
BRANCH  21  22
HETATM   22  N   UNL     1     -10.054   7.919  71.552  1.00  0.00    -0.177 NA 
HETATM   23  C   UNL     1     -10.764   8.996  71.974  1.00  0.00    -0.263 A  
HETATM   24  C   UNL     1     -12.152   8.990  71.925  1.00  0.00    -0.448 A  
HETATM   25  C   UNL     1     -12.811   7.879  71.420  1.00  0.00    -0.305 A  
HETATM   26  C   UNL     1     -12.072   6.791  70.976  1.00  0.00    -0.426 A  
HETATM   27  C   UNL     1     -10.686   6.834  71.051  1.00  0.00    -0.231 A  
ENDBRANCH  21  22
ENDBRANCH  18  21
ENDBRANCH  16  17
ENDBRANCH  15  16
ENDBRANCH  14  15
ENDBRANCH  12  14
ENDBRANCH  11  12
ENDBRANCH  10  11
ENDBRANCH   9  10
ENDBRANCH   8   9
ENDBRANCH   7   8
ENDBRANCH   6   7
ENDBRANCH   5   6
ENDBRANCH   4   5
ENDBRANCH   3   4
ENDBRANCH   2   3
TORSDOF 16
ENDMDL
MODEL      286
REMARK 921   NORMALIZED FREE ENERGY PREDICTED BY IDOCK:   -3.19 KCAL/MOL
REMARK 922        TOTAL FREE ENERGY PREDICTED BY IDOCK:   -8.26 KCAL/MOL
REMARK 923 INTER-LIGAND FREE ENERGY PREDICTED BY IDOCK:   -7.42 KCAL/MOL
REMARK 924 INTRA-LIGAND FREE ENERGY PREDICTED BY IDOCK:   -0.84 KCAL/MOL
REMARK 927      BINDING AFFINITY PREDICTED BY RF-SCORE:    0.00 PKD
ROOT
HETATM    1  C   UNL     1      -6.574  20.341  64.788  1.00  0.00    -0.299 C  
HETATM    2  C   UNL     1      -5.633  20.564  65.960  1.00  0.00    -0.219 C  
ENDROOT
BRANCH   2   3
HETATM    3  C   UNL     1      -5.135  19.236  66.525  1.00  0.00    -0.159 C  
BRANCH   3   4
HETATM    4  C   UNL     1      -5.767  18.053  65.796  1.00  0.00    -0.233 C  
BRANCH   4   5
HETATM    5  C   UNL     1      -7.025  17.578  66.522  1.00  0.00    -0.288 C  
BRANCH   5   6
HETATM    6  C   UNL     1      -6.658  16.807  67.783  1.00  0.00    -0.161 C  
BRANCH   6   7
HETATM    7  C   UNL     1      -7.218  17.477  69.035  1.00  0.00    -0.215 C  
BRANCH   7   8
HETATM    8  C   UNL     1      -7.538  18.939  68.733  1.00  0.00    -0.368 C  
BRANCH   8   9
HETATM    9  C   UNL     1      -9.031  19.223  68.826  1.00  0.00    -0.399 C  
BRANCH   9  10
HETATM   10  C   UNL     1      -9.544  20.018  67.615  1.00  0.00    -0.516 C  
BRANCH  10  11
HETATM   11  C   UNL     1     -10.895  19.533  67.072  1.00  0.00    -0.542 C  
BRANCH  11  12
HETATM   12  C   UNL     1     -10.769  18.132  66.527  1.00  0.00    -0.151 C  
HETATM   13  O   UNL     1     -10.622  17.847  65.348  1.00  0.00    -0.656 OA 
BRANCH  12  14
HETATM   14  O   UNL     1     -10.654  17.252  67.559  1.00  0.00    -0.354 OA 
BRANCH  14  15
HETATM   15  C   UNL     1     -10.512  15.885  67.152  1.00  0.00    -0.313 C  
BRANCH  15  16
HETATM   16  C   UNL     1     -11.647  15.116  67.836  1.00  0.00    -0.311 C  
BRANCH  16  17
HETATM   17  N   UNL     1     -11.347  13.719  68.102  1.00  0.00    -0.268 N  
HETATM   18  C   UNL     1     -11.308  12.801  67.080  1.00  0.00    -0.314 C  
HETATM   19  H   UNL     1     -11.162  13.416  69.058  1.00  0.00     0.000 HD 
HETATM   20  O   UNL     1     -11.628  13.063  65.925  1.00  0.00    -0.330 OA 
BRANCH  18  21
HETATM   21  C   UNL     1     -10.929  11.387  67.470  1.00  0.00    -0.260 C  
BRANCH  21  22
HETATM   22  N   UNL     1      -9.805  10.938  66.621  1.00  0.00    -0.192 NA 
HETATM   23  C   UNL     1     -10.030  10.041  65.627  1.00  0.00    -0.285 A  
HETATM   24  C   UNL     1      -8.984   9.590  64.834  1.00  0.00    -0.264 A  
HETATM   25  C   UNL     1      -7.703  10.079  65.051  1.00  0.00    -0.138 A  
HETATM   26  C   UNL     1      -7.491  11.009  66.060  1.00  0.00    -0.032 A  
HETATM   27  C   UNL     1      -8.564  11.427  66.837  1.00  0.00    -0.154 A  
ENDBRANCH  21  22
ENDBRANCH  18  21
ENDBRANCH  16  17
ENDBRANCH  15  16
ENDBRANCH  14  15
ENDBRANCH  12  14
ENDBRANCH  11  12
ENDBRANCH  10  11
ENDBRANCH   9  10
ENDBRANCH   8   9
ENDBRANCH   7   8
ENDBRANCH   6   7
ENDBRANCH   5   6
ENDBRANCH   4   5
ENDBRANCH   3   4
ENDBRANCH   2   3
TORSDOF 16
ENDMDL
MODEL      287
REMARK 921   NORMALIZED FREE ENERGY PREDICTED BY IDOCK:   -3.18 KCAL/MOL
REMARK 922        TOTAL FREE ENERGY PREDICTED BY IDOCK:   -8.24 KCAL/MOL
REMARK 923 INTER-LIGAND FREE ENERGY PREDICTED BY IDOCK:   -6.72 KCAL/MOL
REMARK 924 INTRA-LIGAND FREE ENERGY PREDICTED BY IDOCK:   -1.53 KCAL/MOL
REMARK 927      BINDING AFFINITY PREDICTED BY RF-SCORE:    0.00 PKD
ROOT
HETATM    1  C   UNL     1     -12.607  15.764  71.458  1.00  0.00    -0.517 C  
HETATM    2  C   UNL     1     -13.333  14.439  71.620  1.00  0.00    -0.442 C  
ENDROOT
BRANCH   2   3
HETATM    3  C   UNL     1     -12.671  13.345  70.785  1.00  0.00    -0.301 C  
BRANCH   3   4
HETATM    4  C   UNL     1     -11.793  13.941  69.688  1.00  0.00    -0.385 C  
BRANCH   4   5
HETATM    5  C   UNL     1     -12.151  13.350  68.325  1.00  0.00    -0.271 C  
BRANCH   5   6
HETATM    6  C   UNL     1     -11.732  14.293  67.204  1.00  0.00    -0.430 C  
BRANCH   6   7
HETATM    7  C   UNL     1     -11.378  15.678  67.738  1.00  0.00    -0.261 C  
BRANCH   7   8
HETATM    8  C   UNL     1     -10.432  16.375  66.764  1.00  0.00    -0.273 C  
BRANCH   8   9
HETATM    9  C   UNL     1      -9.367  17.185  67.489  1.00  0.00    -0.238 C  
BRANCH   9  10
HETATM   10  C   UNL     1      -9.054  16.612  68.881  1.00  0.00    -0.238 C  
BRANCH  10  11
HETATM   11  C   UNL     1      -7.669  15.960  68.995  1.00  0.00    -0.209 C  
BRANCH  11  12
HETATM   12  C   UNL     1      -7.765  14.477  68.740  1.00  0.00    -0.140 C  
HETATM   13  O   UNL     1      -8.306  13.963  67.773  1.00  0.00    -0.148 OA 
BRANCH  12  14
HETATM   14  O   UNL     1      -7.000  13.810  69.648  1.00  0.00    -0.020 OA 
BRANCH  14  15
HETATM   15  C   UNL     1      -6.215  12.750  69.087  1.00  0.00    -0.098 C  
BRANCH  15  16
HETATM   16  C   UNL     1      -6.741  11.453  69.712  1.00  0.00    -0.076 C  
BRANCH  16  17
HETATM   17  N   UNL     1      -8.040  11.034  69.213  1.00  0.00    -0.359 N  
HETATM   18  C   UNL     1      -8.816  10.152  69.925  1.00  0.00    -0.056 C  
HETATM   19  H   UNL     1      -8.381  11.400  68.324  1.00  0.00     0.000 HD 
HETATM   20  O   UNL     1      -8.432   9.583  70.942  1.00  0.00    -0.269 OA 
BRANCH  18  21
HETATM   21  C   UNL     1     -10.174   9.833  69.335  1.00  0.00    -0.210 C  
BRANCH  21  22
HETATM   22  N   UNL     1     -10.637   8.532  69.863  1.00  0.00    -0.227 NA 
HETATM   23  C   UNL     1     -11.143   8.458  71.120  1.00  0.00    -0.256 A  
HETATM   24  C   UNL     1     -11.561   7.242  71.642  1.00  0.00    -0.306 A  
HETATM   25  C   UNL     1     -11.477   6.099  70.860  1.00  0.00    -0.317 A  
HETATM   26  C   UNL     1     -10.973   6.192  69.569  1.00  0.00    -0.463 A  
HETATM   27  C   UNL     1     -10.557   7.427  69.089  1.00  0.00    -0.204 A  
ENDBRANCH  21  22
ENDBRANCH  18  21
ENDBRANCH  16  17
ENDBRANCH  15  16
ENDBRANCH  14  15
ENDBRANCH  12  14
ENDBRANCH  11  12
ENDBRANCH  10  11
ENDBRANCH   9  10
ENDBRANCH   8   9
ENDBRANCH   7   8
ENDBRANCH   6   7
ENDBRANCH   5   6
ENDBRANCH   4   5
ENDBRANCH   3   4
ENDBRANCH   2   3
TORSDOF 16
ENDMDL
MODEL      288
REMARK 921   NORMALIZED FREE ENERGY PREDICTED BY IDOCK:   -3.18 KCAL/MOL
REMARK 922        TOTAL FREE ENERGY PREDICTED BY IDOCK:   -8.24 KCAL/MOL
REMARK 923 INTER-LIGAND FREE ENERGY PREDICTED BY IDOCK:   -7.35 KCAL/MOL
REMARK 924 INTRA-LIGAND FREE ENERGY PREDICTED BY IDOCK:   -0.90 KCAL/MOL
REMARK 927      BINDING AFFINITY PREDICTED BY RF-SCORE:    0.00 PKD
ROOT
HETATM    1  C   UNL     1     -10.196  18.836  67.910  1.00  0.00    -0.448 C  
HETATM    2  C   UNL     1     -10.701  17.418  68.112  1.00  0.00    -0.343 C  
ENDROOT
BRANCH   2   3
HETATM    3  C   UNL     1      -9.586  16.400  67.881  1.00  0.00    -0.228 C  
BRANCH   3   4
HETATM    4  C   UNL     1      -9.497  16.000  66.411  1.00  0.00    -0.322 C  
BRANCH   4   5
HETATM    5  C   UNL     1     -10.891  15.821  65.812  1.00  0.00    -0.286 C  
BRANCH   5   6
HETATM    6  C   UNL     1     -11.585  14.610  66.423  1.00  0.00    -0.343 C  
BRANCH   6   7
HETATM    7  C   UNL     1     -12.567  13.972  65.444  1.00  0.00    -0.529 C  
BRANCH   7   8
HETATM    8  C   UNL     1     -12.191  12.509  65.223  1.00  0.00    -0.493 C  
BRANCH   8   9
HETATM    9  C   UNL     1     -10.985  12.101  66.057  1.00  0.00    -0.332 C  
BRANCH   9  10
HETATM   10  C   UNL     1     -10.127  11.040  65.352  1.00  0.00    -0.326 C  
BRANCH  10  11
HETATM   11  C   UNL     1      -9.977   9.730  66.137  1.00  0.00    -0.338 C  
BRANCH  11  12
HETATM   12  C   UNL     1      -9.787  10.017  67.606  1.00  0.00    -0.162 C  
HETATM   13  O   UNL     1      -8.867  10.664  68.082  1.00  0.00    -0.127 OA 
BRANCH  12  14
HETATM   14  O   UNL     1     -10.889   9.611  68.294  1.00  0.00    -0.231 OA 
BRANCH  14  15
HETATM   15  C   UNL     1     -11.333  10.539  69.291  1.00  0.00    -0.262 C  
BRANCH  15  16
HETATM   16  C   UNL     1     -11.079   9.866  70.644  1.00  0.00    -0.340 C  
BRANCH  16  17
HETATM   17  N   UNL     1     -11.064   8.413  70.595  1.00  0.00    -0.255 N  
HETATM   18  C   UNL     1     -11.815   7.672  71.474  1.00  0.00    -0.295 C  
HETATM   19  H   UNL     1     -10.490   7.938  69.899  1.00  0.00     0.000 HD 
HETATM   20  O   UNL     1     -12.441   8.163  72.408  1.00  0.00    -0.322 OA 
BRANCH  18  21
HETATM   21  C   UNL     1     -11.765   6.169  71.291  1.00  0.00    -0.144 C  
BRANCH  21  22
HETATM   22  N   UNL     1     -10.791   5.599  72.245  1.00  0.00    -0.232 NA 
HETATM   23  C   UNL     1      -9.462   5.684  71.983  1.00  0.00    -0.150 A  
HETATM   24  C   UNL     1      -8.534   5.135  72.856  1.00  0.00    -0.116 A  
HETATM   25  C   UNL     1      -8.973   4.512  74.015  1.00  0.00    -0.108 A  
HETATM   26  C   UNL     1     -10.334   4.446  74.280  1.00  0.00    -0.296 A  
HETATM   27  C   UNL     1     -11.231   5.001  73.375  1.00  0.00    -0.319 A  
ENDBRANCH  21  22
ENDBRANCH  18  21
ENDBRANCH  16  17
ENDBRANCH  15  16
ENDBRANCH  14  15
ENDBRANCH  12  14
ENDBRANCH  11  12
ENDBRANCH  10  11
ENDBRANCH   9  10
ENDBRANCH   8   9
ENDBRANCH   7   8
ENDBRANCH   6   7
ENDBRANCH   5   6
ENDBRANCH   4   5
ENDBRANCH   3   4
ENDBRANCH   2   3
TORSDOF 16
ENDMDL
MODEL      289
REMARK 921   NORMALIZED FREE ENERGY PREDICTED BY IDOCK:   -3.18 KCAL/MOL
REMARK 922        TOTAL FREE ENERGY PREDICTED BY IDOCK:   -8.24 KCAL/MOL
REMARK 923 INTER-LIGAND FREE ENERGY PREDICTED BY IDOCK:   -6.99 KCAL/MOL
REMARK 924 INTRA-LIGAND FREE ENERGY PREDICTED BY IDOCK:   -1.25 KCAL/MOL
REMARK 927      BINDING AFFINITY PREDICTED BY RF-SCORE:    0.00 PKD
ROOT
HETATM    1  C   UNL     1      -9.923   9.709  69.875  1.00  0.00    -0.273 C  
HETATM    2  C   UNL     1      -9.213   8.890  70.940  1.00  0.00    -0.286 C  
ENDROOT
BRANCH   2   3
HETATM    3  C   UNL     1      -7.843   8.424  70.451  1.00  0.00    -0.090 C  
BRANCH   3   4
HETATM    4  C   UNL     1      -7.885   8.034  68.976  1.00  0.00    -0.109 C  
BRANCH   4   5
HETATM    5  C   UNL     1      -6.597   8.453  68.268  1.00  0.00    -0.060 C  
BRANCH   5   6
HETATM    6  C   UNL     1      -6.889   8.889  66.838  1.00  0.00    -0.077 C  
BRANCH   6   7
HETATM    7  C   UNL     1      -8.386   8.876  66.541  1.00  0.00    -0.115 C  
BRANCH   7   8
HETATM    8  C   UNL     1      -8.814  10.244  66.015  1.00  0.00    -0.166 C  
BRANCH   8   9
HETATM    9  C   UNL     1     -10.327  10.350  65.878  1.00  0.00    -0.261 C  
BRANCH   9  10
HETATM   10  C   UNL     1     -10.760  11.710  65.309  1.00  0.00    -0.346 C  
BRANCH  10  11
HETATM   11  C   UNL     1     -11.145  12.744  66.377  1.00  0.00    -0.320 C  
BRANCH  11  12
HETATM   12  C   UNL     1     -11.871  13.905  65.746  1.00  0.00    -0.378 C  
HETATM   13  O   UNL     1     -13.078  13.968  65.571  1.00  0.00    -0.713 OA 
BRANCH  12  14
HETATM   14  O   UNL     1     -11.006  14.943  65.574  1.00  0.00    -0.319 OA 
BRANCH  14  15
HETATM   15  C   UNL     1     -10.025  15.066  66.611  1.00  0.00    -0.256 C  
BRANCH  15  16
HETATM   16  C   UNL     1     -10.586  16.083  67.610  1.00  0.00    -0.309 C  
BRANCH  16  17
HETATM   17  N   UNL     1     -10.457  17.468  67.188  1.00  0.00    -0.332 N  
HETATM   18  C   UNL     1      -9.563  18.311  67.802  1.00  0.00    -0.283 C  
HETATM   19  H   UNL     1     -11.038  17.819  66.427  1.00  0.00     0.000 HD 
HETATM   20  O   UNL     1      -8.913  17.998  68.795  1.00  0.00    -0.289 OA 
BRANCH  18  21
HETATM   21  C   UNL     1      -9.476  19.715  67.240  1.00  0.00    -0.341 C  
BRANCH  21  22
HETATM   22  N   UNL     1      -8.095  19.964  66.775  1.00  0.00    -0.302 NA 
HETATM   23  C   UNL     1      -7.341  20.912  67.386  1.00  0.00    -0.314 A  
HETATM   24  C   UNL     1      -6.050  21.177  66.950  1.00  0.00    -0.380 A  
HETATM   25  C   UNL     1      -5.526  20.449  65.892  1.00  0.00    -0.207 A  
HETATM   26  C   UNL     1      -6.302  19.470  65.287  1.00  0.00    -0.297 A  
HETATM   27  C   UNL     1      -7.593  19.243  65.748  1.00  0.00    -0.163 A  
ENDBRANCH  21  22
ENDBRANCH  18  21
ENDBRANCH  16  17
ENDBRANCH  15  16
ENDBRANCH  14  15
ENDBRANCH  12  14
ENDBRANCH  11  12
ENDBRANCH  10  11
ENDBRANCH   9  10
ENDBRANCH   8   9
ENDBRANCH   7   8
ENDBRANCH   6   7
ENDBRANCH   5   6
ENDBRANCH   4   5
ENDBRANCH   3   4
ENDBRANCH   2   3
TORSDOF 16
ENDMDL
MODEL      290
REMARK 921   NORMALIZED FREE ENERGY PREDICTED BY IDOCK:   -3.17 KCAL/MOL
REMARK 922        TOTAL FREE ENERGY PREDICTED BY IDOCK:   -8.22 KCAL/MOL
REMARK 923 INTER-LIGAND FREE ENERGY PREDICTED BY IDOCK:   -6.61 KCAL/MOL
REMARK 924 INTRA-LIGAND FREE ENERGY PREDICTED BY IDOCK:   -1.61 KCAL/MOL
REMARK 927      BINDING AFFINITY PREDICTED BY RF-SCORE:    0.00 PKD
ROOT
HETATM    1  C   UNL     1     -11.000   6.311  67.209  1.00  0.00    -0.455 C  
HETATM    2  C   UNL     1      -9.738   7.062  67.597  1.00  0.00    -0.163 C  
ENDROOT
BRANCH   2   3
HETATM    3  C   UNL     1     -10.071   8.441  68.164  1.00  0.00    -0.239 C  
BRANCH   3   4
HETATM    4  C   UNL     1     -10.659   9.352  67.091  1.00  0.00    -0.294 C  
BRANCH   4   5
HETATM    5  C   UNL     1      -9.610   9.694  66.034  1.00  0.00    -0.305 C  
BRANCH   5   6
HETATM    6  C   UNL     1      -8.615  10.713  66.575  1.00  0.00    -0.143 C  
BRANCH   6   7
HETATM    7  C   UNL     1      -7.203  10.450  66.058  1.00  0.00    -0.134 C  
BRANCH   7   8
HETATM    8  C   UNL     1      -6.689   9.128  66.624  1.00  0.00    -0.076 C  
BRANCH   8   9
HETATM    9  C   UNL     1      -5.987   9.319  67.961  1.00  0.00    -0.049 C  
BRANCH   9  10
HETATM   10  C   UNL     1      -5.474  10.756  68.144  1.00  0.00    -0.036 C  
BRANCH  10  11
HETATM   11  C   UNL     1      -5.347  11.196  69.609  1.00  0.00    -0.043 C  
BRANCH  11  12
HETATM   12  C   UNL     1      -6.007  12.537  69.813  1.00  0.00    -0.135 C  
HETATM   13  O   UNL     1      -5.687  13.356  70.660  1.00  0.00    -0.164 OA 
BRANCH  12  14
HETATM   14  O   UNL     1      -6.881  12.772  68.795  1.00  0.00    -0.087 OA 
BRANCH  14  15
HETATM   15  C   UNL     1      -7.459  14.083  68.810  1.00  0.00    -0.124 C  
BRANCH  15  16
HETATM   16  C   UNL     1      -8.710  14.007  67.928  1.00  0.00    -0.184 C  
BRANCH  16  17
HETATM   17  N   UNL     1      -9.739  14.977  68.265  1.00  0.00    -0.210 N  
HETATM   18  C   UNL     1     -10.943  14.573  68.789  1.00  0.00    -0.250 C  
HETATM   19  H   UNL     1      -9.565  15.970  68.111  1.00  0.00     0.000 HD 
HETATM   20  O   UNL     1     -11.271  13.395  68.898  1.00  0.00    -0.252 OA 
BRANCH  18  21
HETATM   21  C   UNL     1     -11.914  15.677  69.154  1.00  0.00    -0.310 C  
BRANCH  21  22
HETATM   22  N   UNL     1     -12.333  15.505  70.561  1.00  0.00    -0.402 NA 
HETATM   23  C   UNL     1     -11.445  15.740  71.560  1.00  0.00    -0.429 A  
HETATM   24  C   UNL     1     -11.812  15.563  72.887  1.00  0.00    -0.565 A  
HETATM   25  C   UNL     1     -13.105  15.161  73.189  1.00  0.00    -0.625 A  
HETATM   26  C   UNL     1     -14.008  14.940  72.158  1.00  0.00    -0.598 A  
HETATM   27  C   UNL     1     -13.597  15.120  70.843  1.00  0.00    -0.338 A  
ENDBRANCH  21  22
ENDBRANCH  18  21
ENDBRANCH  16  17
ENDBRANCH  15  16
ENDBRANCH  14  15
ENDBRANCH  12  14
ENDBRANCH  11  12
ENDBRANCH  10  11
ENDBRANCH   9  10
ENDBRANCH   8   9
ENDBRANCH   7   8
ENDBRANCH   6   7
ENDBRANCH   5   6
ENDBRANCH   4   5
ENDBRANCH   3   4
ENDBRANCH   2   3
TORSDOF 16
ENDMDL
MODEL      291
REMARK 921   NORMALIZED FREE ENERGY PREDICTED BY IDOCK:   -3.15 KCAL/MOL
REMARK 922        TOTAL FREE ENERGY PREDICTED BY IDOCK:   -8.17 KCAL/MOL
REMARK 923 INTER-LIGAND FREE ENERGY PREDICTED BY IDOCK:   -7.51 KCAL/MOL
REMARK 924 INTRA-LIGAND FREE ENERGY PREDICTED BY IDOCK:   -0.66 KCAL/MOL
REMARK 927      BINDING AFFINITY PREDICTED BY RF-SCORE:    0.00 PKD
ROOT
HETATM    1  C   UNL     1      -9.386   2.595  70.753  1.00  0.00    -0.215 C  
HETATM    2  C   UNL     1      -9.660   3.666  71.795  1.00  0.00    -0.221 C  
ENDROOT
BRANCH   2   3
HETATM    3  C   UNL     1     -10.364   4.870  71.172  1.00  0.00    -0.222 C  
BRANCH   3   4
HETATM    4  C   UNL     1     -11.018   5.742  72.240  1.00  0.00    -0.314 C  
BRANCH   4   5
HETATM    5  C   UNL     1     -10.466   7.166  72.190  1.00  0.00    -0.231 C  
BRANCH   5   6
HETATM    6  C   UNL     1     -11.583   8.182  72.392  1.00  0.00    -0.463 C  
BRANCH   6   7
HETATM    7  C   UNL     1     -11.557   9.268  71.320  1.00  0.00    -0.419 C  
BRANCH   7   8
HETATM    8  C   UNL     1     -12.950   9.873  71.171  1.00  0.00    -0.456 C  
BRANCH   8   9
HETATM    9  C   UNL     1     -12.902  11.392  71.084  1.00  0.00    -0.440 C  
BRANCH   9  10
HETATM   10  C   UNL     1     -11.711  11.885  70.248  1.00  0.00    -0.293 C  
BRANCH  10  11
HETATM   11  C   UNL     1     -12.082  12.917  69.174  1.00  0.00    -0.216 C  
BRANCH  11  12
HETATM   12  C   UNL     1     -11.507  12.515  67.839  1.00  0.00    -0.315 C  
HETATM   13  O   UNL     1     -12.161  12.275  66.836  1.00  0.00    -0.583 OA 
BRANCH  12  14
HETATM   14  O   UNL     1     -10.152  12.642  67.871  1.00  0.00    -0.210 OA 
BRANCH  14  15
HETATM   15  C   UNL     1      -9.565  12.991  66.611  1.00  0.00    -0.259 C  
BRANCH  15  16
HETATM   16  C   UNL     1      -9.660  14.517  66.505  1.00  0.00    -0.293 C  
BRANCH  16  17
HETATM   17  N   UNL     1      -8.380  15.184  66.333  1.00  0.00    -0.376 N  
HETATM   18  C   UNL     1      -8.168  16.443  66.841  1.00  0.00    -0.218 C  
HETATM   19  H   UNL     1      -7.630  14.712  65.828  1.00  0.00     0.000 HD 
HETATM   20  O   UNL     1      -9.051  17.119  67.358  1.00  0.00    -0.221 OA 
BRANCH  18  21
HETATM   21  C   UNL     1      -6.778  17.013  66.648  1.00  0.00    -0.238 C  
BRANCH  21  22
HETATM   22  N   UNL     1      -6.357  17.690  67.894  1.00  0.00    -0.165 NA 
HETATM   23  C   UNL     1      -6.070  16.952  68.996  1.00  0.00    -0.179 A  
HETATM   24  C   UNL     1      -5.696  17.570  70.182  1.00  0.00    -0.230 A  
HETATM   25  C   UNL     1      -5.597  18.953  70.227  1.00  0.00    -0.249 A  
HETATM   26  C   UNL     1      -5.876  19.694  69.087  1.00  0.00    -0.275 A  
HETATM   27  C   UNL     1      -6.256  19.037  67.924  1.00  0.00    -0.207 A  
ENDBRANCH  21  22
ENDBRANCH  18  21
ENDBRANCH  16  17
ENDBRANCH  15  16
ENDBRANCH  14  15
ENDBRANCH  12  14
ENDBRANCH  11  12
ENDBRANCH  10  11
ENDBRANCH   9  10
ENDBRANCH   8   9
ENDBRANCH   7   8
ENDBRANCH   6   7
ENDBRANCH   5   6
ENDBRANCH   4   5
ENDBRANCH   3   4
ENDBRANCH   2   3
TORSDOF 16
ENDMDL
MODEL      292
REMARK 921   NORMALIZED FREE ENERGY PREDICTED BY IDOCK:   -3.15 KCAL/MOL
REMARK 922        TOTAL FREE ENERGY PREDICTED BY IDOCK:   -8.17 KCAL/MOL
REMARK 923 INTER-LIGAND FREE ENERGY PREDICTED BY IDOCK:   -6.90 KCAL/MOL
REMARK 924 INTRA-LIGAND FREE ENERGY PREDICTED BY IDOCK:   -1.27 KCAL/MOL
REMARK 927      BINDING AFFINITY PREDICTED BY RF-SCORE:    0.00 PKD
ROOT
HETATM    1  C   UNL     1      -7.797   6.875  64.432  1.00  0.00    -0.112 C  
HETATM    2  C   UNL     1      -7.731   6.933  65.949  1.00  0.00    -0.098 C  
ENDROOT
BRANCH   2   3
HETATM    3  C   UNL     1      -8.939   7.670  66.523  1.00  0.00    -0.187 C  
BRANCH   3   4
HETATM    4  C   UNL     1     -10.185   6.788  66.505  1.00  0.00    -0.125 C  
BRANCH   4   5
HETATM    5  C   UNL     1      -9.841   5.354  66.905  1.00  0.00    -0.186 C  
BRANCH   5   6
HETATM    6  C   UNL     1      -9.600   5.259  68.406  1.00  0.00    -0.176 C  
BRANCH   6   7
HETATM    7  C   UNL     1     -10.789   5.792  69.201  1.00  0.00    -0.355 C  
BRANCH   7   8
HETATM    8  C   UNL     1     -10.647   5.389  70.666  1.00  0.00    -0.302 C  
BRANCH   8   9
HETATM    9  C   UNL     1     -11.588   6.178  71.565  1.00  0.00    -0.304 C  
BRANCH   9  10
HETATM   10  C   UNL     1     -10.941   6.525  72.915  1.00  0.00    -0.282 C  
BRANCH  10  11
HETATM   11  C   UNL     1     -10.418   7.966  73.009  1.00  0.00    -0.410 C  
BRANCH  11  12
HETATM   12  C   UNL     1      -9.026   8.057  72.436  1.00  0.00    -0.176 C  
HETATM   13  O   UNL     1      -8.184   7.174  72.491  1.00  0.00    -0.106 OA 
BRANCH  12  14
HETATM   14  O   UNL     1      -8.915   9.191  71.691  1.00  0.00    -0.336 OA 
BRANCH  14  15
HETATM   15  C   UNL     1     -10.008   9.411  70.791  1.00  0.00    -0.289 C  
BRANCH  15  16
HETATM   16  C   UNL     1      -9.422   9.311  69.378  1.00  0.00    -0.168 C  
BRANCH  16  17
HETATM   17  N   UNL     1      -9.404  10.569  68.649  1.00  0.00    -0.164 N  
HETATM   18  C   UNL     1     -10.543  11.055  68.055  1.00  0.00    -0.204 C  
HETATM   19  H   UNL     1      -8.535  11.097  68.578  1.00  0.00     0.000 HD 
HETATM   20  O   UNL     1     -11.596  10.426  67.999  1.00  0.00    -0.392 OA 
BRANCH  18  21
HETATM   21  C   UNL     1     -10.416  12.401  67.372  1.00  0.00    -0.215 C  
BRANCH  21  22
HETATM   22  N   UNL     1     -10.809  12.262  65.954  1.00  0.00    -0.262 NA 
HETATM   23  C   UNL     1     -11.876  12.955  65.481  1.00  0.00    -0.411 A  
HETATM   24  C   UNL     1     -12.274  12.821  64.158  1.00  0.00    -0.506 A  
HETATM   25  C   UNL     1     -11.559  11.985  63.312  1.00  0.00    -0.409 A  
HETATM   26  C   UNL     1     -10.460  11.295  63.805  1.00  0.00    -0.459 A  
HETATM   27  C   UNL     1     -10.100  11.450  65.138  1.00  0.00    -0.271 A  
ENDBRANCH  21  22
ENDBRANCH  18  21
ENDBRANCH  16  17
ENDBRANCH  15  16
ENDBRANCH  14  15
ENDBRANCH  12  14
ENDBRANCH  11  12
ENDBRANCH  10  11
ENDBRANCH   9  10
ENDBRANCH   8   9
ENDBRANCH   7   8
ENDBRANCH   6   7
ENDBRANCH   5   6
ENDBRANCH   4   5
ENDBRANCH   3   4
ENDBRANCH   2   3
TORSDOF 16
ENDMDL
MODEL      293
REMARK 921   NORMALIZED FREE ENERGY PREDICTED BY IDOCK:   -3.14 KCAL/MOL
REMARK 922        TOTAL FREE ENERGY PREDICTED BY IDOCK:   -8.16 KCAL/MOL
REMARK 923 INTER-LIGAND FREE ENERGY PREDICTED BY IDOCK:   -6.65 KCAL/MOL
REMARK 924 INTRA-LIGAND FREE ENERGY PREDICTED BY IDOCK:   -1.51 KCAL/MOL
REMARK 927      BINDING AFFINITY PREDICTED BY RF-SCORE:    0.00 PKD
ROOT
HETATM    1  C   UNL     1      -7.254   8.046  71.615  1.00  0.00    -0.074 C  
HETATM    2  C   UNL     1      -8.382   9.047  71.432  1.00  0.00    -0.135 C  
ENDROOT
BRANCH   2   3
HETATM    3  C   UNL     1      -9.674   8.348  71.014  1.00  0.00    -0.218 C  
BRANCH   3   4
HETATM    4  C   UNL     1     -10.901   9.138  71.462  1.00  0.00    -0.436 C  
BRANCH   4   5
HETATM    5  C   UNL     1     -11.714   8.345  72.483  1.00  0.00    -0.429 C  
BRANCH   5   6
HETATM    6  C   UNL     1     -10.949   7.108  72.934  1.00  0.00    -0.359 C  
BRANCH   6   7
HETATM    7  C   UNL     1     -11.472   5.844  72.255  1.00  0.00    -0.351 C  
BRANCH   7   8
HETATM    8  C   UNL     1     -10.653   4.641  72.715  1.00  0.00    -0.273 C  
BRANCH   8   9
HETATM    9  C   UNL     1      -9.928   3.972  71.555  1.00  0.00    -0.220 C  
BRANCH   9  10
HETATM   10  C   UNL     1     -10.216   4.668  70.216  1.00  0.00    -0.205 C  
BRANCH  10  11
HETATM   11  C   UNL     1      -8.971   4.894  69.346  1.00  0.00    -0.133 C  
BRANCH  11  12
HETATM   12  C   UNL     1      -9.341   4.871  67.884  1.00  0.00    -0.128 C  
HETATM   13  O   UNL     1     -10.110   4.076  67.366  1.00  0.00    -0.060 OA 
BRANCH  12  14
HETATM   14  O   UNL     1      -8.840   5.979  67.271  1.00  0.00    -0.109 OA 
BRANCH  14  15
HETATM   15  C   UNL     1      -9.745   6.600  66.350  1.00  0.00    -0.070 C  
BRANCH  15  16
HETATM   16  C   UNL     1     -10.434   7.728  67.126  1.00  0.00    -0.343 C  
BRANCH  16  17
HETATM   17  N   UNL     1      -9.899   9.053  66.856  1.00  0.00    -0.203 N  
HETATM   18  C   UNL     1     -10.519  10.176  67.347  1.00  0.00    -0.256 C  
HETATM   19  H   UNL     1      -9.053   9.149  66.296  1.00  0.00     0.000 HD 
HETATM   20  O   UNL     1     -11.598  10.150  67.931  1.00  0.00    -0.256 OA 
BRANCH  18  21
HETATM   21  C   UNL     1      -9.839  11.496  67.049  1.00  0.00    -0.192 C  
BRANCH  21  22
HETATM   22  N   UNL     1     -10.788  12.379  66.340  1.00  0.00    -0.250 NA 
HETATM   23  C   UNL     1     -11.019  12.194  65.016  1.00  0.00    -0.309 A  
HETATM   24  C   UNL     1     -11.889  13.028  64.327  1.00  0.00    -0.456 A  
HETATM   25  C   UNL     1     -12.542  14.044  65.010  1.00  0.00    -0.416 A  
HETATM   26  C   UNL     1     -12.311  14.212  66.368  1.00  0.00    -0.431 A  
HETATM   27  C   UNL     1     -11.424  13.362  67.017  1.00  0.00    -0.337 A  
ENDBRANCH  21  22
ENDBRANCH  18  21
ENDBRANCH  16  17
ENDBRANCH  15  16
ENDBRANCH  14  15
ENDBRANCH  12  14
ENDBRANCH  11  12
ENDBRANCH  10  11
ENDBRANCH   9  10
ENDBRANCH   8   9
ENDBRANCH   7   8
ENDBRANCH   6   7
ENDBRANCH   5   6
ENDBRANCH   4   5
ENDBRANCH   3   4
ENDBRANCH   2   3
TORSDOF 16
ENDMDL
MODEL      294
REMARK 921   NORMALIZED FREE ENERGY PREDICTED BY IDOCK:   -3.13 KCAL/MOL
REMARK 922        TOTAL FREE ENERGY PREDICTED BY IDOCK:   -8.13 KCAL/MOL
REMARK 923 INTER-LIGAND FREE ENERGY PREDICTED BY IDOCK:   -6.78 KCAL/MOL
REMARK 924 INTRA-LIGAND FREE ENERGY PREDICTED BY IDOCK:   -1.36 KCAL/MOL
REMARK 927      BINDING AFFINITY PREDICTED BY RF-SCORE:    0.00 PKD
ROOT
HETATM    1  C   UNL     1      -8.711   9.484  64.374  1.00  0.00    -0.235 C  
HETATM    2  C   UNL     1      -8.150   8.143  64.814  1.00  0.00    -0.152 C  
ENDROOT
BRANCH   2   3
HETATM    3  C   UNL     1      -8.431   7.888  66.293  1.00  0.00    -0.139 C  
BRANCH   3   4
HETATM    4  C   UNL     1      -8.093   6.452  66.681  1.00  0.00    -0.110 C  
BRANCH   4   5
HETATM    5  C   UNL     1      -8.684   6.105  68.047  1.00  0.00    -0.113 C  
BRANCH   5   6
HETATM    6  C   UNL     1      -7.577   5.876  69.068  1.00  0.00    -0.090 C  
BRANCH   6   7
HETATM    7  C   UNL     1      -7.252   7.151  69.841  1.00  0.00    -0.079 C  
BRANCH   7   8
HETATM    8  C   UNL     1      -8.533   7.731  70.434  1.00  0.00    -0.132 C  
BRANCH   8   9
HETATM    9  C   UNL     1      -8.720   7.322  71.889  1.00  0.00    -0.124 C  
BRANCH   9  10
HETATM   10  C   UNL     1      -9.824   8.137  72.580  1.00  0.00    -0.364 C  
BRANCH  10  11
HETATM   11  C   UNL     1     -11.149   7.380  72.752  1.00  0.00    -0.394 C  
BRANCH  11  12
HETATM   12  C   UNL     1     -12.244   8.055  71.965  1.00  0.00    -0.331 C  
HETATM   13  O   UNL     1     -13.286   7.524  71.613  1.00  0.00    -0.353 OA 
BRANCH  12  14
HETATM   14  O   UNL     1     -11.981   9.388  71.871  1.00  0.00    -0.369 OA 
BRANCH  14  15
HETATM   15  C   UNL     1     -13.009  10.144  71.220  1.00  0.00    -0.413 C  
BRANCH  15  16
HETATM   16  C   UNL     1     -12.304  11.318  70.532  1.00  0.00    -0.356 C  
BRANCH  16  17
HETATM   17  N   UNL     1     -12.140  11.158  69.096  1.00  0.00    -0.360 N  
HETATM   18  C   UNL     1     -10.929  10.791  68.562  1.00  0.00    -0.243 C  
HETATM   19  H   UNL     1     -12.935  11.319  68.478  1.00  0.00     0.000 HD 
HETATM   20  O   UNL     1      -9.902  10.690  69.225  1.00  0.00    -0.218 OA 
BRANCH  18  21
HETATM   21  C   UNL     1     -10.894  10.600  67.060  1.00  0.00    -0.238 C  
BRANCH  21  22
HETATM   22  N   UNL     1     -10.797  11.923  66.407  1.00  0.00    -0.267 NA 
HETATM   23  C   UNL     1     -11.536  12.181  65.298  1.00  0.00    -0.336 A  
HETATM   24  C   UNL     1     -11.441  13.409  64.657  1.00  0.00    -0.375 A  
HETATM   25  C   UNL     1     -10.598  14.383  65.172  1.00  0.00    -0.429 A  
HETATM   26  C   UNL     1      -9.861  14.112  66.317  1.00  0.00    -0.321 A  
HETATM   27  C   UNL     1      -9.978  12.866  66.922  1.00  0.00    -0.238 A  
ENDBRANCH  21  22
ENDBRANCH  18  21
ENDBRANCH  16  17
ENDBRANCH  15  16
ENDBRANCH  14  15
ENDBRANCH  12  14
ENDBRANCH  11  12
ENDBRANCH  10  11
ENDBRANCH   9  10
ENDBRANCH   8   9
ENDBRANCH   7   8
ENDBRANCH   6   7
ENDBRANCH   5   6
ENDBRANCH   4   5
ENDBRANCH   3   4
ENDBRANCH   2   3
TORSDOF 16
ENDMDL
MODEL      295
REMARK 921   NORMALIZED FREE ENERGY PREDICTED BY IDOCK:   -3.13 KCAL/MOL
REMARK 922        TOTAL FREE ENERGY PREDICTED BY IDOCK:   -8.13 KCAL/MOL
REMARK 923 INTER-LIGAND FREE ENERGY PREDICTED BY IDOCK:   -6.91 KCAL/MOL
REMARK 924 INTRA-LIGAND FREE ENERGY PREDICTED BY IDOCK:   -1.22 KCAL/MOL
REMARK 927      BINDING AFFINITY PREDICTED BY RF-SCORE:    0.00 PKD
ROOT
HETATM    1  C   UNL     1     -11.857  11.560  68.551  1.00  0.00    -0.365 C  
HETATM    2  C   UNL     1     -11.279  10.819  69.745  1.00  0.00    -0.365 C  
ENDROOT
BRANCH   2   3
HETATM    3  C   UNL     1     -12.163  10.989  70.978  1.00  0.00    -0.456 C  
BRANCH   3   4
HETATM    4  C   UNL     1     -13.067   9.777  71.182  1.00  0.00    -0.424 C  
BRANCH   4   5
HETATM    5  C   UNL     1     -12.635   8.979  72.412  1.00  0.00    -0.403 C  
BRANCH   5   6
HETATM    6  C   UNL     1     -11.158   8.618  72.325  1.00  0.00    -0.395 C  
BRANCH   6   7
HETATM    7  C   UNL     1     -10.842   7.350  73.115  1.00  0.00    -0.435 C  
BRANCH   7   8
HETATM    8  C   UNL     1      -9.335   7.107  73.109  1.00  0.00    -0.193 C  
BRANCH   8   9
HETATM    9  C   UNL     1      -8.580   8.238  72.425  1.00  0.00    -0.270 C  
BRANCH   9  10
HETATM   10  C   UNL     1      -7.879   7.771  71.140  1.00  0.00    -0.089 C  
BRANCH  10  11
HETATM   11  C   UNL     1      -8.503   8.320  69.849  1.00  0.00    -0.127 C  
BRANCH  11  12
HETATM   12  C   UNL     1      -7.538   9.245  69.152  1.00  0.00    -0.073 C  
HETATM   13  O   UNL     1      -6.631   8.890  68.415  1.00  0.00    -0.058 OA 
BRANCH  12  14
HETATM   14  O   UNL     1      -7.945  10.534  69.318  1.00  0.00    -0.142 OA 
BRANCH  14  15
HETATM   15  C   UNL     1      -7.025  11.510  68.812  1.00  0.00    -0.096 C  
BRANCH  15  16
HETATM   16  C   UNL     1      -7.868  12.528  68.037  1.00  0.00    -0.147 C  
BRANCH  16  17
HETATM   17  N   UNL     1      -8.144  13.754  68.768  1.00  0.00    -0.308 N  
HETATM   18  C   UNL     1      -9.290  14.473  68.528  1.00  0.00    -0.203 C  
HETATM   19  H   UNL     1      -7.479  14.085  69.467  1.00  0.00     0.000 HD 
HETATM   20  O   UNL     1     -10.080  14.203  67.629  1.00  0.00    -0.233 OA 
BRANCH  18  21
HETATM   21  C   UNL     1      -9.498  15.701  69.390  1.00  0.00    -0.279 C  
BRANCH  21  22
HETATM   22  N   UNL     1      -9.513  16.900  68.525  1.00  0.00    -0.257 NA 
HETATM   23  C   UNL     1      -8.421  17.205  67.779  1.00  0.00    -0.207 A  
HETATM   24  C   UNL     1      -8.407  18.339  66.979  1.00  0.00    -0.256 A  
HETATM   25  C   UNL     1      -9.529  19.152  66.930  1.00  0.00    -0.368 A  
HETATM   26  C   UNL     1     -10.646  18.820  67.685  1.00  0.00    -0.481 A  
HETATM   27  C   UNL     1     -10.615  17.681  68.480  1.00  0.00    -0.280 A  
ENDBRANCH  21  22
ENDBRANCH  18  21
ENDBRANCH  16  17
ENDBRANCH  15  16
ENDBRANCH  14  15
ENDBRANCH  12  14
ENDBRANCH  11  12
ENDBRANCH  10  11
ENDBRANCH   9  10
ENDBRANCH   8   9
ENDBRANCH   7   8
ENDBRANCH   6   7
ENDBRANCH   5   6
ENDBRANCH   4   5
ENDBRANCH   3   4
ENDBRANCH   2   3
TORSDOF 16
ENDMDL
MODEL      296
REMARK 921   NORMALIZED FREE ENERGY PREDICTED BY IDOCK:   -3.11 KCAL/MOL
REMARK 922        TOTAL FREE ENERGY PREDICTED BY IDOCK:   -8.09 KCAL/MOL
REMARK 923 INTER-LIGAND FREE ENERGY PREDICTED BY IDOCK:   -7.07 KCAL/MOL
REMARK 924 INTRA-LIGAND FREE ENERGY PREDICTED BY IDOCK:   -1.02 KCAL/MOL
REMARK 927      BINDING AFFINITY PREDICTED BY RF-SCORE:    0.00 PKD
ROOT
HETATM    1  C   UNL     1     -10.480  13.535  64.658  1.00  0.00    -0.439 C  
HETATM    2  C   UNL     1     -10.787  15.009  64.860  1.00  0.00    -0.430 C  
ENDROOT
BRANCH   2   3
HETATM    3  C   UNL     1     -10.072  15.554  66.095  1.00  0.00    -0.329 C  
BRANCH   3   4
HETATM    4  C   UNL     1     -10.290  14.650  67.305  1.00  0.00    -0.256 C  
BRANCH   4   5
HETATM    5  C   UNL     1     -11.754  14.674  67.744  1.00  0.00    -0.386 C  
BRANCH   5   6
HETATM    6  C   UNL     1     -11.973  13.746  68.932  1.00  0.00    -0.394 C  
BRANCH   6   7
HETATM    7  C   UNL     1     -11.775  12.283  68.546  1.00  0.00    -0.381 C  
BRANCH   7   8
HETATM    8  C   UNL     1     -11.479  11.460  69.797  1.00  0.00    -0.376 C  
BRANCH   8   9
HETATM    9  C   UNL     1     -12.411  11.818  70.946  1.00  0.00    -0.416 C  
BRANCH   9  10
HETATM   10  C   UNL     1     -13.052  10.573  71.579  1.00  0.00    -0.532 C  
BRANCH  10  11
HETATM   11  C   UNL     1     -12.275   9.273  71.333  1.00  0.00    -0.426 C  
BRANCH  11  12
HETATM   12  C   UNL     1     -13.154   8.077  71.603  1.00  0.00    -0.329 C  
HETATM   13  O   UNL     1     -14.325   7.977  71.272  1.00  0.00    -0.366 OA 
BRANCH  12  14
HETATM   14  O   UNL     1     -12.397   7.059  72.099  1.00  0.00    -0.275 OA 
BRANCH  14  15
HETATM   15  C   UNL     1     -11.088   7.456  72.525  1.00  0.00    -0.304 C  
BRANCH  15  16
HETATM   16  C   UNL     1     -10.329   6.161  72.831  1.00  0.00    -0.198 C  
BRANCH  16  17
HETATM   17  N   UNL     1      -9.240   5.874  71.912  1.00  0.00    -0.148 N  
HETATM   18  C   UNL     1      -8.714   4.609  71.816  1.00  0.00    -0.122 C  
HETATM   19  H   UNL     1      -8.862   6.622  71.330  1.00  0.00     0.000 HD 
HETATM   20  O   UNL     1      -9.036   3.686  72.558  1.00  0.00    -0.101 OA 
BRANCH  18  21
HETATM   21  C   UNL     1      -7.623   4.418  70.783  1.00  0.00    -0.052 C  
BRANCH  21  22
HETATM   22  N   UNL     1      -8.244   4.163  69.466  1.00  0.00    -0.058 NA 
HETATM   23  C   UNL     1      -8.320   5.165  68.553  1.00  0.00    -0.089 A  
HETATM   24  C   UNL     1      -8.920   4.952  67.320  1.00  0.00    -0.113 A  
HETATM   25  C   UNL     1      -9.426   3.696  67.016  1.00  0.00    -0.219 A  
HETATM   26  C   UNL     1      -9.326   2.676  67.952  1.00  0.00    -0.244 A  
HETATM   27  C   UNL     1      -8.726   2.934  69.178  1.00  0.00    -0.083 A  
ENDBRANCH  21  22
ENDBRANCH  18  21
ENDBRANCH  16  17
ENDBRANCH  15  16
ENDBRANCH  14  15
ENDBRANCH  12  14
ENDBRANCH  11  12
ENDBRANCH  10  11
ENDBRANCH   9  10
ENDBRANCH   8   9
ENDBRANCH   7   8
ENDBRANCH   6   7
ENDBRANCH   5   6
ENDBRANCH   4   5
ENDBRANCH   3   4
ENDBRANCH   2   3
TORSDOF 16
ENDMDL
MODEL      297
REMARK 921   NORMALIZED FREE ENERGY PREDICTED BY IDOCK:   -3.10 KCAL/MOL
REMARK 922        TOTAL FREE ENERGY PREDICTED BY IDOCK:   -8.08 KCAL/MOL
REMARK 923 INTER-LIGAND FREE ENERGY PREDICTED BY IDOCK:   -6.65 KCAL/MOL
REMARK 924 INTRA-LIGAND FREE ENERGY PREDICTED BY IDOCK:   -1.43 KCAL/MOL
REMARK 927      BINDING AFFINITY PREDICTED BY RF-SCORE:    0.00 PKD
ROOT
HETATM    1  C   UNL     1      -5.830  20.090  71.220  1.00  0.00    -0.346 C  
HETATM    2  C   UNL     1      -5.849  20.218  69.706  1.00  0.00    -0.383 C  
ENDROOT
BRANCH   2   3
HETATM    3  C   UNL     1      -7.068  19.517  69.111  1.00  0.00    -0.392 C  
BRANCH   3   4
HETATM    4  C   UNL     1      -7.057  19.587  67.587  1.00  0.00    -0.266 C  
BRANCH   4   5
HETATM    5  C   UNL     1      -8.385  20.128  67.059  1.00  0.00    -0.382 C  
BRANCH   5   6
HETATM    6  C   UNL     1      -9.497  19.906  68.076  1.00  0.00    -0.458 C  
BRANCH   6   7
HETATM    7  C   UNL     1     -10.783  19.429  67.407  1.00  0.00    -0.594 C  
BRANCH   7   8
HETATM    8  C   UNL     1     -10.443  18.466  66.273  1.00  0.00    -0.421 C  
BRANCH   8   9
HETATM    9  C   UNL     1     -10.482  17.015  66.731  1.00  0.00    -0.257 C  
BRANCH   9  10
HETATM   10  C   UNL     1      -9.087  16.487  67.098  1.00  0.00    -0.227 C  
BRANCH  10  11
HETATM   11  C   UNL     1      -9.044  15.679  68.402  1.00  0.00    -0.190 C  
BRANCH  11  12
HETATM   12  C   UNL     1      -9.573  14.285  68.173  1.00  0.00    -0.218 C  
HETATM   13  O   UNL     1     -10.594  13.832  68.666  1.00  0.00    -0.246 OA 
BRANCH  12  14
HETATM   14  O   UNL     1      -8.848  13.679  67.193  1.00  0.00    -0.215 OA 
BRANCH  14  15
HETATM   15  C   UNL     1      -9.283  12.351  66.878  1.00  0.00    -0.209 C  
BRANCH  15  16
HETATM   16  C   UNL     1      -8.024  11.478  66.884  1.00  0.00    -0.164 C  
BRANCH  16  17
HETATM   17  N   UNL     1      -8.159  10.240  67.634  1.00  0.00    -0.106 N  
HETATM   18  C   UNL     1      -7.681   9.055  67.129  1.00  0.00    -0.099 C  
HETATM   19  H   UNL     1      -8.615  10.251  68.546  1.00  0.00     0.000 HD 
HETATM   20  O   UNL     1      -7.224   8.940  65.996  1.00  0.00    -0.086 OA 
BRANCH  18  21
HETATM   21  C   UNL     1      -7.828   7.842  68.024  1.00  0.00    -0.127 C  
BRANCH  21  22
HETATM   22  N   UNL     1      -8.838   6.933  67.443  1.00  0.00    -0.118 NA 
HETATM   23  C   UNL     1      -8.438   5.810  66.794  1.00  0.00    -0.112 A  
HETATM   24  C   UNL     1      -9.370   4.955  66.222  1.00  0.00    -0.149 A  
HETATM   25  C   UNL     1     -10.722   5.247  66.335  1.00  0.00    -0.290 A  
HETATM   26  C   UNL     1     -11.118   6.390  67.016  1.00  0.00    -0.405 A  
HETATM   27  C   UNL     1     -10.152   7.224  67.566  1.00  0.00    -0.193 A  
ENDBRANCH  21  22
ENDBRANCH  18  21
ENDBRANCH  16  17
ENDBRANCH  15  16
ENDBRANCH  14  15
ENDBRANCH  12  14
ENDBRANCH  11  12
ENDBRANCH  10  11
ENDBRANCH   9  10
ENDBRANCH   8   9
ENDBRANCH   7   8
ENDBRANCH   6   7
ENDBRANCH   5   6
ENDBRANCH   4   5
ENDBRANCH   3   4
ENDBRANCH   2   3
TORSDOF 16
ENDMDL
MODEL      298
REMARK 921   NORMALIZED FREE ENERGY PREDICTED BY IDOCK:   -3.10 KCAL/MOL
REMARK 922        TOTAL FREE ENERGY PREDICTED BY IDOCK:   -8.08 KCAL/MOL
REMARK 923 INTER-LIGAND FREE ENERGY PREDICTED BY IDOCK:   -6.69 KCAL/MOL
REMARK 924 INTRA-LIGAND FREE ENERGY PREDICTED BY IDOCK:   -1.39 KCAL/MOL
REMARK 927      BINDING AFFINITY PREDICTED BY RF-SCORE:    0.00 PKD
ROOT
HETATM    1  C   UNL     1      -7.276   6.378  71.993  1.00  0.00    -0.090 C  
HETATM    2  C   UNL     1      -8.505   6.378  72.887  1.00  0.00    -0.117 C  
ENDROOT
BRANCH   2   3
HETATM    3  C   UNL     1      -9.388   7.591  72.605  1.00  0.00    -0.208 C  
BRANCH   3   4
HETATM    4  C   UNL     1     -10.757   7.169  72.077  1.00  0.00    -0.243 C  
BRANCH   4   5
HETATM    5  C   UNL     1     -10.698   5.764  71.479  1.00  0.00    -0.319 C  
BRANCH   5   6
HETATM    6  C   UNL     1     -10.911   5.813  69.972  1.00  0.00    -0.403 C  
BRANCH   6   7
HETATM    7  C   UNL     1      -9.659   5.380  69.213  1.00  0.00    -0.198 C  
BRANCH   7   8
HETATM    8  C   UNL     1      -9.206   6.506  68.288  1.00  0.00    -0.116 C  
BRANCH   8   9
HETATM    9  C   UNL     1      -8.247   7.461  68.985  1.00  0.00    -0.128 C  
BRANCH   9  10
HETATM   10  C   UNL     1      -8.882   8.838  69.233  1.00  0.00    -0.140 C  
BRANCH  10  11
HETATM   11  C   UNL     1     -10.281   9.004  68.623  1.00  0.00    -0.226 C  
BRANCH  11  12
HETATM   12  C   UNL     1     -10.196   9.730  67.304  1.00  0.00    -0.232 C  
HETATM   13  O   UNL     1      -9.467   9.418  66.375  1.00  0.00    -0.170 OA 
BRANCH  12  14
HETATM   14  O   UNL     1     -11.183  10.666  67.236  1.00  0.00    -0.318 OA 
BRANCH  14  15
HETATM   15  C   UNL     1     -11.317  11.464  68.419  1.00  0.00    -0.281 C  
BRANCH  15  16
HETATM   16  C   UNL     1     -12.023  12.753  67.984  1.00  0.00    -0.264 C  
BRANCH  16  17
HETATM   17  N   UNL     1     -11.352  13.470  66.913  1.00  0.00    -0.315 N  
HETATM   18  C   UNL     1     -11.914  13.552  65.662  1.00  0.00    -0.397 C  
HETATM   19  H   UNL     1     -10.453  13.917  67.091  1.00  0.00     0.000 HD 
HETATM   20  O   UNL     1     -12.932  12.950  65.338  1.00  0.00    -0.615 OA 
BRANCH  18  21
HETATM   21  C   UNL     1     -11.150  14.373  64.642  1.00  0.00    -0.354 C  
BRANCH  21  22
HETATM   22  N   UNL     1     -10.398  15.435  65.343  1.00  0.00    -0.375 NA 
HETATM   23  C   UNL     1     -10.947  16.668  65.482  1.00  0.00    -0.059 A  
HETATM   24  C   UNL     1     -10.247  17.685  66.117  1.00  0.00    -0.345 A  
HETATM   25  C   UNL     1      -8.984  17.426  66.629  1.00  0.00    -0.274 A  
HETATM   26  C   UNL     1      -8.441  16.155  66.495  1.00  0.00    -0.346 A  
HETATM   27  C   UNL     1      -9.171  15.169  65.845  1.00  0.00    -0.158 A  
ENDBRANCH  21  22
ENDBRANCH  18  21
ENDBRANCH  16  17
ENDBRANCH  15  16
ENDBRANCH  14  15
ENDBRANCH  12  14
ENDBRANCH  11  12
ENDBRANCH  10  11
ENDBRANCH   9  10
ENDBRANCH   8   9
ENDBRANCH   7   8
ENDBRANCH   6   7
ENDBRANCH   5   6
ENDBRANCH   4   5
ENDBRANCH   3   4
ENDBRANCH   2   3
TORSDOF 16
ENDMDL
MODEL      299
REMARK 921   NORMALIZED FREE ENERGY PREDICTED BY IDOCK:   -3.09 KCAL/MOL
REMARK 922        TOTAL FREE ENERGY PREDICTED BY IDOCK:   -8.06 KCAL/MOL
REMARK 923 INTER-LIGAND FREE ENERGY PREDICTED BY IDOCK:   -7.13 KCAL/MOL
REMARK 924 INTRA-LIGAND FREE ENERGY PREDICTED BY IDOCK:   -0.93 KCAL/MOL
REMARK 927      BINDING AFFINITY PREDICTED BY RF-SCORE:    0.00 PKD
ROOT
HETATM    1  C   UNL     1      -6.168  20.923  63.276  1.00  0.00    -0.245 C  
HETATM    2  C   UNL     1      -5.313  21.364  64.451  1.00  0.00    -0.118 C  
ENDROOT
BRANCH   2   3
HETATM    3  C   UNL     1      -5.164  20.239  65.474  1.00  0.00    -0.190 C  
BRANCH   3   4
HETATM    4  C   UNL     1      -5.638  18.906  64.903  1.00  0.00    -0.278 C  
BRANCH   4   5
HETATM    5  C   UNL     1      -6.743  18.305  65.770  1.00  0.00    -0.317 C  
BRANCH   5   6
HETATM    6  C   UNL     1      -6.159  17.329  66.783  1.00  0.00    -0.236 C  
BRANCH   6   7
HETATM    7  C   UNL     1      -6.069  17.949  68.175  1.00  0.00    -0.174 C  
BRANCH   7   8
HETATM    8  C   UNL     1      -7.221  18.931  68.373  1.00  0.00    -0.309 C  
BRANCH   8   9
HETATM    9  C   UNL     1      -8.509  18.223  68.770  1.00  0.00    -0.241 C  
BRANCH   9  10
HETATM   10  C   UNL     1      -9.753  19.065  68.451  1.00  0.00    -0.442 C  
BRANCH  10  11
HETATM   11  C   UNL     1     -10.902  18.273  67.812  1.00  0.00    -0.257 C  
BRANCH  11  12
HETATM   12  C   UNL     1     -10.380  17.400  66.698  1.00  0.00    -0.306 C  
HETATM   13  O   UNL     1     -10.298  17.730  65.525  1.00  0.00    -0.623 OA 
BRANCH  12  14
HETATM   14  O   UNL     1      -9.843  16.264  67.224  1.00  0.00    -0.236 OA 
BRANCH  14  15
HETATM   15  C   UNL     1      -9.195  15.421  66.264  1.00  0.00    -0.319 C  
BRANCH  15  16
HETATM   16  C   UNL     1      -8.897  14.103  66.986  1.00  0.00    -0.221 C  
BRANCH  16  17
HETATM   17  N   UNL     1     -10.081  13.354  67.374  1.00  0.00    -0.235 N  
HETATM   18  C   UNL     1     -10.508  12.279  66.633  1.00  0.00    -0.222 C  
HETATM   19  H   UNL     1     -10.601  13.629  68.207  1.00  0.00     0.000 HD 
HETATM   20  O   UNL     1     -10.006  11.956  65.561  1.00  0.00    -0.230 OA 
BRANCH  18  21
HETATM   21  C   UNL     1     -11.719  11.541  67.166  1.00  0.00    -0.055 C  
BRANCH  21  22
HETATM   22  N   UNL     1     -11.369  10.910  68.457  1.00  0.00    -0.276 NA 
HETATM   23  C   UNL     1     -10.258  10.137  68.548  1.00  0.00    -0.174 A  
HETATM   24  C   UNL     1      -9.925   9.517  69.745  1.00  0.00    -0.234 A  
HETATM   25  C   UNL     1     -10.730   9.710  70.859  1.00  0.00    -0.402 A  
HETATM   26  C   UNL     1     -11.855  10.518  70.756  1.00  0.00    -0.465 A  
HETATM   27  C   UNL     1     -12.157  11.112  69.537  1.00  0.00    -0.326 A  
ENDBRANCH  21  22
ENDBRANCH  18  21
ENDBRANCH  16  17
ENDBRANCH  15  16
ENDBRANCH  14  15
ENDBRANCH  12  14
ENDBRANCH  11  12
ENDBRANCH  10  11
ENDBRANCH   9  10
ENDBRANCH   8   9
ENDBRANCH   7   8
ENDBRANCH   6   7
ENDBRANCH   5   6
ENDBRANCH   4   5
ENDBRANCH   3   4
ENDBRANCH   2   3
TORSDOF 16
ENDMDL
MODEL      300
REMARK 921   NORMALIZED FREE ENERGY PREDICTED BY IDOCK:   -3.08 KCAL/MOL
REMARK 922        TOTAL FREE ENERGY PREDICTED BY IDOCK:   -8.04 KCAL/MOL
REMARK 923 INTER-LIGAND FREE ENERGY PREDICTED BY IDOCK:   -6.71 KCAL/MOL
REMARK 924 INTRA-LIGAND FREE ENERGY PREDICTED BY IDOCK:   -1.33 KCAL/MOL
REMARK 927      BINDING AFFINITY PREDICTED BY RF-SCORE:    0.00 PKD
ROOT
HETATM    1  C   UNL     1      -9.066   4.683  70.503  1.00  0.00    -0.174 C  
HETATM    2  C   UNL     1     -10.194   5.192  69.622  1.00  0.00    -0.337 C  
ENDROOT
BRANCH   2   3
HETATM    3  C   UNL     1     -10.831   6.446  70.216  1.00  0.00    -0.350 C  
BRANCH   3   4
HETATM    4  C   UNL     1     -11.004   7.532  69.159  1.00  0.00    -0.024 C  
BRANCH   4   5
HETATM    5  C   UNL     1      -9.882   7.466  68.123  1.00  0.00    -0.174 C  
BRANCH   5   6
HETATM    6  C   UNL     1      -9.105   8.775  68.089  1.00  0.00    -0.142 C  
BRANCH   6   7
HETATM    7  C   UNL     1      -9.945   9.912  67.514  1.00  0.00    -0.229 C  
BRANCH   7   8
HETATM    8  C   UNL     1      -9.273  10.460  66.258  1.00  0.00    -0.195 C  
BRANCH   8   9
HETATM    9  C   UNL     1      -8.429  11.690  66.556  1.00  0.00    -0.141 C  
BRANCH   9  10
HETATM   10  C   UNL     1      -9.293  12.914  66.899  1.00  0.00    -0.240 C  
BRANCH  10  11
HETATM   11  C   UNL     1      -8.755  13.755  68.066  1.00  0.00    -0.181 C  
BRANCH  11  12
HETATM   12  C   UNL     1      -7.833  14.833  67.554  1.00  0.00    -0.188 C  
HETATM   13  O   UNL     1      -6.675  14.662  67.208  1.00  0.00    -0.280 OA 
BRANCH  12  14
HETATM   14  O   UNL     1      -8.540  15.981  67.360  1.00  0.00    -0.169 OA 
BRANCH  14  15
HETATM   15  C   UNL     1      -8.686  16.787  68.536  1.00  0.00    -0.245 C  
BRANCH  15  16
HETATM   16  C   UNL     1     -10.174  17.138  68.630  1.00  0.00    -0.336 C  
BRANCH  16  17
HETATM   17  N   UNL     1     -10.835  16.624  69.819  1.00  0.00    -0.344 N  
HETATM   18  C   UNL     1     -11.944  15.820  69.716  1.00  0.00    -0.322 C  
HETATM   19  H   UNL     1     -10.470  16.863  70.741  1.00  0.00     0.000 HD 
HETATM   20  O   UNL     1     -12.507  15.580  68.653  1.00  0.00     0.081 OA 
BRANCH  18  21
HETATM   21  C   UNL     1     -12.511  15.299  71.020  1.00  0.00    -0.384 C  
BRANCH  21  22
HETATM   22  N   UNL     1     -12.495  13.821  70.997  1.00  0.00    -0.367 NA 
HETATM   23  C   UNL     1     -11.696  13.171  70.113  1.00  0.00    -0.178 A  
HETATM   24  C   UNL     1     -11.684  11.784  70.061  1.00  0.00    -0.386 A  
HETATM   25  C   UNL     1     -12.481  11.061  70.936  1.00  0.00    -0.509 A  
HETATM   26  C   UNL     1     -13.280  11.738  71.848  1.00  0.00    -0.468 A  
HETATM   27  C   UNL     1     -13.270  13.128  71.861  1.00  0.00    -0.431 A  
ENDBRANCH  21  22
ENDBRANCH  18  21
ENDBRANCH  16  17
ENDBRANCH  15  16
ENDBRANCH  14  15
ENDBRANCH  12  14
ENDBRANCH  11  12
ENDBRANCH  10  11
ENDBRANCH   9  10
ENDBRANCH   8   9
ENDBRANCH   7   8
ENDBRANCH   6   7
ENDBRANCH   5   6
ENDBRANCH   4   5
ENDBRANCH   3   4
ENDBRANCH   2   3
TORSDOF 16
ENDMDL
MODEL      301
REMARK 921   NORMALIZED FREE ENERGY PREDICTED BY IDOCK:   -3.08 KCAL/MOL
REMARK 922        TOTAL FREE ENERGY PREDICTED BY IDOCK:   -8.03 KCAL/MOL
REMARK 923 INTER-LIGAND FREE ENERGY PREDICTED BY IDOCK:   -6.52 KCAL/MOL
REMARK 924 INTRA-LIGAND FREE ENERGY PREDICTED BY IDOCK:   -1.51 KCAL/MOL
REMARK 927      BINDING AFFINITY PREDICTED BY RF-SCORE:    0.00 PKD
ROOT
HETATM    1  C   UNL     1      -5.572  14.342  69.354  1.00  0.00    -0.090 C  
HETATM    2  C   UNL     1      -5.810  13.054  70.122  1.00  0.00    -0.153 C  
ENDROOT
BRANCH   2   3
HETATM    3  C   UNL     1      -6.575  12.041  69.272  1.00  0.00    -0.109 C  
BRANCH   3   4
HETATM    4  C   UNL     1      -6.621  12.471  67.808  1.00  0.00    -0.121 C  
BRANCH   4   5
HETATM    5  C   UNL     1      -7.321  11.414  66.955  1.00  0.00    -0.147 C  
BRANCH   5   6
HETATM    6  C   UNL     1      -8.240  10.554  67.813  1.00  0.00    -0.107 C  
BRANCH   6   7
HETATM    7  C   UNL     1      -8.431   9.164  67.212  1.00  0.00    -0.121 C  
BRANCH   7   8
HETATM    8  C   UNL     1      -8.556   8.135  68.332  1.00  0.00    -0.130 C  
BRANCH   8   9
HETATM    9  C   UNL     1      -9.966   7.569  68.429  1.00  0.00    -0.185 C  
BRANCH   9  10
HETATM   10  C   UNL     1     -10.350   7.218  69.874  1.00  0.00    -0.226 C  
BRANCH  10  11
HETATM   11  C   UNL     1     -11.549   8.009  70.416  1.00  0.00    -0.075 C  
BRANCH  11  12
HETATM   12  C   UNL     1     -11.082   9.092  71.356  1.00  0.00    -0.345 C  
HETATM   13  O   UNL     1      -9.929   9.257  71.721  1.00  0.00    -0.273 OA 
BRANCH  12  14
HETATM   14  O   UNL     1     -12.102   9.966  71.584  1.00  0.00    -0.389 OA 
BRANCH  14  15
HETATM   15  C   UNL     1     -12.614  10.592  70.401  1.00  0.00    -0.316 C  
BRANCH  15  16
HETATM   16  C   UNL     1     -11.612  11.692  70.034  1.00  0.00    -0.255 C  
BRANCH  16  17
HETATM   17  N   UNL     1     -12.037  12.546  68.937  1.00  0.00    -0.210 N  
HETATM   18  C   UNL     1     -11.182  13.474  68.395  1.00  0.00    -0.278 C  
HETATM   19  H   UNL     1     -12.982  12.454  68.565  1.00  0.00     0.000 HD 
HETATM   20  O   UNL     1     -10.073  13.722  68.859  1.00  0.00    -0.180 OA 
BRANCH  18  21
HETATM   21  C   UNL     1     -11.716  14.265  67.220  1.00  0.00    -0.395 C  
BRANCH  21  22
HETATM   22  N   UNL     1     -11.566  13.461  65.988  1.00  0.00    -0.332 NA 
HETATM   23  C   UNL     1     -12.348  13.728  64.911  1.00  0.00    -0.405 A  
HETATM   24  C   UNL     1     -12.238  12.970  63.754  1.00  0.00    -0.536 A  
HETATM   25  C   UNL     1     -11.306  11.944  63.697  1.00  0.00    -0.536 A  
HETATM   26  C   UNL     1     -10.501  11.692  64.800  1.00  0.00    -0.346 A  
HETATM   27  C   UNL     1     -10.649  12.469  65.943  1.00  0.00    -0.265 A  
ENDBRANCH  21  22
ENDBRANCH  18  21
ENDBRANCH  16  17
ENDBRANCH  15  16
ENDBRANCH  14  15
ENDBRANCH  12  14
ENDBRANCH  11  12
ENDBRANCH  10  11
ENDBRANCH   9  10
ENDBRANCH   8   9
ENDBRANCH   7   8
ENDBRANCH   6   7
ENDBRANCH   5   6
ENDBRANCH   4   5
ENDBRANCH   3   4
ENDBRANCH   2   3
TORSDOF 16
ENDMDL
MODEL      302
REMARK 921   NORMALIZED FREE ENERGY PREDICTED BY IDOCK:   -3.07 KCAL/MOL
REMARK 922        TOTAL FREE ENERGY PREDICTED BY IDOCK:   -8.02 KCAL/MOL
REMARK 923 INTER-LIGAND FREE ENERGY PREDICTED BY IDOCK:   -5.85 KCAL/MOL
REMARK 924 INTRA-LIGAND FREE ENERGY PREDICTED BY IDOCK:   -2.17 KCAL/MOL
REMARK 927      BINDING AFFINITY PREDICTED BY RF-SCORE:    0.00 PKD
ROOT
HETATM    1  C   UNL     1     -11.512   9.197  71.583  1.00  0.00    -0.451 C  
HETATM    2  C   UNL     1     -11.560   8.046  72.572  1.00  0.00    -0.464 C  
ENDROOT
BRANCH   2   3
HETATM    3  C   UNL     1     -11.488   6.700  71.853  1.00  0.00    -0.332 C  
BRANCH   3   4
HETATM    4  C   UNL     1     -11.935   6.825  70.399  1.00  0.00    -0.343 C  
BRANCH   4   5
HETATM    5  C   UNL     1     -11.000   6.047  69.475  1.00  0.00    -0.467 C  
BRANCH   5   6
HETATM    6  C   UNL     1     -10.040   6.992  68.764  1.00  0.00    -0.170 C  
BRANCH   6   7
HETATM    7  C   UNL     1     -10.598   7.454  67.421  1.00  0.00    -0.371 C  
BRANCH   7   8
HETATM    8  C   UNL     1     -10.410   8.963  67.281  1.00  0.00    -0.350 C  
BRANCH   8   9
HETATM    9  C   UNL     1     -10.008   9.355  65.866  1.00  0.00    -0.327 C  
BRANCH   9  10
HETATM   10  C   UNL     1      -9.199  10.661  65.837  1.00  0.00    -0.209 C  
BRANCH  10  11
HETATM   11  C   UNL     1      -7.920  10.627  66.686  1.00  0.00    -0.134 C  
BRANCH  11  12
HETATM   12  C   UNL     1      -7.905  11.781  67.658  1.00  0.00    -0.138 C  
HETATM   13  O   UNL     1      -7.793  12.957  67.350  1.00  0.00    -0.165 OA 
BRANCH  12  14
HETATM   14  O   UNL     1      -8.222  11.330  68.903  1.00  0.00    -0.141 OA 
BRANCH  14  15
HETATM   15  C   UNL     1      -7.393  10.257  69.367  1.00  0.00    -0.115 C  
BRANCH  15  16
HETATM   16  C   UNL     1      -8.227   9.489  70.398  1.00  0.00    -0.190 C  
BRANCH  16  17
HETATM   17  N   UNL     1      -7.574   8.307  70.934  1.00  0.00    -0.071 N  
HETATM   18  C   UNL     1      -7.638   8.015  72.275  1.00  0.00    -0.110 C  
HETATM   19  H   UNL     1      -7.063   7.686  70.308  1.00  0.00     0.000 HD 
HETATM   20  O   UNL     1      -8.135   8.767  73.107  1.00  0.00    -0.412 OA 
BRANCH  18  21
HETATM   21  C   UNL     1      -6.968   6.727  72.708  1.00  0.00    -0.075 C  
BRANCH  21  22
HETATM   22  N   UNL     1      -8.000   5.686  72.895  1.00  0.00    -0.101 NA 
HETATM   23  C   UNL     1      -8.654   5.591  74.081  1.00  0.00    -0.116 A  
HETATM   24  C   UNL     1      -9.610   4.606  74.283  1.00  0.00    -0.144 A  
HETATM   25  C   UNL     1      -9.910   3.725  73.253  1.00  0.00    -0.170 A  
HETATM   26  C   UNL     1      -9.246   3.844  72.040  1.00  0.00    -0.173 A  
HETATM   27  C   UNL     1      -8.289   4.838  71.882  1.00  0.00    -0.114 A  
ENDBRANCH  21  22
ENDBRANCH  18  21
ENDBRANCH  16  17
ENDBRANCH  15  16
ENDBRANCH  14  15
ENDBRANCH  12  14
ENDBRANCH  11  12
ENDBRANCH  10  11
ENDBRANCH   9  10
ENDBRANCH   8   9
ENDBRANCH   7   8
ENDBRANCH   6   7
ENDBRANCH   5   6
ENDBRANCH   4   5
ENDBRANCH   3   4
ENDBRANCH   2   3
TORSDOF 16
ENDMDL
MODEL      303
REMARK 921   NORMALIZED FREE ENERGY PREDICTED BY IDOCK:   -3.06 KCAL/MOL
REMARK 922        TOTAL FREE ENERGY PREDICTED BY IDOCK:   -8.00 KCAL/MOL
REMARK 923 INTER-LIGAND FREE ENERGY PREDICTED BY IDOCK:   -7.33 KCAL/MOL
REMARK 924 INTRA-LIGAND FREE ENERGY PREDICTED BY IDOCK:   -0.67 KCAL/MOL
REMARK 927      BINDING AFFINITY PREDICTED BY RF-SCORE:    0.00 PKD
ROOT
HETATM    1  C   UNL     1      -9.351   5.186  66.534  1.00  0.00    -0.142 C  
HETATM    2  C   UNL     1      -9.716   4.988  67.995  1.00  0.00    -0.197 C  
ENDROOT
BRANCH   2   3
HETATM    3  C   UNL     1      -8.466   4.901  68.867  1.00  0.00    -0.086 C  
BRANCH   3   4
HETATM    4  C   UNL     1      -8.805   5.092  70.342  1.00  0.00    -0.148 C  
BRANCH   4   5
HETATM    5  C   UNL     1      -8.241   3.947  71.182  1.00  0.00    -0.078 C  
BRANCH   5   6
HETATM    6  C   UNL     1      -9.286   2.854  71.369  1.00  0.00    -0.204 C  
BRANCH   6   7
HETATM    7  C   UNL     1      -9.329   2.359  72.812  1.00  0.00    -0.124 C  
BRANCH   7   8
HETATM    8  C   UNL     1      -9.706   3.513  73.738  1.00  0.00    -0.141 C  
BRANCH   8   9
HETATM    9  C   UNL     1     -11.085   4.071  73.415  1.00  0.00    -0.341 C  
BRANCH   9  10
HETATM   10  C   UNL     1     -11.050   5.585  73.160  1.00  0.00    -0.337 C  
BRANCH  10  11
HETATM   11  C   UNL     1     -12.002   6.058  72.052  1.00  0.00    -0.237 C  
BRANCH  11  12
HETATM   12  C   UNL     1     -11.891   7.550  71.866  1.00  0.00    -0.296 C  
HETATM   13  O   UNL     1     -12.635   8.379  72.367  1.00  0.00    -0.354 OA 
BRANCH  12  14
HETATM   14  O   UNL     1     -10.731   7.841  71.214  1.00  0.00    -0.225 OA 
BRANCH  14  15
HETATM   15  C   UNL     1     -10.900   8.669  70.056  1.00  0.00    -0.221 C  
BRANCH  15  16
HETATM   16  C   UNL     1     -10.007   9.894  70.275  1.00  0.00    -0.203 C  
BRANCH  16  17
HETATM   17  N   UNL     1     -10.532  11.125  69.707  1.00  0.00    -0.437 N  
HETATM   18  C   UNL     1     -11.716  11.658  70.154  1.00  0.00    -0.296 C  
HETATM   19  H   UNL     1     -10.014  11.600  68.967  1.00  0.00     0.000 HD 
HETATM   20  O   UNL     1     -12.451  11.090  70.957  1.00  0.00    -0.358 OA 
BRANCH  18  21
HETATM   21  C   UNL     1     -12.134  12.972  69.529  1.00  0.00    -0.230 C  
BRANCH  21  22
HETATM   22  N   UNL     1     -12.256  13.994  70.590  1.00  0.00    -0.351 NA 
HETATM   23  C   UNL     1     -11.495  15.117  70.533  1.00  0.00    -0.304 A  
HETATM   24  C   UNL     1     -11.579  16.078  71.532  1.00  0.00    -0.529 A  
HETATM   25  C   UNL     1     -12.465  15.892  72.583  1.00  0.00    -0.571 A  
HETATM   26  C   UNL     1     -13.250  14.747  72.620  1.00  0.00    -0.548 A  
HETATM   27  C   UNL     1     -13.128  13.806  71.605  1.00  0.00    -0.375 A  
ENDBRANCH  21  22
ENDBRANCH  18  21
ENDBRANCH  16  17
ENDBRANCH  15  16
ENDBRANCH  14  15
ENDBRANCH  12  14
ENDBRANCH  11  12
ENDBRANCH  10  11
ENDBRANCH   9  10
ENDBRANCH   8   9
ENDBRANCH   7   8
ENDBRANCH   6   7
ENDBRANCH   5   6
ENDBRANCH   4   5
ENDBRANCH   3   4
ENDBRANCH   2   3
TORSDOF 16
ENDMDL
MODEL      304
REMARK 921   NORMALIZED FREE ENERGY PREDICTED BY IDOCK:   -3.06 KCAL/MOL
REMARK 922        TOTAL FREE ENERGY PREDICTED BY IDOCK:   -7.99 KCAL/MOL
REMARK 923 INTER-LIGAND FREE ENERGY PREDICTED BY IDOCK:   -6.20 KCAL/MOL
REMARK 924 INTRA-LIGAND FREE ENERGY PREDICTED BY IDOCK:   -1.79 KCAL/MOL
REMARK 927      BINDING AFFINITY PREDICTED BY RF-SCORE:    0.00 PKD
ROOT
HETATM    1  C   UNL     1     -11.786  15.735  68.899  1.00  0.00    -0.404 C  
HETATM    2  C   UNL     1     -10.715  16.391  68.045  1.00  0.00    -0.334 C  
ENDROOT
BRANCH   2   3
HETATM    3  C   UNL     1      -9.600  16.972  68.912  1.00  0.00    -0.248 C  
BRANCH   3   4
HETATM    4  C   UNL     1      -8.235  16.787  68.256  1.00  0.00    -0.204 C  
BRANCH   4   5
HETATM    5  C   UNL     1      -8.229  15.553  67.355  1.00  0.00    -0.199 C  
BRANCH   5   6
HETATM    6  C   UNL     1      -6.858  14.890  67.363  1.00  0.00    -0.121 C  
BRANCH   6   7
HETATM    7  C   UNL     1      -5.998  15.390  68.521  1.00  0.00    -0.095 C  
BRANCH   7   8
HETATM    8  C   UNL     1      -5.544  14.205  69.369  1.00  0.00    -0.084 C  
BRANCH   8   9
HETATM    9  C   UNL     1      -5.898  12.875  68.721  1.00  0.00    -0.069 C  
BRANCH   9  10
HETATM   10  C   UNL     1      -6.779  12.005  69.631  1.00  0.00     0.016 C  
BRANCH  10  11
HETATM   11  C   UNL     1      -6.073  10.759  70.185  1.00  0.00    -0.118 C  
BRANCH  11  12
HETATM   12  C   UNL     1      -6.921   9.533  69.963  1.00  0.00    -0.081 C  
HETATM   13  O   UNL     1      -6.492   8.400  69.809  1.00  0.00    -0.035 OA 
BRANCH  12  14
HETATM   14  O   UNL     1      -8.233   9.848  70.147  1.00  0.00    -0.186 OA 
BRANCH  14  15
HETATM   15  C   UNL     1      -9.131   8.744  69.982  1.00  0.00    -0.160 C  
BRANCH  15  16
HETATM   16  C   UNL     1     -10.173   9.191  68.952  1.00  0.00    -0.207 C  
BRANCH  16  17
HETATM   17  N   UNL     1      -9.839  10.427  68.263  1.00  0.00    -0.151 N  
HETATM   18  C   UNL     1     -10.819  11.321  67.906  1.00  0.00    -0.228 C  
HETATM   19  H   UNL     1      -8.865  10.633  68.041  1.00  0.00     0.000 HD 
HETATM   20  O   UNL     1     -12.018  11.095  68.035  1.00  0.00    -0.625 OA 
BRANCH  18  21
HETATM   21  C   UNL     1     -10.346  12.599  67.244  1.00  0.00    -0.224 C  
BRANCH  21  22
HETATM   22  N   UNL     1     -10.928  12.683  65.888  1.00  0.00    -0.271 NA 
HETATM   23  C   UNL     1     -10.574  11.773  64.946  1.00  0.00    -0.294 A  
HETATM   24  C   UNL     1     -11.092  11.849  63.660  1.00  0.00    -0.517 A  
HETATM   25  C   UNL     1     -11.994  12.856  63.348  1.00  0.00    -0.612 A  
HETATM   26  C   UNL     1     -12.361  13.771  64.326  1.00  0.00    -0.384 A  
HETATM   27  C   UNL     1     -11.812  13.664  65.597  1.00  0.00    -0.364 A  
ENDBRANCH  21  22
ENDBRANCH  18  21
ENDBRANCH  16  17
ENDBRANCH  15  16
ENDBRANCH  14  15
ENDBRANCH  12  14
ENDBRANCH  11  12
ENDBRANCH  10  11
ENDBRANCH   9  10
ENDBRANCH   8   9
ENDBRANCH   7   8
ENDBRANCH   6   7
ENDBRANCH   5   6
ENDBRANCH   4   5
ENDBRANCH   3   4
ENDBRANCH   2   3
TORSDOF 16
ENDMDL
MODEL      305
REMARK 921   NORMALIZED FREE ENERGY PREDICTED BY IDOCK:   -3.05 KCAL/MOL
REMARK 922        TOTAL FREE ENERGY PREDICTED BY IDOCK:   -7.98 KCAL/MOL
REMARK 923 INTER-LIGAND FREE ENERGY PREDICTED BY IDOCK:   -7.42 KCAL/MOL
REMARK 924 INTRA-LIGAND FREE ENERGY PREDICTED BY IDOCK:   -0.56 KCAL/MOL
REMARK 927      BINDING AFFINITY PREDICTED BY RF-SCORE:    0.00 PKD
ROOT
HETATM    1  C   UNL     1     -12.540  15.661  74.502  1.00  0.00    -0.609 C  
HETATM    2  C   UNL     1     -12.672  16.038  73.036  1.00  0.00    -0.593 C  
ENDROOT
BRANCH   2   3
HETATM    3  C   UNL     1     -13.985  15.520  72.453  1.00  0.00    -0.653 C  
BRANCH   3   4
HETATM    4  C   UNL     1     -13.895  14.033  72.122  1.00  0.00    -0.627 C  
BRANCH   4   5
HETATM    5  C   UNL     1     -12.579  13.712  71.416  1.00  0.00    -0.415 C  
BRANCH   5   6
HETATM    6  C   UNL     1     -12.587  14.255  69.993  1.00  0.00    -0.277 C  
BRANCH   6   7
HETATM    7  C   UNL     1     -11.361  15.121  69.715  1.00  0.00    -0.307 C  
BRANCH   7   8
HETATM    8  C   UNL     1     -10.828  14.818  68.316  1.00  0.00    -0.251 C  
BRANCH   8   9
HETATM    9  C   UNL     1     -11.950  14.496  67.340  1.00  0.00    -0.367 C  
BRANCH   9  10
HETATM   10  C   UNL     1     -11.745  13.136  66.653  1.00  0.00    -0.427 C  
BRANCH  10  11
HETATM   11  C   UNL     1     -12.064  13.137  65.151  1.00  0.00    -0.463 C  
BRANCH  11  12
HETATM   12  C   UNL     1     -11.159  12.175  64.422  1.00  0.00    -0.333 C  
HETATM   13  O   UNL     1     -11.088  12.059  63.209  1.00  0.00    -0.384 OA 
BRANCH  12  14
HETATM   14  O   UNL     1     -10.303  11.596  65.309  1.00  0.00    -0.247 OA 
BRANCH  14  15
HETATM   15  C   UNL     1     -10.126  10.187  65.120  1.00  0.00    -0.259 C  
BRANCH  15  16
HETATM   16  C   UNL     1      -9.182   9.722  66.234  1.00  0.00    -0.164 C  
BRANCH  16  17
HETATM   17  N   UNL     1      -9.715   8.652  67.061  1.00  0.00    -0.182 N  
HETATM   18  C   UNL     1      -9.145   7.402  67.047  1.00  0.00    -0.135 C  
HETATM   19  H   UNL     1     -10.522   8.831  67.658  1.00  0.00     0.000 HD 
HETATM   20  O   UNL     1      -8.248   7.078  66.276  1.00  0.00    -0.109 OA 
BRANCH  18  21
HETATM   21  C   UNL     1      -9.750   6.384  67.992  1.00  0.00    -0.122 C  
BRANCH  21  22
HETATM   22  N   UNL     1      -8.903   5.173  68.003  1.00  0.00    -0.102 NA 
HETATM   23  C   UNL     1      -8.067   4.946  69.048  1.00  0.00    -0.079 A  
HETATM   24  C   UNL     1      -7.248   3.825  69.065  1.00  0.00    -0.050 A  
HETATM   25  C   UNL     1      -7.303   2.924  68.012  1.00  0.00    -0.053 A  
HETATM   26  C   UNL     1      -8.175   3.160  66.958  1.00  0.00    -0.084 A  
HETATM   27  C   UNL     1      -8.971   4.298  66.975  1.00  0.00    -0.123 A  
ENDBRANCH  21  22
ENDBRANCH  18  21
ENDBRANCH  16  17
ENDBRANCH  15  16
ENDBRANCH  14  15
ENDBRANCH  12  14
ENDBRANCH  11  12
ENDBRANCH  10  11
ENDBRANCH   9  10
ENDBRANCH   8   9
ENDBRANCH   7   8
ENDBRANCH   6   7
ENDBRANCH   5   6
ENDBRANCH   4   5
ENDBRANCH   3   4
ENDBRANCH   2   3
TORSDOF 16
ENDMDL
MODEL      306
REMARK 921   NORMALIZED FREE ENERGY PREDICTED BY IDOCK:   -3.04 KCAL/MOL
REMARK 922        TOTAL FREE ENERGY PREDICTED BY IDOCK:   -7.97 KCAL/MOL
REMARK 923 INTER-LIGAND FREE ENERGY PREDICTED BY IDOCK:   -6.50 KCAL/MOL
REMARK 924 INTRA-LIGAND FREE ENERGY PREDICTED BY IDOCK:   -1.46 KCAL/MOL
REMARK 927      BINDING AFFINITY PREDICTED BY RF-SCORE:    0.00 PKD
ROOT
HETATM    1  C   UNL     1     -13.329   8.880  71.486  1.00  0.00    -0.374 C  
HETATM    2  C   UNL     1     -13.166   7.388  71.722  1.00  0.00    -0.371 C  
ENDROOT
BRANCH   2   3
HETATM    3  C   UNL     1     -11.717   6.954  71.513  1.00  0.00    -0.351 C  
BRANCH   3   4
HETATM    4  C   UNL     1     -11.151   6.294  72.767  1.00  0.00    -0.284 C  
BRANCH   4   5
HETATM    5  C   UNL     1      -9.975   5.384  72.417  1.00  0.00    -0.208 C  
BRANCH   5   6
HETATM    6  C   UNL     1     -10.097   4.876  70.986  1.00  0.00    -0.288 C  
BRANCH   6   7
HETATM    7  C   UNL     1      -8.799   5.074  70.207  1.00  0.00    -0.143 C  
BRANCH   7   8
HETATM    8  C   UNL     1      -8.848   6.405  69.462  1.00  0.00    -0.136 C  
BRANCH   8   9
HETATM    9  C   UNL     1      -9.506   6.266  68.096  1.00  0.00    -0.113 C  
BRANCH   9  10
HETATM   10  C   UNL     1     -10.258   7.542  67.685  1.00  0.00    -0.275 C  
BRANCH  10  11
HETATM   11  C   UNL     1      -9.795   8.141  66.349  1.00  0.00    -0.261 C  
BRANCH  11  12
HETATM   12  C   UNL     1      -8.480   8.858  66.524  1.00  0.00    -0.119 C  
HETATM   13  O   UNL     1      -7.379   8.333  66.464  1.00  0.00    -0.079 OA 
BRANCH  12  14
HETATM   14  O   UNL     1      -8.698  10.202  66.568  1.00  0.00    -0.129 OA 
BRANCH  14  15
HETATM   15  C   UNL     1      -8.220  10.835  67.762  1.00  0.00    -0.112 C  
BRANCH  15  16
HETATM   16  C   UNL     1      -9.437  10.983  68.682  1.00  0.00    -0.195 C  
BRANCH  16  17
HETATM   17  N   UNL     1     -10.124  12.258  68.563  1.00  0.00    -0.287 N  
HETATM   18  C   UNL     1     -11.386  12.331  68.027  1.00  0.00    -0.293 C  
HETATM   19  H   UNL     1      -9.662  13.110  68.882  1.00  0.00     0.000 HD 
HETATM   20  O   UNL     1     -11.960  11.372  67.519  1.00  0.00    -0.626 OA 
BRANCH  18  21
HETATM   21  C   UNL     1     -12.023  13.705  68.007  1.00  0.00    -0.350 C  
BRANCH  21  22
HETATM   22  N   UNL     1     -11.868  14.289  66.658  1.00  0.00    -0.408 NA 
HETATM   23  C   UNL     1     -12.885  14.196  65.763  1.00  0.00    -0.329 A  
HETATM   24  C   UNL     1     -12.750  14.719  64.485  1.00  0.00     0.072 A  
HETATM   25  C   UNL     1     -11.570  15.358  64.130  1.00  0.00    -0.081 A  
HETATM   26  C   UNL     1     -10.545  15.461  65.061  1.00  0.00    -0.445 A  
HETATM   27  C   UNL     1     -10.717  14.916  66.327  1.00  0.00    -0.320 A  
ENDBRANCH  21  22
ENDBRANCH  18  21
ENDBRANCH  16  17
ENDBRANCH  15  16
ENDBRANCH  14  15
ENDBRANCH  12  14
ENDBRANCH  11  12
ENDBRANCH  10  11
ENDBRANCH   9  10
ENDBRANCH   8   9
ENDBRANCH   7   8
ENDBRANCH   6   7
ENDBRANCH   5   6
ENDBRANCH   4   5
ENDBRANCH   3   4
ENDBRANCH   2   3
TORSDOF 16
ENDMDL
MODEL      307
REMARK 921   NORMALIZED FREE ENERGY PREDICTED BY IDOCK:   -3.04 KCAL/MOL
REMARK 922        TOTAL FREE ENERGY PREDICTED BY IDOCK:   -7.96 KCAL/MOL
REMARK 923 INTER-LIGAND FREE ENERGY PREDICTED BY IDOCK:   -6.16 KCAL/MOL
REMARK 924 INTRA-LIGAND FREE ENERGY PREDICTED BY IDOCK:   -1.80 KCAL/MOL
REMARK 927      BINDING AFFINITY PREDICTED BY RF-SCORE:    0.00 PKD
ROOT
HETATM    1  C   UNL     1      -9.949  18.334  68.611  1.00  0.00    -0.410 C  
HETATM    2  C   UNL     1      -9.849  16.920  68.067  1.00  0.00    -0.264 C  
ENDROOT
BRANCH   2   3
HETATM    3  C   UNL     1     -10.890  16.676  66.976  1.00  0.00    -0.091 C  
BRANCH   3   4
HETATM    4  C   UNL     1     -10.241  16.147  65.700  1.00  0.00    -0.390 C  
BRANCH   4   5
HETATM    5  C   UNL     1     -11.302  15.704  64.695  1.00  0.00    -0.355 C  
BRANCH   5   6
HETATM    6  C   UNL     1     -11.415  14.185  64.667  1.00  0.00    -0.392 C  
BRANCH   6   7
HETATM    7  C   UNL     1     -12.484  13.683  65.634  1.00  0.00    -0.540 C  
BRANCH   7   8
HETATM    8  C   UNL     1     -11.886  12.621  66.552  1.00  0.00    -0.463 C  
BRANCH   8   9
HETATM    9  C   UNL     1     -11.460  13.204  67.892  1.00  0.00    -0.346 C  
BRANCH   9  10
HETATM   10  C   UNL     1      -9.963  12.991  68.165  1.00  0.00    -0.231 C  
BRANCH  10  11
HETATM   11  C   UNL     1      -9.215  12.268  67.036  1.00  0.00    -0.205 C  
BRANCH  11  12
HETATM   12  C   UNL     1      -8.888  10.854  67.445  1.00  0.00    -0.133 C  
HETATM   13  O   UNL     1      -8.892   9.887  66.698  1.00  0.00    -0.133 OA 
BRANCH  12  14
HETATM   14  O   UNL     1      -8.407  10.849  68.719  1.00  0.00    -0.139 OA 
BRANCH  14  15
HETATM   15  C   UNL     1      -7.050  10.404  68.832  1.00  0.00    -0.074 C  
BRANCH  15  16
HETATM   16  C   UNL     1      -7.092   9.114  69.658  1.00  0.00    -0.059 C  
BRANCH  16  17
HETATM   17  N   UNL     1      -8.172   9.062  70.629  1.00  0.00    -0.163 N  
HETATM   18  C   UNL     1      -9.178   8.134  70.514  1.00  0.00    -0.154 C  
HETATM   19  H   UNL     1      -8.182   9.722  71.407  1.00  0.00     0.000 HD 
HETATM   20  O   UNL     1      -9.298   7.384  69.550  1.00  0.00    -0.156 OA 
BRANCH  18  21
HETATM   21  C   UNL     1     -10.217   8.138  71.616  1.00  0.00    -0.206 C  
BRANCH  21  22
HETATM   22  N   UNL     1     -10.159   6.850  72.338  1.00  0.00    -0.169 NA 
HETATM   23  C   UNL     1     -11.224   6.009  72.301  1.00  0.00    -0.293 A  
HETATM   24  C   UNL     1     -11.198   4.805  72.991  1.00  0.00    -0.344 A  
HETATM   25  C   UNL     1     -10.062   4.455  73.707  1.00  0.00    -0.199 A  
HETATM   26  C   UNL     1      -8.974   5.316  73.724  1.00  0.00    -0.123 A  
HETATM   27  C   UNL     1      -9.045   6.516  73.027  1.00  0.00    -0.128 A  
ENDBRANCH  21  22
ENDBRANCH  18  21
ENDBRANCH  16  17
ENDBRANCH  15  16
ENDBRANCH  14  15
ENDBRANCH  12  14
ENDBRANCH  11  12
ENDBRANCH  10  11
ENDBRANCH   9  10
ENDBRANCH   8   9
ENDBRANCH   7   8
ENDBRANCH   6   7
ENDBRANCH   5   6
ENDBRANCH   4   5
ENDBRANCH   3   4
ENDBRANCH   2   3
TORSDOF 16
ENDMDL
MODEL      308
REMARK 921   NORMALIZED FREE ENERGY PREDICTED BY IDOCK:   -3.03 KCAL/MOL
REMARK 922        TOTAL FREE ENERGY PREDICTED BY IDOCK:   -7.95 KCAL/MOL
REMARK 923 INTER-LIGAND FREE ENERGY PREDICTED BY IDOCK:   -6.67 KCAL/MOL
REMARK 924 INTRA-LIGAND FREE ENERGY PREDICTED BY IDOCK:   -1.28 KCAL/MOL
REMARK 927      BINDING AFFINITY PREDICTED BY RF-SCORE:    0.00 PKD
ROOT
HETATM    1  C   UNL     1      -7.955   9.107  62.403  1.00  0.00    -0.129 C  
HETATM    2  C   UNL     1      -8.578  10.309  63.092  1.00  0.00    -0.194 C  
ENDROOT
BRANCH   2   3
HETATM    3  C   UNL     1      -9.472   9.875  64.251  1.00  0.00    -0.280 C  
BRANCH   3   4
HETATM    4  C   UNL     1     -10.488  10.958  64.601  1.00  0.00    -0.384 C  
BRANCH   4   5
HETATM    5  C   UNL     1     -10.477  12.072  63.555  1.00  0.00    -0.505 C  
BRANCH   5   6
HETATM    6  C   UNL     1     -11.516  13.133  63.890  1.00  0.00    -0.451 C  
BRANCH   6   7
HETATM    7  C   UNL     1     -11.108  13.954  65.111  1.00  0.00    -0.334 C  
BRANCH   7   8
HETATM    8  C   UNL     1     -12.150  13.785  66.213  1.00  0.00    -0.484 C  
BRANCH   8   9
HETATM    9  C   UNL     1     -11.787  14.573  67.463  1.00  0.00    -0.404 C  
BRANCH   9  10
HETATM   10  C   UNL     1     -11.199  13.674  68.562  1.00  0.00    -0.310 C  
BRANCH  10  11
HETATM   11  C   UNL     1     -11.732  12.235  68.549  1.00  0.00    -0.381 C  
BRANCH  11  12
HETATM   12  C   UNL     1     -11.991  11.759  69.956  1.00  0.00    -0.344 C  
HETATM   13  O   UNL     1     -12.455  12.442  70.856  1.00  0.00    -0.371 OA 
BRANCH  12  14
HETATM   14  O   UNL     1     -11.808  10.411  70.020  1.00  0.00    -0.267 OA 
BRANCH  14  15
HETATM   15  C   UNL     1     -11.770   9.886  71.353  1.00  0.00    -0.371 C  
BRANCH  15  16
HETATM   16  C   UNL     1     -10.645   8.846  71.369  1.00  0.00    -0.303 C  
BRANCH  16  17
HETATM   17  N   UNL     1     -10.368   8.245  70.075  1.00  0.00    -0.207 N  
HETATM   18  C   UNL     1      -9.595   7.114  69.974  1.00  0.00    -0.164 C  
HETATM   19  H   UNL     1     -10.752   8.669  69.230  1.00  0.00     0.000 HD 
HETATM   20  O   UNL     1      -9.007   6.612  70.927  1.00  0.00    -0.146 OA 
BRANCH  18  21
HETATM   21  C   UNL     1      -9.423   6.547  68.580  1.00  0.00    -0.123 C  
BRANCH  21  22
HETATM   22  N   UNL     1      -8.315   7.255  67.905  1.00  0.00    -0.119 NA 
HETATM   23  C   UNL     1      -8.519   8.500  67.403  1.00  0.00    -0.127 A  
HETATM   24  C   UNL     1      -7.498   9.172  66.746  1.00  0.00    -0.087 A  
HETATM   25  C   UNL     1      -6.255   8.569  66.621  1.00  0.00    -0.058 A  
HETATM   26  C   UNL     1      -6.054   7.303  67.154  1.00  0.00    -0.042 A  
HETATM   27  C   UNL     1      -7.106   6.661  67.796  1.00  0.00    -0.085 A  
ENDBRANCH  21  22
ENDBRANCH  18  21
ENDBRANCH  16  17
ENDBRANCH  15  16
ENDBRANCH  14  15
ENDBRANCH  12  14
ENDBRANCH  11  12
ENDBRANCH  10  11
ENDBRANCH   9  10
ENDBRANCH   8   9
ENDBRANCH   7   8
ENDBRANCH   6   7
ENDBRANCH   5   6
ENDBRANCH   4   5
ENDBRANCH   3   4
ENDBRANCH   2   3
TORSDOF 16
ENDMDL
MODEL      309
REMARK 921   NORMALIZED FREE ENERGY PREDICTED BY IDOCK:   -3.02 KCAL/MOL
REMARK 922        TOTAL FREE ENERGY PREDICTED BY IDOCK:   -7.93 KCAL/MOL
REMARK 923 INTER-LIGAND FREE ENERGY PREDICTED BY IDOCK:   -6.95 KCAL/MOL
REMARK 924 INTRA-LIGAND FREE ENERGY PREDICTED BY IDOCK:   -0.98 KCAL/MOL
REMARK 927      BINDING AFFINITY PREDICTED BY RF-SCORE:    0.00 PKD
ROOT
HETATM    1  C   UNL     1     -10.085  19.332  68.283  1.00  0.00    -0.516 C  
HETATM    2  C   UNL     1      -9.307  19.784  67.059  1.00  0.00    -0.460 C  
ENDROOT
BRANCH   2   3
HETATM    3  C   UNL     1      -8.611  18.604  66.384  1.00  0.00    -0.284 C  
BRANCH   3   4
HETATM    4  C   UNL     1      -9.082  17.275  66.970  1.00  0.00    -0.247 C  
BRANCH   4   5
HETATM    5  C   UNL     1      -9.189  16.209  65.880  1.00  0.00    -0.296 C  
BRANCH   5   6
HETATM    6  C   UNL     1     -10.648  15.930  65.544  1.00  0.00    -0.419 C  
BRANCH   6   7
HETATM    7  C   UNL     1     -11.081  14.549  66.028  1.00  0.00    -0.329 C  
BRANCH   7   8
HETATM    8  C   UNL     1     -10.303  13.474  65.273  1.00  0.00    -0.344 C  
BRANCH   8   9
HETATM    9  C   UNL     1      -9.567  12.537  66.219  1.00  0.00    -0.246 C  
BRANCH   9  10
HETATM   10  C   UNL     1      -9.571  11.086  65.713  1.00  0.00    -0.260 C  
BRANCH  10  11
HETATM   11  C   UNL     1     -10.580  10.175  66.426  1.00  0.00    -0.155 C  
BRANCH  11  12
HETATM   12  C   UNL     1     -11.005  10.788  67.737  1.00  0.00    -0.297 C  
HETATM   13  O   UNL     1     -12.010  11.461  67.905  1.00  0.00    -0.626 OA 
BRANCH  12  14
HETATM   14  O   UNL     1     -10.206  10.322  68.736  1.00  0.00    -0.174 OA 
BRANCH  14  15
HETATM   15  C   UNL     1     -10.854  10.233  70.012  1.00  0.00    -0.307 C  
BRANCH  15  16
HETATM   16  C   UNL     1     -11.117   8.743  70.253  1.00  0.00    -0.222 C  
BRANCH  16  17
HETATM   17  N   UNL     1     -10.034   7.869  69.834  1.00  0.00    -0.189 N  
HETATM   18  C   UNL     1     -10.258   6.850  68.941  1.00  0.00    -0.177 C  
HETATM   19  H   UNL     1      -9.096   8.015  70.207  1.00  0.00     0.000 HD 
HETATM   20  O   UNL     1     -11.374   6.540  68.535  1.00  0.00    -0.258 OA 
BRANCH  18  21
HETATM   21  C   UNL     1      -9.042   6.042  68.535  1.00  0.00    -0.112 C  
BRANCH  21  22
HETATM   22  N   UNL     1      -9.213   4.648  68.997  1.00  0.00    -0.119 NA 
HETATM   23  C   UNL     1      -9.438   4.398  70.312  1.00  0.00    -0.171 A  
HETATM   24  C   UNL     1      -9.579   3.095  70.769  1.00  0.00    -0.219 A  
HETATM   25  C   UNL     1      -9.508   2.044  69.866  1.00  0.00    -0.124 A  
HETATM   26  C   UNL     1      -9.294   2.315  68.521  1.00  0.00    -0.250 A  
HETATM   27  C   UNL     1      -9.149   3.633  68.106  1.00  0.00    -0.149 A  
ENDBRANCH  21  22
ENDBRANCH  18  21
ENDBRANCH  16  17
ENDBRANCH  15  16
ENDBRANCH  14  15
ENDBRANCH  12  14
ENDBRANCH  11  12
ENDBRANCH  10  11
ENDBRANCH   9  10
ENDBRANCH   8   9
ENDBRANCH   7   8
ENDBRANCH   6   7
ENDBRANCH   5   6
ENDBRANCH   4   5
ENDBRANCH   3   4
ENDBRANCH   2   3
TORSDOF 16
ENDMDL
MODEL      310
REMARK 921   NORMALIZED FREE ENERGY PREDICTED BY IDOCK:   -2.99 KCAL/MOL
REMARK 922        TOTAL FREE ENERGY PREDICTED BY IDOCK:   -7.87 KCAL/MOL
REMARK 923 INTER-LIGAND FREE ENERGY PREDICTED BY IDOCK:   -5.71 KCAL/MOL
REMARK 924 INTRA-LIGAND FREE ENERGY PREDICTED BY IDOCK:   -2.16 KCAL/MOL
REMARK 927      BINDING AFFINITY PREDICTED BY RF-SCORE:    0.00 PKD
ROOT
HETATM    1  C   UNL     1      -9.264  18.165  67.117  1.00  0.00    -0.256 C  
HETATM    2  C   UNL     1      -9.290  16.652  66.989  1.00  0.00    -0.236 C  
ENDROOT
BRANCH   2   3
HETATM    3  C   UNL     1     -10.659  16.163  66.522  1.00  0.00    -0.268 C  
BRANCH   3   4
HETATM    4  C   UNL     1     -10.575  15.519  65.141  1.00  0.00    -0.455 C  
BRANCH   4   5
HETATM    5  C   UNL     1     -11.860  14.758  64.818  1.00  0.00    -0.425 C  
BRANCH   5   6
HETATM    6  C   UNL     1     -11.541  13.429  64.145  1.00  0.00    -0.440 C  
BRANCH   6   7
HETATM    7  C   UNL     1     -11.941  12.245  65.021  1.00  0.00    -0.413 C  
BRANCH   7   8
HETATM    8  C   UNL     1     -10.768  11.850  65.914  1.00  0.00    -0.326 C  
BRANCH   8   9
HETATM    9  C   UNL     1     -10.989  12.273  67.360  1.00  0.00    -0.298 C  
BRANCH   9  10
HETATM   10  C   UNL     1      -9.703  12.808  68.007  1.00  0.00    -0.220 C  
BRANCH  10  11
HETATM   11  C   UNL     1      -8.545  13.022  67.022  1.00  0.00    -0.165 C  
BRANCH  11  12
HETATM   12  C   UNL     1      -7.321  12.269  67.480  1.00  0.00    -0.137 C  
HETATM   13  O   UNL     1      -6.243  12.265  66.906  1.00  0.00    -0.184 OA 
BRANCH  12  14
HETATM   14  O   UNL     1      -7.543  11.752  68.720  1.00  0.00    -0.125 OA 
BRANCH  14  15
HETATM   15  C   UNL     1      -6.409  11.818  69.594  1.00  0.00    -0.129 C  
BRANCH  15  16
HETATM   16  C   UNL     1      -5.918  10.377  69.764  1.00  0.00    -0.053 C  
BRANCH  16  17
HETATM   17  N   UNL     1      -6.148   9.527  68.607  1.00  0.00    -0.043 N  
HETATM   18  C   UNL     1      -6.675   8.267  68.753  1.00  0.00    -0.058 C  
HETATM   19  H   UNL     1      -5.917   9.871  67.675  1.00  0.00     0.000 HD 
HETATM   20  O   UNL     1      -6.873   7.740  69.844  1.00  0.00    -0.048 OA 
BRANCH  18  21
HETATM   21  C   UNL     1      -6.924   7.496  67.473  1.00  0.00    -0.080 C  
BRANCH  21  22
HETATM   22  N   UNL     1      -8.373   7.235  67.341  1.00  0.00    -0.119 NA 
HETATM   23  C   UNL     1      -8.836   5.962  67.423  1.00  0.00    -0.106 A  
HETATM   24  C   UNL     1     -10.191   5.693  67.279  1.00  0.00    -0.250 A  
HETATM   25  C   UNL     1     -11.075   6.742  67.070  1.00  0.00    -0.369 A  
HETATM   26  C   UNL     1     -10.589   8.041  67.006  1.00  0.00    -0.364 A  
HETATM   27  C   UNL     1      -9.225   8.265  67.146  1.00  0.00    -0.144 A  
ENDBRANCH  21  22
ENDBRANCH  18  21
ENDBRANCH  16  17
ENDBRANCH  15  16
ENDBRANCH  14  15
ENDBRANCH  12  14
ENDBRANCH  11  12
ENDBRANCH  10  11
ENDBRANCH   9  10
ENDBRANCH   8   9
ENDBRANCH   7   8
ENDBRANCH   6   7
ENDBRANCH   5   6
ENDBRANCH   4   5
ENDBRANCH   3   4
ENDBRANCH   2   3
TORSDOF 16
ENDMDL
MODEL      311
REMARK 921   NORMALIZED FREE ENERGY PREDICTED BY IDOCK:   -2.99 KCAL/MOL
REMARK 922        TOTAL FREE ENERGY PREDICTED BY IDOCK:   -7.87 KCAL/MOL
REMARK 923 INTER-LIGAND FREE ENERGY PREDICTED BY IDOCK:   -6.90 KCAL/MOL
REMARK 924 INTRA-LIGAND FREE ENERGY PREDICTED BY IDOCK:   -0.97 KCAL/MOL
REMARK 927      BINDING AFFINITY PREDICTED BY RF-SCORE:    0.00 PKD
ROOT
HETATM    1  C   UNL     1      -9.682  19.430  66.746  1.00  0.00    -0.435 C  
HETATM    2  C   UNL     1     -10.173  18.143  67.387  1.00  0.00    -0.383 C  
ENDROOT
BRANCH   2   3
HETATM    3  C   UNL     1      -9.190  17.000  67.146  1.00  0.00    -0.242 C  
BRANCH   3   4
HETATM    4  C   UNL     1      -9.626  16.134  65.967  1.00  0.00    -0.381 C  
BRANCH   4   5
HETATM    5  C   UNL     1     -11.149  16.026  65.907  1.00  0.00    -0.002 C  
BRANCH   5   6
HETATM    6  C   UNL     1     -11.636  14.841  66.731  1.00  0.00    -0.333 C  
BRANCH   6   7
HETATM    7  C   UNL     1     -12.786  14.112  66.042  1.00  0.00    -0.325 C  
BRANCH   7   8
HETATM    8  C   UNL     1     -12.293  12.770  65.506  1.00  0.00    -0.495 C  
BRANCH   8   9
HETATM    9  C   UNL     1     -10.795  12.594  65.710  1.00  0.00    -0.304 C  
BRANCH   9  10
HETATM   10  C   UNL     1     -10.084  12.157  64.420  1.00  0.00    -0.300 C  
BRANCH  10  11
HETATM   11  C   UNL     1     -10.347  10.699  64.020  1.00  0.00    -0.262 C  
BRANCH  11  12
HETATM   12  C   UNL     1      -9.230   9.811  64.509  1.00  0.00    -0.253 C  
HETATM   13  O   UNL     1      -8.181   9.611  63.917  1.00  0.00    -0.137 OA 
BRANCH  12  14
HETATM   14  O   UNL     1      -9.486   9.421  65.788  1.00  0.00    -0.221 OA 
BRANCH  14  15
HETATM   15  C   UNL     1      -8.592   8.419  66.286  1.00  0.00    -0.135 C  
BRANCH  15  16
HETATM   16  C   UNL     1      -9.318   7.080  66.121  1.00  0.00    -0.040 C  
BRANCH  16  17
HETATM   17  N   UNL     1     -10.176   6.724  67.240  1.00  0.00    -0.185 N  
HETATM   18  C   UNL     1      -9.676   6.038  68.320  1.00  0.00    -0.124 C  
HETATM   19  H   UNL     1     -11.161   6.986  67.222  1.00  0.00     0.000 HD 
HETATM   20  O   UNL     1      -8.534   5.591  68.366  1.00  0.00    -0.101 OA 
BRANCH  18  21
HETATM   21  C   UNL     1     -10.650   5.773  69.449  1.00  0.00    -0.313 C  
BRANCH  21  22
HETATM   22  N   UNL     1     -10.929   7.043  70.154  1.00  0.00    -0.262 NA 
HETATM   23  C   UNL     1     -12.082   7.183  70.856  1.00  0.00    -0.326 A  
HETATM   24  C   UNL     1     -12.372   8.375  71.505  1.00  0.00    -0.343 A  
HETATM   25  C   UNL     1     -11.463   9.421  71.449  1.00  0.00    -0.449 A  
HETATM   26  C   UNL     1     -10.279   9.258  70.741  1.00  0.00    -0.353 A  
HETATM   27  C   UNL     1     -10.032   8.052  70.098  1.00  0.00    -0.191 A  
ENDBRANCH  21  22
ENDBRANCH  18  21
ENDBRANCH  16  17
ENDBRANCH  15  16
ENDBRANCH  14  15
ENDBRANCH  12  14
ENDBRANCH  11  12
ENDBRANCH  10  11
ENDBRANCH   9  10
ENDBRANCH   8   9
ENDBRANCH   7   8
ENDBRANCH   6   7
ENDBRANCH   5   6
ENDBRANCH   4   5
ENDBRANCH   3   4
ENDBRANCH   2   3
TORSDOF 16
ENDMDL
MODEL      312
REMARK 921   NORMALIZED FREE ENERGY PREDICTED BY IDOCK:   -2.99 KCAL/MOL
REMARK 922        TOTAL FREE ENERGY PREDICTED BY IDOCK:   -7.87 KCAL/MOL
REMARK 923 INTER-LIGAND FREE ENERGY PREDICTED BY IDOCK:   -6.38 KCAL/MOL
REMARK 924 INTRA-LIGAND FREE ENERGY PREDICTED BY IDOCK:   -1.49 KCAL/MOL
REMARK 927      BINDING AFFINITY PREDICTED BY RF-SCORE:    0.00 PKD
ROOT
HETATM    1  C   UNL     1     -10.551  19.371  66.978  1.00  0.00    -0.586 C  
HETATM    2  C   UNL     1     -10.508  17.911  66.560  1.00  0.00    -0.315 C  
ENDROOT
BRANCH   2   3
HETATM    3  C   UNL     1      -9.445  17.146  67.344  1.00  0.00    -0.247 C  
BRANCH   3   4
HETATM    4  C   UNL     1      -9.945  16.774  68.737  1.00  0.00    -0.269 C  
BRANCH   4   5
HETATM    5  C   UNL     1     -11.329  16.131  68.663  1.00  0.00    -0.365 C  
BRANCH   5   6
HETATM    6  C   UNL     1     -11.297  14.721  69.239  1.00  0.00    -0.317 C  
BRANCH   6   7
HETATM    7  C   UNL     1     -12.020  13.728  68.333  1.00  0.00    -0.395 C  
BRANCH   7   8
HETATM    8  C   UNL     1     -11.755  14.082  66.872  1.00  0.00    -0.435 C  
BRANCH   8   9
HETATM    9  C   UNL     1     -12.075  12.921  65.941  1.00  0.00    -0.503 C  
BRANCH   9  10
HETATM   10  C   UNL     1     -10.836  12.065  65.638  1.00  0.00    -0.325 C  
BRANCH  10  11
HETATM   11  C   UNL     1     -10.640  10.882  66.596  1.00  0.00    -0.305 C  
BRANCH  11  12
HETATM   12  C   UNL     1      -9.439  11.115  67.479  1.00  0.00    -0.168 C  
HETATM   13  O   UNL     1      -9.480  11.314  68.683  1.00  0.00    -0.186 OA 
BRANCH  12  14
HETATM   14  O   UNL     1      -8.301  10.883  66.768  1.00  0.00    -0.129 OA 
BRANCH  14  15
HETATM   15  C   UNL     1      -7.144  10.640  67.577  1.00  0.00    -0.089 C  
BRANCH  15  16
HETATM   16  C   UNL     1      -6.504   9.358  67.032  1.00  0.00    -0.067 C  
BRANCH  16  17
HETATM   17  N   UNL     1      -7.423   8.239  66.905  1.00  0.00    -0.087 N  
HETATM   18  C   UNL     1      -7.380   7.190  67.790  1.00  0.00    -0.097 C  
HETATM   19  H   UNL     1      -8.108   8.233  66.150  1.00  0.00     0.000 HD 
HETATM   20  O   UNL     1      -6.515   7.069  68.653  1.00  0.00    -0.033 OA 
BRANCH  18  21
HETATM   21  C   UNL     1      -8.423   6.109  67.593  1.00  0.00    -0.108 C  
BRANCH  21  22
HETATM   22  N   UNL     1      -9.383   6.155  68.716  1.00  0.00    -0.123 NA 
HETATM   23  C   UNL     1     -10.363   7.094  68.725  1.00  0.00    -0.192 A  
HETATM   24  C   UNL     1     -11.261   7.168  69.781  1.00  0.00    -0.206 A  
HETATM   25  C   UNL     1     -11.162   6.258  70.825  1.00  0.00    -0.387 A  
HETATM   26  C   UNL     1     -10.165   5.292  70.795  1.00  0.00    -0.317 A  
HETATM   27  C   UNL     1      -9.281   5.259  69.723  1.00  0.00    -0.126 A  
ENDBRANCH  21  22
ENDBRANCH  18  21
ENDBRANCH  16  17
ENDBRANCH  15  16
ENDBRANCH  14  15
ENDBRANCH  12  14
ENDBRANCH  11  12
ENDBRANCH  10  11
ENDBRANCH   9  10
ENDBRANCH   8   9
ENDBRANCH   7   8
ENDBRANCH   6   7
ENDBRANCH   5   6
ENDBRANCH   4   5
ENDBRANCH   3   4
ENDBRANCH   2   3
TORSDOF 16
ENDMDL
MODEL      313
REMARK 921   NORMALIZED FREE ENERGY PREDICTED BY IDOCK:   -2.99 KCAL/MOL
REMARK 922        TOTAL FREE ENERGY PREDICTED BY IDOCK:   -7.86 KCAL/MOL
REMARK 923 INTER-LIGAND FREE ENERGY PREDICTED BY IDOCK:   -7.00 KCAL/MOL
REMARK 924 INTRA-LIGAND FREE ENERGY PREDICTED BY IDOCK:   -0.85 KCAL/MOL
REMARK 927      BINDING AFFINITY PREDICTED BY RF-SCORE:    0.00 PKD
ROOT
HETATM    1  C   UNL     1     -11.708  11.130  68.367  1.00  0.00    -0.349 C  
HETATM    2  C   UNL     1     -10.886  10.564  69.512  1.00  0.00    -0.298 C  
ENDROOT
BRANCH   2   3
HETATM    3  C   UNL     1     -11.610   9.400  70.185  1.00  0.00    -0.117 C  
BRANCH   3   4
HETATM    4  C   UNL     1     -11.861   9.684  71.663  1.00  0.00    -0.457 C  
BRANCH   4   5
HETATM    5  C   UNL     1     -13.236  10.318  71.868  1.00  0.00    -0.550 C  
BRANCH   5   6
HETATM    6  C   UNL     1     -13.250  11.750  71.348  1.00  0.00    -0.193 C  
BRANCH   6   7
HETATM    7  C   UNL     1     -13.637  12.741  72.442  1.00  0.00    -0.507 C  
BRANCH   7   8
HETATM    8  C   UNL     1     -13.419  14.167  71.941  1.00  0.00    -0.489 C  
BRANCH   8   9
HETATM    9  C   UNL     1     -12.417  14.218  70.796  1.00  0.00    -0.428 C  
BRANCH   9  10
HETATM   10  C   UNL     1     -11.747  15.596  70.678  1.00  0.00    -0.398 C  
BRANCH  10  11
HETATM   11  C   UNL     1     -10.399  15.578  69.942  1.00  0.00    -0.322 C  
BRANCH  11  12
HETATM   12  C   UNL     1     -10.376  16.631  68.863  1.00  0.00    -0.300 C  
HETATM   13  O   UNL     1      -9.985  17.779  69.010  1.00  0.00    -0.327 OA 
BRANCH  12  14
HETATM   14  O   UNL     1     -10.676  16.059  67.664  1.00  0.00    -0.310 OA 
BRANCH  14  15
HETATM   15  C   UNL     1     -10.335  16.865  66.529  1.00  0.00    -0.299 C  
BRANCH  15  16
HETATM   16  C   UNL     1      -9.412  16.005  65.659  1.00  0.00    -0.140 C  
BRANCH  16  17
HETATM   17  N   UNL     1      -9.481  14.581  65.940  1.00  0.00    -0.509 N  
HETATM   18  C   UNL     1      -8.630  14.001  66.849  1.00  0.00    -0.125 C  
HETATM   19  H   UNL     1     -10.170  14.005  65.456  1.00  0.00     0.000 HD 
HETATM   20  O   UNL     1      -7.704  14.601  67.385  1.00  0.00    -0.182 OA 
BRANCH  18  21
HETATM   21  C   UNL     1      -8.834  12.521  67.101  1.00  0.00    -0.202 C  
BRANCH  21  22
HETATM   22  N   UNL     1      -7.562  11.932  67.572  1.00  0.00    -0.130 NA 
HETATM   23  C   UNL     1      -6.683  11.423  66.673  1.00  0.00    -0.112 A  
HETATM   24  C   UNL     1      -5.494  10.845  67.097  1.00  0.00    -0.048 A  
HETATM   25  C   UNL     1      -5.199  10.810  68.453  1.00  0.00    -0.036 A  
HETATM   26  C   UNL     1      -6.099  11.351  69.361  1.00  0.00    -0.078 A  
HETATM   27  C   UNL     1      -7.282  11.911  68.895  1.00  0.00    -0.098 A  
ENDBRANCH  21  22
ENDBRANCH  18  21
ENDBRANCH  16  17
ENDBRANCH  15  16
ENDBRANCH  14  15
ENDBRANCH  12  14
ENDBRANCH  11  12
ENDBRANCH  10  11
ENDBRANCH   9  10
ENDBRANCH   8   9
ENDBRANCH   7   8
ENDBRANCH   6   7
ENDBRANCH   5   6
ENDBRANCH   4   5
ENDBRANCH   3   4
ENDBRANCH   2   3
TORSDOF 16
ENDMDL
MODEL      314
REMARK 921   NORMALIZED FREE ENERGY PREDICTED BY IDOCK:   -2.98 KCAL/MOL
REMARK 922        TOTAL FREE ENERGY PREDICTED BY IDOCK:   -7.86 KCAL/MOL
REMARK 923 INTER-LIGAND FREE ENERGY PREDICTED BY IDOCK:   -5.56 KCAL/MOL
REMARK 924 INTRA-LIGAND FREE ENERGY PREDICTED BY IDOCK:   -2.29 KCAL/MOL
REMARK 927      BINDING AFFINITY PREDICTED BY RF-SCORE:    0.00 PKD
ROOT
HETATM    1  C   UNL     1      -6.141  12.856  69.334  1.00  0.00    -0.109 C  
HETATM    2  C   UNL     1      -5.801  12.880  67.853  1.00  0.00    -0.123 C  
ENDROOT
BRANCH   2   3
HETATM    3  C   UNL     1      -6.641  11.865  67.081  1.00  0.00    -0.148 C  
BRANCH   3   4
HETATM    4  C   UNL     1      -5.807  10.653  66.674  1.00  0.00    -0.074 C  
BRANCH   4   5
HETATM    5  C   UNL     1      -6.042   9.487  67.634  1.00  0.00    -0.053 C  
BRANCH   5   6
HETATM    6  C   UNL     1      -6.550   8.266  66.879  1.00  0.00    -0.057 C  
BRANCH   6   7
HETATM    7  C   UNL     1      -7.359   8.663  65.647  1.00  0.00    -0.084 C  
BRANCH   7   8
HETATM    8  C   UNL     1      -8.569   7.742  65.511  1.00  0.00    -0.126 C  
BRANCH   8   9
HETATM    9  C   UNL     1      -9.671   8.104  66.496  1.00  0.00    -0.309 C  
BRANCH   9  10
HETATM   10  C   UNL     1      -9.800   9.623  66.686  1.00  0.00    -0.285 C  
BRANCH  10  11
HETATM   11  C   UNL     1     -10.858  10.041  67.718  1.00  0.00    -0.337 C  
BRANCH  11  12
HETATM   12  C   UNL     1     -10.199  10.669  68.920  1.00  0.00    -0.201 C  
HETATM   13  O   UNL     1      -9.014  10.576  69.202  1.00  0.00    -0.173 OA 
BRANCH  12  14
HETATM   14  O   UNL     1     -11.080  11.507  69.534  1.00  0.00    -0.244 OA 
BRANCH  14  15
HETATM   15  C   UNL     1     -12.408  10.981  69.646  1.00  0.00    -0.234 C  
BRANCH  15  16
HETATM   16  C   UNL     1     -12.605  10.635  71.126  1.00  0.00    -0.423 C  
BRANCH  16  17
HETATM   17  N   UNL     1     -11.629   9.697  71.656  1.00  0.00    -0.379 N  
HETATM   18  C   UNL     1     -11.995   8.418  71.999  1.00  0.00    -0.357 C  
HETATM   19  H   UNL     1     -10.660   9.992  71.774  1.00  0.00     0.000 HD 
HETATM   20  O   UNL     1     -13.158   8.025  71.994  1.00  0.00    -0.313 OA 
BRANCH  18  21
HETATM   21  C   UNL     1     -10.881   7.515  72.486  1.00  0.00    -0.299 C  
BRANCH  21  22
HETATM   22  N   UNL     1     -10.195   6.923  71.318  1.00  0.00    -0.198 NA 
HETATM   23  C   UNL     1      -8.956   7.357  70.975  1.00  0.00    -0.151 A  
HETATM   24  C   UNL     1      -8.305   6.829  69.868  1.00  0.00    -0.135 A  
HETATM   25  C   UNL     1      -8.924   5.836  69.122  1.00  0.00    -0.120 A  
HETATM   26  C   UNL     1     -10.184   5.389  69.495  1.00  0.00    -0.336 A  
HETATM   27  C   UNL     1     -10.805   5.950  70.604  1.00  0.00    -0.292 A  
ENDBRANCH  21  22
ENDBRANCH  18  21
ENDBRANCH  16  17
ENDBRANCH  15  16
ENDBRANCH  14  15
ENDBRANCH  12  14
ENDBRANCH  11  12
ENDBRANCH  10  11
ENDBRANCH   9  10
ENDBRANCH   8   9
ENDBRANCH   7   8
ENDBRANCH   6   7
ENDBRANCH   5   6
ENDBRANCH   4   5
ENDBRANCH   3   4
ENDBRANCH   2   3
TORSDOF 16
ENDMDL
MODEL      315
REMARK 921   NORMALIZED FREE ENERGY PREDICTED BY IDOCK:   -2.97 KCAL/MOL
REMARK 922        TOTAL FREE ENERGY PREDICTED BY IDOCK:   -7.84 KCAL/MOL
REMARK 923 INTER-LIGAND FREE ENERGY PREDICTED BY IDOCK:   -6.98 KCAL/MOL
REMARK 924 INTRA-LIGAND FREE ENERGY PREDICTED BY IDOCK:   -0.86 KCAL/MOL
REMARK 927      BINDING AFFINITY PREDICTED BY RF-SCORE:    0.00 PKD
ROOT
HETATM    1  C   UNL     1     -10.401   2.664  63.665  1.00  0.00    -0.174 C  
HETATM    2  C   UNL     1      -8.932   3.034  63.776  1.00  0.00    -0.096 C  
ENDROOT
BRANCH   2   3
HETATM    3  C   UNL     1      -8.666   3.854  65.036  1.00  0.00    -0.116 C  
BRANCH   3   4
HETATM    4  C   UNL     1      -7.607   4.925  64.786  1.00  0.00    -0.077 C  
BRANCH   4   5
HETATM    5  C   UNL     1      -8.248   6.308  64.687  1.00  0.00    -0.080 C  
BRANCH   5   6
HETATM    6  C   UNL     1      -8.264   6.991  66.049  1.00  0.00    -0.129 C  
BRANCH   6   7
HETATM    7  C   UNL     1      -7.170   8.049  66.159  1.00  0.00    -0.070 C  
BRANCH   7   8
HETATM    8  C   UNL     1      -7.803   9.438  66.200  1.00  0.00    -0.100 C  
BRANCH   8   9
HETATM    9  C   UNL     1      -7.512  10.231  64.934  1.00  0.00    -0.114 C  
BRANCH   9  10
HETATM   10  C   UNL     1      -8.642  10.105  63.901  1.00  0.00    -0.197 C  
BRANCH  10  11
HETATM   11  C   UNL     1     -10.049  10.310  64.480  1.00  0.00    -0.286 C  
BRANCH  11  12
HETATM   12  C   UNL     1     -10.456  11.758  64.370  1.00  0.00    -0.311 C  
HETATM   13  O   UNL     1     -10.839  12.305  63.347  1.00  0.00    -0.449 OA 
BRANCH  12  14
HETATM   14  O   UNL     1     -10.511  12.310  65.613  1.00  0.00    -0.248 OA 
BRANCH  14  15
HETATM   15  C   UNL     1     -11.841  12.507  66.109  1.00  0.00    -0.397 C  
BRANCH  15  16
HETATM   16  C   UNL     1     -12.200  13.965  65.799  1.00  0.00    -0.460 C  
BRANCH  16  17
HETATM   17  N   UNL     1     -12.102  14.860  66.940  1.00  0.00    -0.290 N  
HETATM   18  C   UNL     1     -10.922  15.500  67.233  1.00  0.00    -0.303 C  
HETATM   19  H   UNL     1     -12.919  15.014  67.531  1.00  0.00     0.000 HD 
HETATM   20  O   UNL     1      -9.870  15.281  66.641  1.00  0.00    -0.234 OA 
BRANCH  18  21
HETATM   21  C   UNL     1     -10.956  16.451  68.411  1.00  0.00    -0.353 C  
BRANCH  21  22
HETATM   22  N   UNL     1     -10.463  17.776  67.977  1.00  0.00    -0.390 NA 
HETATM   23  C   UNL     1     -10.780  18.239  66.741  1.00  0.00    -0.218 A  
HETATM   24  C   UNL     1     -10.308  19.470  66.306  1.00  0.00    -0.601 A  
HETATM   25  C   UNL     1      -9.522  20.237  67.154  1.00  0.00    -0.557 A  
HETATM   26  C   UNL     1      -9.220  19.758  68.422  1.00  0.00    -0.370 A  
HETATM   27  C   UNL     1      -9.705  18.517  68.815  1.00  0.00    -0.357 A  
ENDBRANCH  21  22
ENDBRANCH  18  21
ENDBRANCH  16  17
ENDBRANCH  15  16
ENDBRANCH  14  15
ENDBRANCH  12  14
ENDBRANCH  11  12
ENDBRANCH  10  11
ENDBRANCH   9  10
ENDBRANCH   8   9
ENDBRANCH   7   8
ENDBRANCH   6   7
ENDBRANCH   5   6
ENDBRANCH   4   5
ENDBRANCH   3   4
ENDBRANCH   2   3
TORSDOF 16
ENDMDL
MODEL      316
REMARK 921   NORMALIZED FREE ENERGY PREDICTED BY IDOCK:   -2.97 KCAL/MOL
REMARK 922        TOTAL FREE ENERGY PREDICTED BY IDOCK:   -7.83 KCAL/MOL
REMARK 923 INTER-LIGAND FREE ENERGY PREDICTED BY IDOCK:   -7.03 KCAL/MOL
REMARK 924 INTRA-LIGAND FREE ENERGY PREDICTED BY IDOCK:   -0.80 KCAL/MOL
REMARK 927      BINDING AFFINITY PREDICTED BY RF-SCORE:    0.00 PKD
ROOT
HETATM    1  C   UNL     1     -13.541  15.840  72.898  1.00  0.00    -0.660 C  
HETATM    2  C   UNL     1     -14.063  14.862  71.860  1.00  0.00    -0.613 C  
ENDROOT
BRANCH   2   3
HETATM    3  C   UNL     1     -13.649  13.431  72.196  1.00  0.00    -0.660 C  
BRANCH   3   4
HETATM    4  C   UNL     1     -12.791  12.828  71.087  1.00  0.00    -0.315 C  
BRANCH   4   5
HETATM    5  C   UNL     1     -12.209  13.924  70.195  1.00  0.00    -0.425 C  
BRANCH   5   6
HETATM    6  C   UNL     1     -12.091  13.438  68.756  1.00  0.00    -0.281 C  
BRANCH   6   7
HETATM    7  C   UNL     1     -11.860  14.596  67.789  1.00  0.00    -0.359 C  
BRANCH   7   8
HETATM    8  C   UNL     1     -12.224  14.159  66.372  1.00  0.00    -0.473 C  
BRANCH   8   9
HETATM    9  C   UNL     1     -12.031  12.663  66.173  1.00  0.00    -0.458 C  
BRANCH   9  10
HETATM   10  C   UNL     1     -10.560  12.299  65.921  1.00  0.00    -0.290 C  
BRANCH  10  11
HETATM   11  C   UNL     1     -10.229  10.819  66.163  1.00  0.00    -0.308 C  
BRANCH  11  12
HETATM   12  C   UNL     1      -9.049  10.691  67.094  1.00  0.00    -0.143 C  
HETATM   13  O   UNL     1      -8.884  11.344  68.113  1.00  0.00    -0.148 OA 
BRANCH  12  14
HETATM   14  O   UNL     1      -8.299   9.615  66.730  1.00  0.00    -0.116 OA 
BRANCH  14  15
HETATM   15  C   UNL     1      -8.916   8.774  65.748  1.00  0.00    -0.206 C  
BRANCH  15  16
HETATM   16  C   UNL     1      -8.837   7.346  66.300  1.00  0.00    -0.159 C  
BRANCH  16  17
HETATM   17  N   UNL     1      -8.474   7.268  67.705  1.00  0.00    -0.121 N  
HETATM   18  C   UNL     1      -9.440   7.202  68.679  1.00  0.00    -0.140 C  
HETATM   19  H   UNL     1      -7.489   7.261  67.971  1.00  0.00     0.000 HD 
HETATM   20  O   UNL     1     -10.640   7.318  68.449  1.00  0.00    -0.202 OA 
BRANCH  18  21
HETATM   21  C   UNL     1      -8.942   7.066  70.103  1.00  0.00    -0.145 C  
BRANCH  21  22
HETATM   22  N   UNL     1      -8.902   5.633  70.465  1.00  0.00    -0.136 NA 
HETATM   23  C   UNL     1      -9.784   4.771  69.899  1.00  0.00    -0.204 A  
HETATM   24  C   UNL     1      -9.777   3.426  70.243  1.00  0.00    -0.140 A  
HETATM   25  C   UNL     1      -8.845   2.962  71.160  1.00  0.00    -0.141 A  
HETATM   26  C   UNL     1      -7.937   3.851  71.718  1.00  0.00    -0.071 A  
HETATM   27  C   UNL     1      -7.984   5.191  71.354  1.00  0.00    -0.112 A  
ENDBRANCH  21  22
ENDBRANCH  18  21
ENDBRANCH  16  17
ENDBRANCH  15  16
ENDBRANCH  14  15
ENDBRANCH  12  14
ENDBRANCH  11  12
ENDBRANCH  10  11
ENDBRANCH   9  10
ENDBRANCH   8   9
ENDBRANCH   7   8
ENDBRANCH   6   7
ENDBRANCH   5   6
ENDBRANCH   4   5
ENDBRANCH   3   4
ENDBRANCH   2   3
TORSDOF 16
ENDMDL
MODEL      317
REMARK 921   NORMALIZED FREE ENERGY PREDICTED BY IDOCK:   -2.96 KCAL/MOL
REMARK 922        TOTAL FREE ENERGY PREDICTED BY IDOCK:   -7.80 KCAL/MOL
REMARK 923 INTER-LIGAND FREE ENERGY PREDICTED BY IDOCK:   -6.23 KCAL/MOL
REMARK 924 INTRA-LIGAND FREE ENERGY PREDICTED BY IDOCK:   -1.57 KCAL/MOL
REMARK 927      BINDING AFFINITY PREDICTED BY RF-SCORE:    0.00 PKD
ROOT
HETATM    1  C   UNL     1     -12.614  15.765  71.457  1.00  0.00    -0.517 C  
HETATM    2  C   UNL     1     -13.350  14.446  71.615  1.00  0.00    -0.442 C  
ENDROOT
BRANCH   2   3
HETATM    3  C   UNL     1     -12.697  13.348  70.779  1.00  0.00    -0.301 C  
BRANCH   3   4
HETATM    4  C   UNL     1     -11.812  13.939  69.685  1.00  0.00    -0.385 C  
BRANCH   4   5
HETATM    5  C   UNL     1     -12.166  13.346  68.321  1.00  0.00    -0.120 C  
BRANCH   5   6
HETATM    6  C   UNL     1     -11.739  14.286  67.201  1.00  0.00    -0.430 C  
BRANCH   6   7
HETATM    7  C   UNL     1     -11.399  15.676  67.733  1.00  0.00    -0.261 C  
BRANCH   7   8
HETATM    8  C   UNL     1     -10.437  16.369  66.771  1.00  0.00    -0.273 C  
BRANCH   8   9
HETATM    9  C   UNL     1      -9.395  17.196  67.510  1.00  0.00    -0.238 C  
BRANCH   9  10
HETATM   10  C   UNL     1      -9.108  16.643  68.914  1.00  0.00    -0.238 C  
BRANCH  10  11
HETATM   11  C   UNL     1      -7.717  16.013  69.070  1.00  0.00    -0.216 C  
BRANCH  11  12
HETATM   12  C   UNL     1      -7.783  14.527  68.821  1.00  0.00    -0.140 C  
HETATM   13  O   UNL     1      -8.289  14.000  67.842  1.00  0.00    -0.144 OA 
BRANCH  12  14
HETATM   14  O   UNL     1      -7.032  13.877  69.752  1.00  0.00    -0.008 OA 
BRANCH  14  15
HETATM   15  C   UNL     1      -6.204  12.837  69.217  1.00  0.00    -0.105 C  
BRANCH  15  16
HETATM   16  C   UNL     1      -6.716  11.528  69.827  1.00  0.00    -0.047 C  
BRANCH  16  17
HETATM   17  N   UNL     1      -7.986  11.074  69.286  1.00  0.00    -0.344 N  
HETATM   18  C   UNL     1      -8.096  10.697  67.970  1.00  0.00    -0.112 C  
HETATM   19  H   UNL     1      -8.806  11.033  69.891  1.00  0.00     0.000 HD 
HETATM   20  O   UNL     1      -7.189  10.823  67.153  1.00  0.00    -0.092 OA 
BRANCH  18  21
HETATM   21  C   UNL     1      -9.455  10.187  67.534  1.00  0.00    -0.152 C  
BRANCH  21  22
HETATM   22  N   UNL     1      -9.585  10.352  66.071  1.00  0.00    -0.190 NA 
HETATM   23  C   UNL     1      -8.962   9.480  65.238  1.00  0.00    -0.200 A  
HETATM   24  C   UNL     1      -9.054   9.631  63.861  1.00  0.00    -0.229 A  
HETATM   25  C   UNL     1      -9.808  10.672  63.338  1.00  0.00    -0.376 A  
HETATM   26  C   UNL     1     -10.454  11.546  64.202  1.00  0.00    -0.408 A  
HETATM   27  C   UNL     1     -10.328  11.365  65.573  1.00  0.00    -0.266 A  
ENDBRANCH  21  22
ENDBRANCH  18  21
ENDBRANCH  16  17
ENDBRANCH  15  16
ENDBRANCH  14  15
ENDBRANCH  12  14
ENDBRANCH  11  12
ENDBRANCH  10  11
ENDBRANCH   9  10
ENDBRANCH   8   9
ENDBRANCH   7   8
ENDBRANCH   6   7
ENDBRANCH   5   6
ENDBRANCH   4   5
ENDBRANCH   3   4
ENDBRANCH   2   3
TORSDOF 16
ENDMDL
MODEL      318
REMARK 921   NORMALIZED FREE ENERGY PREDICTED BY IDOCK:   -2.96 KCAL/MOL
REMARK 922        TOTAL FREE ENERGY PREDICTED BY IDOCK:   -7.80 KCAL/MOL
REMARK 923 INTER-LIGAND FREE ENERGY PREDICTED BY IDOCK:   -6.08 KCAL/MOL
REMARK 924 INTRA-LIGAND FREE ENERGY PREDICTED BY IDOCK:   -1.72 KCAL/MOL
REMARK 927      BINDING AFFINITY PREDICTED BY RF-SCORE:    0.00 PKD
ROOT
HETATM    1  C   UNL     1     -12.272  11.444  69.482  1.00  0.00    -0.303 C  
HETATM    2  C   UNL     1     -11.266  10.631  70.279  1.00  0.00    -0.365 C  
ENDROOT
BRANCH   2   3
HETATM    3  C   UNL     1     -10.196  10.036  69.367  1.00  0.00    -0.239 C  
BRANCH   3   4
HETATM    4  C   UNL     1      -9.015   9.504  70.175  1.00  0.00    -0.269 C  
BRANCH   4   5
HETATM    5  C   UNL     1      -8.445   8.239  69.534  1.00  0.00    -0.125 C  
BRANCH   5   6
HETATM    6  C   UNL     1      -8.182   8.462  68.050  1.00  0.00    -0.127 C  
BRANCH   6   7
HETATM    7  C   UNL     1      -6.976   9.370  67.823  1.00  0.00    -0.080 C  
BRANCH   7   8
HETATM    8  C   UNL     1      -7.384  10.552  66.948  1.00  0.00    -0.110 C  
BRANCH   8   9
HETATM    9  C   UNL     1      -6.290  11.608  66.875  1.00  0.00    -0.142 C  
BRANCH   9  10
HETATM   10  C   UNL     1      -6.310  12.544  68.094  1.00  0.00    -0.076 C  
BRANCH  10  11
HETATM   11  C   UNL     1      -6.452  14.032  67.740  1.00  0.00    -0.181 C  
BRANCH  11  12
HETATM   12  C   UNL     1      -7.827  14.530  68.110  1.00  0.00    -0.135 C  
HETATM   13  O   UNL     1      -8.095  15.177  69.111  1.00  0.00    -0.185 OA 
BRANCH  12  14
HETATM   14  O   UNL     1      -8.683  14.313  67.073  1.00  0.00    -0.214 OA 
BRANCH  14  15
HETATM   15  C   UNL     1      -9.868  13.592  67.432  1.00  0.00    -0.234 C  
BRANCH  15  16
HETATM   16  C   UNL     1     -11.038  14.553  67.198  1.00  0.00    -0.321 C  
BRANCH  16  17
HETATM   17  N   UNL     1     -10.650  15.850  66.667  1.00  0.00    -0.316 N  
HETATM   18  C   UNL     1     -10.599  16.956  67.480  1.00  0.00    -0.307 C  
HETATM   19  H   UNL     1     -10.412  15.939  65.680  1.00  0.00     0.000 HD 
HETATM   20  O   UNL     1     -10.978  16.955  68.647  1.00  0.00    -0.330 OA 
BRANCH  18  21
HETATM   21  C   UNL     1     -10.126  18.239  66.828  1.00  0.00    -0.364 C  
BRANCH  21  22
HETATM   22  N   UNL     1      -8.705  18.458  67.169  1.00  0.00    -0.255 NA 
HETATM   23  C   UNL     1      -8.380  19.193  68.262  1.00  0.00    -0.335 A  
HETATM   24  C   UNL     1      -7.051  19.429  68.586  1.00  0.00    -0.364 A  
HETATM   25  C   UNL     1      -6.050  18.888  67.792  1.00  0.00    -0.204 A  
HETATM   26  C   UNL     1      -6.396  18.123  66.686  1.00  0.00    -0.221 A  
HETATM   27  C   UNL     1      -7.738  17.919  66.392  1.00  0.00    -0.276 A  
ENDBRANCH  21  22
ENDBRANCH  18  21
ENDBRANCH  16  17
ENDBRANCH  15  16
ENDBRANCH  14  15
ENDBRANCH  12  14
ENDBRANCH  11  12
ENDBRANCH  10  11
ENDBRANCH   9  10
ENDBRANCH   8   9
ENDBRANCH   7   8
ENDBRANCH   6   7
ENDBRANCH   5   6
ENDBRANCH   4   5
ENDBRANCH   3   4
ENDBRANCH   2   3
TORSDOF 16
ENDMDL
MODEL      319
REMARK 921   NORMALIZED FREE ENERGY PREDICTED BY IDOCK:   -2.95 KCAL/MOL
REMARK 922        TOTAL FREE ENERGY PREDICTED BY IDOCK:   -7.79 KCAL/MOL
REMARK 923 INTER-LIGAND FREE ENERGY PREDICTED BY IDOCK:   -7.07 KCAL/MOL
REMARK 924 INTRA-LIGAND FREE ENERGY PREDICTED BY IDOCK:   -0.71 KCAL/MOL
REMARK 927      BINDING AFFINITY PREDICTED BY RF-SCORE:    0.00 PKD
ROOT
HETATM    1  C   UNL     1      -5.623  20.075  71.011  1.00  0.00    -0.338 C  
HETATM    2  C   UNL     1      -5.974  20.357  69.560  1.00  0.00    -0.376 C  
ENDROOT
BRANCH   2   3
HETATM    3  C   UNL     1      -7.275  19.661  69.164  1.00  0.00    -0.363 C  
BRANCH   3   4
HETATM    4  C   UNL     1      -7.542  19.798  67.668  1.00  0.00    -0.317 C  
BRANCH   4   5
HETATM    5  C   UNL     1      -9.012  20.125  67.407  1.00  0.00    -0.453 C  
BRANCH   5   6
HETATM    6  C   UNL     1      -9.900  19.486  68.467  1.00  0.00    -0.518 C  
BRANCH   6   7
HETATM    7  C   UNL     1     -10.618  18.251  67.928  1.00  0.00    -0.392 C  
BRANCH   7   8
HETATM    8  C   UNL     1      -9.996  16.994  68.530  1.00  0.00    -0.293 C  
BRANCH   8   9
HETATM    9  C   UNL     1     -10.887  15.774  68.342  1.00  0.00    -0.297 C  
BRANCH   9  10
HETATM   10  C   UNL     1     -10.878  14.858  69.575  1.00  0.00    -0.272 C  
BRANCH  10  11
HETATM   11  C   UNL     1     -12.251  14.267  69.929  1.00  0.00    -0.407 C  
BRANCH  11  12
HETATM   12  C   UNL     1     -12.109  12.824  70.345  1.00  0.00    -0.302 C  
HETATM   13  O   UNL     1     -12.834  12.249  71.142  1.00  0.00    -0.319 OA 
BRANCH  12  14
HETATM   14  O   UNL     1     -11.177  12.215  69.562  1.00  0.00    -0.217 OA 
BRANCH  14  15
HETATM   15  C   UNL     1     -11.324  10.792  69.475  1.00  0.00    -0.289 C  
BRANCH  15  16
HETATM   16  C   UNL     1      -9.997  10.260  68.922  1.00  0.00    -0.201 C  
BRANCH  16  17
HETATM   17  N   UNL     1      -9.728  10.641  67.546  1.00  0.00    -0.164 N  
HETATM   18  C   UNL     1     -10.006   9.783  66.510  1.00  0.00    -0.239 C  
HETATM   19  H   UNL     1      -9.327  11.557  67.346  1.00  0.00     0.000 HD 
HETATM   20  O   UNL     1     -10.382   8.626  66.675  1.00  0.00    -0.289 OA 
BRANCH  18  21
HETATM   21  C   UNL     1      -9.737  10.311  65.116  1.00  0.00    -0.300 C  
BRANCH  21  22
HETATM   22  N   UNL     1      -8.596   9.574  64.533  1.00  0.00    -0.175 NA 
HETATM   23  C   UNL     1      -8.577   9.306  63.203  1.00  0.00    -0.206 A  
HETATM   24  C   UNL     1      -7.526   8.595  62.641  1.00  0.00    -0.105 A  
HETATM   25  C   UNL     1      -6.478   8.175  63.448  1.00  0.00    -0.076 A  
HETATM   26  C   UNL     1      -6.501   8.471  64.804  1.00  0.00    -0.065 A  
HETATM   27  C   UNL     1      -7.577   9.176  65.328  1.00  0.00    -0.098 A  
ENDBRANCH  21  22
ENDBRANCH  18  21
ENDBRANCH  16  17
ENDBRANCH  15  16
ENDBRANCH  14  15
ENDBRANCH  12  14
ENDBRANCH  11  12
ENDBRANCH  10  11
ENDBRANCH   9  10
ENDBRANCH   8   9
ENDBRANCH   7   8
ENDBRANCH   6   7
ENDBRANCH   5   6
ENDBRANCH   4   5
ENDBRANCH   3   4
ENDBRANCH   2   3
TORSDOF 16
ENDMDL
MODEL      320
REMARK 921   NORMALIZED FREE ENERGY PREDICTED BY IDOCK:   -2.94 KCAL/MOL
REMARK 922        TOTAL FREE ENERGY PREDICTED BY IDOCK:   -7.77 KCAL/MOL
REMARK 923 INTER-LIGAND FREE ENERGY PREDICTED BY IDOCK:   -6.30 KCAL/MOL
REMARK 924 INTRA-LIGAND FREE ENERGY PREDICTED BY IDOCK:   -1.47 KCAL/MOL
REMARK 927      BINDING AFFINITY PREDICTED BY RF-SCORE:    0.00 PKD
ROOT
HETATM    1  C   UNL     1      -8.965   7.449  71.152  1.00  0.00    -0.143 C  
HETATM    2  C   UNL     1      -9.313   8.179  72.437  1.00  0.00    -0.308 C  
ENDROOT
BRANCH   2   3
HETATM    3  C   UNL     1     -10.804   8.067  72.747  1.00  0.00    -0.438 C  
BRANCH   3   4
HETATM    4  C   UNL     1     -11.497   7.105  71.785  1.00  0.00    -0.301 C  
BRANCH   4   5
HETATM    5  C   UNL     1     -12.974   7.465  71.629  1.00  0.00    -0.409 C  
BRANCH   5   6
HETATM    6  C   UNL     1     -13.278   8.792  72.313  1.00  0.00    -0.456 C  
BRANCH   6   7
HETATM    7  C   UNL     1     -13.776   9.836  71.317  1.00  0.00    -0.201 C  
BRANCH   7   8
HETATM    8  C   UNL     1     -12.870  11.064  71.368  1.00  0.00    -0.548 C  
BRANCH   8   9
HETATM    9  C   UNL     1     -11.848  11.061  70.240  1.00  0.00    -0.456 C  
BRANCH   9  10
HETATM   10  C   UNL     1     -11.588  12.473  69.693  1.00  0.00    -0.323 C  
BRANCH  10  11
HETATM   11  C   UNL     1     -12.048  12.680  68.243  1.00  0.00    -0.135 C  
BRANCH  11  12
HETATM   12  C   UNL     1     -10.902  12.443  67.291  1.00  0.00    -0.243 C  
HETATM   13  O   UNL     1      -9.926  13.166  67.172  1.00  0.00    -0.230 OA 
BRANCH  12  14
HETATM   14  O   UNL     1     -11.030  11.211  66.725  1.00  0.00    -0.275 OA 
BRANCH  14  15
HETATM   15  C   UNL     1      -9.796  10.495  66.593  1.00  0.00    -0.199 C  
BRANCH  15  16
HETATM   16  C   UNL     1     -10.157   9.007  66.665  1.00  0.00    -0.285 C  
BRANCH  16  17
HETATM   17  N   UNL     1      -9.497   8.183  65.665  1.00  0.00    -0.422 N  
HETATM   18  C   UNL     1      -8.253   7.652  65.902  1.00  0.00    -0.133 C  
HETATM   19  H   UNL     1      -9.963   7.998  64.778  1.00  0.00     0.000 HD 
HETATM   20  O   UNL     1      -7.581   7.920  66.894  1.00  0.00    -0.095 OA 
BRANCH  18  21
HETATM   21  C   UNL     1      -7.690   6.763  64.812  1.00  0.00    -0.111 C  
BRANCH  21  22
HETATM   22  N   UNL     1      -8.307   5.424  64.914  1.00  0.00    -0.138 NA 
HETATM   23  C   UNL     1      -9.088   4.964  63.904  1.00  0.00     0.030 A  
HETATM   24  C   UNL     1      -9.694   3.719  63.992  1.00  0.00    -0.167 A  
HETATM   25  C   UNL     1      -9.480   2.933  65.115  1.00  0.00    -0.083 A  
HETATM   26  C   UNL     1      -8.664   3.409  66.133  1.00  0.00    -0.126 A  
HETATM   27  C   UNL     1      -8.084   4.665  66.010  1.00  0.00    -0.103 A  
ENDBRANCH  21  22
ENDBRANCH  18  21
ENDBRANCH  16  17
ENDBRANCH  15  16
ENDBRANCH  14  15
ENDBRANCH  12  14
ENDBRANCH  11  12
ENDBRANCH  10  11
ENDBRANCH   9  10
ENDBRANCH   8   9
ENDBRANCH   7   8
ENDBRANCH   6   7
ENDBRANCH   5   6
ENDBRANCH   4   5
ENDBRANCH   3   4
ENDBRANCH   2   3
TORSDOF 16
ENDMDL
MODEL      321
REMARK 921   NORMALIZED FREE ENERGY PREDICTED BY IDOCK:   -2.93 KCAL/MOL
REMARK 922        TOTAL FREE ENERGY PREDICTED BY IDOCK:   -7.76 KCAL/MOL
REMARK 923 INTER-LIGAND FREE ENERGY PREDICTED BY IDOCK:   -6.81 KCAL/MOL
REMARK 924 INTRA-LIGAND FREE ENERGY PREDICTED BY IDOCK:   -0.94 KCAL/MOL
REMARK 927      BINDING AFFINITY PREDICTED BY RF-SCORE:    0.00 PKD
ROOT
HETATM    1  C   UNL     1     -10.527   7.444  73.363  1.00  0.00    -0.419 C  
HETATM    2  C   UNL     1     -11.243   6.554  72.362  1.00  0.00    -0.310 C  
ENDROOT
BRANCH   2   3
HETATM    3  C   UNL     1     -10.538   5.206  72.223  1.00  0.00    -0.278 C  
BRANCH   3   4
HETATM    4  C   UNL     1     -10.615   4.687  70.790  1.00  0.00     0.141 C  
BRANCH   4   5
HETATM    5  C   UNL     1      -9.246   4.753  70.114  1.00  0.00    -0.195 C  
BRANCH   5   6
HETATM    6  C   UNL     1      -9.399   4.927  68.609  1.00  0.00    -0.182 C  
BRANCH   6   7
HETATM    7  C   UNL     1      -9.216   6.383  68.190  1.00  0.00    -0.111 C  
BRANCH   7   8
HETATM    8  C   UNL     1     -10.577   7.072  68.126  1.00  0.00    -0.250 C  
BRANCH   8   9
HETATM    9  C   UNL     1     -10.506   8.398  67.382  1.00  0.00    -0.354 C  
BRANCH   9  10
HETATM   10  C   UNL     1     -10.685   9.598  68.325  1.00  0.00    -0.262 C  
BRANCH  10  11
HETATM   11  C   UNL     1     -10.644   9.237  69.816  1.00  0.00    -0.244 C  
BRANCH  11  12
HETATM   12  C   UNL     1     -11.445  10.232  70.619  1.00  0.00    -0.349 C  
HETATM   13  O   UNL     1     -11.869  10.045  71.749  1.00  0.00    -0.323 OA 
BRANCH  12  14
HETATM   14  O   UNL     1     -11.462  11.430  69.971  1.00  0.00    -0.288 OA 
BRANCH  14  15
HETATM   15  C   UNL     1     -12.622  12.227  70.242  1.00  0.00     0.040 C  
BRANCH  15  16
HETATM   16  C   UNL     1     -12.102  13.610  70.648  1.00  0.00    -0.323 C  
BRANCH  16  17
HETATM   17  N   UNL     1     -11.038  14.121  69.800  1.00  0.00    -0.445 N  
HETATM   18  C   UNL     1     -10.559  15.398  69.964  1.00  0.00    -0.303 C  
HETATM   19  H   UNL     1     -10.641  13.524  69.074  1.00  0.00     0.000 HD 
HETATM   20  O   UNL     1     -11.058  16.212  70.735  1.00  0.00    -0.339 OA 
BRANCH  18  21
HETATM   21  C   UNL     1      -9.411  15.800  69.061  1.00  0.00    -0.244 C  
BRANCH  21  22
HETATM   22  N   UNL     1      -9.675  15.302  67.695  1.00  0.00    -0.208 NA 
HETATM   23  C   UNL     1     -10.200  16.140  66.764  1.00  0.00    -0.281 A  
HETATM   24  C   UNL     1     -10.476  15.685  65.482  1.00  0.00    -0.426 A  
HETATM   25  C   UNL     1     -10.193  14.368  65.149  1.00  0.00    -0.420 A  
HETATM   26  C   UNL     1      -9.640  13.527  66.106  1.00  0.00    -0.219 A  
HETATM   27  C   UNL     1      -9.388  14.019  67.380  1.00  0.00    -0.220 A  
ENDBRANCH  21  22
ENDBRANCH  18  21
ENDBRANCH  16  17
ENDBRANCH  15  16
ENDBRANCH  14  15
ENDBRANCH  12  14
ENDBRANCH  11  12
ENDBRANCH  10  11
ENDBRANCH   9  10
ENDBRANCH   8   9
ENDBRANCH   7   8
ENDBRANCH   6   7
ENDBRANCH   5   6
ENDBRANCH   4   5
ENDBRANCH   3   4
ENDBRANCH   2   3
TORSDOF 16
ENDMDL
MODEL      322
REMARK 921   NORMALIZED FREE ENERGY PREDICTED BY IDOCK:   -2.93 KCAL/MOL
REMARK 922        TOTAL FREE ENERGY PREDICTED BY IDOCK:   -7.74 KCAL/MOL
REMARK 923 INTER-LIGAND FREE ENERGY PREDICTED BY IDOCK:   -6.02 KCAL/MOL
REMARK 924 INTRA-LIGAND FREE ENERGY PREDICTED BY IDOCK:   -1.72 KCAL/MOL
REMARK 927      BINDING AFFINITY PREDICTED BY RF-SCORE:    0.00 PKD
ROOT
HETATM    1  C   UNL     1      -8.105  16.007  66.857  1.00  0.00    -0.282 C  
HETATM    2  C   UNL     1      -9.137  16.970  67.417  1.00  0.00    -0.225 C  
ENDROOT
BRANCH   2   3
HETATM    3  C   UNL     1      -9.863  16.363  68.615  1.00  0.00    -0.234 C  
BRANCH   3   4
HETATM    4  C   UNL     1     -11.294  15.971  68.255  1.00  0.00    -0.326 C  
BRANCH   4   5
HETATM    5  C   UNL     1     -11.419  14.457  68.097  1.00  0.00    -0.337 C  
BRANCH   5   6
HETATM    6  C   UNL     1     -12.137  14.110  66.799  1.00  0.00    -0.474 C  
BRANCH   6   7
HETATM    7  C   UNL     1     -11.330  14.544  65.578  1.00  0.00    -0.335 C  
BRANCH   7   8
HETATM    8  C   UNL     1     -10.452  13.388  65.108  1.00  0.00    -0.358 C  
BRANCH   8   9
HETATM    9  C   UNL     1     -11.169  12.050  65.218  1.00  0.00    -0.374 C  
BRANCH   9  10
HETATM   10  C   UNL     1     -10.324  11.000  65.956  1.00  0.00    -0.311 C  
BRANCH  10  11
HETATM   11  C   UNL     1     -10.879  10.601  67.330  1.00  0.00    -0.353 C  
BRANCH  11  12
HETATM   12  C   UNL     1     -10.571   9.153  67.620  1.00  0.00    -0.242 C  
HETATM   13  O   UNL     1     -10.771   8.225  66.851  1.00  0.00    -0.299 OA 
BRANCH  12  14
HETATM   14  O   UNL     1      -9.869   9.061  68.783  1.00  0.00    -0.163 OA 
BRANCH  14  15
HETATM   15  C   UNL     1      -8.449   8.987  68.606  1.00  0.00    -0.128 C  
BRANCH  15  16
HETATM   16  C   UNL     1      -8.012   7.655  69.225  1.00  0.00    -0.126 C  
BRANCH  16  17
HETATM   17  N   UNL     1      -8.944   6.561  69.009  1.00  0.00    -0.130 N  
HETATM   18  C   UNL     1      -8.553   5.424  68.346  1.00  0.00    -0.095 C  
HETATM   19  H   UNL     1      -9.900   6.639  69.354  1.00  0.00     0.000 HD 
HETATM   20  O   UNL     1      -7.458   5.301  67.804  1.00  0.00    -0.075 OA 
BRANCH  18  21
HETATM   21  C   UNL     1      -9.593   4.329  68.231  1.00  0.00    -0.135 C  
BRANCH  21  22
HETATM   22  N   UNL     1      -9.615   3.829  66.840  1.00  0.00    -0.206 NA 
HETATM   23  C   UNL     1     -10.163   4.591  65.859  1.00  0.00    -0.263 A  
HETATM   24  C   UNL     1     -10.214   4.129  64.551  1.00  0.00    -0.172 A  
HETATM   25  C   UNL     1      -9.681   2.885  64.247  1.00  0.00    -0.149 A  
HETATM   26  C   UNL     1      -9.108   2.123  65.256  1.00  0.00    -0.112 A  
HETATM   27  C   UNL     1      -9.086   2.618  66.554  1.00  0.00    -0.117 A  
ENDBRANCH  21  22
ENDBRANCH  18  21
ENDBRANCH  16  17
ENDBRANCH  15  16
ENDBRANCH  14  15
ENDBRANCH  12  14
ENDBRANCH  11  12
ENDBRANCH  10  11
ENDBRANCH   9  10
ENDBRANCH   8   9
ENDBRANCH   7   8
ENDBRANCH   6   7
ENDBRANCH   5   6
ENDBRANCH   4   5
ENDBRANCH   3   4
ENDBRANCH   2   3
TORSDOF 16
ENDMDL
MODEL      323
REMARK 921   NORMALIZED FREE ENERGY PREDICTED BY IDOCK:   -2.93 KCAL/MOL
REMARK 922        TOTAL FREE ENERGY PREDICTED BY IDOCK:   -7.74 KCAL/MOL
REMARK 923 INTER-LIGAND FREE ENERGY PREDICTED BY IDOCK:   -6.03 KCAL/MOL
REMARK 924 INTRA-LIGAND FREE ENERGY PREDICTED BY IDOCK:   -1.71 KCAL/MOL
REMARK 927      BINDING AFFINITY PREDICTED BY RF-SCORE:    0.00 PKD
ROOT
HETATM    1  C   UNL     1     -10.446  19.484  67.871  1.00  0.00    -0.552 C  
HETATM    2  C   UNL     1     -10.496  18.064  67.335  1.00  0.00    -0.399 C  
ENDROOT
BRANCH   2   3
HETATM    3  C   UNL     1      -9.598  17.137  68.151  1.00  0.00    -0.270 C  
BRANCH   3   4
HETATM    4  C   UNL     1     -10.211  16.833  69.515  1.00  0.00    -0.166 C  
BRANCH   4   5
HETATM    5  C   UNL     1     -11.515  16.050  69.361  1.00  0.00    -0.336 C  
BRANCH   5   6
HETATM    6  C   UNL     1     -11.230  14.566  69.172  1.00  0.00    -0.294 C  
BRANCH   6   7
HETATM    7  C   UNL     1     -12.161  13.942  68.136  1.00  0.00    -0.317 C  
BRANCH   7   8
HETATM    8  C   UNL     1     -11.656  14.270  66.733  1.00  0.00    -0.407 C  
BRANCH   8   9
HETATM    9  C   UNL     1     -12.641  13.830  65.659  1.00  0.00    -0.551 C  
BRANCH   9  10
HETATM   10  C   UNL     1     -11.938  13.489  64.336  1.00  0.00    -0.466 C  
BRANCH  10  11
HETATM   11  C   UNL     1     -11.931  11.992  63.997  1.00  0.00    -0.499 C  
BRANCH  11  12
HETATM   12  C   UNL     1     -10.523  11.452  64.034  1.00  0.00    -0.378 C  
HETATM   13  O   UNL     1      -9.790  11.331  63.065  1.00  0.00    -0.337 OA 
BRANCH  12  14
HETATM   14  O   UNL     1     -10.130  11.298  65.329  1.00  0.00    -0.240 OA 
BRANCH  14  15
HETATM   15  C   UNL     1      -9.279  10.168  65.554  1.00  0.00    -0.191 C  
BRANCH  15  16
HETATM   16  C   UNL     1      -8.724  10.328  66.973  1.00  0.00    -0.129 C  
BRANCH  16  17
HETATM   17  N   UNL     1      -8.137  11.630  67.242  1.00  0.00    -0.152 N  
HETATM   18  C   UNL     1      -6.809  11.871  66.985  1.00  0.00    -0.122 C  
HETATM   19  H   UNL     1      -8.719  12.375  67.626  1.00  0.00     0.000 HD 
HETATM   20  O   UNL     1      -6.022  10.999  66.632  1.00  0.00    -0.085 OA 
BRANCH  18  21
HETATM   21  C   UNL     1      -6.325  13.281  67.252  1.00  0.00     0.165 C  
BRANCH  21  22
HETATM   22  N   UNL     1      -6.211  13.485  68.711  1.00  0.00    -0.084 NA 
HETATM   23  C   UNL     1      -6.887  14.502  69.303  1.00  0.00    -0.134 A  
HETATM   24  C   UNL     1      -6.775  14.724  70.669  1.00  0.00     0.231 A  
HETATM   25  C   UNL     1      -5.980  13.882  71.433  1.00  0.00    -0.073 A  
HETATM   26  C   UNL     1      -5.308  12.834  70.818  1.00  0.00    -0.168 A  
HETATM   27  C   UNL     1      -5.440  12.653  69.447  1.00  0.00    -0.079 A  
ENDBRANCH  21  22
ENDBRANCH  18  21
ENDBRANCH  16  17
ENDBRANCH  15  16
ENDBRANCH  14  15
ENDBRANCH  12  14
ENDBRANCH  11  12
ENDBRANCH  10  11
ENDBRANCH   9  10
ENDBRANCH   8   9
ENDBRANCH   7   8
ENDBRANCH   6   7
ENDBRANCH   5   6
ENDBRANCH   4   5
ENDBRANCH   3   4
ENDBRANCH   2   3
TORSDOF 16
ENDMDL
MODEL      324
REMARK 921   NORMALIZED FREE ENERGY PREDICTED BY IDOCK:   -2.91 KCAL/MOL
REMARK 922        TOTAL FREE ENERGY PREDICTED BY IDOCK:   -7.72 KCAL/MOL
REMARK 923 INTER-LIGAND FREE ENERGY PREDICTED BY IDOCK:   -5.49 KCAL/MOL
REMARK 924 INTRA-LIGAND FREE ENERGY PREDICTED BY IDOCK:   -2.23 KCAL/MOL
REMARK 927      BINDING AFFINITY PREDICTED BY RF-SCORE:    0.00 PKD
ROOT
HETATM    1  C   UNL     1      -7.647   2.928  71.454  1.00  0.00    -0.040 C  
HETATM    2  C   UNL     1      -8.554   4.048  70.975  1.00  0.00    -0.108 C  
ENDROOT
BRANCH   2   3
HETATM    3  C   UNL     1     -10.000   3.804  71.402  1.00  0.00    -0.178 C  
BRANCH   3   4
HETATM    4  C   UNL     1     -10.068   2.906  72.634  1.00  0.00    -0.232 C  
BRANCH   4   5
HETATM    5  C   UNL     1     -10.613   3.675  73.837  1.00  0.00    -0.286 C  
BRANCH   5   6
HETATM    6  C   UNL     1     -11.125   5.045  73.410  1.00  0.00    -0.404 C  
BRANCH   6   7
HETATM    7  C   UNL     1     -10.496   6.163  74.237  1.00  0.00    -0.211 C  
BRANCH   7   8
HETATM    8  C   UNL     1      -9.354   6.801  73.450  1.00  0.00    -0.171 C  
BRANCH   8   9
HETATM    9  C   UNL     1      -9.701   8.210  72.989  1.00  0.00    -0.327 C  
BRANCH   9  10
HETATM   10  C   UNL     1     -10.204   8.235  71.537  1.00  0.00    -0.277 C  
BRANCH  10  11
HETATM   11  C   UNL     1     -11.732   8.164  71.401  1.00  0.00    -0.321 C  
BRANCH  11  12
HETATM   12  C   UNL     1     -12.336   9.538  71.548  1.00  0.00    -0.380 C  
HETATM   13  O   UNL     1     -13.289   9.814  72.259  1.00  0.00    -0.443 OA 
BRANCH  12  14
HETATM   14  O   UNL     1     -11.545  10.451  70.918  1.00  0.00    -0.340 OA 
BRANCH  14  15
HETATM   15  C   UNL     1     -12.261  11.560  70.360  1.00  0.00    -0.355 C  
BRANCH  15  16
HETATM   16  C   UNL     1     -12.103  11.447  68.840  1.00  0.00    -0.219 C  
BRANCH  16  17
HETATM   17  N   UNL     1     -10.726  11.487  68.378  1.00  0.00    -0.197 N  
HETATM   18  C   UNL     1     -10.138  10.377  67.820  1.00  0.00    -0.181 C  
HETATM   19  H   UNL     1     -10.188  12.349  68.468  1.00  0.00     0.000 HD 
HETATM   20  O   UNL     1     -10.678   9.276  67.780  1.00  0.00    -0.259 OA 
BRANCH  18  21
HETATM   21  C   UNL     1      -8.718  10.554  67.323  1.00  0.00    -0.126 C  
BRANCH  21  22
HETATM   22  N   UNL     1      -7.812   9.724  68.145  1.00  0.00    -0.086 NA 
HETATM   23  C   UNL     1      -7.153   8.683  67.576  1.00  0.00    -0.080 A  
HETATM   24  C   UNL     1      -6.316   7.878  68.336  1.00  0.00    -0.049 A  
HETATM   25  C   UNL     1      -6.140   8.157  69.683  1.00  0.00    -0.029 A  
HETATM   26  C   UNL     1      -6.807   9.235  70.249  1.00  0.00    -0.071 A  
HETATM   27  C   UNL     1      -7.643  10.011  69.455  1.00  0.00    -0.123 A  
ENDBRANCH  21  22
ENDBRANCH  18  21
ENDBRANCH  16  17
ENDBRANCH  15  16
ENDBRANCH  14  15
ENDBRANCH  12  14
ENDBRANCH  11  12
ENDBRANCH  10  11
ENDBRANCH   9  10
ENDBRANCH   8   9
ENDBRANCH   7   8
ENDBRANCH   6   7
ENDBRANCH   5   6
ENDBRANCH   4   5
ENDBRANCH   3   4
ENDBRANCH   2   3
TORSDOF 16
ENDMDL
MODEL      325
REMARK 921   NORMALIZED FREE ENERGY PREDICTED BY IDOCK:   -2.91 KCAL/MOL
REMARK 922        TOTAL FREE ENERGY PREDICTED BY IDOCK:   -7.72 KCAL/MOL
REMARK 923 INTER-LIGAND FREE ENERGY PREDICTED BY IDOCK:   -6.05 KCAL/MOL
REMARK 924 INTRA-LIGAND FREE ENERGY PREDICTED BY IDOCK:   -1.67 KCAL/MOL
REMARK 927      BINDING AFFINITY PREDICTED BY RF-SCORE:    0.00 PKD
ROOT
HETATM    1  C   UNL     1      -7.382   6.887  64.174  1.00  0.00    -0.086 C  
HETATM    2  C   UNL     1      -7.669   7.603  62.866  1.00  0.00    -0.124 C  
ENDROOT
BRANCH   2   3
HETATM    3  C   UNL     1      -7.972   9.081  63.103  1.00  0.00    -0.151 C  
BRANCH   3   4
HETATM    4  C   UNL     1      -8.983   9.264  64.232  1.00  0.00    -0.142 C  
BRANCH   4   5
HETATM    5  C   UNL     1      -8.340   9.969  65.426  1.00  0.00    -0.154 C  
BRANCH   5   6
HETATM    6  C   UNL     1      -9.399  10.665  66.271  1.00  0.00    -0.199 C  
BRANCH   6   7
HETATM    7  C   UNL     1     -10.253  11.614  65.433  1.00  0.00    -0.306 C  
BRANCH   7   8
HETATM    8  C   UNL     1     -11.417  12.132  66.273  1.00  0.00    -0.433 C  
BRANCH   8   9
HETATM    9  C   UNL     1     -11.429  13.652  66.351  1.00  0.00    -0.358 C  
BRANCH   9  10
HETATM   10  C   UNL     1     -11.552  14.156  67.797  1.00  0.00    -0.379 C  
BRANCH  10  11
HETATM   11  C   UNL     1     -10.925  13.223  68.843  1.00  0.00    -0.278 C  
BRANCH  11  12
HETATM   12  C   UNL     1     -11.591  13.413  70.182  1.00  0.00    -0.100 C  
HETATM   13  O   UNL     1     -11.415  14.366  70.926  1.00  0.00    -0.206 OA 
BRANCH  12  14
HETATM   14  O   UNL     1     -12.553  12.464  70.349  1.00  0.00    -0.157 OA 
BRANCH  14  15
HETATM   15  C   UNL     1     -12.140  11.140  69.991  1.00  0.00    -0.359 C  
BRANCH  15  16
HETATM   16  C   UNL     1     -12.224  10.306  71.274  1.00  0.00    -0.395 C  
BRANCH  16  17
HETATM   17  N   UNL     1     -11.218   9.261  71.374  1.00  0.00    -0.335 N  
HETATM   18  C   UNL     1     -11.582   7.943  71.502  1.00  0.00    -0.270 C  
HETATM   19  H   UNL     1     -10.229   9.510  71.348  1.00  0.00     0.000 HD 
HETATM   20  O   UNL     1     -12.743   7.575  71.654  1.00  0.00    -0.331 OA 
BRANCH  18  21
HETATM   21  C   UNL     1     -10.448   6.940  71.540  1.00  0.00    -0.212 C  
BRANCH  21  22
HETATM   22  N   UNL     1      -9.909   6.768  70.174  1.00  0.00    -0.177 NA 
HETATM   23  C   UNL     1     -10.690   6.222  69.207  1.00  0.00    -0.305 A  
HETATM   24  C   UNL     1     -10.195   6.032  67.925  1.00  0.00    -0.217 A  
HETATM   25  C   UNL     1      -8.897   6.424  67.630  1.00  0.00    -0.112 A  
HETATM   26  C   UNL     1      -8.115   6.997  68.624  1.00  0.00    -0.121 A  
HETATM   27  C   UNL     1      -8.646   7.161  69.897  1.00  0.00    -0.141 A  
ENDBRANCH  21  22
ENDBRANCH  18  21
ENDBRANCH  16  17
ENDBRANCH  15  16
ENDBRANCH  14  15
ENDBRANCH  12  14
ENDBRANCH  11  12
ENDBRANCH  10  11
ENDBRANCH   9  10
ENDBRANCH   8   9
ENDBRANCH   7   8
ENDBRANCH   6   7
ENDBRANCH   5   6
ENDBRANCH   4   5
ENDBRANCH   3   4
ENDBRANCH   2   3
TORSDOF 16
ENDMDL
MODEL      326
REMARK 921   NORMALIZED FREE ENERGY PREDICTED BY IDOCK:   -2.90 KCAL/MOL
REMARK 922        TOTAL FREE ENERGY PREDICTED BY IDOCK:   -7.70 KCAL/MOL
REMARK 923 INTER-LIGAND FREE ENERGY PREDICTED BY IDOCK:   -5.76 KCAL/MOL
REMARK 924 INTRA-LIGAND FREE ENERGY PREDICTED BY IDOCK:   -1.94 KCAL/MOL
REMARK 927      BINDING AFFINITY PREDICTED BY RF-SCORE:    0.00 PKD
ROOT
HETATM    1  C   UNL     1     -10.562   6.345  67.679  1.00  0.00    -0.340 C  
HETATM    2  C   UNL     1      -9.692   7.557  67.964  1.00  0.00    -0.165 C  
ENDROOT
BRANCH   2   3
HETATM    3  C   UNL     1     -10.377   8.843  67.507  1.00  0.00    -0.328 C  
BRANCH   3   4
HETATM    4  C   UNL     1     -10.034   9.166  66.055  1.00  0.00    -0.293 C  
BRANCH   4   5
HETATM    5  C   UNL     1      -8.520   9.242  65.859  1.00  0.00    -0.141 C  
BRANCH   5   6
HETATM    6  C   UNL     1      -8.063  10.692  65.772  1.00  0.00    -0.158 C  
BRANCH   6   7
HETATM    7  C   UNL     1      -6.707  10.895  66.443  1.00  0.00    -0.134 C  
BRANCH   7   8
HETATM    8  C   UNL     1      -6.466   9.781  67.458  1.00  0.00    -0.068 C  
BRANCH   8   9
HETATM    9  C   UNL     1      -6.549  10.290  68.890  1.00  0.00    -0.052 C  
BRANCH   9  10
HETATM   10  C   UNL     1      -5.777  11.605  69.080  1.00  0.00    -0.053 C  
BRANCH  10  11
HETATM   11  C   UNL     1      -5.768  12.124  70.525  1.00  0.00    -0.160 C  
BRANCH  11  12
HETATM   12  C   UNL     1      -5.934  13.623  70.546  1.00  0.00    -0.145 C  
HETATM   13  O   UNL     1      -5.799  14.331  71.531  1.00  0.00    -0.207 OA 
BRANCH  12  14
HETATM   14  O   UNL     1      -6.069  14.082  69.271  1.00  0.00    -0.089 OA 
BRANCH  14  15
HETATM   15  C   UNL     1      -7.159  14.994  69.088  1.00  0.00    -0.149 C  
BRANCH  15  16
HETATM   16  C   UNL     1      -7.655  14.783  67.654  1.00  0.00    -0.174 C  
BRANCH  16  17
HETATM   17  N   UNL     1      -9.099  14.670  67.532  1.00  0.00    -0.184 N  
HETATM   18  C   UNL     1      -9.763  13.573  68.025  1.00  0.00    -0.228 C  
HETATM   19  H   UNL     1      -9.626  15.414  67.075  1.00  0.00     0.000 HD 
HETATM   20  O   UNL     1      -9.192  12.589  68.485  1.00  0.00    -0.168 OA 
BRANCH  18  21
HETATM   21  C   UNL     1     -11.272  13.592  67.891  1.00  0.00    -0.274 C  
BRANCH  21  22
HETATM   22  N   UNL     1     -11.631  13.462  66.463  1.00  0.00    -0.341 NA 
HETATM   23  C   UNL     1     -11.425  12.283  65.822  1.00  0.00    -0.367 A  
HETATM   24  C   UNL     1     -11.735  12.149  64.476  1.00  0.00    -0.410 A  
HETATM   25  C   UNL     1     -12.277  13.226  63.790  1.00  0.00    -0.508 A  
HETATM   26  C   UNL     1     -12.498  14.421  64.462  1.00  0.00    -0.362 A  
HETATM   27  C   UNL     1     -12.165  14.516  65.807  1.00  0.00    -0.261 A  
ENDBRANCH  21  22
ENDBRANCH  18  21
ENDBRANCH  16  17
ENDBRANCH  15  16
ENDBRANCH  14  15
ENDBRANCH  12  14
ENDBRANCH  11  12
ENDBRANCH  10  11
ENDBRANCH   9  10
ENDBRANCH   8   9
ENDBRANCH   7   8
ENDBRANCH   6   7
ENDBRANCH   5   6
ENDBRANCH   4   5
ENDBRANCH   3   4
ENDBRANCH   2   3
TORSDOF 16
ENDMDL
MODEL      327
REMARK 921   NORMALIZED FREE ENERGY PREDICTED BY IDOCK:   -2.89 KCAL/MOL
REMARK 922        TOTAL FREE ENERGY PREDICTED BY IDOCK:   -7.67 KCAL/MOL
REMARK 923 INTER-LIGAND FREE ENERGY PREDICTED BY IDOCK:   -6.49 KCAL/MOL
REMARK 924 INTRA-LIGAND FREE ENERGY PREDICTED BY IDOCK:   -1.17 KCAL/MOL
REMARK 927      BINDING AFFINITY PREDICTED BY RF-SCORE:    0.00 PKD
ROOT
HETATM    1  C   UNL     1     -10.595  11.628  63.624  1.00  0.00    -0.493 C  
HETATM    2  C   UNL     1     -11.743  12.577  63.326  1.00  0.00    -0.478 C  
ENDROOT
BRANCH   2   3
HETATM    3  C   UNL     1     -11.713  13.785  64.261  1.00  0.00    -0.426 C  
BRANCH   3   4
HETATM    4  C   UNL     1     -12.718  13.629  65.398  1.00  0.00    -0.500 C  
BRANCH   4   5
HETATM    5  C   UNL     1     -12.088  14.012  66.736  1.00  0.00    -0.480 C  
BRANCH   5   6
HETATM    6  C   UNL     1     -11.839  12.773  67.586  1.00  0.00    -0.396 C  
BRANCH   6   7
HETATM    7  C   UNL     1     -10.447  12.195  67.343  1.00  0.00    -0.233 C  
BRANCH   7   8
HETATM    8  C   UNL     1      -9.487  13.317  66.957  1.00  0.00    -0.243 C  
BRANCH   8   9
HETATM    9  C   UNL     1      -8.040  12.955  67.259  1.00  0.00    -0.164 C  
BRANCH   9  10
HETATM   10  C   UNL     1      -7.921  12.007  68.462  1.00  0.00    -0.132 C  
BRANCH  10  11
HETATM   11  C   UNL     1      -6.580  12.098  69.203  1.00  0.00    -0.106 C  
BRANCH  11  12
HETATM   12  C   UNL     1      -6.120  10.726  69.628  1.00  0.00    -0.069 C  
HETATM   13  O   UNL     1      -5.182  10.116  69.140  1.00  0.00    -0.036 OA 
BRANCH  12  14
HETATM   14  O   UNL     1      -6.786  10.354  70.757  1.00  0.00    -0.340 OA 
BRANCH  14  15
HETATM   15  C   UNL     1      -6.936   8.937  70.909  1.00  0.00    -0.080 C  
BRANCH  15  16
HETATM   16  C   UNL     1      -8.099   8.734  71.886  1.00  0.00    -0.025 C  
BRANCH  16  17
HETATM   17  N   UNL     1      -9.080   7.753  71.451  1.00  0.00    -0.132 N  
HETATM   18  C   UNL     1     -10.260   7.587  72.135  1.00  0.00    -0.196 C  
HETATM   19  H   UNL     1      -8.890   7.181  70.629  1.00  0.00     0.000 HD 
HETATM   20  O   UNL     1     -10.512   8.154  73.194  1.00  0.00    -0.285 OA 
BRANCH  18  21
HETATM   21  C   UNL     1     -11.228   6.576  71.556  1.00  0.00    -0.276 C  
BRANCH  21  22
HETATM   22  N   UNL     1     -10.801   5.218  71.952  1.00  0.00    -0.191 NA 
HETATM   23  C   UNL     1     -11.262   4.678  73.110  1.00  0.00    -0.281 A  
HETATM   24  C   UNL     1     -10.855   3.413  73.510  1.00  0.00    -0.321 A  
HETATM   25  C   UNL     1      -9.985   2.691  72.706  1.00  0.00    -0.208 A  
HETATM   26  C   UNL     1      -9.535   3.247  71.516  1.00  0.00    -0.217 A  
HETATM   27  C   UNL     1      -9.960   4.520  71.157  1.00  0.00    -0.187 A  
ENDBRANCH  21  22
ENDBRANCH  18  21
ENDBRANCH  16  17
ENDBRANCH  15  16
ENDBRANCH  14  15
ENDBRANCH  12  14
ENDBRANCH  11  12
ENDBRANCH  10  11
ENDBRANCH   9  10
ENDBRANCH   8   9
ENDBRANCH   7   8
ENDBRANCH   6   7
ENDBRANCH   5   6
ENDBRANCH   4   5
ENDBRANCH   3   4
ENDBRANCH   2   3
TORSDOF 16
ENDMDL
MODEL      328
REMARK 921   NORMALIZED FREE ENERGY PREDICTED BY IDOCK:   -2.88 KCAL/MOL
REMARK 922        TOTAL FREE ENERGY PREDICTED BY IDOCK:   -7.66 KCAL/MOL
REMARK 923 INTER-LIGAND FREE ENERGY PREDICTED BY IDOCK:   -6.87 KCAL/MOL
REMARK 924 INTRA-LIGAND FREE ENERGY PREDICTED BY IDOCK:   -0.80 KCAL/MOL
REMARK 927      BINDING AFFINITY PREDICTED BY RF-SCORE:    0.00 PKD
ROOT
HETATM    1  C   UNL     1      -6.968   2.209  70.187  1.00  0.00    -0.033 C  
HETATM    2  C   UNL     1      -7.251   3.546  69.524  1.00  0.00    -0.045 C  
ENDROOT
BRANCH   2   3
HETATM    3  C   UNL     1      -8.285   4.344  70.315  1.00  0.00    -0.071 C  
BRANCH   3   4
HETATM    4  C   UNL     1      -9.672   4.228  69.688  1.00  0.00    -0.284 C  
BRANCH   4   5
HETATM    5  C   UNL     1      -9.574   3.746  68.241  1.00  0.00    -0.171 C  
BRANCH   5   6
HETATM    6  C   UNL     1      -9.977   4.855  67.278  1.00  0.00    -0.220 C  
BRANCH   6   7
HETATM    7  C   UNL     1     -10.752   5.962  67.988  1.00  0.00    -0.332 C  
BRANCH   7   8
HETATM    8  C   UNL     1     -11.053   7.088  67.003  1.00  0.00    -0.247 C  
BRANCH   8   9
HETATM    9  C   UNL     1     -10.210   8.325  67.281  1.00  0.00    -0.344 C  
BRANCH   9  10
HETATM   10  C   UNL     1     -10.128   9.254  66.060  1.00  0.00    -0.262 C  
BRANCH  10  11
HETATM   11  C   UNL     1      -9.531  10.636  66.361  1.00  0.00    -0.204 C  
BRANCH  11  12
HETATM   12  C   UNL     1     -10.616  11.598  66.775  1.00  0.00    -0.244 C  
HETATM   13  O   UNL     1     -11.744  11.280  67.117  1.00  0.00    -0.533 OA 
BRANCH  12  14
HETATM   14  O   UNL     1     -10.093  12.850  66.890  1.00  0.00    -0.234 OA 
BRANCH  14  15
HETATM   15  C   UNL     1     -10.812  13.855  66.164  1.00  0.00    -0.290 C  
BRANCH  15  16
HETATM   16  C   UNL     1     -10.786  15.113  67.039  1.00  0.00    -0.314 C  
BRANCH  16  17
HETATM   17  N   UNL     1     -10.506  16.340  66.313  1.00  0.00    -0.318 N  
HETATM   18  C   UNL     1     -10.290  17.520  66.983  1.00  0.00    -0.324 C  
HETATM   19  H   UNL     1     -10.470  16.326  65.294  1.00  0.00     0.000 HD 
HETATM   20  O   UNL     1     -10.427  17.643  68.196  1.00  0.00    -0.364 OA 
BRANCH  18  21
HETATM   21  C   UNL     1      -9.951  18.721  66.123  1.00  0.00    -0.345 C  
BRANCH  21  22
HETATM   22  N   UNL     1      -8.587  19.183  66.456  1.00  0.00    -0.312 NA 
HETATM   23  C   UNL     1      -7.525  18.371  66.221  1.00  0.00    -0.259 A  
HETATM   24  C   UNL     1      -6.239  18.778  66.547  1.00  0.00    -0.201 A  
HETATM   25  C   UNL     1      -6.042  20.035  67.101  1.00  0.00    -0.200 A  
HETATM   26  C   UNL     1      -7.135  20.862  67.321  1.00  0.00    -0.430 A  
HETATM   27  C   UNL     1      -8.407  20.413  66.988  1.00  0.00    -0.284 A  
ENDBRANCH  21  22
ENDBRANCH  18  21
ENDBRANCH  16  17
ENDBRANCH  15  16
ENDBRANCH  14  15
ENDBRANCH  12  14
ENDBRANCH  11  12
ENDBRANCH  10  11
ENDBRANCH   9  10
ENDBRANCH   8   9
ENDBRANCH   7   8
ENDBRANCH   6   7
ENDBRANCH   5   6
ENDBRANCH   4   5
ENDBRANCH   3   4
ENDBRANCH   2   3
TORSDOF 16
ENDMDL
MODEL      329
REMARK 921   NORMALIZED FREE ENERGY PREDICTED BY IDOCK:   -2.88 KCAL/MOL
REMARK 922        TOTAL FREE ENERGY PREDICTED BY IDOCK:   -7.65 KCAL/MOL
REMARK 923 INTER-LIGAND FREE ENERGY PREDICTED BY IDOCK:   -6.25 KCAL/MOL
REMARK 924 INTRA-LIGAND FREE ENERGY PREDICTED BY IDOCK:   -1.40 KCAL/MOL
REMARK 927      BINDING AFFINITY PREDICTED BY RF-SCORE:    0.00 PKD
ROOT
HETATM    1  C   UNL     1      -9.970  12.609  64.970  1.00  0.00    -0.179 C  
HETATM    2  C   UNL     1     -10.381  14.071  64.923  1.00  0.00    -0.434 C  
ENDROOT
BRANCH   2   3
HETATM    3  C   UNL     1      -9.844  14.831  66.134  1.00  0.00    -0.335 C  
BRANCH   3   4
HETATM    4  C   UNL     1     -10.228  14.137  67.438  1.00  0.00    -0.244 C  
BRANCH   4   5
HETATM    5  C   UNL     1     -11.734  14.225  67.677  1.00  0.00    -0.421 C  
BRANCH   5   6
HETATM    6  C   UNL     1     -12.132  13.409  68.899  1.00  0.00    -0.289 C  
BRANCH   6   7
HETATM    7  C   UNL     1     -11.914  11.915  68.673  1.00  0.00    -0.291 C  
BRANCH   7   8
HETATM    8  C   UNL     1     -11.683  11.223  70.014  1.00  0.00    -0.428 C  
BRANCH   8   9
HETATM    9  C   UNL     1     -12.763  11.576  71.027  1.00  0.00    -0.426 C  
BRANCH   9  10
HETATM   10  C   UNL     1     -13.158  10.370  71.894  1.00  0.00    -0.563 C  
BRANCH  10  11
HETATM   11  C   UNL     1     -12.086   9.274  71.970  1.00  0.00    -0.406 C  
BRANCH  11  12
HETATM   12  C   UNL     1     -12.720   7.911  71.838  1.00  0.00    -0.316 C  
HETATM   13  O   UNL     1     -13.703   7.656  71.161  1.00  0.00    -0.254 OA 
BRANCH  12  14
HETATM   14  O   UNL     1     -11.923   6.981  72.433  1.00  0.00    -0.239 OA 
BRANCH  14  15
HETATM   15  C   UNL     1     -10.865   7.534  73.225  1.00  0.00    -0.355 C  
BRANCH  15  16
HETATM   16  C   UNL     1      -9.927   6.369  73.556  1.00  0.00    -0.204 C  
BRANCH  16  17
HETATM   17  N   UNL     1      -8.640   6.427  72.883  1.00  0.00    -0.124 N  
HETATM   18  C   UNL     1      -8.478   5.894  71.627  1.00  0.00    -0.128 C  
HETATM   19  H   UNL     1      -7.848   6.870  73.348  1.00  0.00     0.000 HD 
HETATM   20  O   UNL     1      -9.348   5.248  71.051  1.00  0.00    -0.143 OA 
BRANCH  18  21
HETATM   21  C   UNL     1      -7.108   6.065  71.003  1.00  0.00    -0.069 C  
BRANCH  21  22
HETATM   22  N   UNL     1      -7.020   7.409  70.394  1.00  0.00    -0.055 NA 
HETATM   23  C   UNL     1      -7.900   7.767  69.424  1.00  0.00    -0.115 A  
HETATM   24  C   UNL     1      -7.819   9.016  68.824  1.00  0.00    -0.096 A  
HETATM   25  C   UNL     1      -6.841   9.909  69.238  1.00  0.00    -0.057 A  
HETATM   26  C   UNL     1      -5.959   9.537  70.243  1.00  0.00    -0.047 A  
HETATM   27  C   UNL     1      -6.069   8.274  70.811  1.00  0.00    -0.033 A  
ENDBRANCH  21  22
ENDBRANCH  18  21
ENDBRANCH  16  17
ENDBRANCH  15  16
ENDBRANCH  14  15
ENDBRANCH  12  14
ENDBRANCH  11  12
ENDBRANCH  10  11
ENDBRANCH   9  10
ENDBRANCH   8   9
ENDBRANCH   7   8
ENDBRANCH   6   7
ENDBRANCH   5   6
ENDBRANCH   4   5
ENDBRANCH   3   4
ENDBRANCH   2   3
TORSDOF 16
ENDMDL
MODEL      330
REMARK 921   NORMALIZED FREE ENERGY PREDICTED BY IDOCK:   -2.88 KCAL/MOL
REMARK 922        TOTAL FREE ENERGY PREDICTED BY IDOCK:   -7.65 KCAL/MOL
REMARK 923 INTER-LIGAND FREE ENERGY PREDICTED BY IDOCK:   -7.21 KCAL/MOL
REMARK 924 INTRA-LIGAND FREE ENERGY PREDICTED BY IDOCK:   -0.44 KCAL/MOL
REMARK 927      BINDING AFFINITY PREDICTED BY RF-SCORE:    0.00 PKD
ROOT
HETATM    1  C   UNL     1      -6.505   2.959  70.479  1.00  0.00    -0.028 C  
HETATM    2  C   UNL     1      -7.026   4.189  69.755  1.00  0.00    -0.042 C  
ENDROOT
BRANCH   2   3
HETATM    3  C   UNL     1      -8.059   4.928  70.602  1.00  0.00    -0.086 C  
BRANCH   3   4
HETATM    4  C   UNL     1      -9.474   4.684  70.086  1.00  0.00    -0.246 C  
BRANCH   4   5
HETATM    5  C   UNL     1      -9.444   3.953  68.745  1.00  0.00    -0.224 C  
BRANCH   5   6
HETATM    6  C   UNL     1      -9.884   4.879  67.619  1.00  0.00    -0.205 C  
BRANCH   6   7
HETATM    7  C   UNL     1     -10.627   6.101  68.154  1.00  0.00    -0.328 C  
BRANCH   7   8
HETATM    8  C   UNL     1     -10.783   7.133  67.040  1.00  0.00    -0.420 C  
BRANCH   8   9
HETATM    9  C   UNL     1      -9.979   8.394  67.319  1.00  0.00    -0.291 C  
BRANCH   9  10
HETATM   10  C   UNL     1      -9.750   9.226  66.047  1.00  0.00    -0.359 C  
BRANCH  10  11
HETATM   11  C   UNL     1      -9.182  10.628  66.308  1.00  0.00    -0.193 C  
BRANCH  11  12
HETATM   12  C   UNL     1     -10.148  11.683  65.831  1.00  0.00    -0.230 C  
HETATM   13  O   UNL     1     -11.276  11.467  65.415  1.00  0.00    -0.245 OA 
BRANCH  12  14
HETATM   14  O   UNL     1      -9.646  12.918  66.110  1.00  0.00    -0.260 OA 
BRANCH  14  15
HETATM   15  C   UNL     1     -10.644  13.904  66.402  1.00  0.00    -0.280 C  
BRANCH  15  16
HETATM   16  C   UNL     1     -10.677  14.037  67.929  1.00  0.00    -0.240 C  
BRANCH  16  17
HETATM   17  N   UNL     1     -10.960  15.381  68.406  1.00  0.00    -0.270 N  
HETATM   18  C   UNL     1     -10.017  16.093  69.105  1.00  0.00    -0.251 C  
HETATM   19  H   UNL     1     -11.871  15.800  68.219  1.00  0.00     0.000 HD 
HETATM   20  O   UNL     1      -8.944  15.619  69.467  1.00  0.00    -0.271 OA 
BRANCH  18  21
HETATM   21  C   UNL     1     -10.405  17.503  69.501  1.00  0.00     0.052 C  
BRANCH  21  22
HETATM   22  N   UNL     1     -10.230  18.396  68.336  1.00  0.00    -0.384 NA 
HETATM   23  C   UNL     1      -9.856  19.687  68.529  1.00  0.00    -0.424 A  
HETATM   24  C   UNL     1      -9.709  20.547  67.450  1.00  0.00    -0.587 A  
HETATM   25  C   UNL     1      -9.927  20.073  66.165  1.00  0.00    -0.580 A  
HETATM   26  C   UNL     1     -10.292  18.746  65.981  1.00  0.00    -0.467 A  
HETATM   27  C   UNL     1     -10.438  17.920  67.088  1.00  0.00    -0.353 A  
ENDBRANCH  21  22
ENDBRANCH  18  21
ENDBRANCH  16  17
ENDBRANCH  15  16
ENDBRANCH  14  15
ENDBRANCH  12  14
ENDBRANCH  11  12
ENDBRANCH  10  11
ENDBRANCH   9  10
ENDBRANCH   8   9
ENDBRANCH   7   8
ENDBRANCH   6   7
ENDBRANCH   5   6
ENDBRANCH   4   5
ENDBRANCH   3   4
ENDBRANCH   2   3
TORSDOF 16
ENDMDL
MODEL      331
REMARK 921   NORMALIZED FREE ENERGY PREDICTED BY IDOCK:   -2.87 KCAL/MOL
REMARK 922        TOTAL FREE ENERGY PREDICTED BY IDOCK:   -7.64 KCAL/MOL
REMARK 923 INTER-LIGAND FREE ENERGY PREDICTED BY IDOCK:   -6.87 KCAL/MOL
REMARK 924 INTRA-LIGAND FREE ENERGY PREDICTED BY IDOCK:   -0.77 KCAL/MOL
REMARK 927      BINDING AFFINITY PREDICTED BY RF-SCORE:    0.00 PKD
ROOT
HETATM    1  C   UNL     1      -8.992   2.522  68.957  1.00  0.00    -0.170 C  
HETATM    2  C   UNL     1      -8.722   3.976  69.302  1.00  0.00    -0.124 C  
ENDROOT
BRANCH   2   3
HETATM    3  C   UNL     1      -9.847   4.878  68.800  1.00  0.00    -0.231 C  
BRANCH   3   4
HETATM    4  C   UNL     1     -10.674   5.428  69.959  1.00  0.00    -0.296 C  
BRANCH   4   5
HETATM    5  C   UNL     1     -11.146   6.850  69.662  1.00  0.00    -0.302 C  
BRANCH   5   6
HETATM    6  C   UNL     1     -10.564   7.344  68.344  1.00  0.00    -0.192 C  
BRANCH   6   7
HETATM    7  C   UNL     1      -9.816   8.663  68.519  1.00  0.00    -0.183 C  
BRANCH   7   8
HETATM    8  C   UNL     1     -10.648   9.804  67.939  1.00  0.00    -0.310 C  
BRANCH   8   9
HETATM    9  C   UNL     1     -11.197  10.716  69.027  1.00  0.00    -0.324 C  
BRANCH   9  10
HETATM   10  C   UNL     1     -11.528  12.118  68.493  1.00  0.00    -0.349 C  
BRANCH  10  11
HETATM   11  C   UNL     1     -11.066  12.366  67.050  1.00  0.00    -0.327 C  
BRANCH  11  12
HETATM   12  C   UNL     1     -10.830  13.838  66.820  1.00  0.00    -0.284 C  
HETATM   13  O   UNL     1     -11.561  14.574  66.176  1.00  0.00    -0.362 OA 
BRANCH  12  14
HETATM   14  O   UNL     1      -9.790  14.258  67.592  1.00  0.00    -0.220 OA 
BRANCH  14  15
HETATM   15  C   UNL     1      -8.623  13.430  67.504  1.00  0.00    -0.200 C  
BRANCH  15  16
HETATM   16  C   UNL     1      -7.427  14.350  67.770  1.00  0.00    -0.170 C  
BRANCH  16  17
HETATM   17  N   UNL     1      -7.575  15.693  67.233  1.00  0.00    -0.194 N  
HETATM   18  C   UNL     1      -6.756  16.713  67.652  1.00  0.00    -0.139 C  
HETATM   19  H   UNL     1      -8.295  15.880  66.535  1.00  0.00     0.000 HD 
HETATM   20  O   UNL     1      -5.944  16.595  68.565  1.00  0.00    -0.122 OA 
BRANCH  18  21
HETATM   21  C   UNL     1      -6.966  18.054  66.980  1.00  0.00    -0.190 C  
BRANCH  21  22
HETATM   22  N   UNL     1      -8.330  18.537  67.282  1.00  0.00    -0.251 NA 
HETATM   23  C   UNL     1      -8.574  19.169  68.458  1.00  0.00    -0.363 A  
HETATM   24  C   UNL     1      -9.853  19.610  68.770  1.00  0.00    -0.519 A  
HETATM   25  C   UNL     1     -10.882  19.417  67.859  1.00  0.00    -0.319 A  
HETATM   26  C   UNL     1     -10.614  18.784  66.653  1.00  0.00    -0.446 A  
HETATM   27  C   UNL     1      -9.322  18.350  66.384  1.00  0.00    -0.283 A  
ENDBRANCH  21  22
ENDBRANCH  18  21
ENDBRANCH  16  17
ENDBRANCH  15  16
ENDBRANCH  14  15
ENDBRANCH  12  14
ENDBRANCH  11  12
ENDBRANCH  10  11
ENDBRANCH   9  10
ENDBRANCH   8   9
ENDBRANCH   7   8
ENDBRANCH   6   7
ENDBRANCH   5   6
ENDBRANCH   4   5
ENDBRANCH   3   4
ENDBRANCH   2   3
TORSDOF 16
ENDMDL
MODEL      332
REMARK 921   NORMALIZED FREE ENERGY PREDICTED BY IDOCK:   -2.87 KCAL/MOL
REMARK 922        TOTAL FREE ENERGY PREDICTED BY IDOCK:   -7.63 KCAL/MOL
REMARK 923 INTER-LIGAND FREE ENERGY PREDICTED BY IDOCK:   -6.05 KCAL/MOL
REMARK 924 INTRA-LIGAND FREE ENERGY PREDICTED BY IDOCK:   -1.57 KCAL/MOL
REMARK 927      BINDING AFFINITY PREDICTED BY RF-SCORE:    0.00 PKD
ROOT
HETATM    1  C   UNL     1     -10.966   6.239  67.245  1.00  0.00    -0.455 C  
HETATM    2  C   UNL     1      -9.786   6.947  67.888  1.00  0.00    -0.136 C  
ENDROOT
BRANCH   2   3
HETATM    3  C   UNL     1     -10.139   8.390  68.244  1.00  0.00    -0.232 C  
BRANCH   3   4
HETATM    4  C   UNL     1     -10.619   9.160  67.018  1.00  0.00    -0.266 C  
BRANCH   4   5
HETATM    5  C   UNL     1      -9.491   9.318  65.999  1.00  0.00    -0.311 C  
BRANCH   5   6
HETATM    6  C   UNL     1      -8.591  10.488  66.373  1.00  0.00    -0.147 C  
BRANCH   6   7
HETATM    7  C   UNL     1      -7.139  10.228  65.979  1.00  0.00    -0.128 C  
BRANCH   7   8
HETATM    8  C   UNL     1      -6.787   8.769  66.258  1.00  0.00    -0.074 C  
BRANCH   8   9
HETATM    9  C   UNL     1      -6.277   8.569  67.678  1.00  0.00    -0.053 C  
BRANCH   9  10
HETATM   10  C   UNL     1      -5.329   9.697  68.115  1.00  0.00    -0.040 C  
BRANCH  10  11
HETATM   11  C   UNL     1      -5.228   9.879  69.635  1.00  0.00    -0.034 C  
BRANCH  11  12
HETATM   12  C   UNL     1      -5.919  11.150  70.060  1.00  0.00    -0.125 C  
HETATM   13  O   UNL     1      -5.964  11.578  71.203  1.00  0.00    -0.366 OA 
BRANCH  12  14
HETATM   14  O   UNL     1      -6.320  11.839  68.956  1.00  0.00    -0.065 OA 
BRANCH  14  15
HETATM   15  C   UNL     1      -6.733  13.185  69.222  1.00  0.00    -0.061 C  
BRANCH  15  16
HETATM   16  C   UNL     1      -7.820  13.509  68.191  1.00  0.00    -0.144 C  
BRANCH  16  17
HETATM   17  N   UNL     1      -8.832  14.439  68.662  1.00  0.00    -0.217 N  
HETATM   18  C   UNL     1      -8.589  15.791  68.686  1.00  0.00    -0.194 C  
HETATM   19  H   UNL     1      -9.734  14.085  68.979  1.00  0.00     0.000 HD 
HETATM   20  O   UNL     1      -7.495  16.285  68.430  1.00  0.00    -0.151 OA 
BRANCH  18  21
HETATM   21  C   UNL     1      -9.738  16.666  69.143  1.00  0.00    -0.226 C  
BRANCH  21  22
HETATM   22  N   UNL     1      -9.927  17.762  68.169  1.00  0.00    -0.322 NA 
HETATM   23  C   UNL     1     -10.294  17.474  66.895  1.00  0.00    -0.315 A  
HETATM   24  C   UNL     1     -10.454  18.487  65.960  1.00  0.00    -0.433 A  
HETATM   25  C   UNL     1     -10.254  19.806  66.343  1.00  0.00    -0.614 A  
HETATM   26  C   UNL     1      -9.895  20.088  67.654  1.00  0.00    -0.548 A  
HETATM   27  C   UNL     1      -9.736  19.044  68.556  1.00  0.00    -0.400 A  
ENDBRANCH  21  22
ENDBRANCH  18  21
ENDBRANCH  16  17
ENDBRANCH  15  16
ENDBRANCH  14  15
ENDBRANCH  12  14
ENDBRANCH  11  12
ENDBRANCH  10  11
ENDBRANCH   9  10
ENDBRANCH   8   9
ENDBRANCH   7   8
ENDBRANCH   6   7
ENDBRANCH   5   6
ENDBRANCH   4   5
ENDBRANCH   3   4
ENDBRANCH   2   3
TORSDOF 16
ENDMDL
MODEL      333
REMARK 921   NORMALIZED FREE ENERGY PREDICTED BY IDOCK:   -2.87 KCAL/MOL
REMARK 922        TOTAL FREE ENERGY PREDICTED BY IDOCK:   -7.63 KCAL/MOL
REMARK 923 INTER-LIGAND FREE ENERGY PREDICTED BY IDOCK:   -6.86 KCAL/MOL
REMARK 924 INTRA-LIGAND FREE ENERGY PREDICTED BY IDOCK:   -0.76 KCAL/MOL
REMARK 927      BINDING AFFINITY PREDICTED BY RF-SCORE:    0.00 PKD
ROOT
HETATM    1  C   UNL     1     -11.079  15.298  64.974  1.00  0.00    -0.436 C  
HETATM    2  C   UNL     1     -11.867  14.019  64.751  1.00  0.00    -0.415 C  
ENDROOT
BRANCH   2   3
HETATM    3  C   UNL     1     -10.985  12.788  64.951  1.00  0.00    -0.324 C  
BRANCH   3   4
HETATM    4  C   UNL     1     -11.012  11.883  63.723  1.00  0.00    -0.494 C  
BRANCH   4   5
HETATM    5  C   UNL     1      -9.858  10.881  63.762  1.00  0.00    -0.391 C  
BRANCH   5   6
HETATM    6  C   UNL     1     -10.028   9.913  64.925  1.00  0.00    -0.190 C  
BRANCH   6   7
HETATM    7  C   UNL     1      -8.946  10.110  65.983  1.00  0.00    -0.174 C  
BRANCH   7   8
HETATM    8  C   UNL     1      -7.854   9.060  65.801  1.00  0.00    -0.098 C  
BRANCH   8   9
HETATM    9  C   UNL     1      -8.428   7.653  65.714  1.00  0.00    -0.153 C  
BRANCH   9  10
HETATM   10  C   UNL     1      -8.720   7.062  67.101  1.00  0.00    -0.121 C  
BRANCH  10  11
HETATM   11  C   UNL     1     -10.148   6.523  67.266  1.00  0.00    -0.212 C  
BRANCH  11  12
HETATM   12  C   UNL     1     -10.608   6.686  68.693  1.00  0.00    -0.234 C  
HETATM   13  O   UNL     1     -10.684   5.785  69.515  1.00  0.00    -0.291 OA 
BRANCH  12  14
HETATM   14  O   UNL     1     -10.746   8.010  68.978  1.00  0.00    -0.190 OA 
BRANCH  14  15
HETATM   15  C   UNL     1     -11.138   8.282  70.329  1.00  0.00    -0.219 C  
BRANCH  15  16
HETATM   16  C   UNL     1     -10.572   9.666  70.666  1.00  0.00    -0.319 C  
BRANCH  16  17
HETATM   17  N   UNL     1     -11.360  10.775  70.155  1.00  0.00    -0.335 N  
HETATM   18  C   UNL     1     -10.873  11.584  69.158  1.00  0.00    -0.195 C  
HETATM   19  H   UNL     1     -12.286  10.955  70.542  1.00  0.00     0.000 HD 
HETATM   20  O   UNL     1      -9.729  11.503  68.721  1.00  0.00    -0.196 OA 
BRANCH  18  21
HETATM   21  C   UNL     1     -11.806  12.671  68.667  1.00  0.00    -0.302 C  
BRANCH  21  22
HETATM   22  N   UNL     1     -11.140  13.982  68.814  1.00  0.00    -0.253 NA 
HETATM   23  C   UNL     1     -11.846  15.049  69.269  1.00  0.00    -0.315 A  
HETATM   24  C   UNL     1     -11.243  16.293  69.393  1.00  0.00    -0.311 A  
HETATM   25  C   UNL     1      -9.903  16.437  69.066  1.00  0.00    -0.266 A  
HETATM   26  C   UNL     1      -9.188  15.334  68.619  1.00  0.00    -0.201 A  
HETATM   27  C   UNL     1      -9.831  14.109  68.500  1.00  0.00    -0.230 A  
ENDBRANCH  21  22
ENDBRANCH  18  21
ENDBRANCH  16  17
ENDBRANCH  15  16
ENDBRANCH  14  15
ENDBRANCH  12  14
ENDBRANCH  11  12
ENDBRANCH  10  11
ENDBRANCH   9  10
ENDBRANCH   8   9
ENDBRANCH   7   8
ENDBRANCH   6   7
ENDBRANCH   5   6
ENDBRANCH   4   5
ENDBRANCH   3   4
ENDBRANCH   2   3
TORSDOF 16
ENDMDL
MODEL      334
REMARK 921   NORMALIZED FREE ENERGY PREDICTED BY IDOCK:   -2.86 KCAL/MOL
REMARK 922        TOTAL FREE ENERGY PREDICTED BY IDOCK:   -7.62 KCAL/MOL
REMARK 923 INTER-LIGAND FREE ENERGY PREDICTED BY IDOCK:   -6.12 KCAL/MOL
REMARK 924 INTRA-LIGAND FREE ENERGY PREDICTED BY IDOCK:   -1.50 KCAL/MOL
REMARK 927      BINDING AFFINITY PREDICTED BY RF-SCORE:    0.00 PKD
ROOT
HETATM    1  C   UNL     1     -12.274   8.446  71.854  1.00  0.00    -0.395 C  
HETATM    2  C   UNL     1     -12.451   9.671  70.974  1.00  0.00    -0.382 C  
ENDROOT
BRANCH   2   3
HETATM    3  C   UNL     1     -13.065  10.828  71.760  1.00  0.00    -0.573 C  
BRANCH   3   4
HETATM    4  C   UNL     1     -12.625  12.176  71.195  1.00  0.00    -0.360 C  
BRANCH   4   5
HETATM    5  C   UNL     1     -12.046  12.012  69.791  1.00  0.00    -0.317 C  
BRANCH   5   6
HETATM    6  C   UNL     1     -11.276  13.261  69.380  1.00  0.00    -0.220 C  
BRANCH   6   7
HETATM    7  C   UNL     1     -11.845  13.878  68.106  1.00  0.00    -0.407 C  
BRANCH   7   8
HETATM    8  C   UNL     1     -10.801  14.792  67.469  1.00  0.00    -0.287 C  
BRANCH   8   9
HETATM    9  C   UNL     1     -11.220  15.250  66.080  1.00  0.00    -0.231 C  
BRANCH   9  10
HETATM   10  C   UNL     1     -11.573  14.069  65.163  1.00  0.00    -0.344 C  
BRANCH  10  11
HETATM   11  C   UNL     1     -10.392  13.135  64.859  1.00  0.00    -0.352 C  
BRANCH  11  12
HETATM   12  C   UNL     1     -10.876  11.886  64.167  1.00  0.00    -0.356 C  
HETATM   13  O   UNL     1     -11.982  11.387  64.308  1.00  0.00    -0.047 OA 
BRANCH  12  14
HETATM   14  O   UNL     1      -9.968  11.508  63.225  1.00  0.00    -0.356 OA 
BRANCH  14  15
HETATM   15  C   UNL     1      -9.512  10.156  63.359  1.00  0.00    -0.261 C  
BRANCH  15  16
HETATM   16  C   UNL     1      -8.000  10.237  63.591  1.00  0.00    -0.139 C  
BRANCH  16  17
HETATM   17  N   UNL     1      -7.522   9.434  64.705  1.00  0.00    -0.104 N  
HETATM   18  C   UNL     1      -6.326   9.721  65.317  1.00  0.00    -0.088 C  
HETATM   19  H   UNL     1      -8.081   8.648  65.036  1.00  0.00     0.000 HD 
HETATM   20  O   UNL     1      -5.546  10.575  64.907  1.00  0.00    -0.128 OA 
BRANCH  18  21
HETATM   21  C   UNL     1      -5.960   8.852  66.502  1.00  0.00    -0.056 C  
BRANCH  21  22
HETATM   22  N   UNL     1      -6.827   9.205  67.646  1.00  0.00    -0.076 NA 
HETATM   23  C   UNL     1      -6.497  10.253  68.442  1.00  0.00    -0.048 A  
HETATM   24  C   UNL     1      -7.286  10.586  69.534  1.00  0.00    -0.148 A  
HETATM   25  C   UNL     1      -8.432   9.850  69.797  1.00  0.00    -0.206 A  
HETATM   26  C   UNL     1      -8.768   8.791  68.964  1.00  0.00    -0.133 A  
HETATM   27  C   UNL     1      -7.946   8.485  67.887  1.00  0.00    -0.108 A  
ENDBRANCH  21  22
ENDBRANCH  18  21
ENDBRANCH  16  17
ENDBRANCH  15  16
ENDBRANCH  14  15
ENDBRANCH  12  14
ENDBRANCH  11  12
ENDBRANCH  10  11
ENDBRANCH   9  10
ENDBRANCH   8   9
ENDBRANCH   7   8
ENDBRANCH   6   7
ENDBRANCH   5   6
ENDBRANCH   4   5
ENDBRANCH   3   4
ENDBRANCH   2   3
TORSDOF 16
ENDMDL
MODEL      335
REMARK 921   NORMALIZED FREE ENERGY PREDICTED BY IDOCK:   -2.86 KCAL/MOL
REMARK 922        TOTAL FREE ENERGY PREDICTED BY IDOCK:   -7.62 KCAL/MOL
REMARK 923 INTER-LIGAND FREE ENERGY PREDICTED BY IDOCK:   -6.35 KCAL/MOL
REMARK 924 INTRA-LIGAND FREE ENERGY PREDICTED BY IDOCK:   -1.28 KCAL/MOL
REMARK 927      BINDING AFFINITY PREDICTED BY RF-SCORE:    0.00 PKD
ROOT
HETATM    1  C   UNL     1     -10.844   6.480  72.990  1.00  0.00    -0.291 C  
HETATM    2  C   UNL     1     -11.152   5.013  73.239  1.00  0.00    -0.406 C  
ENDROOT
BRANCH   2   3
HETATM    3  C   UNL     1     -10.123   4.389  74.179  1.00  0.00    -0.226 C  
BRANCH   3   4
HETATM    4  C   UNL     1      -9.398   3.224  73.510  1.00  0.00    -0.113 C  
BRANCH   4   5
HETATM    5  C   UNL     1      -8.335   3.732  72.538  1.00  0.00    -0.090 C  
BRANCH   5   6
HETATM    6  C   UNL     1      -7.984   2.658  71.516  1.00  0.00    -0.051 C  
BRANCH   6   7
HETATM    7  C   UNL     1      -7.999   3.209  70.093  1.00  0.00    -0.050 C  
BRANCH   7   8
HETATM    8  C   UNL     1      -9.416   3.643  69.727  1.00  0.00    -0.254 C  
BRANCH   8   9
HETATM    9  C   UNL     1      -9.531   4.023  68.258  1.00  0.00    -0.216 C  
BRANCH   9  10
HETATM   10  C   UNL     1      -9.977   5.482  68.072  1.00  0.00    -0.189 C  
BRANCH  10  11
HETATM   11  C   UNL     1      -9.451   6.442  69.148  1.00  0.00    -0.137 C  
BRANCH  11  12
HETATM   12  C   UNL     1     -10.273   7.706  69.172  1.00  0.00    -0.203 C  
HETATM   13  O   UNL     1     -10.495   8.381  70.165  1.00  0.00    -0.217 OA 
BRANCH  12  14
HETATM   14  O   UNL     1     -10.571   8.078  67.897  1.00  0.00    -0.209 OA 
BRANCH  14  15
HETATM   15  C   UNL     1      -9.724   9.108  67.373  1.00  0.00    -0.162 C  
BRANCH  15  16
HETATM   16  C   UNL     1      -9.395   8.698  65.934  1.00  0.00    -0.195 C  
BRANCH  16  17
HETATM   17  N   UNL     1      -9.914   9.603  64.921  1.00  0.00    -0.366 N  
HETATM   18  C   UNL     1      -9.066  10.273  64.074  1.00  0.00    -0.251 C  
HETATM   19  H   UNL     1     -10.921   9.742  64.839  1.00  0.00     0.000 HD 
HETATM   20  O   UNL     1      -7.844  10.247  64.183  1.00  0.00    -0.153 OA 
BRANCH  18  21
HETATM   21  C   UNL     1      -9.724  11.144  63.024  1.00  0.00    -0.359 C  
BRANCH  21  22
HETATM   22  N   UNL     1     -10.653  12.082  63.688  1.00  0.00    -0.411 NA 
HETATM   23  C   UNL     1     -11.993  11.914  63.550  1.00  0.00    -0.466 A  
HETATM   24  C   UNL     1     -12.880  12.798  64.147  1.00  0.00    -0.209 A  
HETATM   25  C   UNL     1     -12.388  13.849  64.907  1.00  0.00    -0.445 A  
HETATM   26  C   UNL     1     -11.016  14.000  65.054  1.00  0.00    -0.379 A  
HETATM   27  C   UNL     1     -10.162  13.099  64.432  1.00  0.00    -0.297 A  
ENDBRANCH  21  22
ENDBRANCH  18  21
ENDBRANCH  16  17
ENDBRANCH  15  16
ENDBRANCH  14  15
ENDBRANCH  12  14
ENDBRANCH  11  12
ENDBRANCH  10  11
ENDBRANCH   9  10
ENDBRANCH   8   9
ENDBRANCH   7   8
ENDBRANCH   6   7
ENDBRANCH   5   6
ENDBRANCH   4   5
ENDBRANCH   3   4
ENDBRANCH   2   3
TORSDOF 16
ENDMDL
MODEL      336
REMARK 921   NORMALIZED FREE ENERGY PREDICTED BY IDOCK:   -2.86 KCAL/MOL
REMARK 922        TOTAL FREE ENERGY PREDICTED BY IDOCK:   -7.61 KCAL/MOL
REMARK 923 INTER-LIGAND FREE ENERGY PREDICTED BY IDOCK:   -6.21 KCAL/MOL
REMARK 924 INTRA-LIGAND FREE ENERGY PREDICTED BY IDOCK:   -1.40 KCAL/MOL
REMARK 927      BINDING AFFINITY PREDICTED BY RF-SCORE:    0.00 PKD
ROOT
HETATM    1  C   UNL     1      -6.846   4.062  67.537  1.00  0.00    -0.051 C  
HETATM    2  C   UNL     1      -6.524   2.841  68.380  1.00  0.00    -0.029 C  
ENDROOT
BRANCH   2   3
HETATM    3  C   UNL     1      -5.624   3.209  69.558  1.00  0.00    -0.017 C  
BRANCH   3   4
HETATM    4  C   UNL     1      -5.935   4.611  70.074  1.00  0.00    -0.017 C  
BRANCH   4   5
HETATM    5  C   UNL     1      -6.747   4.546  71.367  1.00  0.00    -0.031 C  
BRANCH   5   6
HETATM    6  C   UNL     1      -8.045   5.330  71.224  1.00  0.00    -0.114 C  
BRANCH   6   7
HETATM    7  C   UNL     1      -9.068   4.921  72.281  1.00  0.00    -0.146 C  
BRANCH   7   8
HETATM    8  C   UNL     1      -9.051   5.929  73.427  1.00  0.00    -0.132 C  
BRANCH   8   9
HETATM    9  C   UNL     1     -10.267   6.844  73.396  1.00  0.00    -0.314 C  
BRANCH   9  10
HETATM   10  C   UNL     1     -11.407   6.261  72.548  1.00  0.00    -0.313 C  
BRANCH  10  11
HETATM   11  C   UNL     1     -11.921   7.205  71.452  1.00  0.00    -0.364 C  
BRANCH  11  12
HETATM   12  C   UNL     1     -11.187   6.955  70.158  1.00  0.00    -0.313 C  
HETATM   13  O   UNL     1     -11.271   5.939  69.486  1.00  0.00    -0.389 OA 
BRANCH  12  14
HETATM   14  O   UNL     1     -10.567   8.101  69.759  1.00  0.00    -0.229 OA 
BRANCH  14  15
HETATM   15  C   UNL     1      -9.649   7.924  68.673  1.00  0.00    -0.155 C  
BRANCH  15  16
HETATM   16  C   UNL     1     -10.290   8.603  67.458  1.00  0.00    -0.269 C  
BRANCH  16  17
HETATM   17  N   UNL     1     -11.149   9.728  67.787  1.00  0.00    -0.486 N  
HETATM   18  C   UNL     1     -10.636  10.997  67.899  1.00  0.00    -0.205 C  
HETATM   19  H   UNL     1     -12.146   9.574  67.937  1.00  0.00     0.000 HD 
HETATM   20  O   UNL     1      -9.435  11.247  67.845  1.00  0.00    -0.169 OA 
BRANCH  18  21
HETATM   21  C   UNL     1     -11.636  12.097  68.189  1.00  0.00    -0.337 C  
BRANCH  21  22
HETATM   22  N   UNL     1     -11.592  13.090  67.094  1.00  0.00    -0.337 NA 
HETATM   23  C   UNL     1     -12.183  12.806  65.905  1.00  0.00    -0.359 A  
HETATM   24  C   UNL     1     -12.134  13.716  64.858  1.00  0.00    -0.426 A  
HETATM   25  C   UNL     1     -11.490  14.931  65.040  1.00  0.00    -0.379 A  
HETATM   26  C   UNL     1     -10.905  15.215  66.267  1.00  0.00    -0.333 A  
HETATM   27  C   UNL     1     -10.969  14.274  67.286  1.00  0.00    -0.297 A  
ENDBRANCH  21  22
ENDBRANCH  18  21
ENDBRANCH  16  17
ENDBRANCH  15  16
ENDBRANCH  14  15
ENDBRANCH  12  14
ENDBRANCH  11  12
ENDBRANCH  10  11
ENDBRANCH   9  10
ENDBRANCH   8   9
ENDBRANCH   7   8
ENDBRANCH   6   7
ENDBRANCH   5   6
ENDBRANCH   4   5
ENDBRANCH   3   4
ENDBRANCH   2   3
TORSDOF 16
ENDMDL
MODEL      337
REMARK 921   NORMALIZED FREE ENERGY PREDICTED BY IDOCK:   -2.85 KCAL/MOL
REMARK 922        TOTAL FREE ENERGY PREDICTED BY IDOCK:   -7.60 KCAL/MOL
REMARK 923 INTER-LIGAND FREE ENERGY PREDICTED BY IDOCK:   -7.09 KCAL/MOL
REMARK 924 INTRA-LIGAND FREE ENERGY PREDICTED BY IDOCK:   -0.52 KCAL/MOL
REMARK 927      BINDING AFFINITY PREDICTED BY RF-SCORE:    0.00 PKD
ROOT
HETATM    1  C   UNL     1     -11.362   7.160  72.586  1.00  0.00    -0.306 C  
HETATM    2  C   UNL     1     -11.375   8.583  72.053  1.00  0.00    -0.425 C  
ENDROOT
BRANCH   2   3
HETATM    3  C   UNL     1     -12.733   9.242  72.281  1.00  0.00    -0.435 C  
BRANCH   3   4
HETATM    4  C   UNL     1     -13.096  10.174  71.128  1.00  0.00    -0.480 C  
BRANCH   4   5
HETATM    5  C   UNL     1     -12.591  11.591  71.396  1.00  0.00    -0.419 C  
BRANCH   5   6
HETATM    6  C   UNL     1     -13.637  12.399  72.154  1.00  0.00    -0.405 C  
BRANCH   6   7
HETATM    7  C   UNL     1     -13.340  13.895  72.099  1.00  0.00    -0.555 C  
BRANCH   7   8
HETATM    8  C   UNL     1     -12.129  14.143  71.203  1.00  0.00    -0.392 C  
BRANCH   8   9
HETATM    9  C   UNL     1     -11.585  15.556  71.365  1.00  0.00    -0.481 C  
BRANCH   9  10
HETATM   10  C   UNL     1     -11.172  16.173  70.020  1.00  0.00    -0.359 C  
BRANCH  10  11
HETATM   11  C   UNL     1     -10.414  15.211  69.094  1.00  0.00    -0.252 C  
BRANCH  11  12
HETATM   12  C   UNL     1     -11.319  14.722  67.991  1.00  0.00    -0.316 C  
HETATM   13  O   UNL     1     -12.528  14.889  67.948  1.00  0.00     0.094 OA 
BRANCH  12  14
HETATM   14  O   UNL     1     -10.565  14.236  66.966  1.00  0.00    -0.276 OA 
BRANCH  14  15
HETATM   15  C   UNL     1     -11.290  13.417  66.041  1.00  0.00    -0.309 C  
BRANCH  15  16
HETATM   16  C   UNL     1     -10.265  12.925  65.014  1.00  0.00    -0.269 C  
BRANCH  16  17
HETATM   17  N   UNL     1      -9.280  11.999  65.548  1.00  0.00    -0.429 N  
HETATM   18  C   UNL     1      -9.620  10.699  65.836  1.00  0.00    -0.205 C  
HETATM   19  H   UNL     1      -8.325  12.318  65.711  1.00  0.00     0.000 HD 
HETATM   20  O   UNL     1     -10.769  10.272  65.775  1.00  0.00    -0.065 OA 
BRANCH  18  21
HETATM   21  C   UNL     1      -8.497   9.813  66.334  1.00  0.00    -0.124 C  
BRANCH  21  22
HETATM   22  N   UNL     1      -8.095   8.890  65.251  1.00  0.00    -0.119 NA 
HETATM   23  C   UNL     1      -7.461   7.729  65.557  1.00  0.00    -0.076 A  
HETATM   24  C   UNL     1      -7.056   6.861  64.553  1.00  0.00    -0.061 A  
HETATM   25  C   UNL     1      -7.322   7.178  63.229  1.00  0.00    -0.081 A  
HETATM   26  C   UNL     1      -7.986   8.360  62.931  1.00  0.00    -0.160 A  
HETATM   27  C   UNL     1      -8.367   9.206  63.965  1.00  0.00    -0.180 A  
ENDBRANCH  21  22
ENDBRANCH  18  21
ENDBRANCH  16  17
ENDBRANCH  15  16
ENDBRANCH  14  15
ENDBRANCH  12  14
ENDBRANCH  11  12
ENDBRANCH  10  11
ENDBRANCH   9  10
ENDBRANCH   8   9
ENDBRANCH   7   8
ENDBRANCH   6   7
ENDBRANCH   5   6
ENDBRANCH   4   5
ENDBRANCH   3   4
ENDBRANCH   2   3
TORSDOF 16
ENDMDL
MODEL      338
REMARK 921   NORMALIZED FREE ENERGY PREDICTED BY IDOCK:   -2.85 KCAL/MOL
REMARK 922        TOTAL FREE ENERGY PREDICTED BY IDOCK:   -7.60 KCAL/MOL
REMARK 923 INTER-LIGAND FREE ENERGY PREDICTED BY IDOCK:   -6.66 KCAL/MOL
REMARK 924 INTRA-LIGAND FREE ENERGY PREDICTED BY IDOCK:   -0.94 KCAL/MOL
REMARK 927      BINDING AFFINITY PREDICTED BY RF-SCORE:    0.00 PKD
ROOT
HETATM    1  C   UNL     1      -9.314   1.613  68.806  1.00  0.00    -0.219 C  
HETATM    2  C   UNL     1      -7.992   2.329  68.581  1.00  0.00    -0.062 C  
ENDROOT
BRANCH   2   3
HETATM    3  C   UNL     1      -8.156   3.490  67.603  1.00  0.00    -0.081 C  
BRANCH   3   4
HETATM    4  C   UNL     1      -9.591   3.585  67.093  1.00  0.00    -0.160 C  
BRANCH   4   5
HETATM    5  C   UNL     1      -9.686   4.558  65.918  1.00  0.00    -0.210 C  
BRANCH   5   6
HETATM    6  C   UNL     1      -8.355   4.643  65.183  1.00  0.00    -0.126 C  
BRANCH   6   7
HETATM    7  C   UNL     1      -8.066   6.063  64.705  1.00  0.00    -0.132 C  
BRANCH   7   8
HETATM    8  C   UNL     1      -8.621   7.065  65.714  1.00  0.00    -0.138 C  
BRANCH   8   9
HETATM    9  C   UNL     1      -8.497   8.499  65.216  1.00  0.00    -0.192 C  
BRANCH   9  10
HETATM   10  C   UNL     1      -9.021   9.514  66.243  1.00  0.00    -0.188 C  
BRANCH  10  11
HETATM   11  C   UNL     1      -8.809  10.980  65.842  1.00  0.00    -0.204 C  
BRANCH  11  12
HETATM   12  C   UNL     1     -10.084  11.561  65.283  1.00  0.00    -0.269 C  
HETATM   13  O   UNL     1     -10.832  10.994  64.501  1.00  0.00    -0.313 OA 
BRANCH  12  14
HETATM   14  O   UNL     1     -10.370  12.728  65.924  1.00  0.00    -0.271 OA 
BRANCH  14  15
HETATM   15  C   UNL     1     -11.675  13.249  65.640  1.00  0.00    -0.356 C  
BRANCH  15  16
HETATM   16  C   UNL     1     -11.913  14.376  66.651  1.00  0.00    -0.392 C  
BRANCH  16  17
HETATM   17  N   UNL     1     -10.726  15.150  66.973  1.00  0.00    -0.302 N  
HETATM   18  C   UNL     1     -10.486  15.568  68.259  1.00  0.00    -0.242 C  
HETATM   19  H   UNL     1     -10.062  15.386  66.235  1.00  0.00     0.000 HD 
HETATM   20  O   UNL     1     -11.287  15.423  69.177  1.00  0.00    -0.273 OA 
BRANCH  18  21
HETATM   21  C   UNL     1      -9.189  16.318  68.484  1.00  0.00    -0.211 C  
BRANCH  21  22
HETATM   22  N   UNL     1      -9.307  17.672  67.903  1.00  0.00    -0.262 NA 
HETATM   23  C   UNL     1     -10.327  18.482  68.286  1.00  0.00    -0.344 A  
HETATM   24  C   UNL     1     -10.468  19.748  67.735  1.00  0.00    -0.555 A  
HETATM   25  C   UNL     1      -9.545  20.191  66.800  1.00  0.00    -0.559 A  
HETATM   26  C   UNL     1      -8.497  19.359  66.429  1.00  0.00    -0.361 A  
HETATM   27  C   UNL     1      -8.397  18.096  66.998  1.00  0.00    -0.240 A  
ENDBRANCH  21  22
ENDBRANCH  18  21
ENDBRANCH  16  17
ENDBRANCH  15  16
ENDBRANCH  14  15
ENDBRANCH  12  14
ENDBRANCH  11  12
ENDBRANCH  10  11
ENDBRANCH   9  10
ENDBRANCH   8   9
ENDBRANCH   7   8
ENDBRANCH   6   7
ENDBRANCH   5   6
ENDBRANCH   4   5
ENDBRANCH   3   4
ENDBRANCH   2   3
TORSDOF 16
ENDMDL
MODEL      339
REMARK 921   NORMALIZED FREE ENERGY PREDICTED BY IDOCK:   -2.84 KCAL/MOL
REMARK 922        TOTAL FREE ENERGY PREDICTED BY IDOCK:   -7.57 KCAL/MOL
REMARK 923 INTER-LIGAND FREE ENERGY PREDICTED BY IDOCK:   -6.42 KCAL/MOL
REMARK 924 INTRA-LIGAND FREE ENERGY PREDICTED BY IDOCK:   -1.15 KCAL/MOL
REMARK 927      BINDING AFFINITY PREDICTED BY RF-SCORE:    0.00 PKD
ROOT
HETATM    1  C   UNL     1     -10.394   7.691  68.546  1.00  0.00    -0.225 C  
HETATM    2  C   UNL     1      -9.964   7.150  69.899  1.00  0.00    -0.184 C  
ENDROOT
BRANCH   2   3
HETATM    3  C   UNL     1      -8.444   7.031  69.985  1.00  0.00    -0.140 C  
BRANCH   3   4
HETATM    4  C   UNL     1      -7.847   6.593  68.651  1.00  0.00    -0.114 C  
BRANCH   4   5
HETATM    5  C   UNL     1      -6.435   7.151  68.478  1.00  0.00    -0.040 C  
BRANCH   5   6
HETATM    6  C   UNL     1      -6.221   7.637  67.051  1.00  0.00    -0.053 C  
BRANCH   6   7
HETATM    7  C   UNL     1      -7.525   7.644  66.258  1.00  0.00    -0.083 C  
BRANCH   7   8
HETATM    8  C   UNL     1      -7.731   9.017  65.624  1.00  0.00    -0.091 C  
BRANCH   8   9
HETATM    9  C   UNL     1      -8.972   9.055  64.743  1.00  0.00    -0.146 C  
BRANCH   9  10
HETATM   10  C   UNL     1      -9.243  10.461  64.186  1.00  0.00    -0.298 C  
BRANCH  10  11
HETATM   11  C   UNL     1     -10.462  11.158  64.805  1.00  0.00    -0.388 C  
BRANCH  11  12
HETATM   12  C   UNL     1     -11.118  12.065  63.794  1.00  0.00    -0.439 C  
HETATM   13  O   UNL     1     -12.153  11.818  63.195  1.00  0.00    -0.389 OA 
BRANCH  12  14
HETATM   14  O   UNL     1     -10.488  13.272  63.791  1.00  0.00    -0.232 OA 
BRANCH  14  15
HETATM   15  C   UNL     1     -10.214  13.794  65.097  1.00  0.00    -0.345 C  
BRANCH  15  16
HETATM   16  C   UNL     1     -11.311  14.825  65.382  1.00  0.00    -0.356 C  
BRANCH  16  17
HETATM   17  N   UNL     1     -10.863  16.207  65.323  1.00  0.00    -0.374 N  
HETATM   18  C   UNL     1     -10.611  16.915  66.473  1.00  0.00    -0.185 C  
HETATM   19  H   UNL     1     -10.734  16.656  64.417  1.00  0.00     0.000 HD 
HETATM   20  O   UNL     1     -10.850  16.483  67.597  1.00  0.00    -0.326 OA 
BRANCH  18  21
HETATM   21  C   UNL     1     -10.094  18.326  66.287  1.00  0.00    -0.380 C  
BRANCH  21  22
HETATM   22  N   UNL     1      -8.760  18.438  66.912  1.00  0.00    -0.264 NA 
HETATM   23  C   UNL     1      -8.595  19.216  68.012  1.00  0.00    -0.310 A  
HETATM   24  C   UNL     1      -7.345  19.352  68.600  1.00  0.00    -0.375 A  
HETATM   25  C   UNL     1      -6.263  18.668  68.066  1.00  0.00    -0.198 A  
HETATM   26  C   UNL     1      -6.448  17.862  66.950  1.00  0.00    -0.207 A  
HETATM   27  C   UNL     1      -7.714  17.761  66.387  1.00  0.00    -0.283 A  
ENDBRANCH  21  22
ENDBRANCH  18  21
ENDBRANCH  16  17
ENDBRANCH  15  16
ENDBRANCH  14  15
ENDBRANCH  12  14
ENDBRANCH  11  12
ENDBRANCH  10  11
ENDBRANCH   9  10
ENDBRANCH   8   9
ENDBRANCH   7   8
ENDBRANCH   6   7
ENDBRANCH   5   6
ENDBRANCH   4   5
ENDBRANCH   3   4
ENDBRANCH   2   3
TORSDOF 16
ENDMDL
MODEL      340
REMARK 921   NORMALIZED FREE ENERGY PREDICTED BY IDOCK:   -2.83 KCAL/MOL
REMARK 922        TOTAL FREE ENERGY PREDICTED BY IDOCK:   -7.55 KCAL/MOL
REMARK 923 INTER-LIGAND FREE ENERGY PREDICTED BY IDOCK:   -7.42 KCAL/MOL
REMARK 924 INTRA-LIGAND FREE ENERGY PREDICTED BY IDOCK:   -0.13 KCAL/MOL
REMARK 927      BINDING AFFINITY PREDICTED BY RF-SCORE:    0.00 PKD
ROOT
HETATM    1  C   UNL     1      -9.620   2.487  70.903  1.00  0.00    -0.192 C  
HETATM    2  C   UNL     1      -9.532   3.606  71.927  1.00  0.00    -0.203 C  
ENDROOT
BRANCH   2   3
HETATM    3  C   UNL     1     -10.242   4.863  71.429  1.00  0.00    -0.257 C  
BRANCH   3   4
HETATM    4  C   UNL     1     -10.827   5.664  72.589  1.00  0.00    -0.301 C  
BRANCH   4   5
HETATM    5  C   UNL     1     -10.263   7.084  72.606  1.00  0.00    -0.218 C  
BRANCH   5   6
HETATM    6  C   UNL     1     -11.383   8.108  72.481  1.00  0.00    -0.469 C  
BRANCH   6   7
HETATM    7  C   UNL     1     -11.015   9.229  71.512  1.00  0.00    -0.446 C  
BRANCH   7   8
HETATM    8  C   UNL     1     -12.220   9.566  70.638  1.00  0.00    -0.191 C  
BRANCH   8   9
HETATM    9  C   UNL     1     -12.593  11.039  70.729  1.00  0.00    -0.463 C  
BRANCH   9  10
HETATM   10  C   UNL     1     -11.474  11.951  70.202  1.00  0.00    -0.136 C  
BRANCH  10  11
HETATM   11  C   UNL     1     -11.894  12.844  69.027  1.00  0.00    -0.352 C  
BRANCH  11  12
HETATM   12  C   UNL     1     -11.202  12.405  67.761  1.00  0.00    -0.275 C  
HETATM   13  O   UNL     1     -11.665  11.628  66.940  1.00  0.00    -0.552 OA 
BRANCH  12  14
HETATM   14  O   UNL     1     -10.074  13.145  67.579  1.00  0.00    -0.218 OA 
BRANCH  14  15
HETATM   15  C   UNL     1     -10.258  14.553  67.776  1.00  0.00    -0.226 C  
BRANCH  15  16
HETATM   16  C   UNL     1      -8.953  15.071  68.391  1.00  0.00    -0.179 C  
BRANCH  16  17
HETATM   17  N   UNL     1      -8.962  16.490  68.703  1.00  0.00    -0.228 N  
HETATM   18  C   UNL     1      -8.247  17.383  67.942  1.00  0.00    -0.225 C  
HETATM   19  H   UNL     1      -9.506  16.828  69.497  1.00  0.00     0.000 HD 
HETATM   20  O   UNL     1      -7.482  17.044  67.044  1.00  0.00    -0.161 OA 
BRANCH  18  21
HETATM   21  C   UNL     1      -8.379  18.842  68.328  1.00  0.00    -0.330 C  
BRANCH  21  22
HETATM   22  N   UNL     1      -7.455  19.645  67.499  1.00  0.00    -0.250 NA 
HETATM   23  C   UNL     1      -6.482  20.379  68.096  1.00  0.00    -0.304 A  
HETATM   24  C   UNL     1      -5.619  21.158  67.337  1.00  0.00    -0.353 A  
HETATM   25  C   UNL     1      -5.745  21.166  65.955  1.00  0.00    -0.282 A  
HETATM   26  C   UNL     1      -6.734  20.396  65.356  1.00  0.00    -0.299 A  
HETATM   27  C   UNL     1      -7.583  19.639  66.153  1.00  0.00    -0.316 A  
ENDBRANCH  21  22
ENDBRANCH  18  21
ENDBRANCH  16  17
ENDBRANCH  15  16
ENDBRANCH  14  15
ENDBRANCH  12  14
ENDBRANCH  11  12
ENDBRANCH  10  11
ENDBRANCH   9  10
ENDBRANCH   8   9
ENDBRANCH   7   8
ENDBRANCH   6   7
ENDBRANCH   5   6
ENDBRANCH   4   5
ENDBRANCH   3   4
ENDBRANCH   2   3
TORSDOF 16
ENDMDL
MODEL      341
REMARK 921   NORMALIZED FREE ENERGY PREDICTED BY IDOCK:   -2.83 KCAL/MOL
REMARK 922        TOTAL FREE ENERGY PREDICTED BY IDOCK:   -7.55 KCAL/MOL
REMARK 923 INTER-LIGAND FREE ENERGY PREDICTED BY IDOCK:   -6.02 KCAL/MOL
REMARK 924 INTRA-LIGAND FREE ENERGY PREDICTED BY IDOCK:   -1.53 KCAL/MOL
REMARK 927      BINDING AFFINITY PREDICTED BY RF-SCORE:    0.00 PKD
ROOT
HETATM    1  C   UNL     1     -10.418   3.698  64.003  1.00  0.00    -0.271 C  
HETATM    2  C   UNL     1      -9.103   4.404  63.718  1.00  0.00    -0.136 C  
ENDROOT
BRANCH   2   3
HETATM    3  C   UNL     1      -8.686   5.283  64.895  1.00  0.00    -0.122 C  
BRANCH   3   4
HETATM    4  C   UNL     1      -7.867   6.482  64.427  1.00  0.00    -0.115 C  
BRANCH   4   5
HETATM    5  C   UNL     1      -8.377   7.772  65.067  1.00  0.00    -0.094 C  
BRANCH   5   6
HETATM    6  C   UNL     1      -7.733   7.985  66.431  1.00  0.00    -0.092 C  
BRANCH   6   7
HETATM    7  C   UNL     1      -7.166   9.396  66.570  1.00  0.00    -0.089 C  
BRANCH   7   8
HETATM    8  C   UNL     1      -7.842  10.106  67.740  1.00  0.00    -0.098 C  
BRANCH   8   9
HETATM    9  C   UNL     1      -8.284  11.514  67.369  1.00  0.00    -0.149 C  
BRANCH   9  10
HETATM   10  C   UNL     1      -9.345  11.513  66.258  1.00  0.00    -0.227 C  
BRANCH  10  11
HETATM   11  C   UNL     1     -10.639  10.772  66.625  1.00  0.00    -0.291 C  
BRANCH  11  12
HETATM   12  C   UNL     1     -11.568  11.685  67.386  1.00  0.00    -0.254 C  
HETATM   13  O   UNL     1     -11.838  12.834  67.072  1.00  0.00    -0.372 OA 
BRANCH  12  14
HETATM   14  O   UNL     1     -12.202  10.977  68.361  1.00  0.00    -0.586 OA 
BRANCH  14  15
HETATM   15  C   UNL     1     -11.813  11.335  69.693  1.00  0.00    -0.360 C  
BRANCH  15  16
HETATM   16  C   UNL     1     -10.841  10.246  70.160  1.00  0.00    -0.302 C  
BRANCH  16  17
HETATM   17  N   UNL     1     -11.460   8.952  70.392  1.00  0.00    -0.408 N  
HETATM   18  C   UNL     1     -11.022   7.832  69.728  1.00  0.00    -0.158 C  
HETATM   19  H   UNL     1     -12.230   8.874  71.057  1.00  0.00     0.000 HD 
HETATM   20  O   UNL     1     -10.181   7.863  68.835  1.00  0.00    -0.197 OA 
BRANCH  18  21
HETATM   21  C   UNL     1     -11.705   6.531  70.094  1.00  0.00    -0.353 C  
BRANCH  21  22
HETATM   22  N   UNL     1     -11.016   5.935  71.259  1.00  0.00    -0.271 NA 
HETATM   23  C   UNL     1      -9.780   5.395  71.105  1.00  0.00    -0.174 A  
HETATM   24  C   UNL     1      -9.127   4.811  72.182  1.00  0.00    -0.148 A  
HETATM   25  C   UNL     1      -9.739   4.800  73.427  1.00  0.00    -0.153 A  
HETATM   26  C   UNL     1     -10.996   5.371  73.573  1.00  0.00    -0.323 A  
HETATM   27  C   UNL     1     -11.620   5.937  72.468  1.00  0.00    -0.277 A  
ENDBRANCH  21  22
ENDBRANCH  18  21
ENDBRANCH  16  17
ENDBRANCH  15  16
ENDBRANCH  14  15
ENDBRANCH  12  14
ENDBRANCH  11  12
ENDBRANCH  10  11
ENDBRANCH   9  10
ENDBRANCH   8   9
ENDBRANCH   7   8
ENDBRANCH   6   7
ENDBRANCH   5   6
ENDBRANCH   4   5
ENDBRANCH   3   4
ENDBRANCH   2   3
TORSDOF 16
ENDMDL
MODEL      342
REMARK 921   NORMALIZED FREE ENERGY PREDICTED BY IDOCK:   -2.82 KCAL/MOL
REMARK 922        TOTAL FREE ENERGY PREDICTED BY IDOCK:   -7.55 KCAL/MOL
REMARK 923 INTER-LIGAND FREE ENERGY PREDICTED BY IDOCK:   -6.36 KCAL/MOL
REMARK 924 INTRA-LIGAND FREE ENERGY PREDICTED BY IDOCK:   -1.19 KCAL/MOL
REMARK 927      BINDING AFFINITY PREDICTED BY RF-SCORE:    0.00 PKD
ROOT
HETATM    1  C   UNL     1      -7.183   6.167  70.924  1.00  0.00    -0.074 C  
HETATM    2  C   UNL     1      -7.269   7.298  69.913  1.00  0.00    -0.081 C  
ENDROOT
BRANCH   2   3
HETATM    3  C   UNL     1      -8.540   8.119  70.115  1.00  0.00    -0.129 C  
BRANCH   3   4
HETATM    4  C   UNL     1      -8.556   9.347  69.209  1.00  0.00    -0.143 C  
BRANCH   4   5
HETATM    5  C   UNL     1      -7.135   9.842  68.943  1.00  0.00    -0.071 C  
BRANCH   5   6
HETATM    6  C   UNL     1      -7.014  11.325  69.271  1.00  0.00    -0.119 C  
BRANCH   6   7
HETATM    7  C   UNL     1      -7.969  12.167  68.429  1.00  0.00    -0.152 C  
BRANCH   7   8
HETATM    8  C   UNL     1      -7.179  13.227  67.666  1.00  0.00    -0.165 C  
BRANCH   8   9
HETATM    9  C   UNL     1      -7.297  14.598  68.315  1.00  0.00    -0.117 C  
BRANCH   9  10
HETATM   10  C   UNL     1      -8.717  15.172  68.198  1.00  0.00    -0.167 C  
BRANCH  10  11
HETATM   11  C   UNL     1      -9.321  15.631  69.533  1.00  0.00    -0.263 C  
BRANCH  11  12
HETATM   12  C   UNL     1     -10.548  16.474  69.292  1.00  0.00    -0.327 C  
HETATM   13  O   UNL     1     -10.539  17.633  68.905  1.00  0.00    -0.301 OA 
BRANCH  12  14
HETATM   14  O   UNL     1     -11.661  15.696  69.389  1.00  0.00    -0.321 OA 
BRANCH  14  15
HETATM   15  C   UNL     1     -11.671  14.826  70.528  1.00  0.00    -0.293 C  
BRANCH  15  16
HETATM   16  C   UNL     1     -12.155  13.464  70.020  1.00  0.00    -0.334 C  
BRANCH  16  17
HETATM   17  N   UNL     1     -11.549  13.044  68.767  1.00  0.00    -0.288 N  
HETATM   18  C   UNL     1     -11.635  11.739  68.346  1.00  0.00    -0.318 C  
HETATM   19  H   UNL     1     -11.052  13.726  68.194  1.00  0.00     0.000 HD 
HETATM   20  O   UNL     1     -12.114  10.840  69.030  1.00  0.00    -0.380 OA 
BRANCH  18  21
HETATM   21  C   UNL     1     -11.015  11.432  66.999  1.00  0.00    -0.292 C  
BRANCH  21  22
HETATM   22  N   UNL     1     -11.207  12.592  66.103  1.00  0.00    -0.305 NA 
HETATM   23  C   UNL     1     -10.133  13.322  65.709  1.00  0.00    -0.286 A  
HETATM   24  C   UNL     1     -10.296  14.429  64.886  1.00  0.00    -0.419 A  
HETATM   25  C   UNL     1     -11.567  14.774  64.451  1.00  0.00    -0.304 A  
HETATM   26  C   UNL     1     -12.655  14.008  64.848  1.00  0.00    -0.369 A  
HETATM   27  C   UNL     1     -12.450  12.914  65.680  1.00  0.00    -0.338 A  
ENDBRANCH  21  22
ENDBRANCH  18  21
ENDBRANCH  16  17
ENDBRANCH  15  16
ENDBRANCH  14  15
ENDBRANCH  12  14
ENDBRANCH  11  12
ENDBRANCH  10  11
ENDBRANCH   9  10
ENDBRANCH   8   9
ENDBRANCH   7   8
ENDBRANCH   6   7
ENDBRANCH   5   6
ENDBRANCH   4   5
ENDBRANCH   3   4
ENDBRANCH   2   3
TORSDOF 16
ENDMDL
MODEL      343
REMARK 921   NORMALIZED FREE ENERGY PREDICTED BY IDOCK:   -2.82 KCAL/MOL
REMARK 922        TOTAL FREE ENERGY PREDICTED BY IDOCK:   -7.54 KCAL/MOL
REMARK 923 INTER-LIGAND FREE ENERGY PREDICTED BY IDOCK:   -6.62 KCAL/MOL
REMARK 924 INTRA-LIGAND FREE ENERGY PREDICTED BY IDOCK:   -0.92 KCAL/MOL
REMARK 927      BINDING AFFINITY PREDICTED BY RF-SCORE:    0.00 PKD
ROOT
HETATM    1  C   UNL     1     -13.759   8.676  72.487  1.00  0.00    -0.362 C  
HETATM    2  C   UNL     1     -13.314   7.608  71.502  1.00  0.00    -0.383 C  
ENDROOT
BRANCH   2   3
HETATM    3  C   UNL     1     -11.901   7.886  70.993  1.00  0.00    -0.285 C  
BRANCH   3   4
HETATM    4  C   UNL     1     -11.115   6.591  70.808  1.00  0.00    -0.354 C  
BRANCH   4   5
HETATM    5  C   UNL     1     -10.080   6.738  69.694  1.00  0.00    -0.197 C  
BRANCH   5   6
HETATM    6  C   UNL     1     -10.481   7.850  68.733  1.00  0.00    -0.198 C  
BRANCH   6   7
HETATM    7  C   UNL     1      -9.262   8.503  68.088  1.00  0.00    -0.142 C  
BRANCH   7   8
HETATM    8  C   UNL     1      -9.593   9.944  67.710  1.00  0.00    -0.163 C  
BRANCH   8   9
HETATM    9  C   UNL     1     -11.028  10.309  68.065  1.00  0.00    -0.345 C  
BRANCH   9  10
HETATM   10  C   UNL     1     -11.251  11.829  68.078  1.00  0.00    -0.324 C  
BRANCH  10  11
HETATM   11  C   UNL     1     -12.490  12.288  67.296  1.00  0.00     1.055 C  
BRANCH  11  12
HETATM   12  C   UNL     1     -12.098  12.738  65.910  1.00  0.00    -0.426 C  
HETATM   13  O   UNL     1     -12.860  12.832  64.960  1.00  0.00    -0.743 OA 
BRANCH  12  14
HETATM   14  O   UNL     1     -10.817  13.200  65.928  1.00  0.00    -0.271 OA 
BRANCH  14  15
HETATM   15  C   UNL     1     -10.675  14.552  65.476  1.00  0.00    -0.341 C  
BRANCH  15  16
HETATM   16  C   UNL     1      -9.410  15.095  66.149  1.00  0.00    -0.311 C  
BRANCH  16  17
HETATM   17  N   UNL     1      -9.641  16.226  67.033  1.00  0.00    -0.227 N  
HETATM   18  C   UNL     1      -9.800  17.493  66.528  1.00  0.00    -0.310 C  
HETATM   19  H   UNL     1      -9.686  16.076  68.041  1.00  0.00     0.000 HD 
HETATM   20  O   UNL     1      -9.647  17.771  65.343  1.00  0.00    -0.077 OA 
BRANCH  18  21
HETATM   21  C   UNL     1     -10.092  18.581  67.540  1.00  0.00    -0.357 C  
BRANCH  21  22
HETATM   22  N   UNL     1      -8.838  19.299  67.853  1.00  0.00    -0.304 NA 
HETATM   23  C   UNL     1      -8.250  19.130  69.064  1.00  0.00    -0.221 A  
HETATM   24  C   UNL     1      -7.085  19.813  69.385  1.00  0.00    -0.304 A  
HETATM   25  C   UNL     1      -6.511  20.659  68.447  1.00  0.00    -0.303 A  
HETATM   26  C   UNL     1      -7.113  20.809  67.205  1.00  0.00    -0.417 A  
HETATM   27  C   UNL     1      -8.284  20.115  66.928  1.00  0.00    -0.316 A  
ENDBRANCH  21  22
ENDBRANCH  18  21
ENDBRANCH  16  17
ENDBRANCH  15  16
ENDBRANCH  14  15
ENDBRANCH  12  14
ENDBRANCH  11  12
ENDBRANCH  10  11
ENDBRANCH   9  10
ENDBRANCH   8   9
ENDBRANCH   7   8
ENDBRANCH   6   7
ENDBRANCH   5   6
ENDBRANCH   4   5
ENDBRANCH   3   4
ENDBRANCH   2   3
TORSDOF 16
ENDMDL
MODEL      344
REMARK 921   NORMALIZED FREE ENERGY PREDICTED BY IDOCK:   -2.82 KCAL/MOL
REMARK 922        TOTAL FREE ENERGY PREDICTED BY IDOCK:   -7.54 KCAL/MOL
REMARK 923 INTER-LIGAND FREE ENERGY PREDICTED BY IDOCK:   -6.22 KCAL/MOL
REMARK 924 INTRA-LIGAND FREE ENERGY PREDICTED BY IDOCK:   -1.32 KCAL/MOL
REMARK 927      BINDING AFFINITY PREDICTED BY RF-SCORE:    0.00 PKD
ROOT
HETATM    1  C   UNL     1     -10.736  19.613  67.534  1.00  0.00    -0.537 C  
HETATM    2  C   UNL     1     -10.578  18.190  67.028  1.00  0.00    -0.346 C  
ENDROOT
BRANCH   2   3
HETATM    3  C   UNL     1      -9.352  17.520  67.644  1.00  0.00    -0.244 C  
BRANCH   3   4
HETATM    4  C   UNL     1      -9.467  17.445  69.164  1.00  0.00    -0.025 C  
BRANCH   4   5
HETATM    5  C   UNL     1     -10.670  16.597  69.575  1.00  0.00    -0.306 C  
BRANCH   5   6
HETATM    6  C   UNL     1     -10.213  15.274  70.177  1.00  0.00    -0.166 C  
BRANCH   6   7
HETATM    7  C   UNL     1     -11.061  14.107  69.679  1.00  0.00    -0.188 C  
BRANCH   7   8
HETATM    8  C   UNL     1     -11.513  14.378  68.246  1.00  0.00    -0.333 C  
BRANCH   8   9
HETATM    9  C   UNL     1     -12.105  13.136  67.594  1.00  0.00    -0.281 C  
BRANCH   9  10
HETATM   10  C   UNL     1     -11.169  12.540  66.531  1.00  0.00    -0.356 C  
BRANCH  10  11
HETATM   11  C   UNL     1     -10.814  11.065  66.762  1.00  0.00    -0.307 C  
BRANCH  11  12
HETATM   12  C   UNL     1      -9.533  10.950  67.548  1.00  0.00    -0.155 C  
HETATM   13  O   UNL     1      -8.867  11.892  67.949  1.00  0.00    -0.157 OA 
BRANCH  12  14
HETATM   14  O   UNL     1      -9.333   9.651  67.904  1.00  0.00    -0.129 OA 
BRANCH  14  15
HETATM   15  C   UNL     1      -7.981   9.342  68.263  1.00  0.00    -0.102 C  
BRANCH  15  16
HETATM   16  C   UNL     1      -8.057   8.155  69.230  1.00  0.00    -0.117 C  
BRANCH  16  17
HETATM   17  N   UNL     1      -9.240   8.147  70.074  1.00  0.00    -0.154 N  
HETATM   18  C   UNL     1      -9.183   8.601  71.370  1.00  0.00    -0.235 C  
HETATM   19  H   UNL     1     -10.124   7.801  69.700  1.00  0.00     0.000 HD 
HETATM   20  O   UNL     1      -8.139   8.926  71.926  1.00  0.00    -0.338 OA 
BRANCH  18  21
HETATM   21  C   UNL     1     -10.491   8.598  72.134  1.00  0.00    -0.340 C  
BRANCH  21  22
HETATM   22  N   UNL     1     -10.754   7.233  72.635  1.00  0.00    -0.254 NA 
HETATM   23  C   UNL     1      -9.950   6.700  73.590  1.00  0.00    -0.247 A  
HETATM   24  C   UNL     1     -10.167   5.411  74.056  1.00  0.00    -0.273 A  
HETATM   25  C   UNL     1     -11.229   4.673  73.553  1.00  0.00    -0.400 A  
HETATM   26  C   UNL     1     -12.054   5.237  72.589  1.00  0.00     0.074 A  
HETATM   27  C   UNL     1     -11.796   6.527  72.142  1.00  0.00    -0.305 A  
ENDBRANCH  21  22
ENDBRANCH  18  21
ENDBRANCH  16  17
ENDBRANCH  15  16
ENDBRANCH  14  15
ENDBRANCH  12  14
ENDBRANCH  11  12
ENDBRANCH  10  11
ENDBRANCH   9  10
ENDBRANCH   8   9
ENDBRANCH   7   8
ENDBRANCH   6   7
ENDBRANCH   5   6
ENDBRANCH   4   5
ENDBRANCH   3   4
ENDBRANCH   2   3
TORSDOF 16
ENDMDL
MODEL      345
REMARK 921   NORMALIZED FREE ENERGY PREDICTED BY IDOCK:   -2.82 KCAL/MOL
REMARK 922        TOTAL FREE ENERGY PREDICTED BY IDOCK:   -7.53 KCAL/MOL
REMARK 923 INTER-LIGAND FREE ENERGY PREDICTED BY IDOCK:   -6.54 KCAL/MOL
REMARK 924 INTRA-LIGAND FREE ENERGY PREDICTED BY IDOCK:   -0.99 KCAL/MOL
REMARK 927      BINDING AFFINITY PREDICTED BY RF-SCORE:    0.00 PKD
ROOT
HETATM    1  C   UNL     1      -9.046   2.718  68.841  1.00  0.00    -0.207 C  
HETATM    2  C   UNL     1      -8.776   4.213  68.884  1.00  0.00    -0.125 C  
ENDROOT
BRANCH   2   3
HETATM    3  C   UNL     1      -9.925   4.997  68.255  1.00  0.00    -0.193 C  
BRANCH   3   4
HETATM    4  C   UNL     1     -10.611   5.894  69.281  1.00  0.00    -0.379 C  
BRANCH   4   5
HETATM    5  C   UNL     1     -10.967   7.247  68.668  1.00  0.00    -0.033 C  
BRANCH   5   6
HETATM    6  C   UNL     1     -10.454   7.339  67.237  1.00  0.00    -0.380 C  
BRANCH   6   7
HETATM    7  C   UNL     1      -9.571   8.567  67.033  1.00  0.00    -0.246 C  
BRANCH   7   8
HETATM    8  C   UNL     1     -10.404   9.706  66.453  1.00  0.00    -0.246 C  
BRANCH   8   9
HETATM    9  C   UNL     1     -10.359  10.948  67.332  1.00  0.00    -0.248 C  
BRANCH   9  10
HETATM   10  C   UNL     1     -11.026  12.157  66.659  1.00  0.00    -0.325 C  
BRANCH  10  11
HETATM   11  C   UNL     1     -11.511  11.891  65.227  1.00  0.00    -0.313 C  
BRANCH  11  12
HETATM   12  C   UNL     1     -11.687  13.190  64.483  1.00  0.00    -0.371 C  
HETATM   13  O   UNL     1     -12.496  13.384  63.588  1.00  0.00    -0.711 OA 
BRANCH  12  14
HETATM   14  O   UNL     1     -10.945  14.161  65.082  1.00  0.00    -0.320 OA 
BRANCH  14  15
HETATM   15  C   UNL     1     -11.147  15.473  64.541  1.00  0.00    -0.274 C  
BRANCH  15  16
HETATM   16  C   UNL     1     -10.693  16.456  65.625  1.00  0.00    -0.270 C  
BRANCH  16  17
HETATM   17  N   UNL     1     -10.136  15.823  66.810  1.00  0.00    -0.264 N  
HETATM   18  C   UNL     1      -9.913  16.547  67.955  1.00  0.00    -0.245 C  
HETATM   19  H   UNL     1      -9.908  14.829  66.790  1.00  0.00     0.000 HD 
HETATM   20  O   UNL     1     -10.054  17.765  68.023  1.00  0.00    -0.317 OA 
BRANCH  18  21
HETATM   21  C   UNL     1      -9.383  15.770  69.142  1.00  0.00    -0.258 C  
BRANCH  21  22
HETATM   22  N   UNL     1      -7.926  15.578  68.982  1.00  0.00    -0.186 NA 
HETATM   23  C   UNL     1      -7.064  16.440  69.579  1.00  0.00    -0.117 A  
HETATM   24  C   UNL     1      -5.693  16.290  69.421  1.00  0.00    -0.138 A  
HETATM   25  C   UNL     1      -5.206  15.235  68.663  1.00  0.00    -0.092 A  
HETATM   26  C   UNL     1      -6.098  14.350  68.073  1.00  0.00    -0.157 A  
HETATM   27  C   UNL     1      -7.463  14.542  68.247  1.00  0.00    -0.120 A  
ENDBRANCH  21  22
ENDBRANCH  18  21
ENDBRANCH  16  17
ENDBRANCH  15  16
ENDBRANCH  14  15
ENDBRANCH  12  14
ENDBRANCH  11  12
ENDBRANCH  10  11
ENDBRANCH   9  10
ENDBRANCH   8   9
ENDBRANCH   7   8
ENDBRANCH   6   7
ENDBRANCH   5   6
ENDBRANCH   4   5
ENDBRANCH   3   4
ENDBRANCH   2   3
TORSDOF 16
ENDMDL
MODEL      346
REMARK 921   NORMALIZED FREE ENERGY PREDICTED BY IDOCK:   -2.82 KCAL/MOL
REMARK 922        TOTAL FREE ENERGY PREDICTED BY IDOCK:   -7.53 KCAL/MOL
REMARK 923 INTER-LIGAND FREE ENERGY PREDICTED BY IDOCK:   -6.44 KCAL/MOL
REMARK 924 INTRA-LIGAND FREE ENERGY PREDICTED BY IDOCK:   -1.09 KCAL/MOL
REMARK 927      BINDING AFFINITY PREDICTED BY RF-SCORE:    0.00 PKD
ROOT
HETATM    1  C   UNL     1     -10.292   2.674  64.005  1.00  0.00    -0.043 C  
HETATM    2  C   UNL     1      -8.861   3.175  63.912  1.00  0.00    -0.092 C  
ENDROOT
BRANCH   2   3
HETATM    3  C   UNL     1      -8.504   4.044  65.116  1.00  0.00    -0.113 C  
BRANCH   3   4
HETATM    4  C   UNL     1      -7.486   5.118  64.741  1.00  0.00    -0.076 C  
BRANCH   4   5
HETATM    5  C   UNL     1      -8.105   6.511  64.843  1.00  0.00    -0.119 C  
BRANCH   5   6
HETATM    6  C   UNL     1      -7.512   7.277  66.019  1.00  0.00    -0.080 C  
BRANCH   6   7
HETATM    7  C   UNL     1      -6.693   8.477  65.552  1.00  0.00    -0.059 C  
BRANCH   7   8
HETATM    8  C   UNL     1      -7.467   9.763  65.831  1.00  0.00    -0.103 C  
BRANCH   8   9
HETATM    9  C   UNL     1      -7.682  10.581  64.566  1.00  0.00     0.031 C  
BRANCH   9  10
HETATM   10  C   UNL     1      -8.882  10.076  63.750  1.00  0.00    -0.250 C  
BRANCH  10  11
HETATM   11  C   UNL     1     -10.245  10.354  64.399  1.00  0.00    -0.245 C  
BRANCH  11  12
HETATM   12  C   UNL     1     -10.640  11.795  64.197  1.00  0.00    -0.353 C  
HETATM   13  O   UNL     1     -10.550  12.407  63.144  1.00  0.00    -0.337 OA 
BRANCH  12  14
HETATM   14  O   UNL     1     -11.283  12.251  65.307  1.00  0.00    -0.309 OA 
BRANCH  14  15
HETATM   15  C   UNL     1     -10.546  13.229  66.052  1.00  0.00    -0.286 C  
BRANCH  15  16
HETATM   16  C   UNL     1      -9.792  12.457  67.139  1.00  0.00    -0.205 C  
BRANCH  16  17
HETATM   17  N   UNL     1     -10.342  12.616  68.476  1.00  0.00    -0.268 N  
HETATM   18  C   UNL     1     -11.348  11.795  68.925  1.00  0.00    -0.267 C  
HETATM   19  H   UNL     1      -9.976  13.346  69.087  1.00  0.00     0.000 HD 
HETATM   20  O   UNL     1     -11.916  10.972  68.214  1.00  0.00    -0.593 OA 
BRANCH  18  21
HETATM   21  C   UNL     1     -11.801  12.018  70.353  1.00  0.00    -0.212 C  
BRANCH  21  22
HETATM   22  N   UNL     1     -11.924  10.710  71.030  1.00  0.00    -0.350 NA 
HETATM   23  C   UNL     1     -13.051  10.417  71.728  1.00  0.00    -0.462 A  
HETATM   24  C   UNL     1     -13.175   9.203  72.389  1.00  0.00    -0.512 A  
HETATM   25  C   UNL     1     -12.145   8.277  72.316  1.00  0.00    -0.439 A  
HETATM   26  C   UNL     1     -11.005   8.583  71.584  1.00  0.00    -0.362 A  
HETATM   27  C   UNL     1     -10.916   9.813  70.944  1.00  0.00    -0.341 A  
ENDBRANCH  21  22
ENDBRANCH  18  21
ENDBRANCH  16  17
ENDBRANCH  15  16
ENDBRANCH  14  15
ENDBRANCH  12  14
ENDBRANCH  11  12
ENDBRANCH  10  11
ENDBRANCH   9  10
ENDBRANCH   8   9
ENDBRANCH   7   8
ENDBRANCH   6   7
ENDBRANCH   5   6
ENDBRANCH   4   5
ENDBRANCH   3   4
ENDBRANCH   2   3
TORSDOF 16
ENDMDL
MODEL      347
REMARK 921   NORMALIZED FREE ENERGY PREDICTED BY IDOCK:   -2.81 KCAL/MOL
REMARK 922        TOTAL FREE ENERGY PREDICTED BY IDOCK:   -7.52 KCAL/MOL
REMARK 923 INTER-LIGAND FREE ENERGY PREDICTED BY IDOCK:   -4.99 KCAL/MOL
REMARK 924 INTRA-LIGAND FREE ENERGY PREDICTED BY IDOCK:   -2.53 KCAL/MOL
REMARK 927      BINDING AFFINITY PREDICTED BY RF-SCORE:    0.00 PKD
ROOT
HETATM    1  C   UNL     1      -6.298   7.062  70.541  1.00  0.00    -0.039 C  
HETATM    2  C   UNL     1      -6.237   8.164  69.497  1.00  0.00    -0.033 C  
ENDROOT
BRANCH   2   3
HETATM    3  C   UNL     1      -7.604   8.821  69.313  1.00  0.00    -0.093 C  
BRANCH   3   4
HETATM    4  C   UNL     1      -7.463  10.294  68.940  1.00  0.00    -0.094 C  
BRANCH   4   5
HETATM    5  C   UNL     1      -6.549  11.019  69.927  1.00  0.00    -0.142 C  
BRANCH   5   6
HETATM    6  C   UNL     1      -6.308  12.455  69.479  1.00  0.00    -0.116 C  
BRANCH   6   7
HETATM    7  C   UNL     1      -6.816  12.694  68.060  1.00  0.00    -0.095 C  
BRANCH   7   8
HETATM    8  C   UNL     1      -7.140  14.174  67.876  1.00  0.00    -0.168 C  
BRANCH   8   9
HETATM    9  C   UNL     1      -8.635  14.443  67.969  1.00  0.00    -0.166 C  
BRANCH   9  10
HETATM   10  C   UNL     1      -9.469  13.241  67.498  1.00  0.00    -0.220 C  
BRANCH  10  11
HETATM   11  C   UNL     1     -10.681  12.931  68.388  1.00  0.00    -0.273 C  
BRANCH  11  12
HETATM   12  C   UNL     1     -11.593  11.942  67.706  1.00  0.00    -0.323 C  
HETATM   13  O   UNL     1     -11.695  11.798  66.497  1.00  0.00    -0.530 OA 
BRANCH  12  14
HETATM   14  O   UNL     1     -12.140  11.112  68.636  1.00  0.00    -0.556 OA 
BRANCH  14  15
HETATM   15  C   UNL     1     -11.252  10.762  69.705  1.00  0.00    -0.297 C  
BRANCH  15  16
HETATM   16  C   UNL     1     -11.283   9.233  69.802  1.00  0.00    -0.085 C  
BRANCH  16  17
HETATM   17  N   UNL     1     -11.018   8.550  68.547  1.00  0.00    -0.436 N  
HETATM   18  C   UNL     1     -11.055   7.179  68.470  1.00  0.00     0.058 C  
HETATM   19  H   UNL     1     -10.801   9.095  67.712  1.00  0.00     0.000 HD 
HETATM   20  O   UNL     1     -11.196   6.452  69.449  1.00  0.00    -0.359 OA 
BRANCH  18  21
HETATM   21  C   UNL     1     -10.818   6.582  67.098  1.00  0.00    -0.401 C  
BRANCH  21  22
HETATM   22  N   UNL     1      -9.372   6.628  66.795  1.00  0.00    -0.153 NA 
HETATM   23  C   UNL     1      -8.887   7.595  65.975  1.00  0.00    -0.155 A  
HETATM   24  C   UNL     1      -7.536   7.642  65.660  1.00  0.00    -0.079 A  
HETATM   25  C   UNL     1      -6.676   6.701  66.208  1.00  0.00    -0.049 A  
HETATM   26  C   UNL     1      -7.182   5.728  67.059  1.00  0.00    -0.075 A  
HETATM   27  C   UNL     1      -8.542   5.711  67.341  1.00  0.00    -0.109 A  
ENDBRANCH  21  22
ENDBRANCH  18  21
ENDBRANCH  16  17
ENDBRANCH  15  16
ENDBRANCH  14  15
ENDBRANCH  12  14
ENDBRANCH  11  12
ENDBRANCH  10  11
ENDBRANCH   9  10
ENDBRANCH   8   9
ENDBRANCH   7   8
ENDBRANCH   6   7
ENDBRANCH   5   6
ENDBRANCH   4   5
ENDBRANCH   3   4
ENDBRANCH   2   3
TORSDOF 16
ENDMDL
MODEL      348
REMARK 921   NORMALIZED FREE ENERGY PREDICTED BY IDOCK:   -2.81 KCAL/MOL
REMARK 922        TOTAL FREE ENERGY PREDICTED BY IDOCK:   -7.52 KCAL/MOL
REMARK 923 INTER-LIGAND FREE ENERGY PREDICTED BY IDOCK:   -6.90 KCAL/MOL
REMARK 924 INTRA-LIGAND FREE ENERGY PREDICTED BY IDOCK:   -0.62 KCAL/MOL
REMARK 927      BINDING AFFINITY PREDICTED BY RF-SCORE:    0.00 PKD
ROOT
HETATM    1  C   UNL     1     -12.773   9.750  71.928  1.00  0.00    -0.501 C  
HETATM    2  C   UNL     1     -12.732  11.035  71.119  1.00  0.00    -0.521 C  
ENDROOT
BRANCH   2   3
HETATM    3  C   UNL     1     -13.283  12.209  71.925  1.00  0.00    -0.474 C  
BRANCH   3   4
HETATM    4  C   UNL     1     -12.873  13.544  71.309  1.00  0.00    -0.420 C  
BRANCH   4   5
HETATM    5  C   UNL     1     -12.128  13.328  69.992  1.00  0.00    -0.385 C  
BRANCH   5   6
HETATM    6  C   UNL     1     -11.333  14.571  69.616  1.00  0.00    -0.314 C  
BRANCH   6   7
HETATM    7  C   UNL     1     -11.649  15.032  68.195  1.00  0.00    -0.360 C  
BRANCH   7   8
HETATM    8  C   UNL     1     -10.378  15.554  67.531  1.00  0.00    -0.271 C  
BRANCH   8   9
HETATM    9  C   UNL     1     -10.638  16.046  66.115  1.00  0.00    -0.302 C  
BRANCH   9  10
HETATM   10  C   UNL     1     -11.185  14.932  65.208  1.00  0.00    -0.369 C  
BRANCH  10  11
HETATM   11  C   UNL     1     -10.201  13.780  64.965  1.00  0.00    -0.370 C  
BRANCH  11  12
HETATM   12  C   UNL     1     -10.846  12.706  64.125  1.00  0.00    -0.396 C  
HETATM   13  O   UNL     1     -12.048  12.580  63.948  1.00  0.00    -0.417 OA 
BRANCH  12  14
HETATM   14  O   UNL     1      -9.884  12.020  63.448  1.00  0.00    -0.390 OA 
BRANCH  14  15
HETATM   15  C   UNL     1      -9.964  10.597  63.597  1.00  0.00    -0.301 C  
BRANCH  15  16
HETATM   16  C   UNL     1      -8.942  10.224  64.676  1.00  0.00    -0.211 C  
BRANCH  16  17
HETATM   17  N   UNL     1      -9.071   8.866  65.177  1.00  0.00    -0.403 N  
HETATM   18  C   UNL     1      -8.288   7.854  64.677  1.00  0.00    -0.038 C  
HETATM   19  H   UNL     1      -9.750   8.661  65.910  1.00  0.00     0.000 HD 
HETATM   20  O   UNL     1      -7.531   7.995  63.721  1.00  0.00    -0.105 OA 
BRANCH  18  21
HETATM   21  C   UNL     1      -8.471   6.492  65.316  1.00  0.00    -0.087 C  
BRANCH  21  22
HETATM   22  N   UNL     1      -7.383   6.267  66.291  1.00  0.00    -0.079 NA 
HETATM   23  C   UNL     1      -7.136   5.012  66.745  1.00  0.00    -0.069 A  
HETATM   24  C   UNL     1      -6.134   4.784  67.678  1.00  0.00    -0.031 A  
HETATM   25  C   UNL     1      -5.369   5.849  68.131  1.00  0.00    -0.004 A  
HETATM   26  C   UNL     1      -5.621   7.125  67.646  1.00  0.00    -0.024 A  
HETATM   27  C   UNL     1      -6.640   7.312  66.720  1.00  0.00    -0.056 A  
ENDBRANCH  21  22
ENDBRANCH  18  21
ENDBRANCH  16  17
ENDBRANCH  15  16
ENDBRANCH  14  15
ENDBRANCH  12  14
ENDBRANCH  11  12
ENDBRANCH  10  11
ENDBRANCH   9  10
ENDBRANCH   8   9
ENDBRANCH   7   8
ENDBRANCH   6   7
ENDBRANCH   5   6
ENDBRANCH   4   5
ENDBRANCH   3   4
ENDBRANCH   2   3
TORSDOF 16
ENDMDL
MODEL      349
REMARK 921   NORMALIZED FREE ENERGY PREDICTED BY IDOCK:   -2.80 KCAL/MOL
REMARK 922        TOTAL FREE ENERGY PREDICTED BY IDOCK:   -7.50 KCAL/MOL
REMARK 923 INTER-LIGAND FREE ENERGY PREDICTED BY IDOCK:   -6.51 KCAL/MOL
REMARK 924 INTRA-LIGAND FREE ENERGY PREDICTED BY IDOCK:   -0.99 KCAL/MOL
REMARK 927      BINDING AFFINITY PREDICTED BY RF-SCORE:    0.00 PKD
ROOT
HETATM    1  C   UNL     1      -9.555   3.597  69.226  1.00  0.00    -0.185 C  
HETATM    2  C   UNL     1      -8.932   4.709  68.399  1.00  0.00    -0.140 C  
ENDROOT
BRANCH   2   3
HETATM    3  C   UNL     1      -9.481   6.073  68.811  1.00  0.00    -0.137 C  
BRANCH   3   4
HETATM    4  C   UNL     1      -9.914   6.886  67.595  1.00  0.00    -0.180 C  
BRANCH   4   5
HETATM    5  C   UNL     1      -9.358   6.276  66.309  1.00  0.00    -0.155 C  
BRANCH   5   6
HETATM    6  C   UNL     1      -8.571   7.315  65.520  1.00  0.00    -0.090 C  
BRANCH   6   7
HETATM    7  C   UNL     1      -7.791   8.248  66.442  1.00  0.00    -0.095 C  
BRANCH   7   8
HETATM    8  C   UNL     1      -7.492   9.555  65.713  1.00  0.00    -0.100 C  
BRANCH   8   9
HETATM    9  C   UNL     1      -6.949  10.620  66.656  1.00  0.00    -0.119 C  
BRANCH   9  10
HETATM   10  C   UNL     1      -7.338  10.349  68.118  1.00  0.00    -0.088 C  
BRANCH  10  11
HETATM   11  C   UNL     1      -8.378  11.326  68.682  1.00  0.00    -0.146 C  
BRANCH  11  12
HETATM   12  C   UNL     1      -9.727  10.657  68.781  1.00  0.00    -0.189 C  
HETATM   13  O   UNL     1     -10.015   9.769  69.567  1.00  0.00    -0.187 OA 
BRANCH  12  14
HETATM   14  O   UNL     1     -10.621  11.319  67.995  1.00  0.00    -0.181 OA 
BRANCH  14  15
HETATM   15  C   UNL     1     -11.776  11.797  68.696  1.00  0.00    -0.330 C  
BRANCH  15  16
HETATM   16  C   UNL     1     -11.455  13.236  69.115  1.00  0.00    -0.305 C  
BRANCH  16  17
HETATM   17  N   UNL     1     -10.688  13.986  68.135  1.00  0.00    -0.241 N  
HETATM   18  C   UNL     1     -10.925  15.324  67.930  1.00  0.00    -0.306 C  
HETATM   19  H   UNL     1      -9.964  13.515  67.593  1.00  0.00     0.000 HD 
HETATM   20  O   UNL     1     -11.849  15.934  68.459  1.00  0.00    -0.366 OA 
BRANCH  18  21
HETATM   21  C   UNL     1     -10.025  16.013  66.926  1.00  0.00    -0.251 C  
BRANCH  21  22
HETATM   22  N   UNL     1     -10.027  17.467  67.194  1.00  0.00    -0.303 NA 
HETATM   23  C   UNL     1     -10.322  18.335  66.193  1.00  0.00    -0.398 A  
HETATM   24  C   UNL     1     -10.307  19.705  66.419  1.00  0.00    -0.609 A  
HETATM   25  C   UNL     1     -10.007  20.183  67.686  1.00  0.00    -0.560 A  
HETATM   26  C   UNL     1      -9.725  19.283  68.705  1.00  0.00    -0.510 A  
HETATM   27  C   UNL     1      -9.741  17.921  68.434  1.00  0.00    -0.340 A  
ENDBRANCH  21  22
ENDBRANCH  18  21
ENDBRANCH  16  17
ENDBRANCH  15  16
ENDBRANCH  14  15
ENDBRANCH  12  14
ENDBRANCH  11  12
ENDBRANCH  10  11
ENDBRANCH   9  10
ENDBRANCH   8   9
ENDBRANCH   7   8
ENDBRANCH   6   7
ENDBRANCH   5   6
ENDBRANCH   4   5
ENDBRANCH   3   4
ENDBRANCH   2   3
TORSDOF 16
ENDMDL
MODEL      350
REMARK 921   NORMALIZED FREE ENERGY PREDICTED BY IDOCK:   -2.77 KCAL/MOL
REMARK 922        TOTAL FREE ENERGY PREDICTED BY IDOCK:   -7.45 KCAL/MOL
REMARK 923 INTER-LIGAND FREE ENERGY PREDICTED BY IDOCK:   -6.49 KCAL/MOL
REMARK 924 INTRA-LIGAND FREE ENERGY PREDICTED BY IDOCK:   -0.96 KCAL/MOL
REMARK 927      BINDING AFFINITY PREDICTED BY RF-SCORE:    0.00 PKD
ROOT
HETATM    1  C   UNL     1      -9.182   2.180  68.035  1.00  0.00    -0.242 C  
HETATM    2  C   UNL     1      -7.779   2.512  67.555  1.00  0.00    -0.061 C  
ENDROOT
BRANCH   2   3
HETATM    3  C   UNL     1      -7.802   3.646  66.532  1.00  0.00    -0.088 C  
BRANCH   3   4
HETATM    4  C   UNL     1      -9.193   3.815  65.926  1.00  0.00    -0.159 C  
BRANCH   4   5
HETATM    5  C   UNL     1      -9.324   5.174  65.239  1.00  0.00    -0.053 C  
BRANCH   5   6
HETATM    6  C   UNL     1      -7.963   5.672  64.772  1.00  0.00    -0.119 C  
BRANCH   6   7
HETATM    7  C   UNL     1      -7.762   7.149  65.102  1.00  0.00    -0.116 C  
BRANCH   7   8
HETATM    8  C   UNL     1      -8.647   7.534  66.284  1.00  0.00    -0.153 C  
BRANCH   8   9
HETATM    9  C   UNL     1      -8.775   9.044  66.429  1.00  0.00    -0.149 C  
BRANCH   9  10
HETATM   10  C   UNL     1      -9.308   9.449  67.812  1.00  0.00    -0.144 C  
BRANCH  10  11
HETATM   11  C   UNL     1      -9.512  10.960  67.989  1.00  0.00    -0.167 C  
BRANCH  11  12
HETATM   12  C   UNL     1     -10.761  11.408  67.271  1.00  0.00    -0.241 C  
HETATM   13  O   UNL     1     -11.900  11.266  67.687  1.00  0.00    -0.614 OA 
BRANCH  12  14
HETATM   14  O   UNL     1     -10.417  12.159  66.188  1.00  0.00    -0.237 OA 
BRANCH  14  15
HETATM   15  C   UNL     1     -11.422  12.211  65.168  1.00  0.00    -0.323 C  
BRANCH  15  16
HETATM   16  C   UNL     1     -11.179  13.512  64.396  1.00  0.00    -0.379 C  
BRANCH  16  17
HETATM   17  N   UNL     1     -10.100  14.329  64.927  1.00  0.00    -0.548 N  
HETATM   18  C   UNL     1     -10.275  15.674  65.141  1.00  0.00    -0.262 C  
HETATM   19  H   UNL     1      -9.201  13.898  65.143  1.00  0.00     0.000 HD 
HETATM   20  O   UNL     1     -11.284  16.286  64.802  1.00  0.00    -0.461 OA 
BRANCH  18  21
HETATM   21  C   UNL     1      -9.100  16.410  65.750  1.00  0.00    -0.043 C  
BRANCH  21  22
HETATM   22  N   UNL     1      -9.606  17.448  66.673  1.00  0.00    -0.263 NA 
HETATM   23  C   UNL     1      -9.841  17.135  67.973  1.00  0.00    -0.283 A  
HETATM   24  C   UNL     1     -10.338  18.089  68.850  1.00  0.00    -0.244 A  
HETATM   25  C   UNL     1     -10.576  19.377  68.392  1.00  0.00    -0.217 A  
HETATM   26  C   UNL     1     -10.315  19.688  67.065  1.00  0.00    -0.581 A  
HETATM   27  C   UNL     1      -9.827  18.701  66.218  1.00  0.00    -0.342 A  
ENDBRANCH  21  22
ENDBRANCH  18  21
ENDBRANCH  16  17
ENDBRANCH  15  16
ENDBRANCH  14  15
ENDBRANCH  12  14
ENDBRANCH  11  12
ENDBRANCH  10  11
ENDBRANCH   9  10
ENDBRANCH   8   9
ENDBRANCH   7   8
ENDBRANCH   6   7
ENDBRANCH   5   6
ENDBRANCH   4   5
ENDBRANCH   3   4
ENDBRANCH   2   3
TORSDOF 16
ENDMDL
MODEL      351
REMARK 921   NORMALIZED FREE ENERGY PREDICTED BY IDOCK:   -2.77 KCAL/MOL
REMARK 922        TOTAL FREE ENERGY PREDICTED BY IDOCK:   -7.43 KCAL/MOL
REMARK 923 INTER-LIGAND FREE ENERGY PREDICTED BY IDOCK:   -6.31 KCAL/MOL
REMARK 924 INTRA-LIGAND FREE ENERGY PREDICTED BY IDOCK:   -1.12 KCAL/MOL
REMARK 927      BINDING AFFINITY PREDICTED BY RF-SCORE:    0.00 PKD
ROOT
HETATM    1  C   UNL     1     -11.778  14.714  65.027  1.00  0.00    -0.385 C  
HETATM    2  C   UNL     1     -12.791  13.582  64.997  1.00  0.00    -0.330 C  
ENDROOT
BRANCH   2   3
HETATM    3  C   UNL     1     -12.098  12.229  64.845  1.00  0.00    -0.422 C  
BRANCH   3   4
HETATM    4  C   UNL     1     -11.556  12.042  63.430  1.00  0.00    -0.495 C  
BRANCH   4   5
HETATM    5  C   UNL     1     -10.048  11.800  63.455  1.00  0.00    -0.470 C  
BRANCH   5   6
HETATM    6  C   UNL     1      -9.745  10.317  63.620  1.00  0.00    -0.276 C  
BRANCH   6   7
HETATM    7  C   UNL     1      -9.185  10.009  65.006  1.00  0.00    -0.277 C  
BRANCH   7   8
HETATM    8  C   UNL     1      -7.660  10.050  64.963  1.00  0.00    -0.139 C  
BRANCH   8   9
HETATM    9  C   UNL     1      -7.112   9.452  63.674  1.00  0.00    -0.101 C  
BRANCH   9  10
HETATM   10  C   UNL     1      -6.825   7.949  63.812  1.00  0.00    -0.063 C  
BRANCH  10  11
HETATM   11  C   UNL     1      -7.388   7.095  62.668  1.00  0.00    -0.084 C  
BRANCH  11  12
HETATM   12  C   UNL     1      -7.354   5.633  63.038  1.00  0.00    -0.054 C  
HETATM   13  O   UNL     1      -6.544   4.820  62.620  1.00  0.00    -0.025 OA 
BRANCH  12  14
HETATM   14  O   UNL     1      -8.238   5.400  64.048  1.00  0.00    -0.122 OA 
BRANCH  14  15
HETATM   15  C   UNL     1      -9.263   4.452  63.723  1.00  0.00    -0.118 C  
BRANCH  15  16
HETATM   16  C   UNL     1      -9.918   4.061  65.052  1.00  0.00    -0.201 C  
BRANCH  16  17
HETATM   17  N   UNL     1     -10.682   5.127  65.678  1.00  0.00    -0.587 N  
HETATM   18  C   UNL     1     -10.201   5.781  66.786  1.00  0.00    -0.221 C  
HETATM   19  H   UNL     1     -11.587   5.392  65.290  1.00  0.00     0.000 HD 
HETATM   20  O   UNL     1      -9.179   5.446  67.376  1.00  0.00    -0.111 OA 
BRANCH  18  21
HETATM   21  C   UNL     1     -11.058   6.912  67.316  1.00  0.00    -0.285 C  
BRANCH  21  22
HETATM   22  N   UNL     1     -10.765   7.107  68.752  1.00  0.00    -0.198 NA 
HETATM   23  C   UNL     1     -11.317   6.275  69.671  1.00  0.00    -0.422 A  
HETATM   24  C   UNL     1     -11.071   6.456  71.025  1.00  0.00    -0.349 A  
HETATM   25  C   UNL     1     -10.238   7.487  71.434  1.00  0.00    -0.201 A  
HETATM   26  C   UNL     1      -9.666   8.320  70.483  1.00  0.00    -0.185 A  
HETATM   27  C   UNL     1      -9.945   8.110  69.138  1.00  0.00    -0.192 A  
ENDBRANCH  21  22
ENDBRANCH  18  21
ENDBRANCH  16  17
ENDBRANCH  15  16
ENDBRANCH  14  15
ENDBRANCH  12  14
ENDBRANCH  11  12
ENDBRANCH  10  11
ENDBRANCH   9  10
ENDBRANCH   8   9
ENDBRANCH   7   8
ENDBRANCH   6   7
ENDBRANCH   5   6
ENDBRANCH   4   5
ENDBRANCH   3   4
ENDBRANCH   2   3
TORSDOF 16
ENDMDL
MODEL      352
REMARK 921   NORMALIZED FREE ENERGY PREDICTED BY IDOCK:   -2.76 KCAL/MOL
REMARK 922        TOTAL FREE ENERGY PREDICTED BY IDOCK:   -7.43 KCAL/MOL
REMARK 923 INTER-LIGAND FREE ENERGY PREDICTED BY IDOCK:   -6.16 KCAL/MOL
REMARK 924 INTRA-LIGAND FREE ENERGY PREDICTED BY IDOCK:   -1.27 KCAL/MOL
REMARK 927      BINDING AFFINITY PREDICTED BY RF-SCORE:    0.00 PKD
ROOT
HETATM    1  C   UNL     1      -6.687   7.828  63.535  1.00  0.00    -0.062 C  
HETATM    2  C   UNL     1      -6.632   8.829  62.394  1.00  0.00    -0.095 C  
ENDROOT
BRANCH   2   3
HETATM    3  C   UNL     1      -6.932  10.242  62.890  1.00  0.00    -0.129 C  
BRANCH   3   4
HETATM    4  C   UNL     1      -8.419  10.567  62.768  1.00  0.00    -0.208 C  
BRANCH   4   5
HETATM    5  C   UNL     1      -9.080  10.605  64.145  1.00  0.00    -0.245 C  
BRANCH   5   6
HETATM    6  C   UNL     1     -10.538  11.029  64.028  1.00  0.00    -0.395 C  
BRANCH   6   7
HETATM    7  C   UNL     1     -10.673  12.411  63.396  1.00  0.00    -0.398 C  
BRANCH   7   8
HETATM    8  C   UNL     1     -12.096  12.928  63.592  1.00  0.00    -0.611 C  
BRANCH   8   9
HETATM    9  C   UNL     1     -12.162  14.019  64.651  1.00  0.00    -0.460 C  
BRANCH   9  10
HETATM   10  C   UNL     1     -12.518  13.457  66.037  1.00  0.00    -0.431 C  
BRANCH  10  11
HETATM   11  C   UNL     1     -11.323  13.339  66.993  1.00  0.00    -0.346 C  
BRANCH  11  12
HETATM   12  C   UNL     1     -11.571  12.255  68.012  1.00  0.00    -0.349 C  
HETATM   13  O   UNL     1     -12.001  12.437  69.141  1.00  0.00    -0.290 OA 
BRANCH  12  14
HETATM   14  O   UNL     1     -11.425  11.036  67.423  1.00  0.00    -0.475 OA 
BRANCH  14  15
HETATM   15  C   UNL     1     -10.136  10.441  67.620  1.00  0.00    -0.188 C  
BRANCH  15  16
HETATM   16  C   UNL     1     -10.377   8.932  67.737  1.00  0.00    -0.242 C  
BRANCH  16  17
HETATM   17  N   UNL     1      -9.914   8.348  68.985  1.00  0.00    -0.185 N  
HETATM   18  C   UNL     1     -10.493   7.207  69.486  1.00  0.00    -0.225 C  
HETATM   19  H   UNL     1      -9.149   8.790  69.495  1.00  0.00     0.000 HD 
HETATM   20  O   UNL     1     -11.486   6.682  68.993  1.00  0.00    -0.219 OA 
BRANCH  18  21
HETATM   21  C   UNL     1      -9.889   6.660  70.762  1.00  0.00    -0.183 C  
BRANCH  21  22
HETATM   22  N   UNL     1      -8.537   6.137  70.471  1.00  0.00    -0.136 NA 
HETATM   23  C   UNL     1      -8.378   5.168  69.535  1.00  0.00    -0.093 A  
HETATM   24  C   UNL     1      -7.120   4.648  69.263  1.00  0.00    -0.052 A  
HETATM   25  C   UNL     1      -6.017   5.142  69.944  1.00  0.00    -0.017 A  
HETATM   26  C   UNL     1      -6.191   6.146  70.887  1.00  0.00    -0.039 A  
HETATM   27  C   UNL     1      -7.469   6.632  71.136  1.00  0.00    -0.084 A  
ENDBRANCH  21  22
ENDBRANCH  18  21
ENDBRANCH  16  17
ENDBRANCH  15  16
ENDBRANCH  14  15
ENDBRANCH  12  14
ENDBRANCH  11  12
ENDBRANCH  10  11
ENDBRANCH   9  10
ENDBRANCH   8   9
ENDBRANCH   7   8
ENDBRANCH   6   7
ENDBRANCH   5   6
ENDBRANCH   4   5
ENDBRANCH   3   4
ENDBRANCH   2   3
TORSDOF 16
ENDMDL
MODEL      353
REMARK 921   NORMALIZED FREE ENERGY PREDICTED BY IDOCK:   -2.75 KCAL/MOL
REMARK 922        TOTAL FREE ENERGY PREDICTED BY IDOCK:   -7.41 KCAL/MOL
REMARK 923 INTER-LIGAND FREE ENERGY PREDICTED BY IDOCK:   -6.42 KCAL/MOL
REMARK 924 INTRA-LIGAND FREE ENERGY PREDICTED BY IDOCK:   -0.99 KCAL/MOL
REMARK 927      BINDING AFFINITY PREDICTED BY RF-SCORE:    0.00 PKD
ROOT
HETATM    1  C   UNL     1     -12.900  14.730  72.844  1.00  0.00    -0.559 C  
HETATM    2  C   UNL     1     -13.542  13.669  71.967  1.00  0.00    -0.585 C  
ENDROOT
BRANCH   2   3
HETATM    3  C   UNL     1     -12.576  12.515  71.705  1.00  0.00    -0.119 C  
BRANCH   3   4
HETATM    4  C   UNL     1     -12.279  12.370  70.215  1.00  0.00    -0.345 C  
BRANCH   4   5
HETATM    5  C   UNL     1     -11.881  13.714  69.607  1.00  0.00    -0.396 C  
BRANCH   5   6
HETATM    6  C   UNL     1     -12.155  13.727  68.109  1.00  0.00    -0.316 C  
BRANCH   6   7
HETATM    7  C   UNL     1     -11.278  14.746  67.386  1.00  0.00    -0.346 C  
BRANCH   7   8
HETATM    8  C   UNL     1     -10.328  14.020  66.437  1.00  0.00    -0.289 C  
BRANCH   8   9
HETATM    9  C   UNL     1      -9.516  12.951  67.155  1.00  0.00    -0.229 C  
BRANCH   9  10
HETATM   10  C   UNL     1      -8.331  13.548  67.929  1.00  0.00    -0.175 C  
BRANCH  10  11
HETATM   11  C   UNL     1      -7.157  12.579  68.128  1.00  0.00    -0.103 C  
BRANCH  11  12
HETATM   12  C   UNL     1      -6.644  12.659  69.543  1.00  0.00    -0.032 C  
HETATM   13  O   UNL     1      -6.375  13.693  70.136  1.00  0.00    -0.120 OA 
BRANCH  12  14
HETATM   14  O   UNL     1      -6.704  11.427  70.119  1.00  0.00    -0.136 OA 
BRANCH  14  15
HETATM   15  C   UNL     1      -7.650  10.540  69.509  1.00  0.00    -0.145 C  
BRANCH  15  16
HETATM   16  C   UNL     1      -7.673   9.278  70.379  1.00  0.00    -0.143 C  
BRANCH  16  17
HETATM   17  N   UNL     1      -9.006   8.767  70.654  1.00  0.00    -0.168 N  
HETATM   18  C   UNL     1      -9.631   7.921  69.771  1.00  0.00    -0.167 C  
HETATM   19  H   UNL     1      -9.482   9.040  71.514  1.00  0.00     0.000 HD 
HETATM   20  O   UNL     1      -9.174   7.638  68.669  1.00  0.00    -0.142 OA 
BRANCH  18  21
HETATM   21  C   UNL     1     -10.993   7.409  70.192  1.00  0.00    -0.255 C  
BRANCH  21  22
HETATM   22  N   UNL     1     -10.816   6.259  71.104  1.00  0.00    -0.254 NA 
HETATM   23  C   UNL     1     -11.551   6.184  72.243  1.00  0.00    -0.313 A  
HETATM   24  C   UNL     1     -11.382   5.124  73.123  1.00  0.00    -0.385 A  
HETATM   25  C   UNL     1     -10.467   4.126  72.821  1.00  0.00    -0.241 A  
HETATM   26  C   UNL     1      -9.734   4.207  71.645  1.00  0.00    -0.246 A  
HETATM   27  C   UNL     1      -9.926   5.289  70.796  1.00  0.00    -0.211 A  
ENDBRANCH  21  22
ENDBRANCH  18  21
ENDBRANCH  16  17
ENDBRANCH  15  16
ENDBRANCH  14  15
ENDBRANCH  12  14
ENDBRANCH  11  12
ENDBRANCH  10  11
ENDBRANCH   9  10
ENDBRANCH   8   9
ENDBRANCH   7   8
ENDBRANCH   6   7
ENDBRANCH   5   6
ENDBRANCH   4   5
ENDBRANCH   3   4
ENDBRANCH   2   3
TORSDOF 16
ENDMDL
MODEL      354
REMARK 921   NORMALIZED FREE ENERGY PREDICTED BY IDOCK:   -2.75 KCAL/MOL
REMARK 922        TOTAL FREE ENERGY PREDICTED BY IDOCK:   -7.40 KCAL/MOL
REMARK 923 INTER-LIGAND FREE ENERGY PREDICTED BY IDOCK:   -6.04 KCAL/MOL
REMARK 924 INTRA-LIGAND FREE ENERGY PREDICTED BY IDOCK:   -1.36 KCAL/MOL
REMARK 927      BINDING AFFINITY PREDICTED BY RF-SCORE:    0.00 PKD
ROOT
HETATM    1  C   UNL     1     -11.337  16.705  68.028  1.00  0.00    -0.052 C  
HETATM    2  C   UNL     1     -10.299  17.613  67.389  1.00  0.00    -0.360 C  
ENDROOT
BRANCH   2   3
HETATM    3  C   UNL     1      -9.384  18.229  68.445  1.00  0.00    -0.328 C  
BRANCH   3   4
HETATM    4  C   UNL     1      -7.934  18.256  67.972  1.00  0.00    -0.273 C  
BRANCH   4   5
HETATM    5  C   UNL     1      -7.695  17.200  66.893  1.00  0.00    -0.256 C  
BRANCH   5   6
HETATM    6  C   UNL     1      -6.222  16.815  66.836  1.00  0.00    -0.222 C  
BRANCH   6   7
HETATM    7  C   UNL     1      -5.536  17.015  68.185  1.00  0.00    -0.120 C  
BRANCH   7   8
HETATM    8  C   UNL     1      -5.130  15.660  68.758  1.00  0.00    -0.100 C  
BRANCH   8   9
HETATM    9  C   UNL     1      -5.437  14.522  67.795  1.00  0.00    -0.026 C  
BRANCH   9  10
HETATM   10  C   UNL     1      -6.430  13.513  68.392  1.00  0.00    -0.094 C  
BRANCH  10  11
HETATM   11  C   UNL     1      -5.769  12.354  69.150  1.00  0.00    -0.071 C  
BRANCH  11  12
HETATM   12  C   UNL     1      -6.417  11.044  68.777  1.00  0.00    -0.051 C  
HETATM   13  O   UNL     1      -5.826  10.062  68.355  1.00  0.00    -0.042 OA 
BRANCH  12  14
HETATM   14  O   UNL     1      -7.725  11.061  69.156  1.00  0.00    -0.131 OA 
BRANCH  14  15
HETATM   15  C   UNL     1      -8.391   9.800  69.018  1.00  0.00    -0.127 C  
BRANCH  15  16
HETATM   16  C   UNL     1      -9.850  10.043  69.420  1.00  0.00    -0.224 C  
BRANCH  16  17
HETATM   17  N   UNL     1     -10.304  11.410  69.225  1.00  0.00    -0.419 N  
HETATM   18  C   UNL     1     -11.642  11.719  69.257  1.00  0.00    -0.315 C  
HETATM   19  H   UNL     1      -9.620  12.149  69.062  1.00  0.00     0.000 HD 
HETATM   20  O   UNL     1     -12.528  10.873  69.335  1.00  0.00    -0.352 OA 
BRANCH  18  21
HETATM   21  C   UNL     1     -11.991  13.184  69.099  1.00  0.00    -0.281 C  
BRANCH  21  22
HETATM   22  N   UNL     1     -12.244  13.767  70.433  1.00  0.00    -0.346 NA 
HETATM   23  C   UNL     1     -11.391  14.697  70.934  1.00  0.00    -0.095 A  
HETATM   24  C   UNL     1     -11.598  15.239  72.194  1.00  0.00    -0.535 A  
HETATM   25  C   UNL     1     -12.701  14.838  72.936  1.00  0.00    -0.521 A  
HETATM   26  C   UNL     1     -13.574  13.899  72.405  1.00  0.00    -0.676 A  
HETATM   27  C   UNL     1     -13.325  13.374  71.143  1.00  0.00    -0.026 A  
ENDBRANCH  21  22
ENDBRANCH  18  21
ENDBRANCH  16  17
ENDBRANCH  15  16
ENDBRANCH  14  15
ENDBRANCH  12  14
ENDBRANCH  11  12
ENDBRANCH  10  11
ENDBRANCH   9  10
ENDBRANCH   8   9
ENDBRANCH   7   8
ENDBRANCH   6   7
ENDBRANCH   5   6
ENDBRANCH   4   5
ENDBRANCH   3   4
ENDBRANCH   2   3
TORSDOF 16
ENDMDL
MODEL      355
REMARK 921   NORMALIZED FREE ENERGY PREDICTED BY IDOCK:   -2.74 KCAL/MOL
REMARK 922        TOTAL FREE ENERGY PREDICTED BY IDOCK:   -7.38 KCAL/MOL
REMARK 923 INTER-LIGAND FREE ENERGY PREDICTED BY IDOCK:   -6.44 KCAL/MOL
REMARK 924 INTRA-LIGAND FREE ENERGY PREDICTED BY IDOCK:   -0.94 KCAL/MOL
REMARK 927      BINDING AFFINITY PREDICTED BY RF-SCORE:    0.00 PKD
ROOT
HETATM    1  C   UNL     1     -10.121  18.817  67.937  1.00  0.00    -0.415 C  
HETATM    2  C   UNL     1     -10.570  17.384  68.163  1.00  0.00    -0.376 C  
ENDROOT
BRANCH   2   3
HETATM    3  C   UNL     1      -9.487  16.396  67.736  1.00  0.00    -0.222 C  
BRANCH   3   4
HETATM    4  C   UNL     1      -9.516  16.161  66.228  1.00  0.00    -0.347 C  
BRANCH   4   5
HETATM    5  C   UNL     1     -10.955  16.053  65.724  1.00  0.00    -0.142 C  
BRANCH   5   6
HETATM    6  C   UNL     1     -11.456  14.619  65.834  1.00  0.00    -0.338 C  
BRANCH   6   7
HETATM    7  C   UNL     1     -12.295  14.222  64.623  1.00  0.00    -0.433 C  
BRANCH   7   8
HETATM    8  C   UNL     1     -11.974  12.783  64.227  1.00  0.00    -0.473 C  
BRANCH   8   9
HETATM    9  C   UNL     1     -10.585  12.365  64.688  1.00  0.00    -0.339 C  
BRANCH   9  10
HETATM   10  C   UNL     1      -9.963  11.309  63.762  1.00  0.00    -0.388 C  
BRANCH  10  11
HETATM   11  C   UNL     1      -9.523  10.025  64.479  1.00  0.00    -0.359 C  
BRANCH  11  12
HETATM   12  C   UNL     1      -8.582  10.353  65.611  1.00  0.00    -0.167 C  
HETATM   13  O   UNL     1      -7.431  10.740  65.479  1.00  0.00    -0.104 OA 
BRANCH  12  14
HETATM   14  O   UNL     1      -9.264  10.334  66.789  1.00  0.00    -0.154 OA 
BRANCH  14  15
HETATM   15  C   UNL     1      -8.525  10.847  67.904  1.00  0.00    -0.129 C  
BRANCH  15  16
HETATM   16  C   UNL     1      -8.275   9.656  68.835  1.00  0.00    -0.110 C  
BRANCH  16  17
HETATM   17  N   UNL     1      -9.313   8.639  68.796  1.00  0.00    -0.142 N  
HETATM   18  C   UNL     1     -10.218   8.516  69.822  1.00  0.00    -0.206 C  
HETATM   19  H   UNL     1      -9.371   8.009  67.996  1.00  0.00     0.000 HD 
HETATM   20  O   UNL     1     -10.146   9.159  70.865  1.00  0.00    -0.239 OA 
BRANCH  18  21
HETATM   21  C   UNL     1     -11.288   7.459  69.644  1.00  0.00     0.044 C  
BRANCH  21  22
HETATM   22  N   UNL     1     -10.640   6.152  69.406  1.00  0.00    -0.252 NA 
HETATM   23  C   UNL     1     -10.256   5.390  70.462  1.00  0.00    -0.256 A  
HETATM   24  C   UNL     1      -9.626   4.170  70.260  1.00  0.00    -0.269 A  
HETATM   25  C   UNL     1      -9.407   3.722  68.965  1.00  0.00    -0.240 A  
HETATM   26  C   UNL     1      -9.820   4.504  67.894  1.00  0.00    -0.162 A  
HETATM   27  C   UNL     1     -10.439   5.723  68.141  1.00  0.00    -0.217 A  
ENDBRANCH  21  22
ENDBRANCH  18  21
ENDBRANCH  16  17
ENDBRANCH  15  16
ENDBRANCH  14  15
ENDBRANCH  12  14
ENDBRANCH  11  12
ENDBRANCH  10  11
ENDBRANCH   9  10
ENDBRANCH   8   9
ENDBRANCH   7   8
ENDBRANCH   6   7
ENDBRANCH   5   6
ENDBRANCH   4   5
ENDBRANCH   3   4
ENDBRANCH   2   3
TORSDOF 16
ENDMDL
MODEL      356
REMARK 921   NORMALIZED FREE ENERGY PREDICTED BY IDOCK:   -2.73 KCAL/MOL
REMARK 922        TOTAL FREE ENERGY PREDICTED BY IDOCK:   -7.36 KCAL/MOL
REMARK 923 INTER-LIGAND FREE ENERGY PREDICTED BY IDOCK:   -6.02 KCAL/MOL
REMARK 924 INTRA-LIGAND FREE ENERGY PREDICTED BY IDOCK:   -1.34 KCAL/MOL
REMARK 927      BINDING AFFINITY PREDICTED BY RF-SCORE:    0.00 PKD
ROOT
HETATM    1  C   UNL     1      -7.756   9.231  70.003  1.00  0.00    -0.104 C  
HETATM    2  C   UNL     1      -9.206   9.429  70.411  1.00  0.00    -0.305 C  
ENDROOT
BRANCH   2   3
HETATM    3  C   UNL     1     -10.035   8.182  70.112  1.00  0.00    -0.187 C  
BRANCH   3   4
HETATM    4  C   UNL     1     -10.805   7.721  71.345  1.00  0.00    -0.257 C  
BRANCH   4   5
HETATM    5  C   UNL     1     -10.453   6.276  71.697  1.00  0.00    -0.258 C  
BRANCH   5   6
HETATM    6  C   UNL     1      -9.458   5.707  70.693  1.00  0.00    -0.203 C  
BRANCH   6   7
HETATM    7  C   UNL     1     -10.141   4.788  69.685  1.00  0.00    -0.275 C  
BRANCH   7   8
HETATM    8  C   UNL     1      -9.167   3.697  69.246  1.00  0.00    -0.231 C  
BRANCH   8   9
HETATM    9  C   UNL     1      -8.279   4.157  68.099  1.00  0.00    -0.094 C  
BRANCH   9  10
HETATM   10  C   UNL     1      -8.904   5.323  67.317  1.00  0.00    -0.105 C  
BRANCH  10  11
HETATM   11  C   UNL     1      -7.994   6.552  67.189  1.00  0.00    -0.112 C  
BRANCH  11  12
HETATM   12  C   UNL     1      -8.173   7.200  65.839  1.00  0.00    -0.132 C  
HETATM   13  O   UNL     1      -8.290   6.600  64.781  1.00  0.00    -0.108 OA 
BRANCH  12  14
HETATM   14  O   UNL     1      -8.375   8.537  66.000  1.00  0.00    -0.117 OA 
BRANCH  14  15
HETATM   15  C   UNL     1      -9.754   8.925  66.015  1.00  0.00    -0.238 C  
BRANCH  15  16
HETATM   16  C   UNL     1      -9.858  10.088  67.007  1.00  0.00    -0.189 C  
BRANCH  16  17
HETATM   17  N   UNL     1     -10.065  11.386  66.386  1.00  0.00    -0.211 N  
HETATM   18  C   UNL     1     -11.201  12.115  66.641  1.00  0.00    -0.324 C  
HETATM   19  H   UNL     1      -9.358  11.761  65.754  1.00  0.00     0.000 HD 
HETATM   20  O   UNL     1     -12.145  11.686  67.297  1.00  0.00    -0.595 OA 
BRANCH  18  21
HETATM   21  C   UNL     1     -11.280  13.477  65.983  1.00  0.00    -0.295 C  
BRANCH  21  22
HETATM   22  N   UNL     1     -10.885  14.510  66.964  1.00  0.00    -0.292 NA 
HETATM   23  C   UNL     1      -9.635  15.037  66.920  1.00  0.00    -0.239 A  
HETATM   24  C   UNL     1      -9.238  15.991  67.846  1.00  0.00    -0.196 A  
HETATM   25  C   UNL     1     -10.139  16.421  68.810  1.00  0.00    -0.247 A  
HETATM   26  C   UNL     1     -11.420  15.887  68.833  1.00  0.00    -0.386 A  
HETATM   27  C   UNL     1     -11.774  14.927  67.893  1.00  0.00    -0.321 A  
ENDBRANCH  21  22
ENDBRANCH  18  21
ENDBRANCH  16  17
ENDBRANCH  15  16
ENDBRANCH  14  15
ENDBRANCH  12  14
ENDBRANCH  11  12
ENDBRANCH  10  11
ENDBRANCH   9  10
ENDBRANCH   8   9
ENDBRANCH   7   8
ENDBRANCH   6   7
ENDBRANCH   5   6
ENDBRANCH   4   5
ENDBRANCH   3   4
ENDBRANCH   2   3
TORSDOF 16
ENDMDL
MODEL      357
REMARK 921   NORMALIZED FREE ENERGY PREDICTED BY IDOCK:   -2.72 KCAL/MOL
REMARK 922        TOTAL FREE ENERGY PREDICTED BY IDOCK:   -7.35 KCAL/MOL
REMARK 923 INTER-LIGAND FREE ENERGY PREDICTED BY IDOCK:   -6.18 KCAL/MOL
REMARK 924 INTRA-LIGAND FREE ENERGY PREDICTED BY IDOCK:   -1.17 KCAL/MOL
REMARK 927      BINDING AFFINITY PREDICTED BY RF-SCORE:    0.00 PKD
ROOT
HETATM    1  C   UNL     1     -10.716   2.661  73.333  1.00  0.00    -0.280 C  
HETATM    2  C   UNL     1     -10.505   3.985  72.617  1.00  0.00    -0.222 C  
ENDROOT
BRANCH   2   3
HETATM    3  C   UNL     1     -10.989   5.154  73.472  1.00  0.00    -0.370 C  
BRANCH   3   4
HETATM    4  C   UNL     1     -10.469   6.484  72.934  1.00  0.00    -0.246 C  
BRANCH   4   5
HETATM    5  C   UNL     1     -11.627   7.401  72.543  1.00  0.00    -0.319 C  
BRANCH   5   6
HETATM    6  C   UNL     1     -12.338   6.868  71.306  1.00  0.00    -0.422 C  
BRANCH   6   7
HETATM    7  C   UNL     1     -11.372   6.678  70.140  1.00  0.00    -0.440 C  
BRANCH   7   8
HETATM    8  C   UNL     1     -10.756   8.023  69.762  1.00  0.00    -0.231 C  
BRANCH   8   9
HETATM    9  C   UNL     1      -9.239   7.945  69.667  1.00  0.00    -0.153 C  
BRANCH   9  10
HETATM   10  C   UNL     1      -8.684   8.838  68.546  1.00  0.00    -0.135 C  
BRANCH  10  11
HETATM   11  C   UNL     1      -7.954   8.070  67.435  1.00  0.00    -0.122 C  
BRANCH  11  12
HETATM   12  C   UNL     1      -7.464   9.023  66.374  1.00  0.00    -0.092 C  
HETATM   13  O   UNL     1      -6.505   9.771  66.489  1.00  0.00    -0.068 OA 
BRANCH  12  14
HETATM   14  O   UNL     1      -8.131   8.789  65.210  1.00  0.00    -0.114 OA 
BRANCH  14  15
HETATM   15  C   UNL     1      -7.528   9.391  64.057  1.00  0.00    -0.113 C  
BRANCH  15  16
HETATM   16  C   UNL     1      -8.643   9.527  63.015  1.00  0.00    -0.217 C  
BRANCH  16  17
HETATM   17  N   UNL     1      -9.166  10.875  62.872  1.00  0.00    -0.298 N  
HETATM   18  C   UNL     1     -10.310  11.261  63.528  1.00  0.00    -0.408 C  
HETATM   19  H   UNL     1      -8.677  11.544  62.277  1.00  0.00     0.000 HD 
HETATM   20  O   UNL     1     -11.014  10.486  64.168  1.00  0.00     0.280 OA 
BRANCH  18  21
HETATM   21  C   UNL     1     -10.726  12.706  63.347  1.00  0.00    -0.173 C  
BRANCH  21  22
HETATM   22  N   UNL     1     -11.105  13.266  64.662  1.00  0.00    -0.339 NA 
HETATM   23  C   UNL     1     -12.412  13.508  64.938  1.00  0.00    -0.384 A  
HETATM   24  C   UNL     1     -12.786  14.055  66.158  1.00  0.00    -0.309 A  
HETATM   25  C   UNL     1     -11.812  14.337  67.106  1.00  0.00    -0.454 A  
HETATM   26  C   UNL     1     -10.481  14.068  66.816  1.00  0.00    -0.277 A  
HETATM   27  C   UNL     1     -10.149  13.529  65.580  1.00  0.00    -0.278 A  
ENDBRANCH  21  22
ENDBRANCH  18  21
ENDBRANCH  16  17
ENDBRANCH  15  16
ENDBRANCH  14  15
ENDBRANCH  12  14
ENDBRANCH  11  12
ENDBRANCH  10  11
ENDBRANCH   9  10
ENDBRANCH   8   9
ENDBRANCH   7   8
ENDBRANCH   6   7
ENDBRANCH   5   6
ENDBRANCH   4   5
ENDBRANCH   3   4
ENDBRANCH   2   3
TORSDOF 16
ENDMDL
MODEL      358
REMARK 921   NORMALIZED FREE ENERGY PREDICTED BY IDOCK:   -2.71 KCAL/MOL
REMARK 922        TOTAL FREE ENERGY PREDICTED BY IDOCK:   -7.32 KCAL/MOL
REMARK 923 INTER-LIGAND FREE ENERGY PREDICTED BY IDOCK:   -5.64 KCAL/MOL
REMARK 924 INTRA-LIGAND FREE ENERGY PREDICTED BY IDOCK:   -1.68 KCAL/MOL
REMARK 927      BINDING AFFINITY PREDICTED BY RF-SCORE:    0.00 PKD
ROOT
HETATM    1  C   UNL     1     -11.676   5.814  72.520  1.00  0.00    -0.280 C  
HETATM    2  C   UNL     1     -12.148   6.555  71.281  1.00  0.00    -0.328 C  
ENDROOT
BRANCH   2   3
HETATM    3  C   UNL     1     -12.113   8.066  71.498  1.00  0.00    -0.330 C  
BRANCH   3   4
HETATM    4  C   UNL     1     -11.124   8.738  70.550  1.00  0.00    -0.278 C  
BRANCH   4   5
HETATM    5  C   UNL     1      -9.935   9.309  71.322  1.00  0.00    -0.341 C  
BRANCH   5   6
HETATM    6  C   UNL     1      -9.345   8.258  72.253  1.00  0.00    -0.323 C  
BRANCH   6   7
HETATM    7  C   UNL     1      -7.873   7.997  71.945  1.00  0.00    -0.127 C  
BRANCH   7   8
HETATM    8  C   UNL     1      -7.727   6.642  71.257  1.00  0.00    -0.094 C  
BRANCH   8   9
HETATM    9  C   UNL     1      -7.461   6.789  69.765  1.00  0.00    -0.091 C  
BRANCH   9  10
HETATM   10  C   UNL     1      -6.589   5.649  69.219  1.00  0.00    -0.054 C  
BRANCH  10  11
HETATM   11  C   UNL     1      -7.107   4.244  69.557  1.00  0.00    -0.050 C  
BRANCH  11  12
HETATM   12  C   UNL     1      -8.489   4.043  68.988  1.00  0.00    -0.077 C  
HETATM   13  O   UNL     1      -9.518   3.990  69.643  1.00  0.00    -0.161 OA 
BRANCH  12  14
HETATM   14  O   UNL     1      -8.436   4.119  67.629  1.00  0.00    -0.097 OA 
BRANCH  14  15
HETATM   15  C   UNL     1      -9.684   3.854  66.978  1.00  0.00    -0.148 C  
BRANCH  15  16
HETATM   16  C   UNL     1      -9.848   4.943  65.912  1.00  0.00    -0.191 C  
BRANCH  16  17
HETATM   17  N   UNL     1      -9.297   6.235  66.288  1.00  0.00    -0.233 N  
HETATM   18  C   UNL     1     -10.068   7.166  66.941  1.00  0.00    -0.238 C  
HETATM   19  H   UNL     1      -8.326   6.453  66.065  1.00  0.00     0.000 HD 
HETATM   20  O   UNL     1     -11.270   7.025  67.144  1.00  0.00    -0.315 OA 
BRANCH  18  21
HETATM   21  C   UNL     1      -9.370   8.452  67.332  1.00  0.00    -0.148 C  
BRANCH  21  22
HETATM   22  N   UNL     1      -9.848   9.545  66.460  1.00  0.00    -0.221 NA 
HETATM   23  C   UNL     1     -10.709  10.471  66.953  1.00  0.00    -0.219 A  
HETATM   24  C   UNL     1     -11.188  11.492  66.143  1.00  0.00    -0.265 A  
HETATM   25  C   UNL     1     -10.762  11.573  64.825  1.00  0.00    -0.366 A  
HETATM   26  C   UNL     1      -9.867  10.629  64.338  1.00  0.00    -0.395 A  
HETATM   27  C   UNL     1      -9.420   9.618  65.180  1.00  0.00    -0.265 A  
ENDBRANCH  21  22
ENDBRANCH  18  21
ENDBRANCH  16  17
ENDBRANCH  15  16
ENDBRANCH  14  15
ENDBRANCH  12  14
ENDBRANCH  11  12
ENDBRANCH  10  11
ENDBRANCH   9  10
ENDBRANCH   8   9
ENDBRANCH   7   8
ENDBRANCH   6   7
ENDBRANCH   5   6
ENDBRANCH   4   5
ENDBRANCH   3   4
ENDBRANCH   2   3
TORSDOF 16
ENDMDL
MODEL      359
REMARK 921   NORMALIZED FREE ENERGY PREDICTED BY IDOCK:   -2.71 KCAL/MOL
REMARK 922        TOTAL FREE ENERGY PREDICTED BY IDOCK:   -7.32 KCAL/MOL
REMARK 923 INTER-LIGAND FREE ENERGY PREDICTED BY IDOCK:   -6.02 KCAL/MOL
REMARK 924 INTRA-LIGAND FREE ENERGY PREDICTED BY IDOCK:   -1.30 KCAL/MOL
REMARK 927      BINDING AFFINITY PREDICTED BY RF-SCORE:    0.00 PKD
ROOT
HETATM    1  C   UNL     1      -9.436  17.396  68.111  1.00  0.00    -0.288 C  
HETATM    2  C   UNL     1      -9.486  15.938  67.687  1.00  0.00    -0.219 C  
ENDROOT
BRANCH   2   3
HETATM    3  C   UNL     1     -10.533  15.718  66.597  1.00  0.00    -0.302 C  
BRANCH   3   4
HETATM    4  C   UNL     1      -9.939  14.979  65.401  1.00  0.00    -0.365 C  
BRANCH   4   5
HETATM    5  C   UNL     1     -11.017  14.186  64.664  1.00  0.00    -0.393 C  
BRANCH   5   6
HETATM    6  C   UNL     1     -11.057  12.746  65.161  1.00  0.00    -0.323 C  
BRANCH   6   7
HETATM    7  C   UNL     1     -11.872  12.617  66.445  1.00  0.00    -0.466 C  
BRANCH   7   8
HETATM    8  C   UNL     1     -11.173  11.653  67.400  1.00  0.00    -0.358 C  
BRANCH   8   9
HETATM    9  C   UNL     1     -10.174  12.369  68.298  1.00  0.00    -0.230 C  
BRANCH   9  10
HETATM   10  C   UNL     1      -8.732  11.902  68.046  1.00  0.00    -0.173 C  
BRANCH  10  11
HETATM   11  C   UNL     1      -8.561  11.046  66.784  1.00  0.00    -0.152 C  
BRANCH  11  12
HETATM   12  C   UNL     1      -8.555   9.580  67.141  1.00  0.00    -0.132 C  
HETATM   13  O   UNL     1      -9.018   8.686  66.449  1.00  0.00    -0.142 OA 
BRANCH  12  14
HETATM   14  O   UNL     1      -7.794   9.387  68.253  1.00  0.00    -0.090 OA 
BRANCH  14  15
HETATM   15  C   UNL     1      -6.727   8.448  68.078  1.00  0.00    -0.065 C  
BRANCH  15  16
HETATM   16  C   UNL     1      -6.986   7.316  69.078  1.00  0.00    -0.077 C  
BRANCH  16  17
HETATM   17  N   UNL     1      -8.393   7.034  69.310  1.00  0.00    -0.128 N  
HETATM   18  C   UNL     1      -8.963   5.873  68.848  1.00  0.00    -0.118 C  
HETATM   19  H   UNL     1      -8.964   7.706  69.822  1.00  0.00     0.000 HD 
HETATM   20  O   UNL     1      -8.374   5.071  68.130  1.00  0.00    -0.096 OA 
BRANCH  18  21
HETATM   21  C   UNL     1     -10.421   5.662  69.199  1.00  0.00    -0.269 C  
BRANCH  21  22
HETATM   22  N   UNL     1     -10.680   6.222  70.543  1.00  0.00    -0.250 NA 
HETATM   23  C   UNL     1     -10.264   5.547  71.644  1.00  0.00    -0.209 A  
HETATM   24  C   UNL     1     -10.517   6.045  72.915  1.00  0.00    -0.243 A  
HETATM   25  C   UNL     1     -11.185   7.254  73.052  1.00  0.00    -0.309 A  
HETATM   26  C   UNL     1     -11.591   7.942  71.917  1.00  0.00    -0.338 A  
HETATM   27  C   UNL     1     -11.325   7.404  70.664  1.00  0.00    -0.281 A  
ENDBRANCH  21  22
ENDBRANCH  18  21
ENDBRANCH  16  17
ENDBRANCH  15  16
ENDBRANCH  14  15
ENDBRANCH  12  14
ENDBRANCH  11  12
ENDBRANCH  10  11
ENDBRANCH   9  10
ENDBRANCH   8   9
ENDBRANCH   7   8
ENDBRANCH   6   7
ENDBRANCH   5   6
ENDBRANCH   4   5
ENDBRANCH   3   4
ENDBRANCH   2   3
TORSDOF 16
ENDMDL
MODEL      360
REMARK 921   NORMALIZED FREE ENERGY PREDICTED BY IDOCK:   -2.70 KCAL/MOL
REMARK 922        TOTAL FREE ENERGY PREDICTED BY IDOCK:   -7.31 KCAL/MOL
REMARK 923 INTER-LIGAND FREE ENERGY PREDICTED BY IDOCK:   -6.44 KCAL/MOL
REMARK 924 INTRA-LIGAND FREE ENERGY PREDICTED BY IDOCK:   -0.87 KCAL/MOL
REMARK 927      BINDING AFFINITY PREDICTED BY RF-SCORE:    0.00 PKD
ROOT
HETATM    1  C   UNL     1      -8.270   8.382  64.187  1.00  0.00    -0.122 C  
HETATM    2  C   UNL     1      -7.933   7.017  64.763  1.00  0.00    -0.122 C  
ENDROOT
BRANCH   2   3
HETATM    3  C   UNL     1      -8.123   6.998  66.278  1.00  0.00    -0.115 C  
BRANCH   3   4
HETATM    4  C   UNL     1      -7.878   5.604  66.849  1.00  0.00    -0.101 C  
BRANCH   4   5
HETATM    5  C   UNL     1      -8.495   5.472  68.241  1.00  0.00    -0.097 C  
BRANCH   5   6
HETATM    6  C   UNL     1      -7.421   5.581  69.316  1.00  0.00    -0.078 C  
BRANCH   6   7
HETATM    7  C   UNL     1      -7.475   6.928  70.030  1.00  0.00    -0.093 C  
BRANCH   7   8
HETATM    8  C   UNL     1      -8.923   7.270  70.370  1.00  0.00    -0.151 C  
BRANCH   8   9
HETATM    9  C   UNL     1      -9.162   7.297  71.873  1.00  0.00    -0.147 C  
BRANCH   9  10
HETATM   10  C   UNL     1     -10.043   8.482  72.297  1.00  0.00    -0.386 C  
BRANCH  10  11
HETATM   11  C   UNL     1     -11.477   8.092  72.684  1.00  0.00    -0.454 C  
BRANCH  11  12
HETATM   12  C   UNL     1     -12.472   8.928  71.918  1.00  0.00    -0.378 C  
HETATM   13  O   UNL     1     -13.681   8.913  72.090  1.00  0.00    -0.414 OA 
BRANCH  12  14
HETATM   14  O   UNL     1     -11.808   9.832  71.146  1.00  0.00    -0.322 OA 
BRANCH  14  15
HETATM   15  C   UNL     1     -12.663  10.726  70.423  1.00  0.00    -0.269 C  
BRANCH  15  16
HETATM   16  C   UNL     1     -12.029  12.116  70.549  1.00  0.00    -0.216 C  
BRANCH  16  17
HETATM   17  N   UNL     1     -12.243  12.976  69.397  1.00  0.00    -0.188 N  
HETATM   18  C   UNL     1     -11.302  13.064  68.400  1.00  0.00    -0.291 C  
HETATM   19  H   UNL     1     -13.102  13.522  69.328  1.00  0.00     0.000 HD 
HETATM   20  O   UNL     1     -10.199  12.529  68.464  1.00  0.00    -0.228 OA 
BRANCH  18  21
HETATM   21  C   UNL     1     -11.659  13.947  67.223  1.00  0.00    -0.365 C  
BRANCH  21  22
HETATM   22  N   UNL     1     -11.045  15.278  67.415  1.00  0.00    -0.326 NA 
HETATM   23  C   UNL     1     -10.406  15.880  66.379  1.00  0.00    -0.306 A  
HETATM   24  C   UNL     1      -9.804  17.119  66.546  1.00  0.00    -0.305 A  
HETATM   25  C   UNL     1      -9.876  17.752  67.779  1.00  0.00    -0.295 A  
HETATM   26  C   UNL     1     -10.548  17.133  68.824  1.00  0.00    -0.336 A  
HETATM   27  C   UNL     1     -11.129  15.888  68.618  1.00  0.00    -0.337 A  
ENDBRANCH  21  22
ENDBRANCH  18  21
ENDBRANCH  16  17
ENDBRANCH  15  16
ENDBRANCH  14  15
ENDBRANCH  12  14
ENDBRANCH  11  12
ENDBRANCH  10  11
ENDBRANCH   9  10
ENDBRANCH   8   9
ENDBRANCH   7   8
ENDBRANCH   6   7
ENDBRANCH   5   6
ENDBRANCH   4   5
ENDBRANCH   3   4
ENDBRANCH   2   3
TORSDOF 16
ENDMDL
MODEL      361
REMARK 921   NORMALIZED FREE ENERGY PREDICTED BY IDOCK:   -2.70 KCAL/MOL
REMARK 922        TOTAL FREE ENERGY PREDICTED BY IDOCK:   -7.31 KCAL/MOL
REMARK 923 INTER-LIGAND FREE ENERGY PREDICTED BY IDOCK:   -6.86 KCAL/MOL
REMARK 924 INTRA-LIGAND FREE ENERGY PREDICTED BY IDOCK:   -0.45 KCAL/MOL
REMARK 927      BINDING AFFINITY PREDICTED BY RF-SCORE:    0.00 PKD
ROOT
HETATM    1  C   UNL     1     -10.112  19.327  68.288  1.00  0.00    -0.516 C  
HETATM    2  C   UNL     1      -9.247  19.667  67.087  1.00  0.00    -0.419 C  
ENDROOT
BRANCH   2   3
HETATM    3  C   UNL     1      -8.496  18.436  66.584  1.00  0.00    -0.283 C  
BRANCH   3   4
HETATM    4  C   UNL     1      -9.012  17.164  67.250  1.00  0.00    -0.228 C  
BRANCH   4   5
HETATM    5  C   UNL     1      -8.898  15.970  66.303  1.00  0.00    -0.379 C  
BRANCH   5   6
HETATM    6  C   UNL     1     -10.265  15.597  65.744  1.00  0.00    -0.391 C  
BRANCH   6   7
HETATM    7  C   UNL     1     -10.795  14.310  66.369  1.00  0.00    -0.307 C  
BRANCH   7   8
HETATM    8  C   UNL     1      -9.828  13.165  66.080  1.00  0.00    -0.284 C  
BRANCH   8   9
HETATM    9  C   UNL     1      -9.384  12.462  67.355  1.00  0.00    -0.181 C  
BRANCH   9  10
HETATM   10  C   UNL     1      -9.164  10.957  67.139  1.00  0.00    -0.159 C  
BRANCH  10  11
HETATM   11  C   UNL     1     -10.331  10.077  67.608  1.00  0.00    -0.272 C  
BRANCH  11  12
HETATM   12  C   UNL     1     -11.249  10.862  68.512  1.00  0.00    -0.274 C  
HETATM   13  O   UNL     1     -12.263  11.441  68.153  1.00  0.00    -0.602 OA 
BRANCH  12  14
HETATM   14  O   UNL     1     -10.883  10.669  69.809  1.00  0.00    -0.259 OA 
BRANCH  14  15
HETATM   15  C   UNL     1     -11.963  10.771  70.745  1.00  0.00    -0.362 C  
BRANCH  15  16
HETATM   16  C   UNL     1     -12.267   9.340  71.203  1.00  0.00    -0.301 C  
BRANCH  16  17
HETATM   17  N   UNL     1     -11.525   8.919  72.380  1.00  0.00    -0.242 N  
HETATM   18  C   UNL     1     -10.755   7.781  72.357  1.00  0.00    -0.290 C  
HETATM   19  H   UNL     1     -11.576   9.475  73.233  1.00  0.00     0.000 HD 
HETATM   20  O   UNL     1     -10.731   7.001  71.410  1.00  0.00    -0.218 OA 
BRANCH  18  21
HETATM   21  C   UNL     1      -9.983   7.475  73.623  1.00  0.00    -0.291 C  
BRANCH  21  22
HETATM   22  N   UNL     1      -8.555   7.296  73.286  1.00  0.00    -0.129 NA 
HETATM   23  C   UNL     1      -8.184   6.308  72.432  1.00  0.00    -0.107 A  
HETATM   24  C   UNL     1      -6.846   6.110  72.121  1.00  0.00    -0.073 A  
HETATM   25  C   UNL     1      -5.886   6.944  72.676  1.00  0.00    -0.042 A  
HETATM   26  C   UNL     1      -6.281   7.961  73.534  1.00  0.00    -0.078 A  
HETATM   27  C   UNL     1      -7.630   8.120  73.827  1.00  0.00    -0.171 A  
ENDBRANCH  21  22
ENDBRANCH  18  21
ENDBRANCH  16  17
ENDBRANCH  15  16
ENDBRANCH  14  15
ENDBRANCH  12  14
ENDBRANCH  11  12
ENDBRANCH  10  11
ENDBRANCH   9  10
ENDBRANCH   8   9
ENDBRANCH   7   8
ENDBRANCH   6   7
ENDBRANCH   5   6
ENDBRANCH   4   5
ENDBRANCH   3   4
ENDBRANCH   2   3
TORSDOF 16
ENDMDL
MODEL      362
REMARK 921   NORMALIZED FREE ENERGY PREDICTED BY IDOCK:   -2.69 KCAL/MOL
REMARK 922        TOTAL FREE ENERGY PREDICTED BY IDOCK:   -7.29 KCAL/MOL
REMARK 923 INTER-LIGAND FREE ENERGY PREDICTED BY IDOCK:   -5.37 KCAL/MOL
REMARK 924 INTRA-LIGAND FREE ENERGY PREDICTED BY IDOCK:   -1.92 KCAL/MOL
REMARK 927      BINDING AFFINITY PREDICTED BY RF-SCORE:    0.00 PKD
ROOT
HETATM    1  C   UNL     1      -5.590  14.476  69.536  1.00  0.00    -0.092 C  
HETATM    2  C   UNL     1      -6.042  13.125  70.064  1.00  0.00    -0.113 C  
ENDROOT
BRANCH   2   3
HETATM    3  C   UNL     1      -6.781  12.334  68.986  1.00  0.00    -0.105 C  
BRANCH   3   4
HETATM    4  C   UNL     1      -6.201  12.610  67.602  1.00  0.00    -0.148 C  
BRANCH   4   5
HETATM    5  C   UNL     1      -6.463  11.436  66.659  1.00  0.00    -0.117 C  
BRANCH   5   6
HETATM    6  C   UNL     1      -7.740  10.707  67.053  1.00  0.00    -0.117 C  
BRANCH   6   7
HETATM    7  C   UNL     1      -7.521   9.199  67.146  1.00  0.00    -0.087 C  
BRANCH   7   8
HETATM    8  C   UNL     1      -8.105   8.677  68.456  1.00  0.00    -0.117 C  
BRANCH   8   9
HETATM    9  C   UNL     1      -9.130   7.576  68.221  1.00  0.00    -0.132 C  
BRANCH   9  10
HETATM   10  C   UNL     1      -8.760   6.277  68.954  1.00  0.00    -0.125 C  
BRANCH  10  11
HETATM   11  C   UNL     1      -9.660   5.956  70.156  1.00  0.00    -0.198 C  
BRANCH  11  12
HETATM   12  C   UNL     1      -9.076   6.538  71.419  1.00  0.00    -0.148 C  
HETATM   13  O   UNL     1      -7.888   6.743  71.615  1.00  0.00    -0.099 OA 
BRANCH  12  14
HETATM   14  O   UNL     1     -10.083   6.973  72.226  1.00  0.00    -0.176 OA 
BRANCH  14  15
HETATM   15  C   UNL     1     -11.122   7.682  71.538  1.00  0.00    -0.236 C  
BRANCH  15  16
HETATM   16  C   UNL     1     -10.763   9.169  71.641  1.00  0.00    -0.371 C  
BRANCH  16  17
HETATM   17  N   UNL     1     -10.882   9.900  70.391  1.00  0.00    -0.298 N  
HETATM   18  C   UNL     1     -12.033  10.583  70.081  1.00  0.00    -0.316 C  
HETATM   19  H   UNL     1     -10.101   9.907  69.735  1.00  0.00     0.000 HD 
HETATM   20  O   UNL     1     -13.053  10.530  70.762  1.00  0.00    -0.364 OA 
BRANCH  18  21
HETATM   21  C   UNL     1     -12.020  11.355  68.778  1.00  0.00    -0.287 C  
BRANCH  21  22
HETATM   22  N   UNL     1     -11.461  12.702  69.021  1.00  0.00    -0.284 NA 
HETATM   23  C   UNL     1     -12.035  13.511  69.948  1.00  0.00    -0.348 A  
HETATM   24  C   UNL     1     -11.539  14.787  70.174  1.00  0.00    -0.338 A  
HETATM   25  C   UNL     1     -10.435  15.227  69.458  1.00  0.00    -0.265 A  
HETATM   26  C   UNL     1      -9.847  14.383  68.525  1.00  0.00    -0.233 A  
HETATM   27  C   UNL     1     -10.380  13.116  68.323  1.00  0.00    -0.252 A  
ENDBRANCH  21  22
ENDBRANCH  18  21
ENDBRANCH  16  17
ENDBRANCH  15  16
ENDBRANCH  14  15
ENDBRANCH  12  14
ENDBRANCH  11  12
ENDBRANCH  10  11
ENDBRANCH   9  10
ENDBRANCH   8   9
ENDBRANCH   7   8
ENDBRANCH   6   7
ENDBRANCH   5   6
ENDBRANCH   4   5
ENDBRANCH   3   4
ENDBRANCH   2   3
TORSDOF 16
ENDMDL
MODEL      363
REMARK 921   NORMALIZED FREE ENERGY PREDICTED BY IDOCK:   -2.67 KCAL/MOL
REMARK 922        TOTAL FREE ENERGY PREDICTED BY IDOCK:   -7.26 KCAL/MOL
REMARK 923 INTER-LIGAND FREE ENERGY PREDICTED BY IDOCK:   -6.47 KCAL/MOL
REMARK 924 INTRA-LIGAND FREE ENERGY PREDICTED BY IDOCK:   -0.79 KCAL/MOL
REMARK 927      BINDING AFFINITY PREDICTED BY RF-SCORE:    0.00 PKD
ROOT
HETATM    1  C   UNL     1     -10.426   2.522  72.668  1.00  0.00    -0.203 C  
HETATM    2  C   UNL     1     -10.099   3.989  72.451  1.00  0.00    -0.242 C  
ENDROOT
BRANCH   2   3
HETATM    3  C   UNL     1      -9.772   4.681  73.772  1.00  0.00    -0.156 C  
BRANCH   3   4
HETATM    4  C   UNL     1      -9.471   6.162  73.562  1.00  0.00    -0.144 C  
BRANCH   4   5
HETATM    5  C   UNL     1     -10.642   7.026  74.029  1.00  0.00    -0.090 C  
BRANCH   5   6
HETATM    6  C   UNL     1     -11.594   7.309  72.874  1.00  0.00    -0.153 C  
BRANCH   6   7
HETATM    7  C   UNL     1     -10.853   7.387  71.542  1.00  0.00    -0.247 C  
BRANCH   7   8
HETATM    8  C   UNL     1     -10.223   8.769  71.388  1.00  0.00    -0.350 C  
BRANCH   8   9
HETATM    9  C   UNL     1      -8.808   8.688  70.832  1.00  0.00    -0.221 C  
BRANCH   9  10
HETATM   10  C   UNL     1      -8.534   9.783  69.789  1.00  0.00    -0.206 C  
BRANCH  10  11
HETATM   11  C   UNL     1      -9.495   9.765  68.592  1.00  0.00    -0.151 C  
BRANCH  11  12
HETATM   12  C   UNL     1      -9.116  10.835  67.599  1.00  0.00    -0.147 C  
HETATM   13  O   UNL     1      -7.988  11.033  67.175  1.00  0.00    -0.124 OA 
BRANCH  12  14
HETATM   14  O   UNL     1     -10.245  11.418  67.107  1.00  0.00    -0.195 OA 
BRANCH  14  15
HETATM   15  C   UNL     1     -10.330  11.416  65.677  1.00  0.00    -0.257 C  
BRANCH  15  16
HETATM   16  C   UNL     1     -11.026  12.725  65.290  1.00  0.00    -0.284 C  
BRANCH  16  17
HETATM   17  N   UNL     1     -10.129  13.861  65.155  1.00  0.00    -0.543 N  
HETATM   18  C   UNL     1      -9.959  14.751  66.188  1.00  0.00    -0.304 C  
HETATM   19  H   UNL     1      -9.620  14.000  64.282  1.00  0.00     0.000 HD 
HETATM   20  O   UNL     1     -10.618  14.718  67.222  1.00  0.00    -0.265 OA 
BRANCH  18  21
HETATM   21  C   UNL     1      -8.957  15.862  65.952  1.00  0.00    -0.216 C  
BRANCH  21  22
HETATM   22  N   UNL     1      -9.222  16.961  66.903  1.00  0.00    -0.229 NA 
HETATM   23  C   UNL     1     -10.331  17.730  66.750  1.00  0.00    -0.343 A  
HETATM   24  C   UNL     1     -10.585  18.782  67.620  1.00  0.00    -0.481 A  
HETATM   25  C   UNL     1      -9.706  19.031  68.664  1.00  0.00    -0.468 A  
HETATM   26  C   UNL     1      -8.585  18.226  68.819  1.00  0.00    -0.240 A  
HETATM   27  C   UNL     1      -8.363  17.190  67.921  1.00  0.00    -0.207 A  
ENDBRANCH  21  22
ENDBRANCH  18  21
ENDBRANCH  16  17
ENDBRANCH  15  16
ENDBRANCH  14  15
ENDBRANCH  12  14
ENDBRANCH  11  12
ENDBRANCH  10  11
ENDBRANCH   9  10
ENDBRANCH   8   9
ENDBRANCH   7   8
ENDBRANCH   6   7
ENDBRANCH   5   6
ENDBRANCH   4   5
ENDBRANCH   3   4
ENDBRANCH   2   3
TORSDOF 16
ENDMDL
MODEL      364
REMARK 921   NORMALIZED FREE ENERGY PREDICTED BY IDOCK:   -2.67 KCAL/MOL
REMARK 922        TOTAL FREE ENERGY PREDICTED BY IDOCK:   -7.25 KCAL/MOL
REMARK 923 INTER-LIGAND FREE ENERGY PREDICTED BY IDOCK:   -5.45 KCAL/MOL
REMARK 924 INTRA-LIGAND FREE ENERGY PREDICTED BY IDOCK:   -1.81 KCAL/MOL
REMARK 927      BINDING AFFINITY PREDICTED BY RF-SCORE:    0.00 PKD
ROOT
HETATM    1  C   UNL     1     -10.902  15.531  71.081  1.00  0.00    -0.147 C  
HETATM    2  C   UNL     1     -12.197  14.737  71.104  1.00  0.00    -0.388 C  
ENDROOT
BRANCH   2   3
HETATM    3  C   UNL     1     -12.299  13.818  69.889  1.00  0.00    -0.334 C  
BRANCH   3   4
HETATM    4  C   UNL     1     -11.168  14.083  68.898  1.00  0.00    -0.303 C  
BRANCH   4   5
HETATM    5  C   UNL     1     -11.725  14.522  67.544  1.00  0.00    -0.413 C  
BRANCH   5   6
HETATM    6  C   UNL     1     -10.594  14.901  66.597  1.00  0.00    -0.305 C  
BRANCH   6   7
HETATM    7  C   UNL     1     -10.319  16.402  66.622  1.00  0.00    -0.292 C  
BRANCH   7   8
HETATM    8  C   UNL     1      -8.911  16.674  66.100  1.00  0.00    -0.321 C  
BRANCH   8   9
HETATM    9  C   UNL     1      -7.989  17.189  67.195  1.00  0.00    -0.216 C  
BRANCH   9  10
HETATM   10  C   UNL     1      -8.369  16.636  68.578  1.00  0.00    -0.228 C  
BRANCH  10  11
HETATM   11  C   UNL     1      -7.200  15.999  69.343  1.00  0.00    -0.213 C  
BRANCH  11  12
HETATM   12  C   UNL     1      -7.009  14.567  68.912  1.00  0.00    -0.110 C  
HETATM   13  O   UNL     1      -7.711  13.975  68.106  1.00  0.00    -0.119 OA 
BRANCH  12  14
HETATM   14  O   UNL     1      -5.833  14.096  69.411  1.00  0.00    -0.084 OA 
BRANCH  14  15
HETATM   15  C   UNL     1      -5.289  12.987  68.684  1.00  0.00    -0.066 C  
BRANCH  15  16
HETATM   16  C   UNL     1      -5.587  11.740  69.523  1.00  0.00    -0.071 C  
BRANCH  16  17
HETATM   17  N   UNL     1      -6.884  11.139  69.262  1.00  0.00    -0.099 N  
HETATM   18  C   UNL     1      -7.452  10.270  70.161  1.00  0.00    -0.070 C  
HETATM   19  H   UNL     1      -7.380  11.366  68.399  1.00  0.00     0.000 HD 
HETATM   20  O   UNL     1      -6.873   9.862  71.163  1.00  0.00    -0.337 OA 
BRANCH  18  21
HETATM   21  C   UNL     1      -8.831   9.753  69.807  1.00  0.00    -0.224 C  
BRANCH  21  22
HETATM   22  N   UNL     1      -9.042   9.898  68.352  1.00  0.00    -0.123 NA 
HETATM   23  C   UNL     1      -9.855  10.879  67.885  1.00  0.00    -0.172 A  
HETATM   24  C   UNL     1     -10.084  11.018  66.522  1.00  0.00    -0.270 A  
HETATM   25  C   UNL     1      -9.457  10.155  65.635  1.00  0.00    -0.275 A  
HETATM   26  C   UNL     1      -8.615   9.167  66.125  1.00  0.00    -0.149 A  
HETATM   27  C   UNL     1      -8.420   9.057  67.496  1.00  0.00    -0.116 A  
ENDBRANCH  21  22
ENDBRANCH  18  21
ENDBRANCH  16  17
ENDBRANCH  15  16
ENDBRANCH  14  15
ENDBRANCH  12  14
ENDBRANCH  11  12
ENDBRANCH  10  11
ENDBRANCH   9  10
ENDBRANCH   8   9
ENDBRANCH   7   8
ENDBRANCH   6   7
ENDBRANCH   5   6
ENDBRANCH   4   5
ENDBRANCH   3   4
ENDBRANCH   2   3
TORSDOF 16
ENDMDL
MODEL      365
REMARK 921   NORMALIZED FREE ENERGY PREDICTED BY IDOCK:   -2.66 KCAL/MOL
REMARK 922        TOTAL FREE ENERGY PREDICTED BY IDOCK:   -7.24 KCAL/MOL
REMARK 923 INTER-LIGAND FREE ENERGY PREDICTED BY IDOCK:   -5.68 KCAL/MOL
REMARK 924 INTRA-LIGAND FREE ENERGY PREDICTED BY IDOCK:   -1.56 KCAL/MOL
REMARK 927      BINDING AFFINITY PREDICTED BY RF-SCORE:    0.00 PKD
ROOT
HETATM    1  C   UNL     1      -8.508   8.858  68.759  1.00  0.00    -0.131 C  
HETATM    2  C   UNL     1      -9.880   9.511  68.729  1.00  0.00    -0.177 C  
ENDROOT
BRANCH   2   3
HETATM    3  C   UNL     1     -10.899   8.682  69.508  1.00  0.00    -0.138 C  
BRANCH   3   4
HETATM    4  C   UNL     1     -11.105   9.236  70.914  1.00  0.00    -0.374 C  
BRANCH   4   5
HETATM    5  C   UNL     1     -11.083   8.112  71.949  1.00  0.00    -0.346 C  
BRANCH   5   6
HETATM    6  C   UNL     1      -9.653   7.672  72.234  1.00  0.00    -0.215 C  
BRANCH   6   7
HETATM    7  C   UNL     1      -9.611   6.311  72.923  1.00  0.00    -0.155 C  
BRANCH   7   8
HETATM    8  C   UNL     1      -9.853   5.209  71.894  1.00  0.00    -0.230 C  
BRANCH   8   9
HETATM    9  C   UNL     1      -8.951   5.361  70.677  1.00  0.00    -0.163 C  
BRANCH   9  10
HETATM   10  C   UNL     1      -9.703   5.092  69.364  1.00  0.00    -0.248 C  
BRANCH  10  11
HETATM   11  C   UNL     1      -8.985   4.121  68.417  1.00  0.00    -0.157 C  
BRANCH  11  12
HETATM   12  C   UNL     1      -7.996   4.864  67.555  1.00  0.00    -0.095 C  
HETATM   13  O   UNL     1      -6.831   5.082  67.849  1.00  0.00    -0.057 OA 
BRANCH  12  14
HETATM   14  O   UNL     1      -8.541   5.087  66.327  1.00  0.00    -0.112 OA 
BRANCH  14  15
HETATM   15  C   UNL     1      -8.857   6.461  66.067  1.00  0.00    -0.150 C  
BRANCH  15  16
HETATM   16  C   UNL     1      -7.852   6.936  65.013  1.00  0.00    -0.121 C  
BRANCH  16  17
HETATM   17  N   UNL     1      -8.358   7.973  64.129  1.00  0.00    -0.368 N  
HETATM   18  C   UNL     1      -7.925   9.271  64.246  1.00  0.00    -0.135 C  
HETATM   19  H   UNL     1      -9.044   7.734  63.413  1.00  0.00     0.000 HD 
HETATM   20  O   UNL     1      -7.191   9.659  65.149  1.00  0.00    -0.104 OA 
BRANCH  18  21
HETATM   21  C   UNL     1      -8.479  10.252  63.233  1.00  0.00    -0.181 C  
BRANCH  21  22
HETATM   22  N   UNL     1      -9.600  10.996  63.846  1.00  0.00    -0.250 NA 
HETATM   23  C   UNL     1      -9.681  11.097  65.197  1.00  0.00    -0.250 A  
HETATM   24  C   UNL     1     -10.738  11.772  65.792  1.00  0.00    -0.328 A  
HETATM   25  C   UNL     1     -11.706  12.364  64.993  1.00  0.00    -0.420 A  
HETATM   26  C   UNL     1     -11.601  12.268  63.612  1.00  0.00    -0.581 A  
HETATM   27  C   UNL     1     -10.532  11.575  63.057  1.00  0.00    -0.194 A  
ENDBRANCH  21  22
ENDBRANCH  18  21
ENDBRANCH  16  17
ENDBRANCH  15  16
ENDBRANCH  14  15
ENDBRANCH  12  14
ENDBRANCH  11  12
ENDBRANCH  10  11
ENDBRANCH   9  10
ENDBRANCH   8   9
ENDBRANCH   7   8
ENDBRANCH   6   7
ENDBRANCH   5   6
ENDBRANCH   4   5
ENDBRANCH   3   4
ENDBRANCH   2   3
TORSDOF 16
ENDMDL
MODEL      366
REMARK 921   NORMALIZED FREE ENERGY PREDICTED BY IDOCK:   -2.66 KCAL/MOL
REMARK 922        TOTAL FREE ENERGY PREDICTED BY IDOCK:   -7.24 KCAL/MOL
REMARK 923 INTER-LIGAND FREE ENERGY PREDICTED BY IDOCK:   -6.11 KCAL/MOL
REMARK 924 INTRA-LIGAND FREE ENERGY PREDICTED BY IDOCK:   -1.13 KCAL/MOL
REMARK 927      BINDING AFFINITY PREDICTED BY RF-SCORE:    0.00 PKD
ROOT
HETATM    1  C   UNL     1     -10.466  19.456  67.638  1.00  0.00    -0.573 C  
HETATM    2  C   UNL     1     -10.664  18.031  67.149  1.00  0.00    -0.276 C  
ENDROOT
BRANCH   2   3
HETATM    3  C   UNL     1      -9.585  17.104  67.704  1.00  0.00    -0.254 C  
BRANCH   3   4
HETATM    4  C   UNL     1      -9.805  16.825  69.188  1.00  0.00    -0.228 C  
BRANCH   4   5
HETATM    5  C   UNL     1     -11.037  15.946  69.398  1.00  0.00    -0.322 C  
BRANCH   5   6
HETATM    6  C   UNL     1     -10.700  14.482  69.151  1.00  0.00    -0.263 C  
BRANCH   6   7
HETATM    7  C   UNL     1     -11.810  13.771  68.382  1.00  0.00    -0.411 C  
BRANCH   7   8
HETATM    8  C   UNL     1     -11.821  14.256  66.935  1.00  0.00    -0.458 C  
BRANCH   8   9
HETATM    9  C   UNL     1     -12.875  13.537  66.104  1.00  0.00    -0.058 C  
BRANCH   9  10
HETATM   10  C   UNL     1     -12.327  13.089  64.740  1.00  0.00    -0.490 C  
BRANCH  10  11
HETATM   11  C   UNL     1     -11.923  11.609  64.681  1.00  0.00    -0.046 C  
BRANCH  11  12
HETATM   12  C   UNL     1     -10.451  11.455  64.969  1.00  0.00    -0.303 C  
HETATM   13  O   UNL     1      -9.682  12.373  65.210  1.00  0.00    -0.203 OA 
BRANCH  12  14
HETATM   14  O   UNL     1     -10.151  10.134  65.106  1.00  0.00    -0.326 OA 
BRANCH  14  15
HETATM   15  C   UNL     1      -8.748   9.844  65.068  1.00  0.00    -0.174 C  
BRANCH  15  16
HETATM   16  C   UNL     1      -8.518   8.717  66.081  1.00  0.00    -0.131 C  
BRANCH  16  17
HETATM   17  N   UNL     1      -9.478   8.690  67.173  1.00  0.00    -0.152 N  
HETATM   18  C   UNL     1      -9.166   9.226  68.398  1.00  0.00    -0.131 C  
HETATM   19  H   UNL     1     -10.395   8.268  67.026  1.00  0.00     0.000 HD 
HETATM   20  O   UNL     1      -8.050   9.648  68.686  1.00  0.00    -0.097 OA 
BRANCH  18  21
HETATM   21  C   UNL     1     -10.265   9.191  69.440  1.00  0.00    -0.210 C  
BRANCH  21  22
HETATM   22  N   UNL     1     -10.403   7.810  69.950  1.00  0.00    -0.218 NA 
HETATM   23  C   UNL     1      -9.316   6.998  69.994  1.00  0.00    -0.158 A  
HETATM   24  C   UNL     1      -9.430   5.691  70.449  1.00  0.00    -0.206 A  
HETATM   25  C   UNL     1     -10.663   5.224  70.879  1.00  0.00    -0.189 A  
HETATM   26  C   UNL     1     -11.763   6.070  70.844  1.00  0.00    -0.044 A  
HETATM   27  C   UNL     1     -11.608   7.368  70.373  1.00  0.00    -0.183 A  
ENDBRANCH  21  22
ENDBRANCH  18  21
ENDBRANCH  16  17
ENDBRANCH  15  16
ENDBRANCH  14  15
ENDBRANCH  12  14
ENDBRANCH  11  12
ENDBRANCH  10  11
ENDBRANCH   9  10
ENDBRANCH   8   9
ENDBRANCH   7   8
ENDBRANCH   6   7
ENDBRANCH   5   6
ENDBRANCH   4   5
ENDBRANCH   3   4
ENDBRANCH   2   3
TORSDOF 16
ENDMDL
MODEL      367
REMARK 921   NORMALIZED FREE ENERGY PREDICTED BY IDOCK:   -2.66 KCAL/MOL
REMARK 922        TOTAL FREE ENERGY PREDICTED BY IDOCK:   -7.23 KCAL/MOL
REMARK 923 INTER-LIGAND FREE ENERGY PREDICTED BY IDOCK:   -5.23 KCAL/MOL
REMARK 924 INTRA-LIGAND FREE ENERGY PREDICTED BY IDOCK:   -2.01 KCAL/MOL
REMARK 927      BINDING AFFINITY PREDICTED BY RF-SCORE:    0.00 PKD
ROOT
HETATM    1  C   UNL     1      -8.949   9.570  69.801  1.00  0.00    -0.214 C  
HETATM    2  C   UNL     1     -10.412   9.919  69.588  1.00  0.00    -0.273 C  
ENDROOT
BRANCH   2   3
HETATM    3  C   UNL     1     -11.324   8.886  70.245  1.00  0.00    -0.179 C  
BRANCH   3   4
HETATM    4  C   UNL     1     -11.818   9.370  71.606  1.00  0.00    -0.464 C  
BRANCH   4   5
HETATM    5  C   UNL     1     -11.940   8.203  72.584  1.00  0.00    -0.353 C  
BRANCH   5   6
HETATM    6  C   UNL     1     -10.573   7.815  73.131  1.00  0.00    -0.415 C  
BRANCH   6   7
HETATM    7  C   UNL     1     -10.598   6.434  73.780  1.00  0.00    -0.271 C  
BRANCH   7   8
HETATM    8  C   UNL     1     -10.886   5.375  72.719  1.00  0.00    -0.310 C  
BRANCH   8   9
HETATM    9  C   UNL     1      -9.801   5.331  71.653  1.00  0.00    -0.223 C  
BRANCH   9  10
HETATM   10  C   UNL     1     -10.387   5.274  70.234  1.00  0.00    -0.350 C  
BRANCH  10  11
HETATM   11  C   UNL     1      -9.873   4.101  69.388  1.00  0.00    -0.163 C  
BRANCH  11  12
HETATM   12  C   UNL     1      -8.490   4.398  68.865  1.00  0.00    -0.083 C  
HETATM   13  O   UNL     1      -7.447   4.049  69.396  1.00  0.00    -0.053 OA 
BRANCH  12  14
HETATM   14  O   UNL     1      -8.583   4.947  67.621  1.00  0.00    -0.104 OA 
BRANCH  14  15
HETATM   15  C   UNL     1      -8.430   6.371  67.596  1.00  0.00    -0.117 C  
BRANCH  15  16
HETATM   16  C   UNL     1      -7.444   6.673  66.462  1.00  0.00    -0.078 C  
BRANCH  16  17
HETATM   17  N   UNL     1      -7.691   7.931  65.775  1.00  0.00    -0.086 N  
HETATM   18  C   UNL     1      -6.956   9.052  66.074  1.00  0.00    -0.085 C  
HETATM   19  H   UNL     1      -8.419   7.981  65.063  1.00  0.00     0.000 HD 
HETATM   20  O   UNL     1      -6.144   9.102  66.993  1.00  0.00    -0.055 OA 
BRANCH  18  21
HETATM   21  C   UNL     1      -7.263  10.288  65.254  1.00  0.00    -0.134 C  
BRANCH  21  22
HETATM   22  N   UNL     1      -8.308  11.075  65.942  1.00  0.00    -0.151 NA 
HETATM   23  C   UNL     1      -9.610  10.921  65.588  1.00  0.00    -0.224 A  
HETATM   24  C   UNL     1     -10.603  11.668  66.207  1.00  0.00    -0.301 A  
HETATM   25  C   UNL     1     -10.258  12.564  67.208  1.00  0.00    -0.222 A  
HETATM   26  C   UNL     1      -8.925  12.700  67.572  1.00  0.00    -0.187 A  
HETATM   27  C   UNL     1      -7.961  11.940  66.921  1.00  0.00    -0.132 A  
ENDBRANCH  21  22
ENDBRANCH  18  21
ENDBRANCH  16  17
ENDBRANCH  15  16
ENDBRANCH  14  15
ENDBRANCH  12  14
ENDBRANCH  11  12
ENDBRANCH  10  11
ENDBRANCH   9  10
ENDBRANCH   8   9
ENDBRANCH   7   8
ENDBRANCH   6   7
ENDBRANCH   5   6
ENDBRANCH   4   5
ENDBRANCH   3   4
ENDBRANCH   2   3
TORSDOF 16
ENDMDL
MODEL      368
REMARK 921   NORMALIZED FREE ENERGY PREDICTED BY IDOCK:   -2.64 KCAL/MOL
REMARK 922        TOTAL FREE ENERGY PREDICTED BY IDOCK:   -7.20 KCAL/MOL
REMARK 923 INTER-LIGAND FREE ENERGY PREDICTED BY IDOCK:   -5.45 KCAL/MOL
REMARK 924 INTRA-LIGAND FREE ENERGY PREDICTED BY IDOCK:   -1.74 KCAL/MOL
REMARK 927      BINDING AFFINITY PREDICTED BY RF-SCORE:    0.00 PKD
ROOT
HETATM    1  C   UNL     1      -5.538  14.317  69.375  1.00  0.00    -0.087 C  
HETATM    2  C   UNL     1      -5.692  13.090  70.257  1.00  0.00    -0.159 C  
ENDROOT
BRANCH   2   3
HETATM    3  C   UNL     1      -6.360  11.947  69.495  1.00  0.00    -0.122 C  
BRANCH   3   4
HETATM    4  C   UNL     1      -6.351  12.205  67.991  1.00  0.00    -0.068 C  
BRANCH   4   5
HETATM    5  C   UNL     1      -6.941  11.017  67.232  1.00  0.00    -0.096 C  
BRANCH   5   6
HETATM    6  C   UNL     1      -7.891  10.229  68.125  1.00  0.00    -0.104 C  
BRANCH   6   7
HETATM    7  C   UNL     1      -8.034   8.784  67.657  1.00  0.00    -0.106 C  
BRANCH   7   8
HETATM    8  C   UNL     1      -8.310   7.882  68.857  1.00  0.00    -0.127 C  
BRANCH   8   9
HETATM    9  C   UNL     1      -9.703   7.269  68.797  1.00  0.00    -0.151 C  
BRANCH   9  10
HETATM   10  C   UNL     1     -10.215   6.862  70.187  1.00  0.00    -0.208 C  
BRANCH  10  11
HETATM   11  C   UNL     1     -11.506   7.574  70.614  1.00  0.00    -0.291 C  
BRANCH  11  12
HETATM   12  C   UNL     1     -11.239   8.493  71.779  1.00  0.00    -0.309 C  
HETATM   13  O   UNL     1     -10.156   8.642  72.323  1.00  0.00    -0.311 OA 
BRANCH  12  14
HETATM   14  O   UNL     1     -12.336   9.267  72.008  1.00  0.00    -0.365 OA 
BRANCH  14  15
HETATM   15  C   UNL     1     -12.757  10.038  70.877  1.00  0.00    -0.325 C  
BRANCH  15  16
HETATM   16  C   UNL     1     -11.710  11.144  70.702  1.00  0.00    -0.207 C  
BRANCH  16  17
HETATM   17  N   UNL     1     -12.026  12.107  69.660  1.00  0.00    -0.303 N  
HETATM   18  C   UNL     1     -12.201  13.436  69.960  1.00  0.00    -0.298 C  
HETATM   19  H   UNL     1     -12.119  11.792  68.694  1.00  0.00     0.000 HD 
HETATM   20  O   UNL     1     -12.218  13.872  71.107  1.00  0.00    -0.344 OA 
BRANCH  18  21
HETATM   21  C   UNL     1     -12.471  14.354  68.786  1.00  0.00     0.136 C  
BRANCH  21  22
HETATM   22  N   UNL     1     -11.217  14.544  68.025  1.00  0.00    -0.279 NA 
HETATM   23  C   UNL     1     -10.152  15.137  68.622  1.00  0.00    -0.222 A  
HETATM   24  C   UNL     1      -8.974  15.346  67.918  1.00  0.00    -0.173 A  
HETATM   25  C   UNL     1      -8.885  14.924  66.599  1.00  0.00    -0.287 A  
HETATM   26  C   UNL     1      -9.976  14.304  66.006  1.00  0.00    -0.337 A  
HETATM   27  C   UNL     1     -11.140  14.123  66.743  1.00  0.00    -0.310 A  
ENDBRANCH  21  22
ENDBRANCH  18  21
ENDBRANCH  16  17
ENDBRANCH  15  16
ENDBRANCH  14  15
ENDBRANCH  12  14
ENDBRANCH  11  12
ENDBRANCH  10  11
ENDBRANCH   9  10
ENDBRANCH   8   9
ENDBRANCH   7   8
ENDBRANCH   6   7
ENDBRANCH   5   6
ENDBRANCH   4   5
ENDBRANCH   3   4
ENDBRANCH   2   3
TORSDOF 16
ENDMDL
MODEL      369
REMARK 921   NORMALIZED FREE ENERGY PREDICTED BY IDOCK:   -2.63 KCAL/MOL
REMARK 922        TOTAL FREE ENERGY PREDICTED BY IDOCK:   -7.17 KCAL/MOL
REMARK 923 INTER-LIGAND FREE ENERGY PREDICTED BY IDOCK:   -5.59 KCAL/MOL
REMARK 924 INTRA-LIGAND FREE ENERGY PREDICTED BY IDOCK:   -1.58 KCAL/MOL
REMARK 927      BINDING AFFINITY PREDICTED BY RF-SCORE:    0.00 PKD
ROOT
HETATM    1  C   UNL     1      -9.026   8.357  69.650  1.00  0.00    -0.145 C  
HETATM    2  C   UNL     1      -9.111   9.340  68.496  1.00  0.00    -0.132 C  
ENDROOT
BRANCH   2   3
HETATM    3  C   UNL     1     -10.550   9.799  68.270  1.00  0.00    -0.271 C  
BRANCH   3   4
HETATM    4  C   UNL     1     -10.707  11.290  68.555  1.00  0.00    -0.235 C  
BRANCH   4   5
HETATM    5  C   UNL     1     -11.881  11.541  69.500  1.00  0.00    -0.419 C  
BRANCH   5   6
HETATM    6  C   UNL     1     -11.696  10.772  70.802  1.00  0.00    -0.400 C  
BRANCH   6   7
HETATM    7  C   UNL     1     -12.979  10.749  71.628  1.00  0.00    -0.581 C  
BRANCH   7   8
HETATM    8  C   UNL     1     -13.281   9.317  72.063  1.00  0.00    -0.519 C  
BRANCH   8   9
HETATM    9  C   UNL     1     -12.016   8.477  72.168  1.00  0.00    -0.451 C  
BRANCH   9  10
HETATM   10  C   UNL     1     -12.229   7.045  71.652  1.00  0.00    -0.395 C  
BRANCH  10  11
HETATM   11  C   UNL     1     -11.641   5.957  72.561  1.00  0.00    -0.327 C  
BRANCH  11  12
HETATM   12  C   UNL     1     -10.232   5.624  72.138  1.00  0.00    -0.202 C  
HETATM   13  O   UNL     1      -9.253   6.326  72.339  1.00  0.00    -0.140 OA 
BRANCH  12  14
HETATM   14  O   UNL     1     -10.189   4.346  71.669  1.00  0.00    -0.181 OA 
BRANCH  14  15
HETATM   15  C   UNL     1      -9.852   4.241  70.280  1.00  0.00    -0.193 C  
BRANCH  15  16
HETATM   16  C   UNL     1      -8.459   3.606  70.227  1.00  0.00    -0.056 C  
BRANCH  16  17
HETATM   17  N   UNL     1      -7.990   3.305  68.884  1.00  0.00    -0.057 N  
HETATM   18  C   UNL     1      -7.311   4.246  68.148  1.00  0.00    -0.064 C  
HETATM   19  H   UNL     1      -8.168   2.385  68.483  1.00  0.00     0.000 HD 
HETATM   20  O   UNL     1      -7.157   5.407  68.514  1.00  0.00    -0.059 OA 
BRANCH  18  21
HETATM   21  C   UNL     1      -6.822   3.799  66.786  1.00  0.00    -0.054 C  
BRANCH  21  22
HETATM   22  N   UNL     1      -7.989   3.556  65.911  1.00  0.00    -0.092 NA 
HETATM   23  C   UNL     1      -8.899   4.544  65.713  1.00  0.00    -0.124 A  
HETATM   24  C   UNL     1     -10.013   4.327  64.914  1.00  0.00    -0.180 A  
HETATM   25  C   UNL     1     -10.181   3.094  64.299  1.00  0.00    -0.095 A  
HETATM   26  C   UNL     1      -9.234   2.099  64.496  1.00  0.00    -0.132 A  
HETATM   27  C   UNL     1      -8.139   2.354  65.311  1.00  0.00    -0.080 A  
ENDBRANCH  21  22
ENDBRANCH  18  21
ENDBRANCH  16  17
ENDBRANCH  15  16
ENDBRANCH  14  15
ENDBRANCH  12  14
ENDBRANCH  11  12
ENDBRANCH  10  11
ENDBRANCH   9  10
ENDBRANCH   8   9
ENDBRANCH   7   8
ENDBRANCH   6   7
ENDBRANCH   5   6
ENDBRANCH   4   5
ENDBRANCH   3   4
ENDBRANCH   2   3
TORSDOF 16
ENDMDL
MODEL      370
REMARK 921   NORMALIZED FREE ENERGY PREDICTED BY IDOCK:   -2.62 KCAL/MOL
REMARK 922        TOTAL FREE ENERGY PREDICTED BY IDOCK:   -7.14 KCAL/MOL
REMARK 923 INTER-LIGAND FREE ENERGY PREDICTED BY IDOCK:   -6.07 KCAL/MOL
REMARK 924 INTRA-LIGAND FREE ENERGY PREDICTED BY IDOCK:   -1.07 KCAL/MOL
REMARK 927      BINDING AFFINITY PREDICTED BY RF-SCORE:    0.00 PKD
ROOT
HETATM    1  C   UNL     1      -7.226   7.520  64.769  1.00  0.00    -0.068 C  
HETATM    2  C   UNL     1      -7.586   8.856  64.142  1.00  0.00    -0.120 C  
ENDROOT
BRANCH   2   3
HETATM    3  C   UNL     1      -6.870  10.005  64.849  1.00  0.00    -0.133 C  
BRANCH   3   4
HETATM    4  C   UNL     1      -7.435  10.231  66.248  1.00  0.00    -0.118 C  
BRANCH   4   5
HETATM    5  C   UNL     1      -6.309  10.428  67.262  1.00  0.00    -0.062 C  
BRANCH   5   6
HETATM    6  C   UNL     1      -6.560  11.669  68.109  1.00  0.00    -0.061 C  
BRANCH   6   7
HETATM    7  C   UNL     1      -6.260  12.949  67.333  1.00  0.00    -0.109 C  
BRANCH   7   8
HETATM    8  C   UNL     1      -7.243  14.041  67.746  1.00  0.00    -0.175 C  
BRANCH   8   9
HETATM    9  C   UNL     1      -6.681  15.433  67.500  1.00  0.00    -0.211 C  
BRANCH   9  10
HETATM   10  C   UNL     1      -7.711  16.364  66.843  1.00  0.00    -0.276 C  
BRANCH  10  11
HETATM   11  C   UNL     1      -9.166  16.067  67.232  1.00  0.00    -0.215 C  
BRANCH  11  12
HETATM   12  C   UNL     1     -10.081  16.295  66.056  1.00  0.00    -0.356 C  
HETATM   13  O   UNL     1     -10.654  17.344  65.804  1.00  0.00    -0.456 OA 
BRANCH  12  14
HETATM   14  O   UNL     1     -10.023  15.222  65.220  1.00  0.00    -0.337 OA 
BRANCH  14  15
HETATM   15  C   UNL     1     -10.100  13.955  65.885  1.00  0.00    -0.317 C  
BRANCH  15  16
HETATM   16  C   UNL     1     -11.593  13.658  66.065  1.00  0.00    -0.337 C  
BRANCH  16  17
HETATM   17  N   UNL     1     -11.963  13.248  67.409  1.00  0.00    -0.358 N  
HETATM   18  C   UNL     1     -11.739  11.963  67.840  1.00  0.00    -0.298 C  
HETATM   19  H   UNL     1     -12.393  13.923  68.041  1.00  0.00     0.000 HD 
HETATM   20  O   UNL     1     -11.332  11.067  67.108  1.00  0.00    -0.399 OA 
BRANCH  18  21
HETATM   21  C   UNL     1     -12.114  11.668  69.278  1.00  0.00    -0.259 C  
BRANCH  21  22
HETATM   22  N   UNL     1     -11.180  10.660  69.822  1.00  0.00    -0.275 NA 
HETATM   23  C   UNL     1     -11.659   9.638  70.577  1.00  0.00    -0.272 A  
HETATM   24  C   UNL     1     -10.796   8.694  71.116  1.00  0.00    -0.320 A  
HETATM   25  C   UNL     1      -9.435   8.790  70.861  1.00  0.00    -0.269 A  
HETATM   26  C   UNL     1      -8.961   9.831  70.074  1.00  0.00    -0.255 A  
HETATM   27  C   UNL     1      -9.858  10.760  69.561  1.00  0.00    -0.016 A  
ENDBRANCH  21  22
ENDBRANCH  18  21
ENDBRANCH  16  17
ENDBRANCH  15  16
ENDBRANCH  14  15
ENDBRANCH  12  14
ENDBRANCH  11  12
ENDBRANCH  10  11
ENDBRANCH   9  10
ENDBRANCH   8   9
ENDBRANCH   7   8
ENDBRANCH   6   7
ENDBRANCH   5   6
ENDBRANCH   4   5
ENDBRANCH   3   4
ENDBRANCH   2   3
TORSDOF 16
ENDMDL
MODEL      371
REMARK 921   NORMALIZED FREE ENERGY PREDICTED BY IDOCK:   -2.59 KCAL/MOL
REMARK 922        TOTAL FREE ENERGY PREDICTED BY IDOCK:   -7.08 KCAL/MOL
REMARK 923 INTER-LIGAND FREE ENERGY PREDICTED BY IDOCK:   -5.45 KCAL/MOL
REMARK 924 INTRA-LIGAND FREE ENERGY PREDICTED BY IDOCK:   -1.63 KCAL/MOL
REMARK 927      BINDING AFFINITY PREDICTED BY RF-SCORE:    0.00 PKD
ROOT
HETATM    1  C   UNL     1      -9.074  16.901  68.590  1.00  0.00    -0.265 C  
HETATM    2  C   UNL     1      -8.844  15.436  68.259  1.00  0.00    -0.176 C  
ENDROOT
BRANCH   2   3
HETATM    3  C   UNL     1     -10.081  14.820  67.608  1.00  0.00    -0.227 C  
BRANCH   3   4
HETATM    4  C   UNL     1      -9.737  14.174  66.269  1.00  0.00    -0.315 C  
BRANCH   4   5
HETATM    5  C   UNL     1     -10.878  13.278  65.790  1.00  0.00    -0.286 C  
BRANCH   5   6
HETATM    6  C   UNL     1     -10.345  11.923  65.343  1.00  0.00    -0.306 C  
BRANCH   6   7
HETATM    7  C   UNL     1     -10.852  10.796  66.239  1.00  0.00    -0.143 C  
BRANCH   7   8
HETATM    8  C   UNL     1      -9.708  10.276  67.106  1.00  0.00    -0.210 C  
BRANCH   8   9
HETATM    9  C   UNL     1      -9.528  11.110  68.366  1.00  0.00    -0.189 C  
BRANCH   9  10
HETATM   10  C   UNL     1      -8.089  11.046  68.901  1.00  0.00    -0.135 C  
BRANCH  10  11
HETATM   11  C   UNL     1      -7.076  10.457  67.908  1.00  0.00    -0.083 C  
BRANCH  11  12
HETATM   12  C   UNL     1      -6.419   9.233  68.494  1.00  0.00    -0.053 C  
HETATM   13  O   UNL     1      -5.392   8.720  68.078  1.00  0.00    -0.034 OA 
BRANCH  12  14
HETATM   14  O   UNL     1      -7.035   8.901  69.662  1.00  0.00    -0.051 OA 
BRANCH  14  15
HETATM   15  C   UNL     1      -6.901   7.522  70.025  1.00  0.00    -0.051 C  
BRANCH  15  16
HETATM   16  C   UNL     1      -7.915   7.277  71.148  1.00  0.00    -0.101 C  
BRANCH  16  17
HETATM   17  N   UNL     1      -9.302   7.291  70.715  1.00  0.00    -0.160 N  
HETATM   18  C   UNL     1     -10.323   7.106  71.615  1.00  0.00    -0.197 C  
HETATM   19  H   UNL     1      -9.520   7.440  69.730  1.00  0.00     0.000 HD 
HETATM   20  O   UNL     1     -10.139   6.809  72.792  1.00  0.00    -0.170 OA 
BRANCH  18  21
HETATM   21  C   UNL     1     -11.728   7.198  71.057  1.00  0.00    -0.320 C  
BRANCH  21  22
HETATM   22  N   UNL     1     -12.254   8.559  71.296  1.00  0.00    -0.293 NA 
HETATM   23  C   UNL     1     -13.307   8.735  72.135  1.00  0.00    -0.423 A  
HETATM   24  C   UNL     1     -13.829  10.002  72.355  1.00  0.00    -0.010 A  
HETATM   25  C   UNL     1     -13.253  11.096  71.725  1.00  0.00    -0.486 A  
HETATM   26  C   UNL     1     -12.165  10.903  70.883  1.00  0.00    -0.485 A  
HETATM   27  C   UNL     1     -11.679   9.618  70.683  1.00  0.00    -0.280 A  
ENDBRANCH  21  22
ENDBRANCH  18  21
ENDBRANCH  16  17
ENDBRANCH  15  16
ENDBRANCH  14  15
ENDBRANCH  12  14
ENDBRANCH  11  12
ENDBRANCH  10  11
ENDBRANCH   9  10
ENDBRANCH   8   9
ENDBRANCH   7   8
ENDBRANCH   6   7
ENDBRANCH   5   6
ENDBRANCH   4   5
ENDBRANCH   3   4
ENDBRANCH   2   3
TORSDOF 16
ENDMDL
MODEL      372
REMARK 921   NORMALIZED FREE ENERGY PREDICTED BY IDOCK:   -2.58 KCAL/MOL
REMARK 922        TOTAL FREE ENERGY PREDICTED BY IDOCK:   -7.08 KCAL/MOL
REMARK 923 INTER-LIGAND FREE ENERGY PREDICTED BY IDOCK:   -5.74 KCAL/MOL
REMARK 924 INTRA-LIGAND FREE ENERGY PREDICTED BY IDOCK:   -1.34 KCAL/MOL
REMARK 927      BINDING AFFINITY PREDICTED BY RF-SCORE:    0.00 PKD
ROOT
HETATM    1  C   UNL     1     -10.044  15.515  70.296  1.00  0.00    -0.056 C  
HETATM    2  C   UNL     1     -11.558  15.400  70.289  1.00  0.00    -0.346 C  
ENDROOT
BRANCH   2   3
HETATM    3  C   UNL     1     -12.090  15.252  68.865  1.00  0.00    -0.223 C  
BRANCH   3   4
HETATM    4  C   UNL     1     -10.952  15.225  67.849  1.00  0.00    -0.306 C  
BRANCH   4   5
HETATM    5  C   UNL     1     -10.934  16.509  67.020  1.00  0.00    -0.012 C  
BRANCH   5   6
HETATM    6  C   UNL     1      -9.670  16.583  66.173  1.00  0.00    -0.344 C  
BRANCH   6   7
HETATM    7  C   UNL     1      -8.668  17.582  66.745  1.00  0.00    -0.278 C  
BRANCH   7   8
HETATM    8  C   UNL     1      -7.278  17.290  66.183  1.00  0.00    -0.304 C  
BRANCH   8   9
HETATM    9  C   UNL     1      -6.292  16.914  67.279  1.00  0.00    -0.203 C  
BRANCH   9  10
HETATM   10  C   UNL     1      -6.991  16.286  68.495  1.00  0.00    -0.143 C  
BRANCH  10  11
HETATM   11  C   UNL     1      -6.385  14.950  68.948  1.00  0.00    -0.087 C  
BRANCH  11  12
HETATM   12  C   UNL     1      -6.878  13.827  68.071  1.00  0.00    -0.140 C  
HETATM   13  O   UNL     1      -7.742  13.931  67.214  1.00  0.00    -0.164 OA 
BRANCH  12  14
HETATM   14  O   UNL     1      -6.087  12.732  68.247  1.00  0.00    -0.063 OA 
BRANCH  14  15
HETATM   15  C   UNL     1      -6.117  11.804  67.156  1.00  0.00    -0.144 C  
BRANCH  15  16
HETATM   16  C   UNL     1      -7.089  10.694  67.567  1.00  0.00    -0.089 C  
BRANCH  16  17
HETATM   17  N   UNL     1      -8.461  10.911  67.139  1.00  0.00    -0.126 N  
HETATM   18  C   UNL     1      -9.513  10.406  67.864  1.00  0.00    -0.138 C  
HETATM   19  H   UNL     1      -8.646  11.446  66.291  1.00  0.00     0.000 HD 
HETATM   20  O   UNL     1      -9.372   9.660  68.828  1.00  0.00    -0.143 OA 
BRANCH  18  21
HETATM   21  C   UNL     1     -10.898  10.745  67.353  1.00  0.00    -0.290 C  
BRANCH  21  22
HETATM   22  N   UNL     1     -10.789  11.261  65.971  1.00  0.00    -0.248 NA 
HETATM   23  C   UNL     1     -11.288  12.487  65.670  1.00  0.00    -0.335 A  
HETATM   24  C   UNL     1     -11.216  12.979  64.374  1.00  0.00    -0.393 A  
HETATM   25  C   UNL     1     -10.610  12.215  63.387  1.00  0.00    -0.454 A  
HETATM   26  C   UNL     1     -10.089  10.970  63.713  1.00  0.00    -0.420 A  
HETATM   27  C   UNL     1     -10.190  10.511  65.020  1.00  0.00    -0.295 A  
ENDBRANCH  21  22
ENDBRANCH  18  21
ENDBRANCH  16  17
ENDBRANCH  15  16
ENDBRANCH  14  15
ENDBRANCH  12  14
ENDBRANCH  11  12
ENDBRANCH  10  11
ENDBRANCH   9  10
ENDBRANCH   8   9
ENDBRANCH   7   8
ENDBRANCH   6   7
ENDBRANCH   5   6
ENDBRANCH   4   5
ENDBRANCH   3   4
ENDBRANCH   2   3
TORSDOF 16
ENDMDL
MODEL      373
REMARK 921   NORMALIZED FREE ENERGY PREDICTED BY IDOCK:   -2.57 KCAL/MOL
REMARK 922        TOTAL FREE ENERGY PREDICTED BY IDOCK:   -7.06 KCAL/MOL
REMARK 923 INTER-LIGAND FREE ENERGY PREDICTED BY IDOCK:   -5.48 KCAL/MOL
REMARK 924 INTRA-LIGAND FREE ENERGY PREDICTED BY IDOCK:   -1.58 KCAL/MOL
REMARK 927      BINDING AFFINITY PREDICTED BY RF-SCORE:    0.00 PKD
ROOT
HETATM    1  C   UNL     1      -8.125   9.329  69.391  1.00  0.00    -0.108 C  
HETATM    2  C   UNL     1      -9.459   9.976  69.722  1.00  0.00    -0.239 C  
ENDROOT
BRANCH   2   3
HETATM    3  C   UNL     1     -10.569   8.931  69.812  1.00  0.00    -0.230 C  
BRANCH   3   4
HETATM    4  C   UNL     1     -11.731   9.431  70.666  1.00  0.00    -0.302 C  
BRANCH   4   5
HETATM    5  C   UNL     1     -11.561   8.996  72.121  1.00  0.00    -0.348 C  
BRANCH   5   6
HETATM    6  C   UNL     1     -10.685   7.752  72.210  1.00  0.00    -0.325 C  
BRANCH   6   7
HETATM    7  C   UNL     1     -11.518   6.474  72.159  1.00  0.00    -0.332 C  
BRANCH   7   8
HETATM    8  C   UNL     1     -10.729   5.325  72.781  1.00  0.00    -0.292 C  
BRANCH   8   9
HETATM    9  C   UNL     1      -9.948   4.543  71.735  1.00  0.00    -0.264 C  
BRANCH   9  10
HETATM   10  C   UNL     1     -10.157   5.102  70.319  1.00  0.00    -0.338 C  
BRANCH  10  11
HETATM   11  C   UNL     1      -8.887   5.124  69.458  1.00  0.00    -0.120 C  
BRANCH  11  12
HETATM   12  C   UNL     1      -9.176   4.576  68.083  1.00  0.00    -0.132 C  
HETATM   13  O   UNL     1      -9.634   3.468  67.849  1.00  0.00    -0.190 OA 
BRANCH  12  14
HETATM   14  O   UNL     1      -9.029   5.566  67.159  1.00  0.00    -0.114 OA 
BRANCH  14  15
HETATM   15  C   UNL     1     -10.250   5.960  66.521  1.00  0.00    -0.162 C  
BRANCH  15  16
HETATM   16  C   UNL     1     -10.410   7.459  66.797  1.00  0.00    -0.251 C  
BRANCH  16  17
HETATM   17  N   UNL     1      -9.745   8.319  65.832  1.00  0.00    -0.456 N  
HETATM   18  C   UNL     1      -9.920   9.681  65.866  1.00  0.00    -0.281 C  
HETATM   19  H   UNL     1      -9.142   7.906  65.122  1.00  0.00     0.000 HD 
HETATM   20  O   UNL     1     -10.714  10.242  66.614  1.00  0.00    -0.199 OA 
BRANCH  18  21
HETATM   21  C   UNL     1      -9.132  10.478  64.847  1.00  0.00    -0.205 C  
BRANCH  21  22
HETATM   22  N   UNL     1      -7.778  10.740  65.381  1.00  0.00    -0.045 NA 
HETATM   23  C   UNL     1      -7.629  11.517  66.484  1.00  0.00    -0.036 A  
HETATM   24  C   UNL     1      -6.365  11.792  66.987  1.00  0.00    -0.150 A  
HETATM   25  C   UNL     1      -5.250  11.249  66.365  1.00  0.00    -0.131 A  
HETATM   26  C   UNL     1      -5.418  10.443  65.247  1.00  0.00    -0.116 A  
HETATM   27  C   UNL     1      -6.700  10.199  64.770  1.00  0.00    -0.121 A  
ENDBRANCH  21  22
ENDBRANCH  18  21
ENDBRANCH  16  17
ENDBRANCH  15  16
ENDBRANCH  14  15
ENDBRANCH  12  14
ENDBRANCH  11  12
ENDBRANCH  10  11
ENDBRANCH   9  10
ENDBRANCH   8   9
ENDBRANCH   7   8
ENDBRANCH   6   7
ENDBRANCH   5   6
ENDBRANCH   4   5
ENDBRANCH   3   4
ENDBRANCH   2   3
TORSDOF 16
ENDMDL
MODEL      374
REMARK 921   NORMALIZED FREE ENERGY PREDICTED BY IDOCK:   -2.57 KCAL/MOL
REMARK 922        TOTAL FREE ENERGY PREDICTED BY IDOCK:   -7.05 KCAL/MOL
REMARK 923 INTER-LIGAND FREE ENERGY PREDICTED BY IDOCK:   -6.08 KCAL/MOL
REMARK 924 INTRA-LIGAND FREE ENERGY PREDICTED BY IDOCK:   -0.98 KCAL/MOL
REMARK 927      BINDING AFFINITY PREDICTED BY RF-SCORE:    0.00 PKD
ROOT
HETATM    1  C   UNL     1      -9.347   1.641  68.808  1.00  0.00    -0.219 C  
HETATM    2  C   UNL     1      -7.981   2.280  68.626  1.00  0.00    -0.062 C  
ENDROOT
BRANCH   2   3
HETATM    3  C   UNL     1      -8.028   3.390  67.578  1.00  0.00    -0.081 C  
BRANCH   3   4
HETATM    4  C   UNL     1      -9.430   3.537  66.992  1.00  0.00    -0.207 C  
BRANCH   4   5
HETATM    5  C   UNL     1      -9.448   4.593  65.888  1.00  0.00    -0.174 C  
BRANCH   5   6
HETATM    6  C   UNL     1      -8.063   4.750  65.273  1.00  0.00    -0.105 C  
BRANCH   6   7
HETATM    7  C   UNL     1      -7.715   6.218  65.040  1.00  0.00    -0.101 C  
BRANCH   7   8
HETATM    8  C   UNL     1      -8.311   7.069  66.158  1.00  0.00    -0.130 C  
BRANCH   8   9
HETATM    9  C   UNL     1      -8.044   8.552  65.946  1.00  0.00    -0.116 C  
BRANCH   9  10
HETATM   10  C   UNL     1      -8.602   9.409  67.093  1.00  0.00    -0.130 C  
BRANCH  10  11
HETATM   11  C   UNL     1      -8.194  10.888  67.028  1.00  0.00    -0.134 C  
BRANCH  11  12
HETATM   12  C   UNL     1      -9.328  11.722  66.489  1.00  0.00    -0.210 C  
HETATM   13  O   UNL     1     -10.005  11.442  65.512  1.00  0.00    -0.218 OA 
BRANCH  12  14
HETATM   14  O   UNL     1      -9.604  12.731  67.361  1.00  0.00    -0.191 OA 
BRANCH  14  15
HETATM   15  C   UNL     1      -8.450  13.278  68.010  1.00  0.00    -0.170 C  
BRANCH  15  16
HETATM   16  C   UNL     1      -8.923  14.549  68.723  1.00  0.00    -0.157 C  
BRANCH  16  17
HETATM   17  N   UNL     1     -10.265  14.460  69.274  1.00  0.00    -0.415 N  
HETATM   18  C   UNL     1     -11.137  15.518  69.180  1.00  0.00    -0.272 C  
HETATM   19  H   UNL     1     -10.564  13.602  69.737  1.00  0.00     0.000 HD 
HETATM   20  O   UNL     1     -10.817  16.619  68.741  1.00  0.00    -0.314 OA 
BRANCH  18  21
HETATM   21  C   UNL     1     -12.525  15.289  69.740  1.00  0.00    -0.188 C  
BRANCH  21  22
HETATM   22  N   UNL     1     -12.461  15.322  71.217  1.00  0.00    -0.336 NA 
HETATM   23  C   UNL     1     -11.924  16.399  71.843  1.00  0.00    -0.324 A  
HETATM   24  C   UNL     1     -11.834  16.439  73.228  1.00  0.00    -0.391 A  
HETATM   25  C   UNL     1     -12.318  15.373  73.973  1.00  0.00    -0.792 A  
HETATM   26  C   UNL     1     -12.880  14.284  73.320  1.00  0.00    -0.291 A  
HETATM   27  C   UNL     1     -12.942  14.281  71.932  1.00  0.00    -0.350 A  
ENDBRANCH  21  22
ENDBRANCH  18  21
ENDBRANCH  16  17
ENDBRANCH  15  16
ENDBRANCH  14  15
ENDBRANCH  12  14
ENDBRANCH  11  12
ENDBRANCH  10  11
ENDBRANCH   9  10
ENDBRANCH   8   9
ENDBRANCH   7   8
ENDBRANCH   6   7
ENDBRANCH   5   6
ENDBRANCH   4   5
ENDBRANCH   3   4
ENDBRANCH   2   3
TORSDOF 16
ENDMDL
MODEL      375
REMARK 921   NORMALIZED FREE ENERGY PREDICTED BY IDOCK:   -2.56 KCAL/MOL
REMARK 922        TOTAL FREE ENERGY PREDICTED BY IDOCK:   -7.03 KCAL/MOL
REMARK 923 INTER-LIGAND FREE ENERGY PREDICTED BY IDOCK:   -5.84 KCAL/MOL
REMARK 924 INTRA-LIGAND FREE ENERGY PREDICTED BY IDOCK:   -1.19 KCAL/MOL
REMARK 927      BINDING AFFINITY PREDICTED BY RF-SCORE:    0.00 PKD
ROOT
HETATM    1  C   UNL     1      -7.645   2.928  71.454  1.00  0.00    -0.040 C  
HETATM    2  C   UNL     1      -8.553   4.050  70.980  1.00  0.00    -0.108 C  
ENDROOT
BRANCH   2   3
HETATM    3  C   UNL     1      -9.999   3.801  71.401  1.00  0.00    -0.178 C  
BRANCH   3   4
HETATM    4  C   UNL     1     -10.071   2.888  72.621  1.00  0.00    -0.232 C  
BRANCH   4   5
HETATM    5  C   UNL     1     -10.609   3.645  73.835  1.00  0.00    -0.286 C  
BRANCH   5   6
HETATM    6  C   UNL     1     -11.101   5.028  73.429  1.00  0.00    -0.404 C  
BRANCH   6   7
HETATM    7  C   UNL     1     -10.460   6.123  74.278  1.00  0.00    -0.211 C  
BRANCH   7   8
HETATM    8  C   UNL     1      -9.301   6.754  73.510  1.00  0.00    -0.179 C  
BRANCH   8   9
HETATM    9  C   UNL     1      -9.619   8.176  73.070  1.00  0.00    -0.336 C  
BRANCH   9  10
HETATM   10  C   UNL     1     -10.107   8.234  71.614  1.00  0.00    -0.279 C  
BRANCH  10  11
HETATM   11  C   UNL     1     -11.634   8.196  71.461  1.00  0.00    -0.315 C  
BRANCH  11  12
HETATM   12  C   UNL     1     -12.213   9.578  71.626  1.00  0.00    -0.398 C  
HETATM   13  O   UNL     1     -13.171   9.860  72.329  1.00  0.00    -0.431 OA 
BRANCH  12  14
HETATM   14  O   UNL     1     -11.396  10.487  71.026  1.00  0.00    -0.257 OA 
BRANCH  14  15
HETATM   15  C   UNL     1     -12.081  11.621  70.478  1.00  0.00    -0.366 C  
BRANCH  15  16
HETATM   16  C   UNL     1     -11.902  11.533  68.959  1.00  0.00    -0.343 C  
BRANCH  16  17
HETATM   17  N   UNL     1     -10.517  11.553  68.518  1.00  0.00    -0.201 N  
HETATM   18  C   UNL     1      -9.943  10.442  67.948  1.00  0.00    -0.167 C  
HETATM   19  H   UNL     1      -9.964  12.402  68.633  1.00  0.00     0.000 HD 
HETATM   20  O   UNL     1     -10.505   9.353  67.879  1.00  0.00    -0.219 OA 
BRANCH  18  21
HETATM   21  C   UNL     1      -8.513  10.600  67.476  1.00  0.00    -0.121 C  
BRANCH  21  22
HETATM   22  N   UNL     1      -8.333   9.840  66.221  1.00  0.00    -0.116 NA 
HETATM   23  C   UNL     1      -8.064  10.503  65.067  1.00  0.00    -0.096 A  
HETATM   24  C   UNL     1      -7.914   9.809  63.873  1.00  0.00    -0.146 A  
HETATM   25  C   UNL     1      -8.022   8.426  63.871  1.00  0.00    -0.158 A  
HETATM   26  C   UNL     1      -8.280   7.760  65.061  1.00  0.00    -0.123 A  
HETATM   27  C   UNL     1      -8.432   8.492  66.232  1.00  0.00    -0.124 A  
ENDBRANCH  21  22
ENDBRANCH  18  21
ENDBRANCH  16  17
ENDBRANCH  15  16
ENDBRANCH  14  15
ENDBRANCH  12  14
ENDBRANCH  11  12
ENDBRANCH  10  11
ENDBRANCH   9  10
ENDBRANCH   8   9
ENDBRANCH   7   8
ENDBRANCH   6   7
ENDBRANCH   5   6
ENDBRANCH   4   5
ENDBRANCH   3   4
ENDBRANCH   2   3
TORSDOF 16
ENDMDL
MODEL      376
REMARK 921   NORMALIZED FREE ENERGY PREDICTED BY IDOCK:   -2.55 KCAL/MOL
REMARK 922        TOTAL FREE ENERGY PREDICTED BY IDOCK:   -7.02 KCAL/MOL
REMARK 923 INTER-LIGAND FREE ENERGY PREDICTED BY IDOCK:   -6.17 KCAL/MOL
REMARK 924 INTRA-LIGAND FREE ENERGY PREDICTED BY IDOCK:   -0.85 KCAL/MOL
REMARK 927      BINDING AFFINITY PREDICTED BY RF-SCORE:    0.00 PKD
ROOT
HETATM    1  C   UNL     1      -9.203   2.450  65.917  1.00  0.00    -0.027 C  
HETATM    2  C   UNL     1      -9.795   3.704  65.297  1.00  0.00    -0.106 C  
ENDROOT
BRANCH   2   3
HETATM    3  C   UNL     1      -9.290   4.958  66.007  1.00  0.00    -0.158 C  
BRANCH   3   4
HETATM    4  C   UNL     1      -9.936   5.114  67.381  1.00  0.00    -0.215 C  
BRANCH   4   5
HETATM    5  C   UNL     1      -8.872   5.218  68.472  1.00  0.00    -0.102 C  
BRANCH   5   6
HETATM    6  C   UNL     1      -8.723   6.660  68.941  1.00  0.00    -0.128 C  
BRANCH   6   7
HETATM    7  C   UNL     1     -10.080   7.325  69.153  1.00  0.00    -0.183 C  
BRANCH   7   8
HETATM    8  C   UNL     1      -9.946   8.444  70.183  1.00  0.00    -0.190 C  
BRANCH   8   9
HETATM    9  C   UNL     1     -10.524   9.756  69.672  1.00  0.00    -0.263 C  
BRANCH   9  10
HETATM   10  C   UNL     1      -9.929  10.160  68.314  1.00  0.00    -0.168 C  
BRANCH  10  11
HETATM   11  C   UNL     1     -10.321  11.570  67.851  1.00  0.00    -0.203 C  
BRANCH  11  12
HETATM   12  C   UNL     1     -11.017  11.508  66.514  1.00  0.00    -0.293 C  
HETATM   13  O   UNL     1     -10.682  10.797  65.580  1.00  0.00    -0.189 OA 
BRANCH  12  14
HETATM   14  O   UNL     1     -12.176  12.220  66.572  1.00  0.00    -0.588 OA 
BRANCH  14  15
HETATM   15  C   UNL     1     -12.446  12.998  65.399  1.00  0.00    -0.476 C  
BRANCH  15  16
HETATM   16  C   UNL     1     -12.390  14.465  65.839  1.00  0.00    -0.326 C  
BRANCH  16  17
HETATM   17  N   UNL     1     -11.117  15.117  65.582  1.00  0.00    -0.341 N  
HETATM   18  C   UNL     1     -10.332  15.563  66.618  1.00  0.00    -0.286 C  
HETATM   19  H   UNL     1     -10.801  15.245  64.620  1.00  0.00     0.000 HD 
HETATM   20  O   UNL     1     -10.691  15.548  67.791  1.00  0.00    -0.281 OA 
BRANCH  18  21
HETATM   21  C   UNL     1      -9.002  16.175  66.230  1.00  0.00    -0.344 C  
BRANCH  21  22
HETATM   22  N   UNL     1      -8.586  17.130  67.279  1.00  0.00    -0.198 NA 
HETATM   23  C   UNL     1      -7.482  16.873  68.024  1.00  0.00    -0.173 A  
HETATM   24  C   UNL     1      -7.088  17.746  69.028  1.00  0.00    -0.229 A  
HETATM   25  C   UNL     1      -7.824  18.901  69.254  1.00  0.00    -0.038 A  
HETATM   26  C   UNL     1      -8.942  19.161  68.473  1.00  0.00    -0.406 A  
HETATM   27  C   UNL     1      -9.306  18.256  67.484  1.00  0.00    -0.261 A  
ENDBRANCH  21  22
ENDBRANCH  18  21
ENDBRANCH  16  17
ENDBRANCH  15  16
ENDBRANCH  14  15
ENDBRANCH  12  14
ENDBRANCH  11  12
ENDBRANCH  10  11
ENDBRANCH   9  10
ENDBRANCH   8   9
ENDBRANCH   7   8
ENDBRANCH   6   7
ENDBRANCH   5   6
ENDBRANCH   4   5
ENDBRANCH   3   4
ENDBRANCH   2   3
TORSDOF 16
ENDMDL
MODEL      377
REMARK 921   NORMALIZED FREE ENERGY PREDICTED BY IDOCK:   -2.52 KCAL/MOL
REMARK 922        TOTAL FREE ENERGY PREDICTED BY IDOCK:   -6.97 KCAL/MOL
REMARK 923 INTER-LIGAND FREE ENERGY PREDICTED BY IDOCK:   -4.50 KCAL/MOL
REMARK 924 INTRA-LIGAND FREE ENERGY PREDICTED BY IDOCK:   -2.47 KCAL/MOL
REMARK 927      BINDING AFFINITY PREDICTED BY RF-SCORE:    0.00 PKD
ROOT
HETATM    1  C   UNL     1     -10.052   8.208  72.617  1.00  0.00    -0.379 C  
HETATM    2  C   UNL     1     -11.125   7.226  73.056  1.00  0.00    -0.361 C  
ENDROOT
BRANCH   2   3
HETATM    3  C   UNL     1     -11.417   6.206  71.957  1.00  0.00    -0.366 C  
BRANCH   3   4
HETATM    4  C   UNL     1     -11.872   6.892  70.672  1.00  0.00    -0.418 C  
BRANCH   4   5
HETATM    5  C   UNL     1     -11.136   6.320  69.462  1.00  0.00    -0.476 C  
BRANCH   5   6
HETATM    6  C   UNL     1     -10.209   7.365  68.855  1.00  0.00    -0.200 C  
BRANCH   6   7
HETATM    7  C   UNL     1     -10.875   8.736  68.787  1.00  0.00    -0.026 C  
BRANCH   7   8
HETATM    8  C   UNL     1      -9.905   9.801  69.292  1.00  0.00    -0.208 C  
BRANCH   8   9
HETATM    9  C   UNL     1     -10.111  11.135  68.588  1.00  0.00    -0.208 C  
BRANCH   9  10
HETATM   10  C   UNL     1      -8.794  11.711  68.045  1.00  0.00    -0.162 C  
BRANCH  10  11
HETATM   11  C   UNL     1      -7.553  10.879  68.397  1.00  0.00    -0.104 C  
BRANCH  11  12
HETATM   12  C   UNL     1      -6.820  11.498  69.561  1.00  0.00    -0.075 C  
HETATM   13  O   UNL     1      -6.494  12.672  69.643  1.00  0.00    -0.114 OA 
BRANCH  12  14
HETATM   14  O   UNL     1      -6.745  10.598  70.580  1.00  0.00    -0.332 OA 
BRANCH  14  15
HETATM   15  C   UNL     1      -5.921   9.460  70.298  1.00  0.00    -0.040 C  
BRANCH  15  16
HETATM   16  C   UNL     1      -6.695   8.238  70.804  1.00  0.00    -0.038 C  
BRANCH  16  17
HETATM   17  N   UNL     1      -6.381   7.001  70.107  1.00  0.00    -0.034 N  
HETATM   18  C   UNL     1      -7.134   5.870  70.308  1.00  0.00    -0.074 C  
HETATM   19  H   UNL     1      -5.592   6.973  69.462  1.00  0.00     0.000 HD 
HETATM   20  O   UNL     1      -8.025   5.792  71.149  1.00  0.00    -0.108 OA 
BRANCH  18  21
HETATM   21  C   UNL     1      -6.748   4.658  69.484  1.00  0.00    -0.044 C  
BRANCH  21  22
HETATM   22  N   UNL     1      -7.744   4.468  68.409  1.00  0.00    -0.079 NA 
HETATM   23  C   UNL     1      -7.690   5.245  67.297  1.00  0.00    -0.096 A  
HETATM   24  C   UNL     1      -8.630   5.097  66.287  1.00  0.00    -0.114 A  
HETATM   25  C   UNL     1      -9.619   4.132  66.411  1.00  0.00    -0.215 A  
HETATM   26  C   UNL     1      -9.653   3.333  67.546  1.00  0.00    -0.124 A  
HETATM   27  C   UNL     1      -8.699   3.520  68.539  1.00  0.00    -0.100 A  
ENDBRANCH  21  22
ENDBRANCH  18  21
ENDBRANCH  16  17
ENDBRANCH  15  16
ENDBRANCH  14  15
ENDBRANCH  12  14
ENDBRANCH  11  12
ENDBRANCH  10  11
ENDBRANCH   9  10
ENDBRANCH   8   9
ENDBRANCH   7   8
ENDBRANCH   6   7
ENDBRANCH   5   6
ENDBRANCH   4   5
ENDBRANCH   3   4
ENDBRANCH   2   3
TORSDOF 16
ENDMDL
MODEL      378
REMARK 921   NORMALIZED FREE ENERGY PREDICTED BY IDOCK:   -2.52 KCAL/MOL
REMARK 922        TOTAL FREE ENERGY PREDICTED BY IDOCK:   -6.96 KCAL/MOL
REMARK 923 INTER-LIGAND FREE ENERGY PREDICTED BY IDOCK:   -5.33 KCAL/MOL
REMARK 924 INTRA-LIGAND FREE ENERGY PREDICTED BY IDOCK:   -1.63 KCAL/MOL
REMARK 927      BINDING AFFINITY PREDICTED BY RF-SCORE:    0.00 PKD
ROOT
HETATM    1  C   UNL     1     -10.446   2.833  73.137  1.00  0.00    -0.250 C  
HETATM    2  C   UNL     1     -10.333   3.910  72.072  1.00  0.00    -0.101 C  
ENDROOT
BRANCH   2   3
HETATM    3  C   UNL     1      -9.150   4.834  72.350  1.00  0.00    -0.141 C  
BRANCH   3   4
HETATM    4  C   UNL     1      -9.241   6.114  71.524  1.00  0.00    -0.152 C  
BRANCH   4   5
HETATM    5  C   UNL     1      -9.070   7.346  72.411  1.00  0.00    -0.164 C  
BRANCH   5   6
HETATM    6  C   UNL     1     -10.380   7.691  73.109  1.00  0.00    -0.411 C  
BRANCH   6   7
HETATM    7  C   UNL     1     -11.570   7.570  72.161  1.00  0.00    -0.340 C  
BRANCH   7   8
HETATM    8  C   UNL     1     -11.927   8.949  71.610  1.00  0.00    -0.415 C  
BRANCH   8   9
HETATM    9  C   UNL     1     -11.429   9.135  70.184  1.00  0.00    -0.110 C  
BRANCH   9  10
HETATM   10  C   UNL     1     -11.195  10.615  69.843  1.00  0.00    -0.378 C  
BRANCH  10  11
HETATM   11  C   UNL     1     -12.405  11.311  69.205  1.00  0.00    -0.172 C  
BRANCH  11  12
HETATM   12  C   UNL     1     -11.993  12.033  67.947  1.00  0.00    -0.134 C  
HETATM   13  O   UNL     1     -11.696  11.493  66.892  1.00  0.00    -0.533 OA 
BRANCH  12  14
HETATM   14  O   UNL     1     -12.184  13.372  68.108  1.00  0.00    -0.284 OA 
BRANCH  14  15
HETATM   15  C   UNL     1     -11.877  14.152  66.946  1.00  0.00    -0.431 C  
BRANCH  15  16
HETATM   16  C   UNL     1     -10.624  14.961  67.295  1.00  0.00    -0.272 C  
BRANCH  16  17
HETATM   17  N   UNL     1      -9.372  14.283  67.000  1.00  0.00    -0.231 N  
HETATM   18  C   UNL     1      -8.575  13.806  68.011  1.00  0.00    -0.177 C  
HETATM   19  H   UNL     1      -9.083  14.160  66.030  1.00  0.00     0.000 HD 
HETATM   20  O   UNL     1      -8.796  14.013  69.200  1.00  0.00     0.096 OA 
BRANCH  18  21
HETATM   21  C   UNL     1      -7.324  13.067  67.581  1.00  0.00    -0.147 C  
BRANCH  21  22
HETATM   22  N   UNL     1      -7.134  11.891  68.456  1.00  0.00    -0.083 NA 
HETATM   23  C   UNL     1      -8.090  10.929  68.507  1.00  0.00    -0.137 A  
HETATM   24  C   UNL     1      -7.939   9.828  69.340  1.00  0.00    -0.125 A  
HETATM   25  C   UNL     1      -6.791   9.707  70.108  1.00  0.00    -0.097 A  
HETATM   26  C   UNL     1      -5.813  10.690  70.033  1.00  0.00    -0.076 A  
HETATM   27  C   UNL     1      -6.007  11.780  69.194  1.00  0.00    -0.070 A  
ENDBRANCH  21  22
ENDBRANCH  18  21
ENDBRANCH  16  17
ENDBRANCH  15  16
ENDBRANCH  14  15
ENDBRANCH  12  14
ENDBRANCH  11  12
ENDBRANCH  10  11
ENDBRANCH   9  10
ENDBRANCH   8   9
ENDBRANCH   7   8
ENDBRANCH   6   7
ENDBRANCH   5   6
ENDBRANCH   4   5
ENDBRANCH   3   4
ENDBRANCH   2   3
TORSDOF 16
ENDMDL
MODEL      379
REMARK 921   NORMALIZED FREE ENERGY PREDICTED BY IDOCK:   -2.51 KCAL/MOL
REMARK 922        TOTAL FREE ENERGY PREDICTED BY IDOCK:   -6.93 KCAL/MOL
REMARK 923 INTER-LIGAND FREE ENERGY PREDICTED BY IDOCK:   -5.59 KCAL/MOL
REMARK 924 INTRA-LIGAND FREE ENERGY PREDICTED BY IDOCK:   -1.33 KCAL/MOL
REMARK 927      BINDING AFFINITY PREDICTED BY RF-SCORE:    0.00 PKD
ROOT
HETATM    1  C   UNL     1      -7.822   7.639  64.263  1.00  0.00    -0.135 C  
HETATM    2  C   UNL     1      -7.878   6.536  65.306  1.00  0.00    -0.109 C  
ENDROOT
BRANCH   2   3
HETATM    3  C   UNL     1      -9.087   6.710  66.224  1.00  0.00    -0.168 C  
BRANCH   3   4
HETATM    4  C   UNL     1      -9.721   5.364  66.563  1.00  0.00    -0.179 C  
BRANCH   4   5
HETATM    5  C   UNL     1     -10.399   5.413  67.932  1.00  0.00    -0.222 C  
BRANCH   5   6
HETATM    6  C   UNL     1      -9.585   6.258  68.903  1.00  0.00    -0.135 C  
BRANCH   6   7
HETATM    7  C   UNL     1     -10.465   7.253  69.655  1.00  0.00    -0.239 C  
BRANCH   7   8
HETATM    8  C   UNL     1     -11.578   6.504  70.384  1.00  0.00    -0.470 C  
BRANCH   8   9
HETATM    9  C   UNL     1     -11.510   6.712  71.890  1.00  0.00    -0.332 C  
BRANCH   9  10
HETATM   10  C   UNL     1     -11.553   8.201  72.270  1.00  0.00    -0.436 C  
BRANCH  10  11
HETATM   11  C   UNL     1     -12.968   8.752  72.492  1.00  0.00    -0.382 C  
BRANCH  11  12
HETATM   12  C   UNL     1     -13.156  10.039  71.728  1.00  0.00    -0.457 C  
HETATM   13  O   UNL     1     -13.469  11.111  72.223  1.00  0.00    -0.337 OA 
BRANCH  12  14
HETATM   14  O   UNL     1     -12.743   9.868  70.442  1.00  0.00    -0.124 OA 
BRANCH  14  15
HETATM   15  C   UNL     1     -12.608  11.088  69.702  1.00  0.00    -0.017 C  
BRANCH  15  16
HETATM   16  C   UNL     1     -11.138  11.500  69.824  1.00  0.00    -0.084 C  
BRANCH  16  17
HETATM   17  N   UNL     1     -10.513  11.868  68.564  1.00  0.00    -0.219 N  
HETATM   18  C   UNL     1     -10.502  13.174  68.138  1.00  0.00    -0.248 C  
HETATM   19  H   UNL     1     -10.078  11.147  67.989  1.00  0.00     0.000 HD 
HETATM   20  O   UNL     1     -11.100  14.077  68.715  1.00  0.00    -0.243 OA 
BRANCH  18  21
HETATM   21  C   UNL     1      -9.773  13.444  66.838  1.00  0.00    -0.253 C  
BRANCH  21  22
HETATM   22  N   UNL     1      -8.490  12.709  66.843  1.00  0.00    -0.159 NA 
HETATM   23  C   UNL     1      -8.399  11.510  66.214  1.00  0.00    -0.076 A  
HETATM   24  C   UNL     1      -7.209  10.795  66.227  1.00  0.00    -0.137 A  
HETATM   25  C   UNL     1      -6.102  11.326  66.873  1.00  0.00    -0.120 A  
HETATM   26  C   UNL     1      -6.204  12.561  67.498  1.00  0.00    -0.155 A  
HETATM   27  C   UNL     1      -7.416  13.240  67.470  1.00  0.00    -0.157 A  
ENDBRANCH  21  22
ENDBRANCH  18  21
ENDBRANCH  16  17
ENDBRANCH  15  16
ENDBRANCH  14  15
ENDBRANCH  12  14
ENDBRANCH  11  12
ENDBRANCH  10  11
ENDBRANCH   9  10
ENDBRANCH   8   9
ENDBRANCH   7   8
ENDBRANCH   6   7
ENDBRANCH   5   6
ENDBRANCH   4   5
ENDBRANCH   3   4
ENDBRANCH   2   3
TORSDOF 16
ENDMDL
MODEL      380
REMARK 921   NORMALIZED FREE ENERGY PREDICTED BY IDOCK:   -2.51 KCAL/MOL
REMARK 922        TOTAL FREE ENERGY PREDICTED BY IDOCK:   -6.93 KCAL/MOL
REMARK 923 INTER-LIGAND FREE ENERGY PREDICTED BY IDOCK:   -5.91 KCAL/MOL
REMARK 924 INTRA-LIGAND FREE ENERGY PREDICTED BY IDOCK:   -1.02 KCAL/MOL
REMARK 927      BINDING AFFINITY PREDICTED BY RF-SCORE:    0.00 PKD
ROOT
HETATM    1  C   UNL     1     -11.258   5.681  72.645  1.00  0.00    -0.350 C  
HETATM    2  C   UNL     1     -11.917   6.480  71.534  1.00  0.00    -0.383 C  
ENDROOT
BRANCH   2   3
HETATM    3  C   UNL     1     -11.773   7.980  71.777  1.00  0.00    -0.335 C  
BRANCH   3   4
HETATM    4  C   UNL     1     -11.143   8.677  70.574  1.00  0.00    -0.268 C  
BRANCH   4   5
HETATM    5  C   UNL     1      -9.849   9.385  70.974  1.00  0.00    -0.317 C  
BRANCH   5   6
HETATM    6  C   UNL     1      -9.018   8.502  71.896  1.00  0.00    -0.301 C  
BRANCH   6   7
HETATM    7  C   UNL     1      -7.638   8.218  71.309  1.00  0.00    -0.086 C  
BRANCH   7   8
HETATM    8  C   UNL     1      -7.762   7.972  69.807  1.00  0.00    -0.101 C  
BRANCH   8   9
HETATM    9  C   UNL     1      -7.114   9.084  68.995  1.00  0.00    -0.064 C  
BRANCH   9  10
HETATM   10  C   UNL     1      -6.285   8.536  67.824  1.00  0.00    -0.052 C  
BRANCH  10  11
HETATM   11  C   UNL     1      -6.890   7.294  67.153  1.00  0.00    -0.077 C  
BRANCH  11  12
HETATM   12  C   UNL     1      -7.882   7.701  66.092  1.00  0.00    -0.096 C  
HETATM   13  O   UNL     1      -9.095   7.609  66.192  1.00  0.00    -0.173 OA 
BRANCH  12  14
HETATM   14  O   UNL     1      -7.232   8.357  65.091  1.00  0.00    -0.077 OA 
BRANCH  14  15
HETATM   15  C   UNL     1      -7.933   8.361  63.841  1.00  0.00    -0.158 C  
BRANCH  15  16
HETATM   16  C   UNL     1      -7.877   9.803  63.326  1.00  0.00    -0.139 C  
BRANCH  16  17
HETATM   17  N   UNL     1      -8.008  10.813  64.362  1.00  0.00    -0.360 N  
HETATM   18  C   UNL     1      -9.197  10.989  65.028  1.00  0.00    -0.197 C  
HETATM   19  H   UNL     1      -7.208  11.399  64.598  1.00  0.00     0.000 HD 
HETATM   20  O   UNL     1     -10.233  10.404  64.725  1.00  0.00    -0.345 OA 
BRANCH  18  21
HETATM   21  C   UNL     1      -9.198  12.032  66.126  1.00  0.00    -0.179 C  
BRANCH  21  22
HETATM   22  N   UNL     1     -10.335  12.953  65.916  1.00  0.00    -0.280 NA 
HETATM   23  C   UNL     1     -11.556  12.640  66.418  1.00  0.00    -0.384 A  
HETATM   24  C   UNL     1     -12.641  13.481  66.212  1.00  0.00    -0.298 A  
HETATM   25  C   UNL     1     -12.465  14.660  65.502  1.00  0.00    -0.142 A  
HETATM   26  C   UNL     1     -11.206  14.976  65.009  1.00  0.00    -0.413 A  
HETATM   27  C   UNL     1     -10.149  14.103  65.229  1.00  0.00    -0.335 A  
ENDBRANCH  21  22
ENDBRANCH  18  21
ENDBRANCH  16  17
ENDBRANCH  15  16
ENDBRANCH  14  15
ENDBRANCH  12  14
ENDBRANCH  11  12
ENDBRANCH  10  11
ENDBRANCH   9  10
ENDBRANCH   8   9
ENDBRANCH   7   8
ENDBRANCH   6   7
ENDBRANCH   5   6
ENDBRANCH   4   5
ENDBRANCH   3   4
ENDBRANCH   2   3
TORSDOF 16
ENDMDL
MODEL      381
REMARK 921   NORMALIZED FREE ENERGY PREDICTED BY IDOCK:   -2.49 KCAL/MOL
REMARK 922        TOTAL FREE ENERGY PREDICTED BY IDOCK:   -6.91 KCAL/MOL
REMARK 923 INTER-LIGAND FREE ENERGY PREDICTED BY IDOCK:   -6.34 KCAL/MOL
REMARK 924 INTRA-LIGAND FREE ENERGY PREDICTED BY IDOCK:   -0.57 KCAL/MOL
REMARK 927      BINDING AFFINITY PREDICTED BY RF-SCORE:    0.00 PKD
ROOT
HETATM    1  C   UNL     1      -7.309   7.042  64.771  1.00  0.00    -0.085 C  
HETATM    2  C   UNL     1      -7.704   8.063  63.718  1.00  0.00    -0.135 C  
ENDROOT
BRANCH   2   3
HETATM    3  C   UNL     1      -7.918   9.440  64.342  1.00  0.00    -0.131 C  
BRANCH   3   4
HETATM    4  C   UNL     1      -9.348   9.601  64.851  1.00  0.00    -0.306 C  
BRANCH   4   5
HETATM    5  C   UNL     1      -9.449   9.201  66.322  1.00  0.00    -0.299 C  
BRANCH   5   6
HETATM    6  C   UNL     1      -9.473  10.435  67.214  1.00  0.00    -0.176 C  
BRANCH   6   7
HETATM    7  C   UNL     1      -8.073  10.808  67.695  1.00  0.00    -0.114 C  
BRANCH   7   8
HETATM    8  C   UNL     1      -7.604  12.070  66.975  1.00  0.00    -0.111 C  
BRANCH   8   9
HETATM    9  C   UNL     1      -6.276  12.574  67.521  1.00  0.00    -0.155 C  
BRANCH   9  10
HETATM   10  C   UNL     1      -6.287  14.093  67.753  1.00  0.00    -0.169 C  
BRANCH  10  11
HETATM   11  C   UNL     1      -7.337  14.567  68.767  1.00  0.00    -0.129 C  
BRANCH  11  12
HETATM   12  C   UNL     1      -7.852  15.933  68.390  1.00  0.00    -0.145 C  
HETATM   13  O   UNL     1      -7.701  16.949  69.051  1.00  0.00    -0.243 OA 
BRANCH  12  14
HETATM   14  O   UNL     1      -8.342  15.899  67.119  1.00  0.00    -0.171 OA 
BRANCH  14  15
HETATM   15  C   UNL     1      -9.562  15.161  66.981  1.00  0.00    -0.226 C  
BRANCH  15  16
HETATM   16  C   UNL     1     -10.665  16.049  67.566  1.00  0.00    -0.314 C  
BRANCH  16  17
HETATM   17  N   UNL     1     -11.066  15.691  68.917  1.00  0.00    -0.270 N  
HETATM   18  C   UNL     1     -11.916  14.636  69.143  1.00  0.00    -0.294 C  
HETATM   19  H   UNL     1     -10.711  16.230  69.707  1.00  0.00     0.000 HD 
HETATM   20  O   UNL     1     -12.472  14.012  68.244  1.00  0.00    -0.119 OA 
BRANCH  18  21
HETATM   21  C   UNL     1     -12.216  14.322  70.594  1.00  0.00    -0.357 C  
BRANCH  21  22
HETATM   22  N   UNL     1     -12.361  12.860  70.752  1.00  0.00    -0.359 NA 
HETATM   23  C   UNL     1     -11.769  12.025  69.859  1.00  0.00    -0.299 A  
HETATM   24  C   UNL     1     -11.912  10.650  69.978  1.00  0.00    -0.408 A  
HETATM   25  C   UNL     1     -12.651  10.129  71.030  1.00  0.00    -0.478 A  
HETATM   26  C   UNL     1     -13.236  10.993  71.946  1.00  0.00    -0.503 A  
HETATM   27  C   UNL     1     -13.076  12.364  71.786  1.00  0.00    -0.342 A  
ENDBRANCH  21  22
ENDBRANCH  18  21
ENDBRANCH  16  17
ENDBRANCH  15  16
ENDBRANCH  14  15
ENDBRANCH  12  14
ENDBRANCH  11  12
ENDBRANCH  10  11
ENDBRANCH   9  10
ENDBRANCH   8   9
ENDBRANCH   7   8
ENDBRANCH   6   7
ENDBRANCH   5   6
ENDBRANCH   4   5
ENDBRANCH   3   4
ENDBRANCH   2   3
TORSDOF 16
ENDMDL
MODEL      382
REMARK 921   NORMALIZED FREE ENERGY PREDICTED BY IDOCK:   -2.46 KCAL/MOL
REMARK 922        TOTAL FREE ENERGY PREDICTED BY IDOCK:   -6.84 KCAL/MOL
REMARK 923 INTER-LIGAND FREE ENERGY PREDICTED BY IDOCK:   -6.58 KCAL/MOL
REMARK 924 INTRA-LIGAND FREE ENERGY PREDICTED BY IDOCK:   -0.25 KCAL/MOL
REMARK 927      BINDING AFFINITY PREDICTED BY RF-SCORE:    0.00 PKD
ROOT
HETATM    1  C   UNL     1      -5.704  11.262  70.662  1.00  0.00    -0.123 C  
HETATM    2  C   UNL     1      -5.887  12.754  70.443  1.00  0.00    -0.153 C  
ENDROOT
BRANCH   2   3
HETATM    3  C   UNL     1      -6.639  13.029  69.143  1.00  0.00    -0.104 C  
BRANCH   3   4
HETATM    4  C   UNL     1      -7.348  11.776  68.637  1.00  0.00    -0.115 C  
BRANCH   4   5
HETATM    5  C   UNL     1      -8.602  12.144  67.846  1.00  0.00    -0.167 C  
BRANCH   5   6
HETATM    6  C   UNL     1      -9.744  11.192  68.179  1.00  0.00    -0.186 C  
BRANCH   6   7
HETATM    7  C   UNL     1     -10.306  11.453  69.573  1.00  0.00     0.121 C  
BRANCH   7   8
HETATM    8  C   UNL     1     -11.698  12.068  69.457  1.00  0.00    -0.408 C  
BRANCH   8   9
HETATM    9  C   UNL     1     -12.235  12.515  70.810  1.00  0.00    -0.332 C  
BRANCH   9  10
HETATM   10  C   UNL     1     -13.389  13.520  70.669  1.00  0.00     0.250 C  
BRANCH  10  11
HETATM   11  C   UNL     1     -13.677  14.328  71.942  1.00  0.00    -0.524 C  
BRANCH  11  12
HETATM   12  C   UNL     1     -12.448  15.090  72.369  1.00  0.00    -0.346 C  
HETATM   13  O   UNL     1     -11.619  14.695  73.174  1.00  0.00     0.042 OA 
BRANCH  12  14
HETATM   14  O   UNL     1     -12.304  16.195  71.586  1.00  0.00    -0.442 OA 
BRANCH  14  15
HETATM   15  C   UNL     1     -12.102  15.907  70.197  1.00  0.00    -0.255 C  
BRANCH  15  16
HETATM   16  C   UNL     1     -10.594  15.700  70.020  1.00  0.00    -0.332 C  
BRANCH  16  17
HETATM   17  N   UNL     1     -10.193  15.354  68.666  1.00  0.00    -0.212 N  
HETATM   18  C   UNL     1     -10.140  16.310  67.682  1.00  0.00    -0.260 C  
HETATM   19  H   UNL     1      -9.948  14.389  68.444  1.00  0.00     0.000 HD 
HETATM   20  O   UNL     1     -10.526  17.464  67.840  1.00  0.00    -0.353 OA 
BRANCH  18  21
HETATM   21  C   UNL     1      -9.654  15.843  66.325  1.00  0.00    -0.316 C  
BRANCH  21  22
HETATM   22  N   UNL     1     -10.532  14.755  65.847  1.00  0.00    -0.296 NA 
HETATM   23  C   UNL     1     -10.167  14.024  64.763  1.00  0.00    -0.301 A  
HETATM   24  C   UNL     1     -10.989  13.012  64.285  1.00  0.00    -0.427 A  
HETATM   25  C   UNL     1     -12.182  12.738  64.937  1.00  0.00    -0.519 A  
HETATM   26  C   UNL     1     -12.535  13.482  66.055  1.00  0.00    -0.456 A  
HETATM   27  C   UNL     1     -11.689  14.491  66.495  1.00  0.00    -0.368 A  
ENDBRANCH  21  22
ENDBRANCH  18  21
ENDBRANCH  16  17
ENDBRANCH  15  16
ENDBRANCH  14  15
ENDBRANCH  12  14
ENDBRANCH  11  12
ENDBRANCH  10  11
ENDBRANCH   9  10
ENDBRANCH   8   9
ENDBRANCH   7   8
ENDBRANCH   6   7
ENDBRANCH   5   6
ENDBRANCH   4   5
ENDBRANCH   3   4
ENDBRANCH   2   3
TORSDOF 16
ENDMDL
MODEL      383
REMARK 921   NORMALIZED FREE ENERGY PREDICTED BY IDOCK:   -2.44 KCAL/MOL
REMARK 922        TOTAL FREE ENERGY PREDICTED BY IDOCK:   -6.81 KCAL/MOL
REMARK 923 INTER-LIGAND FREE ENERGY PREDICTED BY IDOCK:   -5.32 KCAL/MOL
REMARK 924 INTRA-LIGAND FREE ENERGY PREDICTED BY IDOCK:   -1.48 KCAL/MOL
REMARK 927      BINDING AFFINITY PREDICTED BY RF-SCORE:    0.00 PKD
ROOT
HETATM    1  C   UNL     1      -6.351   9.032  66.791  1.00  0.00    -0.063 C  
HETATM    2  C   UNL     1      -7.212  10.195  67.251  1.00  0.00    -0.089 C  
ENDROOT
BRANCH   2   3
HETATM    3  C   UNL     1      -7.961  10.822  66.077  1.00  0.00    -0.154 C  
BRANCH   3   4
HETATM    4  C   UNL     1      -8.965   9.843  65.476  1.00  0.00    -0.209 C  
BRANCH   4   5
HETATM    5  C   UNL     1     -10.318  10.519  65.257  1.00  0.00    -0.300 C  
BRANCH   5   6
HETATM    6  C   UNL     1     -10.579  11.560  66.339  1.00  0.00    -0.304 C  
BRANCH   6   7
HETATM    7  C   UNL     1     -11.361  10.970  67.509  1.00  0.00    -0.332 C  
BRANCH   7   8
HETATM    8  C   UNL     1     -10.535  11.090  68.788  1.00  0.00    -0.222 C  
BRANCH   8   9
HETATM    9  C   UNL     1     -11.310  10.616  70.009  1.00  0.00    -0.400 C  
BRANCH   9  10
HETATM   10  C   UNL     1     -10.593   9.468  70.737  1.00  0.00    -0.387 C  
BRANCH  10  11
HETATM   11  C   UNL     1     -11.266   9.039  72.049  1.00  0.00    -0.379 C  
BRANCH  11  12
HETATM   12  C   UNL     1     -11.794   7.631  71.932  1.00  0.00    -0.294 C  
HETATM   13  O   UNL     1     -12.634   7.259  71.127  1.00  0.00    -0.351 OA 
BRANCH  12  14
HETATM   14  O   UNL     1     -11.059   6.803  72.726  1.00  0.00    -0.256 OA 
BRANCH  14  15
HETATM   15  C   UNL     1     -10.764   5.532  72.134  1.00  0.00    -0.231 C  
BRANCH  15  16
HETATM   16  C   UNL     1      -9.728   5.803  71.038  1.00  0.00    -0.170 C  
BRANCH  16  17
HETATM   17  N   UNL     1     -10.166   5.443  69.699  1.00  0.00    -0.251 N  
HETATM   18  C   UNL     1      -9.258   5.276  68.682  1.00  0.00    -0.116 C  
HETATM   19  H   UNL     1     -11.160   5.314  69.512  1.00  0.00     0.000 HD 
HETATM   20  O   UNL     1      -8.061   5.523  68.798  1.00  0.00    -0.097 OA 
BRANCH  18  21
HETATM   21  C   UNL     1      -9.826   4.845  67.346  1.00  0.00    -0.178 C  
BRANCH  21  22
HETATM   22  N   UNL     1      -8.751   4.874  66.332  1.00  0.00    -0.113 NA 
HETATM   23  C   UNL     1      -8.615   5.957  65.526  1.00  0.00    -0.150 A  
HETATM   24  C   UNL     1      -7.626   5.993  64.553  1.00  0.00    -0.092 A  
HETATM   25  C   UNL     1      -6.759   4.918  64.422  1.00  0.00    -0.044 A  
HETATM   26  C   UNL     1      -6.898   3.824  65.265  1.00  0.00    -0.053 A  
HETATM   27  C   UNL     1      -7.907   3.824  66.220  1.00  0.00    -0.089 A  
ENDBRANCH  21  22
ENDBRANCH  18  21
ENDBRANCH  16  17
ENDBRANCH  15  16
ENDBRANCH  14  15
ENDBRANCH  12  14
ENDBRANCH  11  12
ENDBRANCH  10  11
ENDBRANCH   9  10
ENDBRANCH   8   9
ENDBRANCH   7   8
ENDBRANCH   6   7
ENDBRANCH   5   6
ENDBRANCH   4   5
ENDBRANCH   3   4
ENDBRANCH   2   3
TORSDOF 16
ENDMDL
MODEL      384
REMARK 921   NORMALIZED FREE ENERGY PREDICTED BY IDOCK:   -2.43 KCAL/MOL
REMARK 922        TOTAL FREE ENERGY PREDICTED BY IDOCK:   -6.79 KCAL/MOL
REMARK 923 INTER-LIGAND FREE ENERGY PREDICTED BY IDOCK:   -5.31 KCAL/MOL
REMARK 924 INTRA-LIGAND FREE ENERGY PREDICTED BY IDOCK:   -1.48 KCAL/MOL
REMARK 927      BINDING AFFINITY PREDICTED BY RF-SCORE:    0.00 PKD
ROOT
HETATM    1  C   UNL     1     -10.006  12.829  66.865  1.00  0.00    -0.232 C  
HETATM    2  C   UNL     1      -9.730  11.919  65.680  1.00  0.00    -0.248 C  
ENDROOT
BRANCH   2   3
HETATM    3  C   UNL     1      -8.324  11.327  65.757  1.00  0.00     0.023 C  
BRANCH   3   4
HETATM    4  C   UNL     1      -8.326   9.847  65.386  1.00  0.00    -0.150 C  
BRANCH   4   5
HETATM    5  C   UNL     1      -9.702   9.228  65.628  1.00  0.00    -0.302 C  
BRANCH   5   6
HETATM    6  C   UNL     1      -9.700   8.400  66.906  1.00  0.00    -0.292 C  
BRANCH   6   7
HETATM    7  C   UNL     1      -8.763   8.990  67.957  1.00  0.00    -0.129 C  
BRANCH   7   8
HETATM    8  C   UNL     1      -9.582   9.683  69.042  1.00  0.00    -0.168 C  
BRANCH   8   9
HETATM    9  C   UNL     1     -11.050   9.802  68.656  1.00  0.00    -0.140 C  
BRANCH   9  10
HETATM   10  C   UNL     1     -11.982   9.577  69.856  1.00  0.00     0.227 C  
BRANCH  10  11
HETATM   11  C   UNL     1     -11.660  10.452  71.075  1.00  0.00    -0.384 C  
BRANCH  11  12
HETATM   12  C   UNL     1     -12.879  10.599  71.952  1.00  0.00    -0.382 C  
HETATM   13  O   UNL     1     -13.653   9.699  72.237  1.00  0.00    -0.438 OA 
BRANCH  12  14
HETATM   14  O   UNL     1     -12.878  11.834  72.526  1.00  0.00     0.109 OA 
BRANCH  14  15
HETATM   15  C   UNL     1     -13.458  12.860  71.711  1.00  0.00    -0.280 C  
BRANCH  15  16
HETATM   16  C   UNL     1     -12.468  14.030  71.732  1.00  0.00    -0.239 C  
BRANCH  16  17
HETATM   17  N   UNL     1     -12.041  14.475  70.416  1.00  0.00    -0.301 N  
HETATM   18  C   UNL     1     -11.797  15.804  70.167  1.00  0.00    -0.355 C  
HETATM   19  H   UNL     1     -11.920  13.792  69.668  1.00  0.00     0.000 HD 
HETATM   20  O   UNL     1     -12.026  16.696  70.977  1.00  0.00     0.126 OA 
BRANCH  18  21
HETATM   21  C   UNL     1     -11.301  16.140  68.775  1.00  0.00    -0.359 C  
BRANCH  21  22
HETATM   22  N   UNL     1      -9.829  16.267  68.805  1.00  0.00    -0.228 NA 
HETATM   23  C   UNL     1      -9.234  17.336  68.217  1.00  0.00    -0.265 A  
HETATM   24  C   UNL     1      -7.851  17.461  68.214  1.00  0.00    -0.247 A  
HETATM   25  C   UNL     1      -7.078  16.493  68.838  1.00  0.00    -0.200 A  
HETATM   26  C   UNL     1      -7.700  15.414  69.451  1.00  0.00    -0.227 A  
HETATM   27  C   UNL     1      -9.086  15.321  69.422  1.00  0.00    -0.228 A  
ENDBRANCH  21  22
ENDBRANCH  18  21
ENDBRANCH  16  17
ENDBRANCH  15  16
ENDBRANCH  14  15
ENDBRANCH  12  14
ENDBRANCH  11  12
ENDBRANCH  10  11
ENDBRANCH   9  10
ENDBRANCH   8   9
ENDBRANCH   7   8
ENDBRANCH   6   7
ENDBRANCH   5   6
ENDBRANCH   4   5
ENDBRANCH   3   4
ENDBRANCH   2   3
TORSDOF 16
ENDMDL
MODEL      385
REMARK 921   NORMALIZED FREE ENERGY PREDICTED BY IDOCK:   -2.43 KCAL/MOL
REMARK 922        TOTAL FREE ENERGY PREDICTED BY IDOCK:   -6.78 KCAL/MOL
REMARK 923 INTER-LIGAND FREE ENERGY PREDICTED BY IDOCK:   -6.02 KCAL/MOL
REMARK 924 INTRA-LIGAND FREE ENERGY PREDICTED BY IDOCK:   -0.76 KCAL/MOL
REMARK 927      BINDING AFFINITY PREDICTED BY RF-SCORE:    0.00 PKD
ROOT
HETATM    1  C   UNL     1     -10.782   8.438  68.425  1.00  0.00    -0.076 C  
HETATM    2  C   UNL     1     -10.706   7.065  69.070  1.00  0.00    -0.234 C  
ENDROOT
BRANCH   2   3
HETATM    3  C   UNL     1      -9.476   6.299  68.586  1.00  0.00    -0.121 C  
BRANCH   3   4
HETATM    4  C   UNL     1      -9.018   6.797  67.218  1.00  0.00    -0.117 C  
BRANCH   4   5
HETATM    5  C   UNL     1      -7.513   7.062  67.214  1.00  0.00    -0.099 C  
BRANCH   5   6
HETATM    6  C   UNL     1      -7.211   8.430  66.615  1.00  0.00    -0.077 C  
BRANCH   6   7
HETATM    7  C   UNL     1      -8.069   8.705  65.382  1.00  0.00    -0.121 C  
BRANCH   7   8
HETATM    8  C   UNL     1      -8.674  10.103  65.482  1.00  0.00    -0.173 C  
BRANCH   8   9
HETATM    9  C   UNL     1      -9.786  10.313  64.465  1.00  0.00    -0.395 C  
BRANCH   9  10
HETATM   10  C   UNL     1     -10.395  11.721  64.558  1.00  0.00    -0.340 C  
BRANCH  10  11
HETATM   11  C   UNL     1     -11.731  11.778  65.311  1.00  0.00    -0.132 C  
BRANCH  11  12
HETATM   12  C   UNL     1     -12.154  13.211  65.521  1.00  0.00    -0.442 C  
HETATM   13  O   UNL     1     -13.121  13.742  64.997  1.00  0.00    -0.751 OA 
BRANCH  12  14
HETATM   14  O   UNL     1     -11.412  13.761  66.521  1.00  0.00    -0.324 OA 
BRANCH  14  15
HETATM   15  C   UNL     1     -11.762  13.302  67.833  1.00  0.00    -0.357 C  
BRANCH  15  16
HETATM   16  C   UNL     1     -12.524  14.453  68.498  1.00  0.00     0.201 C  
BRANCH  16  17
HETATM   17  N   UNL     1     -11.800  15.712  68.525  1.00  0.00    -0.483 N  
HETATM   18  C   UNL     1     -10.825  15.943  69.465  1.00  0.00    -0.305 C  
HETATM   19  H   UNL     1     -12.018  16.434  67.838  1.00  0.00     0.000 HD 
HETATM   20  O   UNL     1     -10.584  15.174  70.391  1.00  0.00    -0.235 OA 
BRANCH  18  21
HETATM   21  C   UNL     1     -10.099  17.269  69.360  1.00  0.00    -0.091 C  
BRANCH  21  22
HETATM   22  N   UNL     1     -10.288  17.816  68.000  1.00  0.00    -0.375 NA 
HETATM   23  C   UNL     1      -9.977  17.055  66.920  1.00  0.00    -0.289 A  
HETATM   24  C   UNL     1     -10.126  17.559  65.635  1.00  0.00    -0.007 A  
HETATM   25  C   UNL     1     -10.617  18.845  65.460  1.00  0.00    -0.063 A  
HETATM   26  C   UNL     1     -10.948  19.606  66.573  1.00  0.00    -0.322 A  
HETATM   27  C   UNL     1     -10.775  19.067  67.842  1.00  0.00    -0.293 A  
ENDBRANCH  21  22
ENDBRANCH  18  21
ENDBRANCH  16  17
ENDBRANCH  15  16
ENDBRANCH  14  15
ENDBRANCH  12  14
ENDBRANCH  11  12
ENDBRANCH  10  11
ENDBRANCH   9  10
ENDBRANCH   8   9
ENDBRANCH   7   8
ENDBRANCH   6   7
ENDBRANCH   5   6
ENDBRANCH   4   5
ENDBRANCH   3   4
ENDBRANCH   2   3
TORSDOF 16
ENDMDL
MODEL      386
REMARK 921   NORMALIZED FREE ENERGY PREDICTED BY IDOCK:   -2.43 KCAL/MOL
REMARK 922        TOTAL FREE ENERGY PREDICTED BY IDOCK:   -6.78 KCAL/MOL
REMARK 923 INTER-LIGAND FREE ENERGY PREDICTED BY IDOCK:   -5.85 KCAL/MOL
REMARK 924 INTRA-LIGAND FREE ENERGY PREDICTED BY IDOCK:   -0.93 KCAL/MOL
REMARK 927      BINDING AFFINITY PREDICTED BY RF-SCORE:    0.00 PKD
ROOT
HETATM    1  C   UNL     1     -11.975  12.942  63.668  1.00  0.00    -0.613 C  
HETATM    2  C   UNL     1     -12.091  14.209  64.498  1.00  0.00    -0.489 C  
ENDROOT
BRANCH   2   3
HETATM    3  C   UNL     1     -10.921  14.337  65.471  1.00  0.00    -0.319 C  
BRANCH   3   4
HETATM    4  C   UNL     1     -10.863  13.147  66.425  1.00  0.00    -0.299 C  
BRANCH   4   5
HETATM    5  C   UNL     1     -12.015  13.197  67.427  1.00  0.00    -0.379 C  
BRANCH   5   6
HETATM    6  C   UNL     1     -11.741  12.274  68.607  1.00  0.00    -0.377 C  
BRANCH   6   7
HETATM    7  C   UNL     1     -11.761  10.807  68.189  1.00  0.00    -0.173 C  
BRANCH   7   8
HETATM    8  C   UNL     1     -10.594  10.072  68.844  1.00  0.00    -0.239 C  
BRANCH   8   9
HETATM    9  C   UNL     1     -10.556  10.296  70.349  1.00  0.00    -0.212 C  
BRANCH   9  10
HETATM   10  C   UNL     1     -11.155   9.113  71.125  1.00  0.00    -0.393 C  
BRANCH  10  11
HETATM   11  C   UNL     1     -11.064   7.769  70.389  1.00  0.00    -0.259 C  
BRANCH  11  12
HETATM   12  C   UNL     1     -11.914   6.733  71.080  1.00  0.00    -0.370 C  
HETATM   13  O   UNL     1     -13.103   6.854  71.335  1.00  0.00    -0.344 OA 
BRANCH  12  14
HETATM   14  O   UNL     1     -11.207   5.576  71.207  1.00  0.00    -0.149 OA 
BRANCH  14  15
HETATM   15  C   UNL     1      -9.801   5.767  71.409  1.00  0.00    -0.170 C  
BRANCH  15  16
HETATM   16  C   UNL     1      -9.144   4.410  71.136  1.00  0.00    -0.126 C  
BRANCH  16  17
HETATM   17  N   UNL     1      -8.150   4.429  70.075  1.00  0.00    -0.059 N  
HETATM   18  C   UNL     1      -8.310   3.661  68.948  1.00  0.00    -0.072 C  
HETATM   19  H   UNL     1      -7.325   5.021  70.169  1.00  0.00     0.000 HD 
HETATM   20  O   UNL     1      -9.213   2.843  68.811  1.00  0.00    -0.140 OA 
BRANCH  18  21
HETATM   21  C   UNL     1      -7.239   3.807  67.886  1.00  0.00    -0.059 C  
BRANCH  21  22
HETATM   22  N   UNL     1      -7.840   3.562  66.558  1.00  0.00    -0.084 NA 
HETATM   23  C   UNL     1      -7.745   2.331  65.994  1.00  0.00    -0.075 A  
HETATM   24  C   UNL     1      -8.283   2.087  64.738  1.00  0.00    -0.079 A  
HETATM   25  C   UNL     1      -8.940   3.108  64.067  1.00  0.00    -0.101 A  
HETATM   26  C   UNL     1      -9.045   4.357  64.663  1.00  0.00    -0.152 A  
HETATM   27  C   UNL     1      -8.485   4.563  65.918  1.00  0.00    -0.114 A  
ENDBRANCH  21  22
ENDBRANCH  18  21
ENDBRANCH  16  17
ENDBRANCH  15  16
ENDBRANCH  14  15
ENDBRANCH  12  14
ENDBRANCH  11  12
ENDBRANCH  10  11
ENDBRANCH   9  10
ENDBRANCH   8   9
ENDBRANCH   7   8
ENDBRANCH   6   7
ENDBRANCH   5   6
ENDBRANCH   4   5
ENDBRANCH   3   4
ENDBRANCH   2   3
TORSDOF 16
ENDMDL
MODEL      387
REMARK 921   NORMALIZED FREE ENERGY PREDICTED BY IDOCK:   -2.42 KCAL/MOL
REMARK 922        TOTAL FREE ENERGY PREDICTED BY IDOCK:   -6.77 KCAL/MOL
REMARK 923 INTER-LIGAND FREE ENERGY PREDICTED BY IDOCK:   -5.32 KCAL/MOL
REMARK 924 INTRA-LIGAND FREE ENERGY PREDICTED BY IDOCK:   -1.45 KCAL/MOL
REMARK 927      BINDING AFFINITY PREDICTED BY RF-SCORE:    0.00 PKD
ROOT
HETATM    1  C   UNL     1      -6.783   3.019  71.681  1.00  0.00    -0.023 C  
HETATM    2  C   UNL     1      -7.379   4.309  71.144  1.00  0.00    -0.044 C  
ENDROOT
BRANCH   2   3
HETATM    3  C   UNL     1      -8.493   4.820  72.055  1.00  0.00    -0.119 C  
BRANCH   3   4
HETATM    4  C   UNL     1      -8.238   4.434  73.510  1.00  0.00    -0.094 C  
BRANCH   4   5
HETATM    5  C   UNL     1      -7.585   5.587  74.271  1.00  0.00    -0.095 C  
BRANCH   5   6
HETATM    6  C   UNL     1      -8.038   6.927  73.707  1.00  0.00    -0.129 C  
BRANCH   6   7
HETATM    7  C   UNL     1      -6.865   7.886  73.526  1.00  0.00    -0.116 C  
BRANCH   7   8
HETATM    8  C   UNL     1      -6.306   7.750  72.112  1.00  0.00    -0.044 C  
BRANCH   8   9
HETATM    9  C   UNL     1      -6.357   9.068  71.353  1.00  0.00    -0.080 C  
BRANCH   9  10
HETATM   10  C   UNL     1      -7.243   8.979  70.100  1.00  0.00    -0.062 C  
BRANCH  10  11
HETATM   11  C   UNL     1      -8.399   7.975  70.219  1.00  0.00    -0.125 C  
BRANCH  11  12
HETATM   12  C   UNL     1      -9.721   8.672  70.017  1.00  0.00    -0.171 C  
HETATM   13  O   UNL     1     -10.744   8.433  70.641  1.00  0.00    -0.211 OA 
BRANCH  12  14
HETATM   14  O   UNL     1      -9.555   9.728  69.174  1.00  0.00    -0.170 OA 
BRANCH  14  15
HETATM   15  C   UNL     1     -10.623  10.682  69.210  1.00  0.00    -0.233 C  
BRANCH  15  16
HETATM   16  C   UNL     1     -11.284  10.634  67.828  1.00  0.00    -0.313 C  
BRANCH  16  17
HETATM   17  N   UNL     1     -11.892  11.887  67.413  1.00  0.00    -0.248 N  
HETATM   18  C   UNL     1     -11.563  12.465  66.211  1.00  0.00    -0.393 C  
HETATM   19  H   UNL     1     -12.571  12.344  68.022  1.00  0.00     0.000 HD 
HETATM   20  O   UNL     1     -10.676  12.039  65.477  1.00  0.00    -0.259 OA 
BRANCH  18  21
HETATM   21  C   UNL     1     -12.303  13.739  65.860  1.00  0.00    -0.476 C  
BRANCH  21  22
HETATM   22  N   UNL     1     -11.524  14.898  66.344  1.00  0.00    -0.321 NA 
HETATM   23  C   UNL     1     -11.585  15.250  67.654  1.00  0.00    -0.239 A  
HETATM   24  C   UNL     1     -10.878  16.349  68.123  1.00  0.00    -0.346 A  
HETATM   25  C   UNL     1     -10.089  17.078  67.245  1.00  0.00    -0.295 A  
HETATM   26  C   UNL     1     -10.022  16.696  65.911  1.00  0.00    -0.320 A  
HETATM   27  C   UNL     1     -10.752  15.596  65.481  1.00  0.00    -0.389 A  
ENDBRANCH  21  22
ENDBRANCH  18  21
ENDBRANCH  16  17
ENDBRANCH  15  16
ENDBRANCH  14  15
ENDBRANCH  12  14
ENDBRANCH  11  12
ENDBRANCH  10  11
ENDBRANCH   9  10
ENDBRANCH   8   9
ENDBRANCH   7   8
ENDBRANCH   6   7
ENDBRANCH   5   6
ENDBRANCH   4   5
ENDBRANCH   3   4
ENDBRANCH   2   3
TORSDOF 16
ENDMDL
MODEL      388
REMARK 921   NORMALIZED FREE ENERGY PREDICTED BY IDOCK:   -2.42 KCAL/MOL
REMARK 922        TOTAL FREE ENERGY PREDICTED BY IDOCK:   -6.76 KCAL/MOL
REMARK 923 INTER-LIGAND FREE ENERGY PREDICTED BY IDOCK:   -5.08 KCAL/MOL
REMARK 924 INTRA-LIGAND FREE ENERGY PREDICTED BY IDOCK:   -1.67 KCAL/MOL
REMARK 927      BINDING AFFINITY PREDICTED BY RF-SCORE:    0.00 PKD
ROOT
HETATM    1  C   UNL     1      -7.284   6.125  71.919  1.00  0.00    -0.091 C  
HETATM    2  C   UNL     1      -7.092   6.701  70.527  1.00  0.00    -0.068 C  
ENDROOT
BRANCH   2   3
HETATM    3  C   UNL     1      -8.434   7.051  69.888  1.00  0.00    -0.140 C  
BRANCH   3   4
HETATM    4  C   UNL     1      -8.484   8.519  69.474  1.00  0.00    -0.127 C  
BRANCH   4   5
HETATM    5  C   UNL     1      -7.757   9.395  70.493  1.00  0.00    -0.177 C  
BRANCH   5   6
HETATM    6  C   UNL     1      -7.387  10.739  69.879  1.00  0.00    -0.006 C  
BRANCH   6   7
HETATM    7  C   UNL     1      -7.193  10.632  68.368  1.00  0.00    -0.084 C  
BRANCH   7   8
HETATM    8  C   UNL     1      -5.766  11.035  68.006  1.00  0.00    -0.042 C  
BRANCH   8   9
HETATM    9  C   UNL     1      -5.726  12.348  67.236  1.00  0.00    -0.114 C  
BRANCH   9  10
HETATM   10  C   UNL     1      -6.991  13.189  67.464  1.00  0.00    -0.155 C  
BRANCH  10  11
HETATM   11  C   UNL     1      -6.753  14.705  67.418  1.00  0.00    -0.039 C  
BRANCH  11  12
HETATM   12  C   UNL     1      -8.023  15.424  67.036  1.00  0.00    -0.224 C  
HETATM   13  O   UNL     1      -8.805  15.058  66.173  1.00  0.00    -0.217 OA 
BRANCH  12  14
HETATM   14  O   UNL     1      -8.258  16.433  67.920  1.00  0.00    -0.162 OA 
BRANCH  14  15
HETATM   15  C   UNL     1      -8.551  15.989  69.251  1.00  0.00    -0.224 C  
BRANCH  15  16
HETATM   16  C   UNL     1     -10.065  15.755  69.297  1.00  0.00    -0.255 C  
BRANCH  16  17
HETATM   17  N   UNL     1     -10.449  14.364  69.474  1.00  0.00    -0.434 N  
HETATM   18  C   UNL     1     -11.373  13.778  68.643  1.00  0.00    -0.287 C  
HETATM   19  H   UNL     1     -10.027  13.816  70.223  1.00  0.00     0.000 HD 
HETATM   20  O   UNL     1     -12.006  14.398  67.793  1.00  0.00    -0.370 OA 
BRANCH  18  21
HETATM   21  C   UNL     1     -11.651  12.309  68.887  1.00  0.00    -0.316 C  
BRANCH  21  22
HETATM   22  N   UNL     1     -11.018  11.513  67.814  1.00  0.00    -0.220 NA 
HETATM   23  C   UNL     1     -11.122  10.160  67.830  1.00  0.00    -0.227 A  
HETATM   24  C   UNL     1     -10.516   9.394  66.844  1.00  0.00    -0.281 A  
HETATM   25  C   UNL     1      -9.816  10.025  65.825  1.00  0.00    -0.345 A  
HETATM   26  C   UNL     1      -9.733  11.410  65.811  1.00  0.00    -0.263 A  
HETATM   27  C   UNL     1     -10.346  12.139  66.823  1.00  0.00    -0.213 A  
ENDBRANCH  21  22
ENDBRANCH  18  21
ENDBRANCH  16  17
ENDBRANCH  15  16
ENDBRANCH  14  15
ENDBRANCH  12  14
ENDBRANCH  11  12
ENDBRANCH  10  11
ENDBRANCH   9  10
ENDBRANCH   8   9
ENDBRANCH   7   8
ENDBRANCH   6   7
ENDBRANCH   5   6
ENDBRANCH   4   5
ENDBRANCH   3   4
ENDBRANCH   2   3
TORSDOF 16
ENDMDL
MODEL      389
REMARK 921   NORMALIZED FREE ENERGY PREDICTED BY IDOCK:   -2.39 KCAL/MOL
REMARK 922        TOTAL FREE ENERGY PREDICTED BY IDOCK:   -6.70 KCAL/MOL
REMARK 923 INTER-LIGAND FREE ENERGY PREDICTED BY IDOCK:   -5.81 KCAL/MOL
REMARK 924 INTRA-LIGAND FREE ENERGY PREDICTED BY IDOCK:   -0.89 KCAL/MOL
REMARK 927      BINDING AFFINITY PREDICTED BY RF-SCORE:    0.00 PKD
ROOT
HETATM    1  C   UNL     1     -14.410   7.647  71.644  1.00  0.00    -0.613 C  
HETATM    2  C   UNL     1     -13.646   8.956  71.740  1.00  0.00    -0.461 C  
ENDROOT
BRANCH   2   3
HETATM    3  C   UNL     1     -12.205   8.719  72.186  1.00  0.00    -0.448 C  
BRANCH   3   4
HETATM    4  C   UNL     1     -11.520   7.672  71.312  1.00  0.00    -0.293 C  
BRANCH   4   5
HETATM    5  C   UNL     1     -10.108   7.383  71.817  1.00  0.00    -0.197 C  
BRANCH   5   6
HETATM    6  C   UNL     1      -9.140   8.463  71.353  1.00  0.00    -0.240 C  
BRANCH   6   7
HETATM    7  C   UNL     1      -8.276   7.982  70.190  1.00  0.00    -0.120 C  
BRANCH   7   8
HETATM    8  C   UNL     1      -8.328   9.003  69.057  1.00  0.00    -0.124 C  
BRANCH   8   9
HETATM    9  C   UNL     1      -7.641  10.307  69.437  1.00  0.00    -0.137 C  
BRANCH   9  10
HETATM   10  C   UNL     1      -8.303  11.524  68.773  1.00  0.00    -0.069 C  
BRANCH  10  11
HETATM   11  C   UNL     1      -9.265  11.170  67.630  1.00  0.00    -0.151 C  
BRANCH  11  12
HETATM   12  C   UNL     1     -10.686  11.492  68.021  1.00  0.00    -0.202 C  
HETATM   13  O   UNL     1     -11.679  10.930  67.587  1.00  0.00    -0.566 OA 
BRANCH  12  14
HETATM   14  O   UNL     1     -10.682  12.368  69.064  1.00  0.00    -0.192 OA 
BRANCH  14  15
HETATM   15  C   UNL     1     -11.741  13.332  69.024  1.00  0.00    -0.322 C  
BRANCH  15  16
HETATM   16  C   UNL     1     -11.064  14.705  68.948  1.00  0.00    -0.254 C  
BRANCH  16  17
HETATM   17  N   UNL     1      -9.674  14.663  68.525  1.00  0.00    -0.220 N  
HETATM   18  C   UNL     1      -9.256  15.349  67.411  1.00  0.00    -0.197 C  
HETATM   19  H   UNL     1      -9.000  14.118  69.063  1.00  0.00     0.000 HD 
HETATM   20  O   UNL     1     -10.023  15.932  66.650  1.00  0.00    -0.239 OA 
BRANCH  18  21
HETATM   21  C   UNL     1      -7.775  15.277  67.101  1.00  0.00    -0.203 C  
BRANCH  21  22
HETATM   22  N   UNL     1      -7.018  15.237  68.370  1.00  0.00    -0.107 NA 
HETATM   23  C   UNL     1      -6.445  14.075  68.775  1.00  0.00    -0.093 A  
HETATM   24  C   UNL     1      -5.750  14.012  69.975  1.00  0.00    -0.124 A  
HETATM   25  C   UNL     1      -5.626  15.155  70.752  1.00  0.00    -0.100 A  
HETATM   26  C   UNL     1      -6.203  16.340  70.318  1.00  0.00     0.074 A  
HETATM   27  C   UNL     1      -6.898  16.358  69.115  1.00  0.00    -0.210 A  
ENDBRANCH  21  22
ENDBRANCH  18  21
ENDBRANCH  16  17
ENDBRANCH  15  16
ENDBRANCH  14  15
ENDBRANCH  12  14
ENDBRANCH  11  12
ENDBRANCH  10  11
ENDBRANCH   9  10
ENDBRANCH   8   9
ENDBRANCH   7   8
ENDBRANCH   6   7
ENDBRANCH   5   6
ENDBRANCH   4   5
ENDBRANCH   3   4
ENDBRANCH   2   3
TORSDOF 16
ENDMDL
MODEL      390
REMARK 921   NORMALIZED FREE ENERGY PREDICTED BY IDOCK:   -2.38 KCAL/MOL
REMARK 922        TOTAL FREE ENERGY PREDICTED BY IDOCK:   -6.69 KCAL/MOL
REMARK 923 INTER-LIGAND FREE ENERGY PREDICTED BY IDOCK:   -5.63 KCAL/MOL
REMARK 924 INTRA-LIGAND FREE ENERGY PREDICTED BY IDOCK:   -1.06 KCAL/MOL
REMARK 927      BINDING AFFINITY PREDICTED BY RF-SCORE:    0.00 PKD
ROOT
HETATM    1  C   UNL     1      -6.683   7.826  63.529  1.00  0.00    -0.062 C  
HETATM    2  C   UNL     1      -6.634   8.844  62.403  1.00  0.00    -0.094 C  
ENDROOT
BRANCH   2   3
HETATM    3  C   UNL     1      -6.927  10.250  62.920  1.00  0.00    -0.129 C  
BRANCH   3   4
HETATM    4  C   UNL     1      -8.414  10.579  62.816  1.00  0.00    -0.208 C  
BRANCH   4   5
HETATM    5  C   UNL     1      -9.069  10.568  64.197  1.00  0.00    -0.258 C  
BRANCH   5   6
HETATM    6  C   UNL     1     -10.527  10.998  64.101  1.00  0.00    -0.434 C  
BRANCH   6   7
HETATM    7  C   UNL     1     -10.661  12.414  63.547  1.00  0.00    -0.451 C  
BRANCH   7   8
HETATM    8  C   UNL     1     -12.080  12.924  63.783  1.00  0.00    -0.583 C  
BRANCH   8   9
HETATM    9  C   UNL     1     -12.138  13.932  64.921  1.00  0.00    -0.434 C  
BRANCH   9  10
HETATM   10  C   UNL     1     -12.464  13.266  66.267  1.00  0.00    -0.283 C  
BRANCH  10  11
HETATM   11  C   UNL     1     -11.250  13.087  67.189  1.00  0.00    -0.322 C  
BRANCH  11  12
HETATM   12  C   UNL     1     -11.451  11.900  68.098  1.00  0.00    -0.320 C  
HETATM   13  O   UNL     1     -11.863  11.956  69.246  1.00  0.00    -0.296 OA 
BRANCH  12  14
HETATM   14  O   UNL     1     -11.286  10.751  67.387  1.00  0.00    -0.416 OA 
BRANCH  14  15
HETATM   15  C   UNL     1      -9.976  10.181  67.488  1.00  0.00    -0.191 C  
BRANCH  15  16
HETATM   16  C   UNL     1     -10.166   8.661  67.434  1.00  0.00    -0.262 C  
BRANCH  16  17
HETATM   17  N   UNL     1      -9.646   7.952  68.591  1.00  0.00    -0.153 N  
HETATM   18  C   UNL     1     -10.169   6.738  68.967  1.00  0.00    -0.178 C  
HETATM   19  H   UNL     1      -8.883   8.360  69.132  1.00  0.00     0.000 HD 
HETATM   20  O   UNL     1     -11.157   6.237  68.439  1.00  0.00    -0.323 OA 
BRANCH  18  21
HETATM   21  C   UNL     1      -9.509   6.067  70.153  1.00  0.00    -0.158 C  
BRANCH  21  22
HETATM   22  N   UNL     1      -9.524   6.996  71.303  1.00  0.00    -0.164 NA 
HETATM   23  C   UNL     1      -8.362   7.311  71.930  1.00  0.00    -0.107 A  
HETATM   24  C   UNL     1      -8.359   8.164  73.025  1.00  0.00    -0.260 A  
HETATM   25  C   UNL     1      -9.555   8.711  73.466  1.00  0.00     0.870 A  
HETATM   26  C   UNL     1     -10.734   8.395  72.805  1.00  0.00    -0.201 A  
HETATM   27  C   UNL     1     -10.695   7.530  71.719  1.00  0.00    -0.211 A  
ENDBRANCH  21  22
ENDBRANCH  18  21
ENDBRANCH  16  17
ENDBRANCH  15  16
ENDBRANCH  14  15
ENDBRANCH  12  14
ENDBRANCH  11  12
ENDBRANCH  10  11
ENDBRANCH   9  10
ENDBRANCH   8   9
ENDBRANCH   7   8
ENDBRANCH   6   7
ENDBRANCH   5   6
ENDBRANCH   4   5
ENDBRANCH   3   4
ENDBRANCH   2   3
TORSDOF 16
ENDMDL
MODEL      391
REMARK 921   NORMALIZED FREE ENERGY PREDICTED BY IDOCK:   -2.37 KCAL/MOL
REMARK 922        TOTAL FREE ENERGY PREDICTED BY IDOCK:   -6.67 KCAL/MOL
REMARK 923 INTER-LIGAND FREE ENERGY PREDICTED BY IDOCK:   -4.68 KCAL/MOL
REMARK 924 INTRA-LIGAND FREE ENERGY PREDICTED BY IDOCK:   -1.98 KCAL/MOL
REMARK 927      BINDING AFFINITY PREDICTED BY RF-SCORE:    0.00 PKD
ROOT
HETATM    1  C   UNL     1      -7.493  12.606  68.656  1.00  0.00    -0.094 C  
HETATM    2  C   UNL     1      -8.101  12.924  67.301  1.00  0.00    -0.164 C  
ENDROOT
BRANCH   2   3
HETATM    3  C   UNL     1      -9.306  12.030  67.017  1.00  0.00    -0.191 C  
BRANCH   3   4
HETATM    4  C   UNL     1     -10.312  12.729  66.107  1.00  0.00    -0.283 C  
BRANCH   4   5
HETATM    5  C   UNL     1     -10.865  11.760  65.064  1.00  0.00    -0.350 C  
BRANCH   5   6
HETATM    6  C   UNL     1     -10.502  12.220  63.658  1.00  0.00    -0.483 C  
BRANCH   6   7
HETATM    7  C   UNL     1      -9.512  11.268  62.993  1.00  0.00    -0.385 C  
BRANCH   7   8
HETATM    8  C   UNL     1      -9.161  10.139  63.958  1.00  0.00    -0.289 C  
BRANCH   8   9
HETATM    9  C   UNL     1      -8.196   9.140  63.336  1.00  0.00    -0.178 C  
BRANCH   9  10
HETATM   10  C   UNL     1      -7.833   8.006  64.307  1.00  0.00    -0.137 C  
BRANCH  10  11
HETATM   11  C   UNL     1      -6.703   7.093  63.812  1.00  0.00    -0.044 C  
BRANCH  11  12
HETATM   12  C   UNL     1      -6.448   5.987  64.805  1.00  0.00    -0.038 C  
HETATM   13  O   UNL     1      -6.448   6.119  66.019  1.00  0.00    -0.043 OA 
BRANCH  12  14
HETATM   14  O   UNL     1      -6.406   4.792  64.153  1.00  0.00    -0.028 OA 
BRANCH  14  15
HETATM   15  C   UNL     1      -7.616   4.457  63.464  1.00  0.00    -0.059 C  
BRANCH  15  16
HETATM   16  C   UNL     1      -8.330   3.419  64.336  1.00  0.00    -0.093 C  
BRANCH  16  17
HETATM   17  N   UNL     1      -8.690   3.897  65.661  1.00  0.00    -0.114 N  
HETATM   18  C   UNL     1      -9.989   4.226  65.962  1.00  0.00    -0.219 C  
HETATM   19  H   UNL     1      -7.968   3.989  66.376  1.00  0.00     0.000 HD 
HETATM   20  O   UNL     1     -10.890   4.250  65.129  1.00  0.00    -0.242 OA 
BRANCH  18  21
HETATM   21  C   UNL     1     -10.253   4.658  67.389  1.00  0.00    -0.039 C  
BRANCH  21  22
HETATM   22  N   UNL     1      -9.954   6.100  67.520  1.00  0.00    -0.127 NA 
HETATM   23  C   UNL     1      -8.893   6.502  68.265  1.00  0.00    -0.119 A  
HETATM   24  C   UNL     1      -8.610   7.852  68.419  1.00  0.00    -0.128 A  
HETATM   25  C   UNL     1      -9.411   8.793  67.787  1.00  0.00    -0.157 A  
HETATM   26  C   UNL     1     -10.482   8.367  67.014  1.00  0.00    -0.375 A  
HETATM   27  C   UNL     1     -10.737   7.007  66.894  1.00  0.00    -0.306 A  
ENDBRANCH  21  22
ENDBRANCH  18  21
ENDBRANCH  16  17
ENDBRANCH  15  16
ENDBRANCH  14  15
ENDBRANCH  12  14
ENDBRANCH  11  12
ENDBRANCH  10  11
ENDBRANCH   9  10
ENDBRANCH   8   9
ENDBRANCH   7   8
ENDBRANCH   6   7
ENDBRANCH   5   6
ENDBRANCH   4   5
ENDBRANCH   3   4
ENDBRANCH   2   3
TORSDOF 16
ENDMDL
MODEL      392
REMARK 921   NORMALIZED FREE ENERGY PREDICTED BY IDOCK:   -2.35 KCAL/MOL
REMARK 922        TOTAL FREE ENERGY PREDICTED BY IDOCK:   -6.63 KCAL/MOL
REMARK 923 INTER-LIGAND FREE ENERGY PREDICTED BY IDOCK:   -5.22 KCAL/MOL
REMARK 924 INTRA-LIGAND FREE ENERGY PREDICTED BY IDOCK:   -1.41 KCAL/MOL
REMARK 927      BINDING AFFINITY PREDICTED BY RF-SCORE:    0.00 PKD
ROOT
HETATM    1  C   UNL     1      -7.087   6.349  71.625  1.00  0.00    -0.081 C  
HETATM    2  C   UNL     1      -7.213   6.391  70.112  1.00  0.00    -0.084 C  
ENDROOT
BRANCH   2   3
HETATM    3  C   UNL     1      -8.653   6.134  69.674  1.00  0.00    -0.128 C  
BRANCH   3   4
HETATM    4  C   UNL     1      -9.227   7.335  68.926  1.00  0.00    -0.141 C  
BRANCH   4   5
HETATM    5  C   UNL     1      -8.378   8.582  69.170  1.00  0.00    -0.120 C  
BRANCH   5   6
HETATM    6  C   UNL     1      -8.762   9.690  68.199  1.00  0.00    -0.119 C  
BRANCH   6   7
HETATM    7  C   UNL     1      -9.586   9.154  67.031  1.00  0.00    -0.223 C  
BRANCH   7   8
HETATM    8  C   UNL     1      -8.845   9.410  65.721  1.00  0.00    -0.204 C  
BRANCH   8   9
HETATM    9  C   UNL     1      -9.573  10.420  64.846  1.00  0.00    -0.348 C  
BRANCH   9  10
HETATM   10  C   UNL     1     -10.606  11.234  65.640  1.00  0.00    -0.303 C  
BRANCH  10  11
HETATM   11  C   UNL     1     -10.425  12.755  65.532  1.00  0.00    -0.306 C  
BRANCH  11  12
HETATM   12  C   UNL     1     -11.609  13.468  66.136  1.00  0.00    -0.343 C  
HETATM   13  O   UNL     1     -11.898  13.470  67.322  1.00  0.00    -0.355 OA 
BRANCH  12  14
HETATM   14  O   UNL     1     -12.192  14.259  65.192  1.00  0.00    -0.396 OA 
BRANCH  14  15
HETATM   15  C   UNL     1     -11.279  15.121  64.503  1.00  0.00    -0.272 C  
BRANCH  15  16
HETATM   16  C   UNL     1     -10.904  16.225  65.497  1.00  0.00    -0.245 C  
BRANCH  16  17
HETATM   17  N   UNL     1      -9.476  16.354  65.736  1.00  0.00    -0.237 N  
HETATM   18  C   UNL     1      -8.968  16.304  67.012  1.00  0.00    -0.206 C  
HETATM   19  H   UNL     1      -8.842  16.482  64.947  1.00  0.00     0.000 HD 
HETATM   20  O   UNL     1      -9.671  16.266  68.017  1.00  0.00    -0.226 OA 
BRANCH  18  21
HETATM   21  C   UNL     1      -7.461  16.392  67.132  1.00  0.00    -0.192 C  
BRANCH  21  22
HETATM   22  N   UNL     1      -6.930  15.068  67.518  1.00  0.00    -0.186 NA 
HETATM   23  C   UNL     1      -5.746  14.983  68.177  1.00  0.00    -0.135 A  
HETATM   24  C   UNL     1      -5.220  13.748  68.528  1.00  0.00    -0.091 A  
HETATM   25  C   UNL     1      -5.925  12.594  68.218  1.00  0.00    -0.068 A  
HETATM   26  C   UNL     1      -7.143  12.695  67.559  1.00  0.00    -0.152 A  
HETATM   27  C   UNL     1      -7.629  13.951  67.217  1.00  0.00    -0.057 A  
ENDBRANCH  21  22
ENDBRANCH  18  21
ENDBRANCH  16  17
ENDBRANCH  15  16
ENDBRANCH  14  15
ENDBRANCH  12  14
ENDBRANCH  11  12
ENDBRANCH  10  11
ENDBRANCH   9  10
ENDBRANCH   8   9
ENDBRANCH   7   8
ENDBRANCH   6   7
ENDBRANCH   5   6
ENDBRANCH   4   5
ENDBRANCH   3   4
ENDBRANCH   2   3
TORSDOF 16
ENDMDL
MODEL      393
REMARK 921   NORMALIZED FREE ENERGY PREDICTED BY IDOCK:   -2.34 KCAL/MOL
REMARK 922        TOTAL FREE ENERGY PREDICTED BY IDOCK:   -6.61 KCAL/MOL
REMARK 923 INTER-LIGAND FREE ENERGY PREDICTED BY IDOCK:   -5.23 KCAL/MOL
REMARK 924 INTRA-LIGAND FREE ENERGY PREDICTED BY IDOCK:   -1.38 KCAL/MOL
REMARK 927      BINDING AFFINITY PREDICTED BY RF-SCORE:    0.00 PKD
ROOT
HETATM    1  C   UNL     1      -8.209   9.666  63.504  1.00  0.00    -0.158 C  
HETATM    2  C   UNL     1      -8.324   8.365  64.279  1.00  0.00    -0.091 C  
ENDROOT
BRANCH   2   3
HETATM    3  C   UNL     1      -7.955   8.566  65.747  1.00  0.00    -0.107 C  
BRANCH   3   4
HETATM    4  C   UNL     1      -7.280   7.324  66.323  1.00  0.00    -0.078 C  
BRANCH   4   5
HETATM    5  C   UNL     1      -7.477   7.252  67.837  1.00  0.00    -0.102 C  
BRANCH   5   6
HETATM    6  C   UNL     1      -6.226   7.728  68.563  1.00  0.00    -0.040 C  
BRANCH   6   7
HETATM    7  C   UNL     1      -6.134   9.251  68.585  1.00  0.00    -0.044 C  
BRANCH   7   8
HETATM    8  C   UNL     1      -7.480   9.839  68.999  1.00  0.00    -0.080 C  
BRANCH   8   9
HETATM    9  C   UNL     1      -7.837   9.483  70.436  1.00  0.00    -0.190 C  
BRANCH   9  10
HETATM   10  C   UNL     1      -9.237   9.983  70.824  1.00  0.00     0.621 C  
BRANCH  10  11
HETATM   11  C   UNL     1      -9.982   9.067  71.806  1.00  0.00    -0.359 C  
BRANCH  11  12
HETATM   12  C   UNL     1     -11.341   8.708  71.260  1.00  0.00    -0.281 C  
HETATM   13  O   UNL     1     -11.624   7.652  70.717  1.00  0.00    -0.287 OA 
BRANCH  12  14
HETATM   14  O   UNL     1     -12.245   9.657  71.633  1.00  0.00    -0.360 OA 
BRANCH  14  15
HETATM   15  C   UNL     1     -12.774  10.422  70.543  1.00  0.00    -0.278 C  
BRANCH  15  16
HETATM   16  C   UNL     1     -12.468  11.889  70.866  1.00  0.00    -0.300 C  
BRANCH  16  17
HETATM   17  N   UNL     1     -11.685  12.573  69.850  1.00  0.00    -0.477 N  
HETATM   18  C   UNL     1     -11.759  13.937  69.705  1.00  0.00    -0.311 C  
HETATM   19  H   UNL     1     -11.073  12.034  69.237  1.00  0.00     0.000 HD 
HETATM   20  O   UNL     1     -12.552  14.640  70.324  1.00  0.00    -0.342 OA 
BRANCH  18  21
HETATM   21  C   UNL     1     -10.855  14.545  68.652  1.00  0.00    -0.251 C  
BRANCH  21  22
HETATM   22  N   UNL     1     -10.689  13.580  67.544  1.00  0.00    -0.257 NA 
HETATM   23  C   UNL     1     -11.622  13.519  66.560  1.00  0.00    -0.359 A  
HETATM   24  C   UNL     1     -11.496  12.604  65.524  1.00  0.00    -0.375 A  
HETATM   25  C   UNL     1     -10.394  11.762  65.488  1.00  0.00    -0.304 A  
HETATM   26  C   UNL     1      -9.438  11.848  66.491  1.00  0.00    -0.226 A  
HETATM   27  C   UNL     1      -9.607  12.771  67.516  1.00  0.00    -0.192 A  
ENDBRANCH  21  22
ENDBRANCH  18  21
ENDBRANCH  16  17
ENDBRANCH  15  16
ENDBRANCH  14  15
ENDBRANCH  12  14
ENDBRANCH  11  12
ENDBRANCH  10  11
ENDBRANCH   9  10
ENDBRANCH   8   9
ENDBRANCH   7   8
ENDBRANCH   6   7
ENDBRANCH   5   6
ENDBRANCH   4   5
ENDBRANCH   3   4
ENDBRANCH   2   3
TORSDOF 16
ENDMDL
MODEL      394
REMARK 921   NORMALIZED FREE ENERGY PREDICTED BY IDOCK:   -2.31 KCAL/MOL
REMARK 922        TOTAL FREE ENERGY PREDICTED BY IDOCK:   -6.55 KCAL/MOL
REMARK 923 INTER-LIGAND FREE ENERGY PREDICTED BY IDOCK:   -5.62 KCAL/MOL
REMARK 924 INTRA-LIGAND FREE ENERGY PREDICTED BY IDOCK:   -0.93 KCAL/MOL
REMARK 927      BINDING AFFINITY PREDICTED BY RF-SCORE:    0.00 PKD
ROOT
HETATM    1  C   UNL     1     -11.973  12.944  63.667  1.00  0.00    -0.613 C  
HETATM    2  C   UNL     1     -12.092  14.217  64.487  1.00  0.00    -0.489 C  
ENDROOT
BRANCH   2   3
HETATM    3  C   UNL     1     -10.920  14.356  65.457  1.00  0.00    -0.330 C  
BRANCH   3   4
HETATM    4  C   UNL     1     -10.865  13.183  66.431  1.00  0.00    -0.299 C  
BRANCH   4   5
HETATM    5  C   UNL     1     -12.007  13.264  67.442  1.00  0.00    -0.383 C  
BRANCH   5   6
HETATM    6  C   UNL     1     -11.732  12.358  68.636  1.00  0.00    -0.372 C  
BRANCH   6   7
HETATM    7  C   UNL     1     -11.786  10.883  68.246  1.00  0.00    -0.259 C  
BRANCH   7   8
HETATM    8  C   UNL     1     -10.625  10.138  68.900  1.00  0.00    -0.237 C  
BRANCH   8   9
HETATM    9  C   UNL     1     -10.556  10.400  70.398  1.00  0.00    -0.107 C  
BRANCH   9  10
HETATM   10  C   UNL     1     -11.180   9.257  71.213  1.00  0.00    -0.425 C  
BRANCH  10  11
HETATM   11  C   UNL     1     -11.151   7.894  70.508  1.00  0.00    -0.260 C  
BRANCH  11  12
HETATM   12  C   UNL     1     -12.022   6.905  71.241  1.00  0.00    -0.356 C  
HETATM   13  O   UNL     1     -13.243   6.914  71.249  1.00  0.00    -0.311 OA 
BRANCH  12  14
HETATM   14  O   UNL     1     -11.250   5.897  71.733  1.00  0.00    -0.271 OA 
BRANCH  14  15
HETATM   15  C   UNL     1      -9.936   6.306  72.132  1.00  0.00    -0.166 C  
BRANCH  15  16
HETATM   16  C   UNL     1      -9.113   5.021  72.272  1.00  0.00    -0.131 C  
BRANCH  16  17
HETATM   17  N   UNL     1      -7.938   4.967  71.418  1.00  0.00    -0.108 N  
HETATM   18  C   UNL     1      -7.802   3.985  70.468  1.00  0.00    -0.051 C  
HETATM   19  H   UNL     1      -7.205   5.669  71.526  1.00  0.00     0.000 HD 
HETATM   20  O   UNL     1      -8.582   3.044  70.354  1.00  0.00    -0.058 OA 
BRANCH  18  21
HETATM   21  C   UNL     1      -6.563   4.065  69.600  1.00  0.00    -0.033 C  
BRANCH  21  22
HETATM   22  N   UNL     1      -6.721   5.174  68.636  1.00  0.00    -0.049 NA 
HETATM   23  C   UNL     1      -7.940   5.429  68.097  1.00  0.00    -0.095 A  
HETATM   24  C   UNL     1      -8.104   6.451  67.173  1.00  0.00    -0.113 A  
HETATM   25  C   UNL     1      -7.011   7.228  66.815  1.00  0.00    -0.074 A  
HETATM   26  C   UNL     1      -5.773   6.967  67.387  1.00  0.00    -0.024 A  
HETATM   27  C   UNL     1      -5.651   5.929  68.301  1.00  0.00    -0.008 A  
ENDBRANCH  21  22
ENDBRANCH  18  21
ENDBRANCH  16  17
ENDBRANCH  15  16
ENDBRANCH  14  15
ENDBRANCH  12  14
ENDBRANCH  11  12
ENDBRANCH  10  11
ENDBRANCH   9  10
ENDBRANCH   8   9
ENDBRANCH   7   8
ENDBRANCH   6   7
ENDBRANCH   5   6
ENDBRANCH   4   5
ENDBRANCH   3   4
ENDBRANCH   2   3
TORSDOF 16
ENDMDL
MODEL      395
REMARK 921   NORMALIZED FREE ENERGY PREDICTED BY IDOCK:   -2.31 KCAL/MOL
REMARK 922        TOTAL FREE ENERGY PREDICTED BY IDOCK:   -6.54 KCAL/MOL
REMARK 923 INTER-LIGAND FREE ENERGY PREDICTED BY IDOCK:   -5.46 KCAL/MOL
REMARK 924 INTRA-LIGAND FREE ENERGY PREDICTED BY IDOCK:   -1.08 KCAL/MOL
REMARK 927      BINDING AFFINITY PREDICTED BY RF-SCORE:    0.00 PKD
ROOT
HETATM    1  C   UNL     1     -10.611   8.798  68.948  1.00  0.00    -0.178 C  
HETATM    2  C   UNL     1     -10.922   8.651  70.428  1.00  0.00    -0.256 C  
ENDROOT
BRANCH   2   3
HETATM    3  C   UNL     1      -9.712   8.120  71.193  1.00  0.00    -0.200 C  
BRANCH   3   4
HETATM    4  C   UNL     1      -8.903   7.146  70.341  1.00  0.00    -0.151 C  
BRANCH   4   5
HETATM    5  C   UNL     1      -7.432   7.154  70.756  1.00  0.00    -0.080 C  
BRANCH   5   6
HETATM    6  C   UNL     1      -6.535   7.378  69.547  1.00  0.00    -0.036 C  
BRANCH   6   7
HETATM    7  C   UNL     1      -7.343   7.762  68.310  1.00  0.00    -0.102 C  
BRANCH   7   8
HETATM    8  C   UNL     1      -7.059   9.216  67.945  1.00  0.00    -0.079 C  
BRANCH   8   9
HETATM    9  C   UNL     1      -7.750   9.622  66.651  1.00  0.00    -0.098 C  
BRANCH   9  10
HETATM   10  C   UNL     1      -8.231  11.081  66.685  1.00  0.00    -0.154 C  
BRANCH  10  11
HETATM   11  C   UNL     1      -9.736  11.252  66.437  1.00  0.00    -0.238 C  
BRANCH  11  12
HETATM   12  C   UNL     1     -10.016  12.597  65.815  1.00  0.00    -0.256 C  
HETATM   13  O   UNL     1     -10.207  12.795  64.626  1.00  0.00    -0.321 OA 
BRANCH  12  14
HETATM   14  O   UNL     1     -10.210  13.520  66.798  1.00  0.00    -0.256 OA 
BRANCH  14  15
HETATM   15  C   UNL     1     -10.709  12.975  68.025  1.00  0.00    -0.232 C  
BRANCH  15  16
HETATM   16  C   UNL     1     -12.011  13.725  68.326  1.00  0.00    -0.357 C  
BRANCH  16  17
HETATM   17  N   UNL     1     -11.873  15.172  68.360  1.00  0.00    -0.495 N  
HETATM   18  C   UNL     1     -11.059  15.779  69.285  1.00  0.00    -0.297 C  
HETATM   19  H   UNL     1     -12.386  15.743  67.690  1.00  0.00     0.000 HD 
HETATM   20  O   UNL     1     -10.499  15.172  70.193  1.00  0.00    -0.248 OA 
BRANCH  18  21
HETATM   21  C   UNL     1     -10.949  17.286  69.188  1.00  0.00     0.172 C  
BRANCH  21  22
HETATM   22  N   UNL     1      -9.827  17.632  68.291  1.00  0.00    -0.306 NA 
HETATM   23  C   UNL     1      -8.553  17.354  68.670  1.00  0.00    -0.259 A  
HETATM   24  C   UNL     1      -7.484  17.692  67.851  1.00  0.00    -0.204 A  
HETATM   25  C   UNL     1      -7.727  18.300  66.628  1.00  0.00    -0.261 A  
HETATM   26  C   UNL     1      -9.036  18.563  66.246  1.00  0.00    -0.219 A  
HETATM   27  C   UNL     1     -10.076  18.218  67.099  1.00  0.00    -0.356 A  
ENDBRANCH  21  22
ENDBRANCH  18  21
ENDBRANCH  16  17
ENDBRANCH  15  16
ENDBRANCH  14  15
ENDBRANCH  12  14
ENDBRANCH  11  12
ENDBRANCH  10  11
ENDBRANCH   9  10
ENDBRANCH   8   9
ENDBRANCH   7   8
ENDBRANCH   6   7
ENDBRANCH   5   6
ENDBRANCH   4   5
ENDBRANCH   3   4
ENDBRANCH   2   3
TORSDOF 16
ENDMDL
MODEL      396
REMARK 921   NORMALIZED FREE ENERGY PREDICTED BY IDOCK:   -2.28 KCAL/MOL
REMARK 922        TOTAL FREE ENERGY PREDICTED BY IDOCK:   -6.49 KCAL/MOL
REMARK 923 INTER-LIGAND FREE ENERGY PREDICTED BY IDOCK:   -5.24 KCAL/MOL
REMARK 924 INTRA-LIGAND FREE ENERGY PREDICTED BY IDOCK:   -1.25 KCAL/MOL
REMARK 927      BINDING AFFINITY PREDICTED BY RF-SCORE:    0.00 PKD
ROOT
HETATM    1  C   UNL     1      -6.834   6.360  72.228  1.00  0.00    -0.069 C  
HETATM    2  C   UNL     1      -6.309   7.165  71.051  1.00  0.00    -0.036 C  
ENDROOT
BRANCH   2   3
HETATM    3  C   UNL     1      -7.447   7.869  70.316  1.00  0.00    -0.077 C  
BRANCH   3   4
HETATM    4  C   UNL     1      -6.951   9.122  69.600  1.00  0.00    -0.055 C  
BRANCH   4   5
HETATM    5  C   UNL     1      -5.946   9.880  70.466  1.00  0.00    -0.078 C  
BRANCH   5   6
HETATM    6  C   UNL     1      -6.136  11.384  70.317  1.00  0.00    -0.145 C  
BRANCH   6   7
HETATM    7  C   UNL     1      -6.795  11.738  68.987  1.00  0.00    -0.106 C  
BRANCH   7   8
HETATM    8  C   UNL     1      -6.913  13.255  68.863  1.00  0.00    -0.096 C  
BRANCH   8   9
HETATM    9  C   UNL     1      -8.243  13.672  68.251  1.00  0.00    -0.156 C  
BRANCH   9  10
HETATM   10  C   UNL     1      -9.231  12.499  68.163  1.00  0.00    -0.209 C  
BRANCH  10  11
HETATM   11  C   UNL     1     -10.603  12.784  68.790  1.00  0.00    -0.216 C  
BRANCH  11  12
HETATM   12  C   UNL     1     -11.673  11.977  68.099  1.00  0.00    -0.333 C  
HETATM   13  O   UNL     1     -11.924  12.018  66.905  1.00  0.00    -0.612 OA 
BRANCH  12  14
HETATM   14  O   UNL     1     -12.186  11.064  68.970  1.00  0.00    -0.483 OA 
BRANCH  14  15
HETATM   15  C   UNL     1     -11.196  10.327  69.699  1.00  0.00    -0.269 C  
BRANCH  15  16
HETATM   16  C   UNL     1     -10.988   9.018  68.930  1.00  0.00     0.054 C  
BRANCH  16  17
HETATM   17  N   UNL     1      -9.812   9.007  68.076  1.00  0.00    -0.160 N  
HETATM   18  C   UNL     1      -9.775   8.240  66.938  1.00  0.00    -0.225 C  
HETATM   19  H   UNL     1      -9.003   9.577  68.325  1.00  0.00     0.000 HD 
HETATM   20  O   UNL     1     -10.658   7.445  66.631  1.00  0.00    -0.257 OA 
BRANCH  18  21
HETATM   21  C   UNL     1      -8.519   8.353  66.098  1.00  0.00    -0.131 C  
BRANCH  21  22
HETATM   22  N   UNL     1      -8.797   9.213  64.928  1.00  0.00    -0.191 NA 
HETATM   23  C   UNL     1      -8.144   8.990  63.759  1.00  0.00    -0.164 A  
HETATM   24  C   UNL     1      -8.375   9.801  62.656  1.00  0.00    -0.162 A  
HETATM   25  C   UNL     1      -9.297  10.833  62.750  1.00  0.00    -0.352 A  
HETATM   26  C   UNL     1      -9.970  11.039  63.946  1.00  0.00    -0.396 A  
HETATM   27  C   UNL     1      -9.703  10.211  65.029  1.00  0.00    -0.318 A  
ENDBRANCH  21  22
ENDBRANCH  18  21
ENDBRANCH  16  17
ENDBRANCH  15  16
ENDBRANCH  14  15
ENDBRANCH  12  14
ENDBRANCH  11  12
ENDBRANCH  10  11
ENDBRANCH   9  10
ENDBRANCH   8   9
ENDBRANCH   7   8
ENDBRANCH   6   7
ENDBRANCH   5   6
ENDBRANCH   4   5
ENDBRANCH   3   4
ENDBRANCH   2   3
TORSDOF 16
ENDMDL
MODEL      397
REMARK 921   NORMALIZED FREE ENERGY PREDICTED BY IDOCK:   -2.26 KCAL/MOL
REMARK 922        TOTAL FREE ENERGY PREDICTED BY IDOCK:   -6.45 KCAL/MOL
REMARK 923 INTER-LIGAND FREE ENERGY PREDICTED BY IDOCK:   -5.95 KCAL/MOL
REMARK 924 INTRA-LIGAND FREE ENERGY PREDICTED BY IDOCK:   -0.51 KCAL/MOL
REMARK 927      BINDING AFFINITY PREDICTED BY RF-SCORE:    0.00 PKD
ROOT
HETATM    1  C   UNL     1     -11.071   7.503  72.647  1.00  0.00    -0.398 C  
HETATM    2  C   UNL     1      -9.817   7.025  73.358  1.00  0.00    -0.273 C  
ENDROOT
BRANCH   2   3
HETATM    3  C   UNL     1      -9.050   6.019  72.502  1.00  0.00    -0.135 C  
BRANCH   3   4
HETATM    4  C   UNL     1      -7.662   5.749  73.075  1.00  0.00    -0.100 C  
BRANCH   4   5
HETATM    5  C   UNL     1      -6.631   6.700  72.469  1.00  0.00    -0.063 C  
BRANCH   5   6
HETATM    6  C   UNL     1      -6.712   6.680  70.948  1.00  0.00    -0.054 C  
BRANCH   6   7
HETATM    7  C   UNL     1      -7.700   7.719  70.424  1.00  0.00    -0.088 C  
BRANCH   7   8
HETATM    8  C   UNL     1      -7.350   8.077  68.982  1.00  0.00    -0.084 C  
BRANCH   8   9
HETATM    9  C   UNL     1      -7.430   9.577  68.735  1.00  0.00    -0.075 C  
BRANCH   9  10
HETATM   10  C   UNL     1      -8.883  10.070  68.644  1.00  0.00    -0.132 C  
BRANCH  10  11
HETATM   11  C   UNL     1      -9.104  11.183  67.610  1.00  0.00    -0.147 C  
BRANCH  11  12
HETATM   12  C   UNL     1     -10.538  11.187  67.142  1.00  0.00    -0.244 C  
HETATM   13  O   UNL     1     -11.402  10.410  67.517  1.00  0.00    -0.374 OA 
BRANCH  12  14
HETATM   14  O   UNL     1     -10.766  12.297  66.387  1.00  0.00    -0.240 OA 
BRANCH  14  15
HETATM   15  C   UNL     1     -12.007  12.955  66.672  1.00  0.00    -0.366 C  
BRANCH  15  16
HETATM   16  C   UNL     1     -11.670  14.101  67.632  1.00  0.00    -0.387 C  
BRANCH  16  17
HETATM   17  N   UNL     1     -11.070  15.260  66.991  1.00  0.00    -0.325 N  
HETATM   18  C   UNL     1     -10.907  16.438  67.678  1.00  0.00    -0.280 C  
HETATM   19  H   UNL     1     -10.765  15.197  66.020  1.00  0.00     0.000 HD 
HETATM   20  O   UNL     1     -11.348  16.628  68.807  1.00  0.00    -0.274 OA 
BRANCH  18  21
HETATM   21  C   UNL     1     -10.218  17.558  66.926  1.00  0.00    -0.329 C  
BRANCH  21  22
HETATM   22  N   UNL     1      -9.049  18.016  67.706  1.00  0.00    -0.259 NA 
HETATM   23  C   UNL     1      -7.950  17.225  67.798  1.00  0.00    -0.190 A  
HETATM   24  C   UNL     1      -6.851  17.627  68.544  1.00  0.00    -0.223 A  
HETATM   25  C   UNL     1      -6.875  18.858  69.184  1.00  0.00    -0.327 A  
HETATM   26  C   UNL     1      -7.999  19.665  69.067  1.00  0.00    -0.234 A  
HETATM   27  C   UNL     1      -9.081  19.220  68.318  1.00  0.00    -0.345 A  
ENDBRANCH  21  22
ENDBRANCH  18  21
ENDBRANCH  16  17
ENDBRANCH  15  16
ENDBRANCH  14  15
ENDBRANCH  12  14
ENDBRANCH  11  12
ENDBRANCH  10  11
ENDBRANCH   9  10
ENDBRANCH   8   9
ENDBRANCH   7   8
ENDBRANCH   6   7
ENDBRANCH   5   6
ENDBRANCH   4   5
ENDBRANCH   3   4
ENDBRANCH   2   3
TORSDOF 16
ENDMDL
MODEL      398
REMARK 921   NORMALIZED FREE ENERGY PREDICTED BY IDOCK:   -2.20 KCAL/MOL
REMARK 922        TOTAL FREE ENERGY PREDICTED BY IDOCK:   -6.33 KCAL/MOL
REMARK 923 INTER-LIGAND FREE ENERGY PREDICTED BY IDOCK:   -5.80 KCAL/MOL
REMARK 924 INTRA-LIGAND FREE ENERGY PREDICTED BY IDOCK:   -0.53 KCAL/MOL
REMARK 927      BINDING AFFINITY PREDICTED BY RF-SCORE:    0.00 PKD
ROOT
HETATM    1  C   UNL     1      -5.401  11.884  71.276  1.00  0.00    -0.025 C  
HETATM    2  C   UNL     1      -5.455  13.402  71.266  1.00  0.00    -0.198 C  
ENDROOT
BRANCH   2   3
HETATM    3  C   UNL     1      -6.163  13.919  70.016  1.00  0.00    -0.131 C  
BRANCH   3   4
HETATM    4  C   UNL     1      -6.711  12.768  69.176  1.00  0.00    -0.080 C  
BRANCH   4   5
HETATM    5  C   UNL     1      -7.577  13.296  68.032  1.00  0.00    -0.145 C  
BRANCH   5   6
HETATM    6  C   UNL     1      -8.296  12.151  67.332  1.00  0.00    -0.174 C  
BRANCH   6   7
HETATM    7  C   UNL     1      -8.973  11.217  68.331  1.00  0.00    -0.165 C  
BRANCH   7   8
HETATM    8  C   UNL     1     -10.471  11.509  68.372  1.00  0.00    -0.226 C  
BRANCH   8   9
HETATM    9  C   UNL     1     -10.926  11.950  69.755  1.00  0.00     0.092 C  
BRANCH   9  10
HETATM   10  C   UNL     1     -12.266  12.700  69.711  1.00  0.00    -0.209 C  
BRANCH  10  11
HETATM   11  C   UNL     1     -12.185  14.160  70.178  1.00  0.00    -0.415 C  
BRANCH  11  12
HETATM   12  C   UNL     1     -11.186  14.923  69.345  1.00  0.00    -0.283 C  
HETATM   13  O   UNL     1      -9.977  14.915  69.516  1.00  0.00    -0.171 OA 
BRANCH  12  14
HETATM   14  O   UNL     1     -11.815  15.467  68.267  1.00  0.00    -0.330 OA 
BRANCH  14  15
HETATM   15  C   UNL     1     -12.031  14.549  67.189  1.00  0.00    -0.345 C  
BRANCH  15  16
HETATM   16  C   UNL     1     -10.861  14.747  66.219  1.00  0.00    -0.322 C  
BRANCH  16  17
HETATM   17  N   UNL     1     -10.721  13.693  65.228  1.00  0.00    -0.320 N  
HETATM   18  C   UNL     1     -11.536  13.653  64.123  1.00  0.00    -0.329 C  
HETATM   19  H   UNL     1     -10.009  12.974  65.355  1.00  0.00     0.000 HD 
HETATM   20  O   UNL     1     -12.485  14.412  63.957  1.00  0.00    -0.748 OA 
BRANCH  18  21
HETATM   21  C   UNL     1     -11.259  12.542  63.132  1.00  0.00    -0.059 C  
BRANCH  21  22
HETATM   22  N   UNL     1     -10.476  11.482  63.801  1.00  0.00    -0.364 NA 
HETATM   23  C   UNL     1      -9.247  11.151  63.327  1.00  0.00    -0.253 A  
HETATM   24  C   UNL     1      -8.507  10.143  63.929  1.00  0.00    -0.181 A  
HETATM   25  C   UNL     1      -9.023   9.485  65.035  1.00  0.00    -0.258 A  
HETATM   26  C   UNL     1     -10.273   9.844  65.520  1.00  0.00    -0.194 A  
HETATM   27  C   UNL     1     -10.986  10.853  64.883  1.00  0.00     0.032 A  
ENDBRANCH  21  22
ENDBRANCH  18  21
ENDBRANCH  16  17
ENDBRANCH  15  16
ENDBRANCH  14  15
ENDBRANCH  12  14
ENDBRANCH  11  12
ENDBRANCH  10  11
ENDBRANCH   9  10
ENDBRANCH   8   9
ENDBRANCH   7   8
ENDBRANCH   6   7
ENDBRANCH   5   6
ENDBRANCH   4   5
ENDBRANCH   3   4
ENDBRANCH   2   3
TORSDOF 16
ENDMDL
MODEL      399
REMARK 921   NORMALIZED FREE ENERGY PREDICTED BY IDOCK:   -2.13 KCAL/MOL
REMARK 922        TOTAL FREE ENERGY PREDICTED BY IDOCK:   -6.21 KCAL/MOL
REMARK 923 INTER-LIGAND FREE ENERGY PREDICTED BY IDOCK:   -5.61 KCAL/MOL
REMARK 924 INTRA-LIGAND FREE ENERGY PREDICTED BY IDOCK:   -0.60 KCAL/MOL
REMARK 927      BINDING AFFINITY PREDICTED BY RF-SCORE:    0.00 PKD
ROOT
HETATM    1  C   UNL     1      -5.460   9.744  69.190  1.00  0.00    -0.035 C  
HETATM    2  C   UNL     1      -6.543  10.410  70.021  1.00  0.00    -0.137 C  
ENDROOT
BRANCH   2   3
HETATM    3  C   UNL     1      -7.917  10.225  69.382  1.00  0.00    -0.162 C  
BRANCH   3   4
HETATM    4  C   UNL     1      -8.887   9.542  70.342  1.00  0.00    -0.279 C  
BRANCH   4   5
HETATM    5  C   UNL     1     -10.320   9.628  69.818  1.00  0.00    -0.266 C  
BRANCH   5   6
HETATM    6  C   UNL     1     -11.250   8.758  70.654  1.00  0.00    -0.294 C  
BRANCH   6   7
HETATM    7  C   UNL     1     -12.198   9.602  71.501  1.00  0.00    -0.483 C  
BRANCH   7   8
HETATM    8  C   UNL     1     -12.842  10.678  70.631  1.00  0.00    -0.404 C  
BRANCH   8   9
HETATM    9  C   UNL     1     -13.534  11.745  71.467  1.00  0.00     0.065 C  
BRANCH   9  10
HETATM   10  C   UNL     1     -12.598  12.919  71.796  1.00  0.00    -0.142 C  
BRANCH  10  11
HETATM   11  C   UNL     1     -13.301  14.281  71.871  1.00  0.00    -0.470 C  
BRANCH  11  12
HETATM   12  C   UNL     1     -12.287  15.387  72.030  1.00  0.00    -0.373 C  
HETATM   13  O   UNL     1     -11.710  15.666  73.069  1.00  0.00    -0.443 OA 
BRANCH  12  14
HETATM   14  O   UNL     1     -11.977  15.897  70.807  1.00  0.00    -0.377 OA 
BRANCH  14  15
HETATM   15  C   UNL     1     -10.646  15.599  70.367  1.00  0.00    -0.268 C  
BRANCH  15  16
HETATM   16  C   UNL     1     -10.330  16.603  69.253  1.00  0.00    -0.318 C  
BRANCH  16  17
HETATM   17  N   UNL     1      -8.976  17.129  69.288  1.00  0.00     0.022 N  
HETATM   18  C   UNL     1      -8.748  18.480  69.382  1.00  0.00     0.414 C  
HETATM   19  H   UNL     1      -8.185  16.487  69.243  1.00  0.00     0.000 HD 
HETATM   20  O   UNL     1      -9.640  19.321  69.327  1.00  0.00    -0.317 OA 
BRANCH  18  21
HETATM   21  C   UNL     1      -7.296  18.906  69.468  1.00  0.00     0.061 C  
BRANCH  21  22
HETATM   22  N   UNL     1      -6.796  19.193  68.107  1.00  0.00    -0.243 NA 
HETATM   23  C   UNL     1      -6.086  20.327  67.877  1.00  0.00    -0.232 A  
HETATM   24  C   UNL     1      -5.627  20.624  66.601  1.00  0.00    -0.221 A  
HETATM   25  C   UNL     1      -5.882  19.742  65.561  1.00  0.00    -0.206 A  
HETATM   26  C   UNL     1      -6.594  18.577  65.815  1.00  0.00    -0.312 A  
HETATM   27  C   UNL     1      -7.044  18.322  67.104  1.00  0.00    -0.195 A  
ENDBRANCH  21  22
ENDBRANCH  18  21
ENDBRANCH  16  17
ENDBRANCH  15  16
ENDBRANCH  14  15
ENDBRANCH  12  14
ENDBRANCH  11  12
ENDBRANCH  10  11
ENDBRANCH   9  10
ENDBRANCH   8   9
ENDBRANCH   7   8
ENDBRANCH   6   7
ENDBRANCH   5   6
ENDBRANCH   4   5
ENDBRANCH   3   4
ENDBRANCH   2   3
TORSDOF 16
ENDMDL
MODEL      400
REMARK 921   NORMALIZED FREE ENERGY PREDICTED BY IDOCK:   -2.12 KCAL/MOL
REMARK 922        TOTAL FREE ENERGY PREDICTED BY IDOCK:   -6.19 KCAL/MOL
REMARK 923 INTER-LIGAND FREE ENERGY PREDICTED BY IDOCK:   -5.19 KCAL/MOL
REMARK 924 INTRA-LIGAND FREE ENERGY PREDICTED BY IDOCK:   -0.99 KCAL/MOL
REMARK 927      BINDING AFFINITY PREDICTED BY RF-SCORE:    0.00 PKD
ROOT
HETATM    1  C   UNL     1     -11.075   8.190  70.771  1.00  0.00    -0.275 C  
HETATM    2  C   UNL     1     -10.830   9.686  70.664  1.00  0.00    -0.386 C  
ENDROOT
BRANCH   2   3
HETATM    3  C   UNL     1     -11.191  10.203  69.273  1.00  0.00    -0.247 C  
BRANCH   3   4
HETATM    4  C   UNL     1     -12.369  11.171  69.331  1.00  0.00    -0.224 C  
BRANCH   4   5
HETATM    5  C   UNL     1     -11.881  12.612  69.469  1.00  0.00    -0.376 C  
BRANCH   5   6
HETATM    6  C   UNL     1     -10.937  12.971  68.329  1.00  0.00    -0.285 C  
BRANCH   6   7
HETATM    7  C   UNL     1      -9.487  12.642  68.675  1.00  0.00    -0.002 C  
BRANCH   7   8
HETATM    8  C   UNL     1      -8.605  13.854  68.386  1.00  0.00    -0.169 C  
BRANCH   8   9
HETATM    9  C   UNL     1      -7.127  13.531  68.549  1.00  0.00    -0.108 C  
BRANCH   9  10
HETATM   10  C   UNL     1      -6.875  12.020  68.664  1.00  0.00    -0.091 C  
BRANCH  10  11
HETATM   11  C   UNL     1      -6.166  11.407  67.448  1.00  0.00    -0.078 C  
BRANCH  11  12
HETATM   12  C   UNL     1      -6.385   9.915  67.409  1.00  0.00    -0.067 C  
HETATM   13  O   UNL     1      -6.148   9.146  68.328  1.00  0.00    -0.051 OA 
BRANCH  12  14
HETATM   14  O   UNL     1      -7.058   9.584  66.273  1.00  0.00    -0.089 OA 
BRANCH  14  15
HETATM   15  C   UNL     1      -7.867   8.408  66.392  1.00  0.00    -0.098 C  
BRANCH  15  16
HETATM   16  C   UNL     1      -9.122   8.667  65.551  1.00  0.00    -0.131 C  
BRANCH  16  17
HETATM   17  N   UNL     1      -9.206  10.010  65.002  1.00  0.00    -0.205 N  
HETATM   18  C   UNL     1      -9.192  10.217  63.644  1.00  0.00    -0.282 C  
HETATM   19  H   UNL     1      -9.276  10.809  65.632  1.00  0.00     0.000 HD 
HETATM   20  O   UNL     1      -8.997   9.322  62.826  1.00  0.00    -0.227 OA 
BRANCH  18  21
HETATM   21  C   UNL     1      -9.343  11.654  63.187  1.00  0.00    -0.173 C  
BRANCH  21  22
HETATM   22  N   UNL     1     -10.625  12.188  63.693  1.00  0.00    -0.425 NA 
HETATM   23  C   UNL     1     -11.789  11.814  63.104  1.00  0.00    -0.091 A  
HETATM   24  C   UNL     1     -13.001  12.322  63.550  1.00  0.00    -0.263 A  
HETATM   25  C   UNL     1     -13.018  13.206  64.620  1.00  0.00    -0.115 A  
HETATM   26  C   UNL     1     -11.821  13.567  65.224  1.00  0.00    -0.373 A  
HETATM   27  C   UNL     1     -10.629  13.042  64.741  1.00  0.00    -0.362 A  
ENDBRANCH  21  22
ENDBRANCH  18  21
ENDBRANCH  16  17
ENDBRANCH  15  16
ENDBRANCH  14  15
ENDBRANCH  12  14
ENDBRANCH  11  12
ENDBRANCH  10  11
ENDBRANCH   9  10
ENDBRANCH   8   9
ENDBRANCH   7   8
ENDBRANCH   6   7
ENDBRANCH   5   6
ENDBRANCH   4   5
ENDBRANCH   3   4
ENDBRANCH   2   3
TORSDOF 16
ENDMDL
MODEL      401
REMARK 921   NORMALIZED FREE ENERGY PREDICTED BY IDOCK:   -2.12 KCAL/MOL
REMARK 922        TOTAL FREE ENERGY PREDICTED BY IDOCK:   -6.18 KCAL/MOL
REMARK 923 INTER-LIGAND FREE ENERGY PREDICTED BY IDOCK:   -4.92 KCAL/MOL
REMARK 924 INTRA-LIGAND FREE ENERGY PREDICTED BY IDOCK:   -1.26 KCAL/MOL
REMARK 927      BINDING AFFINITY PREDICTED BY RF-SCORE:    0.00 PKD
ROOT
HETATM    1  C   UNL     1      -6.703  13.830  68.744  1.00  0.00    -0.103 C  
HETATM    2  C   UNL     1      -7.875  14.418  67.978  1.00  0.00    -0.141 C  
ENDROOT
BRANCH   2   3
HETATM    3  C   UNL     1      -9.189  13.758  68.392  1.00  0.00    -0.182 C  
BRANCH   3   4
HETATM    4  C   UNL     1     -10.139  13.624  67.205  1.00  0.00    -0.245 C  
BRANCH   4   5
HETATM    5  C   UNL     1     -10.652  12.190  67.081  1.00  0.00    -0.254 C  
BRANCH   5   6
HETATM    6  C   UNL     1     -10.409  11.653  65.677  1.00  0.00    -0.306 C  
BRANCH   6   7
HETATM    7  C   UNL     1      -8.982  11.137  65.512  1.00  0.00    -0.178 C  
BRANCH   7   8
HETATM    8  C   UNL     1      -8.634  10.213  66.676  1.00  0.00    -0.130 C  
BRANCH   8   9
HETATM    9  C   UNL     1      -9.140   8.796  66.446  1.00  0.00    -0.221 C  
BRANCH   9  10
HETATM   10  C   UNL     1      -9.346   8.036  67.765  1.00  0.00    -0.151 C  
BRANCH  10  11
HETATM   11  C   UNL     1     -10.781   7.536  67.985  1.00  0.00    -0.170 C  
BRANCH  11  12
HETATM   12  C   UNL     1     -10.892   6.826  69.311  1.00  0.00    -0.264 C  
HETATM   13  O   UNL     1     -10.231   5.855  69.646  1.00  0.00    -0.182 OA 
BRANCH  12  14
HETATM   14  O   UNL     1     -11.700   7.541  70.143  1.00  0.00    -0.111 OA 
BRANCH  14  15
HETATM   15  C   UNL     1     -11.012   8.169  71.232  1.00  0.00    -0.240 C  
BRANCH  15  16
HETATM   16  C   UNL     1     -11.562   7.527  72.510  1.00  0.00    -0.303 C  
BRANCH  16  17
HETATM   17  N   UNL     1     -11.604   6.074  72.479  1.00  0.00    -0.413 N  
HETATM   18  C   UNL     1     -10.975   5.331  73.448  1.00  0.00    -0.316 C  
HETATM   19  H   UNL     1     -12.106   5.601  71.728  1.00  0.00     0.000 HD 
HETATM   20  O   UNL     1     -10.259   5.821  74.316  1.00  0.00    -0.241 OA 
BRANCH  18  21
HETATM   21  C   UNL     1     -11.135   3.829  73.344  1.00  0.00    -0.211 C  
BRANCH  21  22
HETATM   22  N   UNL     1      -9.894   3.249  72.789  1.00  0.00    -0.132 NA 
HETATM   23  C   UNL     1      -9.114   2.458  73.569  1.00  0.00    -0.083 A  
HETATM   24  C   UNL     1      -7.933   1.922  73.073  1.00  0.00    -0.048 A  
HETATM   25  C   UNL     1      -7.563   2.185  71.762  1.00  0.00    -0.041 A  
HETATM   26  C   UNL     1      -8.379   2.982  70.970  1.00  0.00    -0.087 A  
HETATM   27  C   UNL     1      -9.548   3.506  71.508  1.00  0.00    -0.162 A  
ENDBRANCH  21  22
ENDBRANCH  18  21
ENDBRANCH  16  17
ENDBRANCH  15  16
ENDBRANCH  14  15
ENDBRANCH  12  14
ENDBRANCH  11  12
ENDBRANCH  10  11
ENDBRANCH   9  10
ENDBRANCH   8   9
ENDBRANCH   7   8
ENDBRANCH   6   7
ENDBRANCH   5   6
ENDBRANCH   4   5
ENDBRANCH   3   4
ENDBRANCH   2   3
TORSDOF 16
ENDMDL
MODEL      402
REMARK 921   NORMALIZED FREE ENERGY PREDICTED BY IDOCK:   -2.10 KCAL/MOL
REMARK 922        TOTAL FREE ENERGY PREDICTED BY IDOCK:   -6.15 KCAL/MOL
REMARK 923 INTER-LIGAND FREE ENERGY PREDICTED BY IDOCK:   -5.23 KCAL/MOL
REMARK 924 INTRA-LIGAND FREE ENERGY PREDICTED BY IDOCK:   -0.93 KCAL/MOL
REMARK 927      BINDING AFFINITY PREDICTED BY RF-SCORE:    0.00 PKD
ROOT
HETATM    1  C   UNL     1      -8.849   1.851  64.774  1.00  0.00    -0.116 C  
HETATM    2  C   UNL     1      -9.721   3.095  64.750  1.00  0.00    -0.105 C  
ENDROOT
BRANCH   2   3
HETATM    3  C   UNL     1      -9.276   4.099  65.811  1.00  0.00    -0.148 C  
BRANCH   3   4
HETATM    4  C   UNL     1      -9.520   3.561  67.218  1.00  0.00    -0.228 C  
BRANCH   4   5
HETATM    5  C   UNL     1      -8.201   3.387  67.970  1.00  0.00    -0.087 C  
BRANCH   5   6
HETATM    6  C   UNL     1      -7.314   4.611  67.786  1.00  0.00    -0.073 C  
BRANCH   6   7
HETATM    7  C   UNL     1      -7.717   5.744  68.727  1.00  0.00    -0.090 C  
BRANCH   7   8
HETATM    8  C   UNL     1      -6.569   6.743  68.846  1.00  0.00    -0.051 C  
BRANCH   8   9
HETATM    9  C   UNL     1      -7.032   8.171  68.599  1.00  0.00    -0.068 C  
BRANCH   9  10
HETATM   10  C   UNL     1      -7.759   8.318  67.253  1.00  0.00    -0.101 C  
BRANCH  10  11
HETATM   11  C   UNL     1      -7.791   9.753  66.710  1.00  0.00    -0.102 C  
BRANCH  11  12
HETATM   12  C   UNL     1      -9.101  10.416  67.054  1.00  0.00    -0.139 C  
HETATM   13  O   UNL     1     -10.142  10.282  66.430  1.00  0.00    -0.217 OA 
BRANCH  12  14
HETATM   14  O   UNL     1      -8.995  11.030  68.265  1.00  0.00    -0.141 OA 
BRANCH  14  15
HETATM   15  C   UNL     1      -9.875  12.148  68.435  1.00  0.00    -0.200 C  
BRANCH  15  16
HETATM   16  C   UNL     1      -9.024  13.400  68.196  1.00  0.00    -0.188 C  
BRANCH  16  17
HETATM   17  N   UNL     1      -9.716  14.652  68.458  1.00  0.00    -0.220 N  
HETATM   18  C   UNL     1     -10.284  15.370  67.434  1.00  0.00    -0.249 C  
HETATM   19  H   UNL     1      -9.781  15.001  69.414  1.00  0.00     0.000 HD 
HETATM   20  O   UNL     1     -10.152  15.077  66.249  1.00  0.00    -0.257 OA 
BRANCH  18  21
HETATM   21  C   UNL     1     -11.026  16.628  67.834  1.00  0.00    -0.276 C  
BRANCH  21  22
HETATM   22  N   UNL     1     -10.103  17.779  67.756  1.00  0.00    -0.327 NA 
HETATM   23  C   UNL     1     -10.170  18.624  66.696  1.00  0.00    -0.404 A  
HETATM   24  C   UNL     1      -9.296  19.698  66.593  1.00  0.00    -0.460 A  
HETATM   25  C   UNL     1      -8.362  19.915  67.596  1.00  0.00    -0.362 A  
HETATM   26  C   UNL     1      -8.316  19.053  68.683  1.00  0.00    -0.397 A  
HETATM   27  C   UNL     1      -9.202  17.985  68.743  1.00  0.00    -0.218 A  
ENDBRANCH  21  22
ENDBRANCH  18  21
ENDBRANCH  16  17
ENDBRANCH  15  16
ENDBRANCH  14  15
ENDBRANCH  12  14
ENDBRANCH  11  12
ENDBRANCH  10  11
ENDBRANCH   9  10
ENDBRANCH   8   9
ENDBRANCH   7   8
ENDBRANCH   6   7
ENDBRANCH   5   6
ENDBRANCH   4   5
ENDBRANCH   3   4
ENDBRANCH   2   3
TORSDOF 16
ENDMDL
MODEL      403
REMARK 921   NORMALIZED FREE ENERGY PREDICTED BY IDOCK:   -2.10 KCAL/MOL
REMARK 922        TOTAL FREE ENERGY PREDICTED BY IDOCK:   -6.15 KCAL/MOL
REMARK 923 INTER-LIGAND FREE ENERGY PREDICTED BY IDOCK:   -4.70 KCAL/MOL
REMARK 924 INTRA-LIGAND FREE ENERGY PREDICTED BY IDOCK:   -1.45 KCAL/MOL
REMARK 927      BINDING AFFINITY PREDICTED BY RF-SCORE:    0.00 PKD
ROOT
HETATM    1  C   UNL     1      -6.534  15.150  67.601  1.00  0.00    -0.180 C  
HETATM    2  C   UNL     1      -7.737  15.947  68.076  1.00  0.00    -0.139 C  
ENDROOT
BRANCH   2   3
HETATM    3  C   UNL     1      -8.684  15.075  68.897  1.00  0.00    -0.197 C  
BRANCH   3   4
HETATM    4  C   UNL     1     -10.141  15.347  68.534  1.00  0.00    -0.213 C  
BRANCH   4   5
HETATM    5  C   UNL     1     -10.949  14.050  68.525  1.00  0.00    -0.274 C  
BRANCH   5   6
HETATM    6  C   UNL     1     -11.601  13.833  67.166  1.00  0.00    -0.392 C  
BRANCH   6   7
HETATM    7  C   UNL     1     -10.635  14.139  66.024  1.00  0.00    -0.297 C  
BRANCH   7   8
HETATM    8  C   UNL     1      -9.798  12.900  65.717  1.00  0.00    -0.216 C  
BRANCH   8   9
HETATM    9  C   UNL     1     -10.651  11.641  65.652  1.00  0.00    -0.324 C  
BRANCH   9  10
HETATM   10  C   UNL     1     -10.268  10.627  66.741  1.00  0.00    -0.284 C  
BRANCH  10  11
HETATM   11  C   UNL     1     -11.308  10.484  67.860  1.00  0.00    -0.297 C  
BRANCH  11  12
HETATM   12  C   UNL     1     -11.103   9.190  68.606  1.00  0.00     0.160 C  
HETATM   13  O   UNL     1     -10.837   8.115  68.090  1.00  0.00    -0.079 OA 
BRANCH  12  14
HETATM   14  O   UNL     1     -11.072   9.437  69.945  1.00  0.00    -0.238 OA 
BRANCH  14  15
HETATM   15  C   UNL     1      -9.752   9.523  70.496  1.00  0.00    -0.263 C  
BRANCH  15  16
HETATM   16  C   UNL     1      -9.709   8.525  71.657  1.00  0.00    -0.252 C  
BRANCH  16  17
HETATM   17  N   UNL     1     -10.073   7.166  71.291  1.00  0.00    -0.190 N  
HETATM   18  C   UNL     1      -9.143   6.155  71.322  1.00  0.00    -0.143 C  
HETATM   19  H   UNL     1     -11.031   6.960  71.008  1.00  0.00     0.000 HD 
HETATM   20  O   UNL     1      -7.950   6.342  71.542  1.00  0.00    -0.103 OA 
BRANCH  18  21
HETATM   21  C   UNL     1      -9.652   4.771  70.975  1.00  0.00    -0.175 C  
BRANCH  21  22
HETATM   22  N   UNL     1      -9.160   4.399  69.632  1.00  0.00    -0.103 NA 
HETATM   23  C   UNL     1      -8.134   3.519  69.511  1.00  0.00    -0.053 A  
HETATM   24  C   UNL     1      -7.643   3.174  68.259  1.00  0.00    -0.052 A  
HETATM   25  C   UNL     1      -8.223   3.723  67.125  1.00  0.00    -0.095 A  
HETATM   26  C   UNL     1      -9.283   4.610  67.262  1.00  0.00    -0.143 A  
HETATM   27  C   UNL     1      -9.738   4.935  68.533  1.00  0.00    -0.155 A  
ENDBRANCH  21  22
ENDBRANCH  18  21
ENDBRANCH  16  17
ENDBRANCH  15  16
ENDBRANCH  14  15
ENDBRANCH  12  14
ENDBRANCH  11  12
ENDBRANCH  10  11
ENDBRANCH   9  10
ENDBRANCH   8   9
ENDBRANCH   7   8
ENDBRANCH   6   7
ENDBRANCH   5   6
ENDBRANCH   4   5
ENDBRANCH   3   4
ENDBRANCH   2   3
TORSDOF 16
ENDMDL
MODEL      404
REMARK 921   NORMALIZED FREE ENERGY PREDICTED BY IDOCK:   -2.09 KCAL/MOL
REMARK 922        TOTAL FREE ENERGY PREDICTED BY IDOCK:   -6.12 KCAL/MOL
REMARK 923 INTER-LIGAND FREE ENERGY PREDICTED BY IDOCK:   -5.31 KCAL/MOL
REMARK 924 INTRA-LIGAND FREE ENERGY PREDICTED BY IDOCK:   -0.81 KCAL/MOL
REMARK 927      BINDING AFFINITY PREDICTED BY RF-SCORE:    0.00 PKD
ROOT
HETATM    1  C   UNL     1     -10.038  19.102  67.548  1.00  0.00    -0.463 C  
HETATM    2  C   UNL     1      -9.892  17.602  67.358  1.00  0.00    -0.305 C  
ENDROOT
BRANCH   2   3
HETATM    3  C   UNL     1      -9.239  16.955  68.578  1.00  0.00    -0.260 C  
BRANCH   3   4
HETATM    4  C   UNL     1      -9.770  15.542  68.805  1.00  0.00    -0.213 C  
BRANCH   4   5
HETATM    5  C   UNL     1     -10.257  14.927  67.494  1.00  0.00    -0.233 C  
BRANCH   5   6
HETATM    6  C   UNL     1      -9.996  13.427  67.476  1.00  0.00    -0.230 C  
BRANCH   6   7
HETATM    7  C   UNL     1     -10.965  12.699  66.548  1.00  0.00    -0.302 C  
BRANCH   7   8
HETATM    8  C   UNL     1     -10.588  11.222  66.472  1.00  0.00    -0.315 C  
BRANCH   8   9
HETATM    9  C   UNL     1     -10.887  10.493  67.775  1.00  0.00    -0.347 C  
BRANCH   9  10
HETATM   10  C   UNL     1      -9.922   9.322  68.017  1.00  0.00    -0.216 C  
BRANCH  10  11
HETATM   11  C   UNL     1      -9.895   8.286  66.884  1.00  0.00    -0.316 C  
BRANCH  11  12
HETATM   12  C   UNL     1     -10.456   6.971  67.363  1.00  0.00    -0.273 C  
HETATM   13  O   UNL     1     -11.644   6.691  67.417  1.00  0.00     0.002 OA 
BRANCH  12  14
HETATM   14  O   UNL     1      -9.440   6.083  67.545  1.00  0.00    -0.113 OA 
BRANCH  14  15
HETATM   15  C   UNL     1      -8.154   6.573  67.145  1.00  0.00    -0.113 C  
BRANCH  15  16
HETATM   16  C   UNL     1      -7.242   6.422  68.368  1.00  0.00    -0.085 C  
BRANCH  16  17
HETATM   17  N   UNL     1      -7.823   6.904  69.610  1.00  0.00    -0.116 N  
HETATM   18  C   UNL     1      -7.535   6.293  70.806  1.00  0.00    -0.091 C  
HETATM   19  H   UNL     1      -8.452   7.707  69.593  1.00  0.00     0.000 HD 
HETATM   20  O   UNL     1      -6.881   5.258  70.895  1.00  0.00    -0.044 OA 
BRANCH  18  21
HETATM   21  C   UNL     1      -8.153   6.919  72.039  1.00  0.00    -0.099 C  
BRANCH  21  22
HETATM   22  N   UNL     1      -9.176   6.002  72.584  1.00  0.00    -0.144 NA 
HETATM   23  C   UNL     1      -8.876   5.213  73.647  1.00  0.00    -0.115 A  
HETATM   24  C   UNL     1      -9.816   4.329  74.158  1.00  0.00    -0.170 A  
HETATM   25  C   UNL     1     -11.079   4.271  73.586  1.00  0.00    -0.351 A  
HETATM   26  C   UNL     1     -11.379   5.096  72.510  1.00  0.00    -0.193 A  
HETATM   27  C   UNL     1     -10.406   5.959  72.023  1.00  0.00    -0.207 A  
ENDBRANCH  21  22
ENDBRANCH  18  21
ENDBRANCH  16  17
ENDBRANCH  15  16
ENDBRANCH  14  15
ENDBRANCH  12  14
ENDBRANCH  11  12
ENDBRANCH  10  11
ENDBRANCH   9  10
ENDBRANCH   8   9
ENDBRANCH   7   8
ENDBRANCH   6   7
ENDBRANCH   5   6
ENDBRANCH   4   5
ENDBRANCH   3   4
ENDBRANCH   2   3
TORSDOF 16
ENDMDL
MODEL      405
REMARK 921   NORMALIZED FREE ENERGY PREDICTED BY IDOCK:   -2.06 KCAL/MOL
REMARK 922        TOTAL FREE ENERGY PREDICTED BY IDOCK:   -6.07 KCAL/MOL
REMARK 923 INTER-LIGAND FREE ENERGY PREDICTED BY IDOCK:   -5.61 KCAL/MOL
REMARK 924 INTRA-LIGAND FREE ENERGY PREDICTED BY IDOCK:   -0.46 KCAL/MOL
REMARK 927      BINDING AFFINITY PREDICTED BY RF-SCORE:    0.00 PKD
ROOT
HETATM    1  C   UNL     1     -10.671   2.319  63.216  1.00  0.00    -0.218 C  
HETATM    2  C   UNL     1      -9.230   2.334  62.735  1.00  0.00    -0.091 C  
ENDROOT
BRANCH   2   3
HETATM    3  C   UNL     1      -8.270   2.616  63.889  1.00  0.00    -0.082 C  
BRANCH   3   4
HETATM    4  C   UNL     1      -7.150   3.559  63.458  1.00  0.00    -0.049 C  
BRANCH   4   5
HETATM    5  C   UNL     1      -7.172   4.843  64.286  1.00  0.00    -0.054 C  
BRANCH   5   6
HETATM    6  C   UNL     1      -7.263   4.521  65.772  1.00  0.00    -0.075 C  
BRANCH   6   7
HETATM    7  C   UNL     1      -7.050   5.765  66.630  1.00  0.00    -0.069 C  
BRANCH   7   8
HETATM    8  C   UNL     1      -8.401   6.388  66.972  1.00  0.00    -0.112 C  
BRANCH   8   9
HETATM    9  C   UNL     1      -8.385   7.901  66.810  1.00  0.00    -0.120 C  
BRANCH   9  10
HETATM   10  C   UNL     1      -8.077   8.325  65.366  1.00  0.00    -0.135 C  
BRANCH  10  11
HETATM   11  C   UNL     1      -9.023   9.399  64.811  1.00  0.00    -0.241 C  
BRANCH  11  12
HETATM   12  C   UNL     1      -9.046  10.600  65.722  1.00  0.00    -0.186 C  
HETATM   13  O   UNL     1      -8.088  11.319  65.961  1.00  0.00    -0.119 OA 
BRANCH  12  14
HETATM   14  O   UNL     1     -10.330  10.871  66.086  1.00  0.00    -0.241 OA 
BRANCH  14  15
HETATM   15  C   UNL     1     -10.698  10.351  67.370  1.00  0.00    -0.283 C  
BRANCH  15  16
HETATM   16  C   UNL     1     -10.522  11.505  68.362  1.00  0.00    -0.207 C  
BRANCH  16  17
HETATM   17  N   UNL     1     -11.731  11.859  69.087  1.00  0.00    -0.297 N  
HETATM   18  C   UNL     1     -11.993  11.323  70.325  1.00  0.00    -0.379 C  
HETATM   19  H   UNL     1     -12.394  12.513  68.672  1.00  0.00     0.000 HD 
HETATM   20  O   UNL     1     -11.305  10.447  70.840  1.00  0.00    -0.335 OA 
BRANCH  18  21
HETATM   21  C   UNL     1     -13.254  11.809  71.008  1.00  0.00     0.221 C  
BRANCH  21  22
HETATM   22  N   UNL     1     -13.063  13.212  71.432  1.00  0.00    -0.310 NA 
HETATM   23  C   UNL     1     -13.179  13.541  72.743  1.00  0.00    -0.253 A  
HETATM   24  C   UNL     1     -13.026  14.857  73.158  1.00  0.00    -0.627 A  
HETATM   25  C   UNL     1     -12.732  15.836  72.220  1.00  0.00    -0.525 A  
HETATM   26  C   UNL     1     -12.600  15.484  70.884  1.00  0.00    -0.512 A  
HETATM   27  C   UNL     1     -12.770  14.157  70.510  1.00  0.00    -0.309 A  
ENDBRANCH  21  22
ENDBRANCH  18  21
ENDBRANCH  16  17
ENDBRANCH  15  16
ENDBRANCH  14  15
ENDBRANCH  12  14
ENDBRANCH  11  12
ENDBRANCH  10  11
ENDBRANCH   9  10
ENDBRANCH   8   9
ENDBRANCH   7   8
ENDBRANCH   6   7
ENDBRANCH   5   6
ENDBRANCH   4   5
ENDBRANCH   3   4
ENDBRANCH   2   3
TORSDOF 16
ENDMDL
MODEL      406
REMARK 921   NORMALIZED FREE ENERGY PREDICTED BY IDOCK:   -2.02 KCAL/MOL
REMARK 922        TOTAL FREE ENERGY PREDICTED BY IDOCK:   -6.00 KCAL/MOL
REMARK 923 INTER-LIGAND FREE ENERGY PREDICTED BY IDOCK:   -4.81 KCAL/MOL
REMARK 924 INTRA-LIGAND FREE ENERGY PREDICTED BY IDOCK:   -1.19 KCAL/MOL
REMARK 927      BINDING AFFINITY PREDICTED BY RF-SCORE:    0.00 PKD
ROOT
HETATM    1  C   UNL     1      -6.511  13.257  69.281  1.00  0.00    -0.107 C  
HETATM    2  C   UNL     1      -6.639  13.192  67.769  1.00  0.00    -0.151 C  
ENDROOT
BRANCH   2   3
HETATM    3  C   UNL     1      -6.962  11.774  67.305  1.00  0.00    -0.138 C  
BRANCH   3   4
HETATM    4  C   UNL     1      -5.957  11.290  66.264  1.00  0.00    -0.100 C  
BRANCH   4   5
HETATM    5  C   UNL     1      -5.694   9.792  66.419  1.00  0.00    -0.053 C  
BRANCH   5   6
HETATM    6  C   UNL     1      -5.136   9.210  65.127  1.00  0.00    -0.037 C  
BRANCH   6   7
HETATM    7  C   UNL     1      -5.956   9.642  63.915  1.00  0.00    -0.100 C  
BRANCH   7   8
HETATM    8  C   UNL     1      -6.008   8.504  62.899  1.00  0.00    -0.086 C  
BRANCH   8   9
HETATM    9  C   UNL     1      -6.275   7.162  63.564  1.00  0.00    -0.044 C  
BRANCH   9  10
HETATM   10  C   UNL     1      -7.768   6.954  63.866  1.00  0.00    -0.115 C  
BRANCH  10  11
HETATM   11  C   UNL     1      -8.074   5.688  64.679  1.00  0.00    -0.128 C  
BRANCH  11  12
HETATM   12  C   UNL     1      -7.776   5.918  66.139  1.00  0.00    -0.102 C  
HETATM   13  O   UNL     1      -6.915   6.668  66.572  1.00  0.00    -0.063 OA 
BRANCH  12  14
HETATM   14  O   UNL     1      -8.731   5.312  66.898  1.00  0.00    -0.113 OA 
BRANCH  14  15
HETATM   15  C   UNL     1     -10.046   5.355  66.331  1.00  0.00    -0.204 C  
BRANCH  15  16
HETATM   16  C   UNL     1     -10.975   5.847  67.446  1.00  0.00    -0.157 C  
BRANCH  16  17
HETATM   17  N   UNL     1     -10.352   6.773  68.377  1.00  0.00    -0.178 N  
HETATM   18  C   UNL     1     -10.284   8.115  68.095  1.00  0.00    -0.209 C  
HETATM   19  H   UNL     1      -9.961   6.421  69.251  1.00  0.00     0.000 HD 
HETATM   20  O   UNL     1     -10.628   8.598  67.021  1.00  0.00    -0.294 OA 
BRANCH  18  21
HETATM   21  C   UNL     1      -9.664   8.990  69.165  1.00  0.00    -0.167 C  
BRANCH  21  22
HETATM   22  N   UNL     1     -10.739   9.691  69.899  1.00  0.00    -0.235 NA 
HETATM   23  C   UNL     1     -11.039  10.977  69.586  1.00  0.00    -0.256 A  
HETATM   24  C   UNL     1     -12.030  11.659  70.278  1.00  0.00    -0.445 A  
HETATM   25  C   UNL     1     -12.730  11.009  71.284  1.00  0.00    -0.537 A  
HETATM   26  C   UNL     1     -12.425   9.687  71.582  1.00  0.00    -0.494 A  
HETATM   27  C   UNL     1     -11.420   9.044  70.871  1.00  0.00    -0.291 A  
ENDBRANCH  21  22
ENDBRANCH  18  21
ENDBRANCH  16  17
ENDBRANCH  15  16
ENDBRANCH  14  15
ENDBRANCH  12  14
ENDBRANCH  11  12
ENDBRANCH  10  11
ENDBRANCH   9  10
ENDBRANCH   8   9
ENDBRANCH   7   8
ENDBRANCH   6   7
ENDBRANCH   5   6
ENDBRANCH   4   5
ENDBRANCH   3   4
ENDBRANCH   2   3
TORSDOF 16
ENDMDL
MODEL      407
REMARK 921   NORMALIZED FREE ENERGY PREDICTED BY IDOCK:   -2.01 KCAL/MOL
REMARK 922        TOTAL FREE ENERGY PREDICTED BY IDOCK:   -5.97 KCAL/MOL
REMARK 923 INTER-LIGAND FREE ENERGY PREDICTED BY IDOCK:   -5.13 KCAL/MOL
REMARK 924 INTRA-LIGAND FREE ENERGY PREDICTED BY IDOCK:   -0.84 KCAL/MOL
REMARK 927      BINDING AFFINITY PREDICTED BY RF-SCORE:    0.00 PKD
ROOT
HETATM    1  C   UNL     1     -10.710   2.484  63.436  1.00  0.00    -0.216 C  
HETATM    2  C   UNL     1      -9.201   2.327  63.351  1.00  0.00    -0.093 C  
ENDROOT
BRANCH   2   3
HETATM    3  C   UNL     1      -8.572   2.309  64.743  1.00  0.00    -0.099 C  
BRANCH   3   4
HETATM    4  C   UNL     1      -7.245   3.061  64.759  1.00  0.00    -0.065 C  
BRANCH   4   5
HETATM    5  C   UNL     1      -7.340   4.311  65.633  1.00  0.00    -0.077 C  
BRANCH   5   6
HETATM    6  C   UNL     1      -7.998   3.984  66.967  1.00  0.00    -0.096 C  
BRANCH   6   7
HETATM    7  C   UNL     1      -7.884   5.147  67.949  1.00  0.00    -0.091 C  
BRANCH   7   8
HETATM    8  C   UNL     1      -9.221   5.880  68.031  1.00  0.00    -0.112 C  
BRANCH   8   9
HETATM    9  C   UNL     1      -9.052   7.385  67.882  1.00  0.00    -0.129 C  
BRANCH   9  10
HETATM   10  C   UNL     1      -8.014   7.747  66.808  1.00  0.00    -0.107 C  
BRANCH  10  11
HETATM   11  C   UNL     1      -8.608   8.408  65.557  1.00  0.00    -0.201 C  
BRANCH  11  12
HETATM   12  C   UNL     1      -8.794   9.887  65.783  1.00  0.00    -0.147 C  
HETATM   13  O   UNL     1      -7.893  10.684  65.996  1.00  0.00    -0.149 OA 
BRANCH  12  14
HETATM   14  O   UNL     1     -10.087  10.227  65.526  1.00  0.00    -0.286 OA 
BRANCH  14  15
HETATM   15  C   UNL     1     -10.746  10.891  66.612  1.00  0.00    -0.230 C  
BRANCH  15  16
HETATM   16  C   UNL     1     -11.049  12.311  66.121  1.00  0.00    -0.311 C  
BRANCH  16  17
HETATM   17  N   UNL     1     -10.928  13.336  67.145  1.00  0.00    -0.268 N  
HETATM   18  C   UNL     1      -9.736  13.985  67.354  1.00  0.00    -0.233 C  
HETATM   19  H   UNL     1     -11.738  13.575  67.716  1.00  0.00     0.000 HD 
HETATM   20  O   UNL     1      -8.691  13.677  66.789  1.00  0.00    -0.187 OA 
BRANCH  18  21
HETATM   21  C   UNL     1      -9.745  15.072  68.409  1.00  0.00    -0.216 C  
BRANCH  21  22
HETATM   22  N   UNL     1      -9.654  16.390  67.744  1.00  0.00    -0.230 NA 
HETATM   23  C   UNL     1      -8.717  16.595  66.783  1.00  0.00    -0.226 A  
HETATM   24  C   UNL     1      -8.601  17.832  66.164  1.00  0.00    -0.139 A  
HETATM   25  C   UNL     1      -9.465  18.857  66.521  1.00  0.00    -0.361 A  
HETATM   26  C   UNL     1     -10.429  18.628  67.493  1.00  0.00    -0.473 A  
HETATM   27  C   UNL     1     -10.506  17.379  68.095  1.00  0.00    -0.389 A  
ENDBRANCH  21  22
ENDBRANCH  18  21
ENDBRANCH  16  17
ENDBRANCH  15  16
ENDBRANCH  14  15
ENDBRANCH  12  14
ENDBRANCH  11  12
ENDBRANCH  10  11
ENDBRANCH   9  10
ENDBRANCH   8   9
ENDBRANCH   7   8
ENDBRANCH   6   7
ENDBRANCH   5   6
ENDBRANCH   4   5
ENDBRANCH   3   4
ENDBRANCH   2   3
TORSDOF 16
ENDMDL
MODEL      408
REMARK 921   NORMALIZED FREE ENERGY PREDICTED BY IDOCK:   -2.00 KCAL/MOL
REMARK 922        TOTAL FREE ENERGY PREDICTED BY IDOCK:   -5.95 KCAL/MOL
REMARK 923 INTER-LIGAND FREE ENERGY PREDICTED BY IDOCK:   -3.88 KCAL/MOL
REMARK 924 INTRA-LIGAND FREE ENERGY PREDICTED BY IDOCK:   -2.07 KCAL/MOL
REMARK 927      BINDING AFFINITY PREDICTED BY RF-SCORE:    0.00 PKD
ROOT
HETATM    1  C   UNL     1     -12.017  11.028  68.827  1.00  0.00    -0.295 C  
HETATM    2  C   UNL     1     -11.106  10.468  69.905  1.00  0.00    -0.371 C  
ENDROOT
BRANCH   2   3
HETATM    3  C   UNL     1      -9.648  10.476  69.450  1.00  0.00    -0.170 C  
BRANCH   3   4
HETATM    4  C   UNL     1      -9.480  11.251  68.146  1.00  0.00    -0.184 C  
BRANCH   4   5
HETATM    5  C   UNL     1      -8.336  12.258  68.257  1.00  0.00    -0.174 C  
BRANCH   5   6
HETATM    6  C   UNL     1      -7.054  11.680  67.673  1.00  0.00    -0.095 C  
BRANCH   6   7
HETATM    7  C   UNL     1      -7.273  11.134  66.265  1.00  0.00    -0.048 C  
BRANCH   7   8
HETATM    8  C   UNL     1      -6.919   9.649  66.231  1.00  0.00    -0.092 C  
BRANCH   8   9
HETATM    9  C   UNL     1      -7.718   8.899  65.175  1.00  0.00    -0.102 C  
BRANCH   9  10
HETATM   10  C   UNL     1      -9.167   8.646  65.619  1.00  0.00    -0.204 C  
BRANCH  10  11
HETATM   11  C   UNL     1      -9.294   7.823  66.909  1.00  0.00    -0.212 C  
BRANCH  11  12
HETATM   12  C   UNL     1      -8.556   6.515  66.772  1.00  0.00    -0.117 C  
HETATM   13  O   UNL     1      -7.601   6.172  67.452  1.00  0.00    -0.087 OA 
BRANCH  12  14
HETATM   14  O   UNL     1      -9.228   5.703  65.909  1.00  0.00    -0.161 OA 
BRANCH  14  15
HETATM   15  C   UNL     1      -8.564   4.463  65.634  1.00  0.00    -0.119 C  
BRANCH  15  16
HETATM   16  C   UNL     1      -9.468   3.362  66.200  1.00  0.00    -0.112 C  
BRANCH  16  17
HETATM   17  N   UNL     1      -9.563   3.353  67.650  1.00  0.00    -0.240 N  
HETATM   18  C   UNL     1      -8.487   2.988  68.423  1.00  0.00    -0.080 C  
HETATM   19  H   UNL     1     -10.438   3.621  68.099  1.00  0.00     0.000 HD 
HETATM   20  O   UNL     1      -7.441   2.546  67.959  1.00  0.00    -0.055 OA 
BRANCH  18  21
HETATM   21  C   UNL     1      -8.687   3.072  69.923  1.00  0.00    -0.076 C  
BRANCH  21  22
HETATM   22  N   UNL     1      -9.106   4.444  70.278  1.00  0.00    -0.092 NA 
HETATM   23  C   UNL     1     -10.427   4.746  70.354  1.00  0.00     0.004 A  
HETATM   24  C   UNL     1     -10.840   6.034  70.663  1.00  0.00    -0.364 A  
HETATM   25  C   UNL     1      -9.889   7.013  70.916  1.00  0.00    -0.190 A  
HETATM   26  C   UNL     1      -8.541   6.686  70.851  1.00  0.00    -0.134 A  
HETATM   27  C   UNL     1      -8.170   5.387  70.529  1.00  0.00    -0.110 A  
ENDBRANCH  21  22
ENDBRANCH  18  21
ENDBRANCH  16  17
ENDBRANCH  15  16
ENDBRANCH  14  15
ENDBRANCH  12  14
ENDBRANCH  11  12
ENDBRANCH  10  11
ENDBRANCH   9  10
ENDBRANCH   8   9
ENDBRANCH   7   8
ENDBRANCH   6   7
ENDBRANCH   5   6
ENDBRANCH   4   5
ENDBRANCH   3   4
ENDBRANCH   2   3
TORSDOF 16
ENDMDL
MODEL      409
REMARK 921   NORMALIZED FREE ENERGY PREDICTED BY IDOCK:   -2.00 KCAL/MOL
REMARK 922        TOTAL FREE ENERGY PREDICTED BY IDOCK:   -5.95 KCAL/MOL
REMARK 923 INTER-LIGAND FREE ENERGY PREDICTED BY IDOCK:   -5.91 KCAL/MOL
REMARK 924 INTRA-LIGAND FREE ENERGY PREDICTED BY IDOCK:   -0.04 KCAL/MOL
REMARK 927      BINDING AFFINITY PREDICTED BY RF-SCORE:    0.00 PKD
ROOT
HETATM    1  C   UNL     1     -13.880   8.932  71.901  1.00  0.00    -0.492 C  
HETATM    2  C   UNL     1     -12.362   8.942  71.858  1.00  0.00    -0.445 C  
ENDROOT
BRANCH   2   3
HETATM    3  C   UNL     1     -11.808   7.531  71.673  1.00  0.00    -0.322 C  
BRANCH   3   4
HETATM    4  C   UNL     1     -10.294   7.552  71.481  1.00  0.00    -0.216 C  
BRANCH   4   5
HETATM    5  C   UNL     1      -9.752   6.135  71.296  1.00  0.00    -0.196 C  
BRANCH   5   6
HETATM    6  C   UNL     1     -10.745   5.276  70.525  1.00  0.00    -0.208 C  
BRANCH   6   7
HETATM    7  C   UNL     1     -10.142   4.748  69.226  1.00  0.00    -0.217 C  
BRANCH   7   8
HETATM    8  C   UNL     1     -10.477   5.702  68.082  1.00  0.00    -0.260 C  
BRANCH   8   9
HETATM    9  C   UNL     1      -9.535   5.523  66.900  1.00  0.00    -0.140 C  
BRANCH   9  10
HETATM   10  C   UNL     1      -8.415   6.575  66.891  1.00  0.00    -0.114 C  
BRANCH  10  11
HETATM   11  C   UNL     1      -8.447   7.516  65.679  1.00  0.00    -0.141 C  
BRANCH  11  12
HETATM   12  C   UNL     1      -7.800   8.835  66.021  1.00  0.00    -0.105 C  
HETATM   13  O   UNL     1      -6.878   8.982  66.809  1.00  0.00    -0.078 OA 
BRANCH  12  14
HETATM   14  O   UNL     1      -8.269   9.802  65.185  1.00  0.00    -0.127 OA 
BRANCH  14  15
HETATM   15  C   UNL     1      -9.697   9.921  65.170  1.00  0.00    -0.306 C  
BRANCH  15  16
HETATM   16  C   UNL     1     -10.077  10.662  66.456  1.00  0.00    -0.223 C  
BRANCH  16  17
HETATM   17  N   UNL     1     -10.494  12.040  66.251  1.00  0.00    -0.232 N  
HETATM   18  C   UNL     1      -9.905  13.065  66.951  1.00  0.00    -0.240 C  
HETATM   19  H   UNL     1     -11.232  12.248  65.580  1.00  0.00     0.000 HD 
HETATM   20  O   UNL     1      -9.093  12.887  67.854  1.00  0.00    -0.184 OA 
BRANCH  18  21
HETATM   21  C   UNL     1     -10.382  14.462  66.612  1.00  0.00    -0.275 C  
BRANCH  21  22
HETATM   22  N   UNL     1      -9.229  15.386  66.644  1.00  0.00    -0.253 NA 
HETATM   23  C   UNL     1      -9.296  16.569  65.980  1.00  0.00    -0.267 A  
HETATM   24  C   UNL     1      -8.215  17.440  65.979  1.00  0.00    -0.161 A  
HETATM   25  C   UNL     1      -7.067  17.102  66.681  1.00  0.00    -0.283 A  
HETATM   26  C   UNL     1      -7.018  15.898  67.370  1.00  0.00    -0.233 A  
HETATM   27  C   UNL     1      -8.118  15.050  67.338  1.00  0.00    -0.193 A  
ENDBRANCH  21  22
ENDBRANCH  18  21
ENDBRANCH  16  17
ENDBRANCH  15  16
ENDBRANCH  14  15
ENDBRANCH  12  14
ENDBRANCH  11  12
ENDBRANCH  10  11
ENDBRANCH   9  10
ENDBRANCH   8   9
ENDBRANCH   7   8
ENDBRANCH   6   7
ENDBRANCH   5   6
ENDBRANCH   4   5
ENDBRANCH   3   4
ENDBRANCH   2   3
TORSDOF 16
ENDMDL
MODEL      410
REMARK 921   NORMALIZED FREE ENERGY PREDICTED BY IDOCK:   -1.95 KCAL/MOL
REMARK 922        TOTAL FREE ENERGY PREDICTED BY IDOCK:   -5.85 KCAL/MOL
REMARK 923 INTER-LIGAND FREE ENERGY PREDICTED BY IDOCK:   -4.18 KCAL/MOL
REMARK 924 INTRA-LIGAND FREE ENERGY PREDICTED BY IDOCK:   -1.68 KCAL/MOL
REMARK 927      BINDING AFFINITY PREDICTED BY RF-SCORE:    0.00 PKD
ROOT
HETATM    1  C   UNL     1     -14.351   8.378  70.969  1.00  0.00    -0.093 C  
HETATM    2  C   UNL     1     -13.799   9.080  72.198  1.00  0.00    -0.526 C  
ENDROOT
BRANCH   2   3
HETATM    3  C   UNL     1     -12.363   8.644  72.481  1.00  0.00    -0.378 C  
BRANCH   3   4
HETATM    4  C   UNL     1     -11.614   8.335  71.188  1.00  0.00    -0.310 C  
BRANCH   4   5
HETATM    5  C   UNL     1     -10.385   9.231  71.046  1.00  0.00    -0.388 C  
BRANCH   5   6
HETATM    6  C   UNL     1     -10.626  10.310  69.998  1.00  0.00    -0.321 C  
BRANCH   6   7
HETATM    7  C   UNL     1      -9.808  10.059  68.734  1.00  0.00    -0.173 C  
BRANCH   7   8
HETATM    8  C   UNL     1     -10.741   9.683  67.586  1.00  0.00    -0.324 C  
BRANCH   8   9
HETATM    9  C   UNL     1     -10.780   8.179  67.357  1.00  0.00    -0.247 C  
BRANCH   9  10
HETATM   10  C   UNL     1      -9.729   7.724  66.332  1.00  0.00    -0.219 C  
BRANCH  10  11
HETATM   11  C   UNL     1      -9.179   8.855  65.452  1.00  0.00    -0.202 C  
BRANCH  11  12
HETATM   12  C   UNL     1      -7.683   8.964  65.613  1.00  0.00    -0.087 C  
HETATM   13  O   UNL     1      -6.937   9.565  64.856  1.00  0.00    -0.097 OA 
BRANCH  12  14
HETATM   14  O   UNL     1      -7.318   8.455  66.823  1.00  0.00    -0.081 OA 
BRANCH  14  15
HETATM   15  C   UNL     1      -5.938   8.658  67.152  1.00  0.00    -0.054 C  
BRANCH  15  16
HETATM   16  C   UNL     1      -5.781   8.222  68.613  1.00  0.00    -0.037 C  
BRANCH  16  17
HETATM   17  N   UNL     1      -5.790   6.782  68.811  1.00  0.00    -0.017 N  
HETATM   18  C   UNL     1      -6.889   6.151  69.340  1.00  0.00    -0.062 C  
HETATM   19  H   UNL     1      -4.969   6.233  68.554  1.00  0.00     0.000 HD 
HETATM   20  O   UNL     1      -7.867   6.751  69.777  1.00  0.00    -0.110 OA 
BRANCH  18  21
HETATM   21  C   UNL     1      -6.804   4.642  69.446  1.00  0.00    -0.049 C  
BRANCH  21  22
HETATM   22  N   UNL     1      -7.076   4.049  68.120  1.00  0.00    -0.058 NA 
HETATM   23  C   UNL     1      -8.330   4.100  67.604  1.00  0.00    -0.098 A  
HETATM   24  C   UNL     1      -8.610   3.528  66.370  1.00  0.00    -0.117 A  
HETATM   25  C   UNL     1      -7.590   2.919  65.654  1.00  0.00    -0.073 A  
HETATM   26  C   UNL     1      -6.307   2.889  66.186  1.00  0.00    -0.028 A  
HETATM   27  C   UNL     1      -6.072   3.465  67.428  1.00  0.00    -0.028 A  
ENDBRANCH  21  22
ENDBRANCH  18  21
ENDBRANCH  16  17
ENDBRANCH  15  16
ENDBRANCH  14  15
ENDBRANCH  12  14
ENDBRANCH  11  12
ENDBRANCH  10  11
ENDBRANCH   9  10
ENDBRANCH   8   9
ENDBRANCH   7   8
ENDBRANCH   6   7
ENDBRANCH   5   6
ENDBRANCH   4   5
ENDBRANCH   3   4
ENDBRANCH   2   3
TORSDOF 16
ENDMDL
MODEL      411
REMARK 921   NORMALIZED FREE ENERGY PREDICTED BY IDOCK:   -1.94 KCAL/MOL
REMARK 922        TOTAL FREE ENERGY PREDICTED BY IDOCK:   -5.84 KCAL/MOL
REMARK 923 INTER-LIGAND FREE ENERGY PREDICTED BY IDOCK:   -4.45 KCAL/MOL
REMARK 924 INTRA-LIGAND FREE ENERGY PREDICTED BY IDOCK:   -1.39 KCAL/MOL
REMARK 927      BINDING AFFINITY PREDICTED BY RF-SCORE:    0.00 PKD
ROOT
HETATM    1  C   UNL     1     -14.351   8.378  70.969  1.00  0.00    -0.093 C  
HETATM    2  C   UNL     1     -13.799   9.080  72.198  1.00  0.00    -0.526 C  
ENDROOT
BRANCH   2   3
HETATM    3  C   UNL     1     -12.363   8.644  72.481  1.00  0.00    -0.378 C  
BRANCH   3   4
HETATM    4  C   UNL     1     -11.614   8.335  71.188  1.00  0.00    -0.310 C  
BRANCH   4   5
HETATM    5  C   UNL     1     -10.385   9.231  71.046  1.00  0.00    -0.388 C  
BRANCH   5   6
HETATM    6  C   UNL     1     -10.626  10.310  69.998  1.00  0.00    -0.321 C  
BRANCH   6   7
HETATM    7  C   UNL     1      -9.808  10.059  68.734  1.00  0.00    -0.173 C  
BRANCH   7   8
HETATM    8  C   UNL     1     -10.741   9.683  67.586  1.00  0.00    -0.324 C  
BRANCH   8   9
HETATM    9  C   UNL     1     -10.780   8.179  67.357  1.00  0.00    -0.247 C  
BRANCH   9  10
HETATM   10  C   UNL     1      -9.550   7.681  66.583  1.00  0.00    -0.271 C  
BRANCH  10  11
HETATM   11  C   UNL     1      -8.785   8.785  65.840  1.00  0.00    -0.198 C  
BRANCH  11  12
HETATM   12  C   UNL     1      -7.356   8.848  66.319  1.00  0.00    -0.087 C  
HETATM   13  O   UNL     1      -6.445   9.418  65.739  1.00  0.00    -0.066 OA 
BRANCH  12  14
HETATM   14  O   UNL     1      -7.277   8.339  67.579  1.00  0.00    -0.085 OA 
BRANCH  14  15
HETATM   15  C   UNL     1      -5.994   8.500  68.197  1.00  0.00    -0.046 C  
BRANCH  15  16
HETATM   16  C   UNL     1      -6.169   8.072  69.658  1.00  0.00    -0.033 C  
BRANCH  16  17
HETATM   17  N   UNL     1      -6.268   6.635  69.853  1.00  0.00    -0.037 N  
HETATM   18  C   UNL     1      -5.811   6.048  71.007  1.00  0.00    -0.022 C  
HETATM   19  H   UNL     1      -6.682   6.056  69.123  1.00  0.00     0.000 HD 
HETATM   20  O   UNL     1      -5.201   6.659  71.880  1.00  0.00    -0.026 OA 
BRANCH  18  21
HETATM   21  C   UNL     1      -6.020   4.552  71.121  1.00  0.00    -0.017 C  
BRANCH  21  22
HETATM   22  N   UNL     1      -7.420   4.289  71.516  1.00  0.00    -0.058 NA 
HETATM   23  C   UNL     1      -7.835   4.601  72.770  1.00  0.00    -0.088 A  
HETATM   24  C   UNL     1      -9.139   4.341  73.167  1.00  0.00    -0.119 A  
HETATM   25  C   UNL     1     -10.027   3.775  72.264  1.00  0.00    -0.239 A  
HETATM   26  C   UNL     1      -9.594   3.476  70.979  1.00  0.00    -0.243 A  
HETATM   27  C   UNL     1      -8.277   3.744  70.625  1.00  0.00    -0.057 A  
ENDBRANCH  21  22
ENDBRANCH  18  21
ENDBRANCH  16  17
ENDBRANCH  15  16
ENDBRANCH  14  15
ENDBRANCH  12  14
ENDBRANCH  11  12
ENDBRANCH  10  11
ENDBRANCH   9  10
ENDBRANCH   8   9
ENDBRANCH   7   8
ENDBRANCH   6   7
ENDBRANCH   5   6
ENDBRANCH   4   5
ENDBRANCH   3   4
ENDBRANCH   2   3
TORSDOF 16
ENDMDL
MODEL      412
REMARK 921   NORMALIZED FREE ENERGY PREDICTED BY IDOCK:   -1.89 KCAL/MOL
REMARK 922        TOTAL FREE ENERGY PREDICTED BY IDOCK:   -5.74 KCAL/MOL
REMARK 923 INTER-LIGAND FREE ENERGY PREDICTED BY IDOCK:   -5.36 KCAL/MOL
REMARK 924 INTRA-LIGAND FREE ENERGY PREDICTED BY IDOCK:   -0.38 KCAL/MOL
REMARK 927      BINDING AFFINITY PREDICTED BY RF-SCORE:    0.00 PKD
ROOT
HETATM    1  C   UNL     1     -10.742   5.175  71.690  1.00  0.00    -0.181 C  
HETATM    2  C   UNL     1     -11.447   5.906  70.561  1.00  0.00    -0.103 C  
ENDROOT
BRANCH   2   3
HETATM    3  C   UNL     1     -11.107   7.395  70.573  1.00  0.00    -0.280 C  
BRANCH   3   4
HETATM    4  C   UNL     1     -10.363   7.803  69.305  1.00  0.00    -0.220 C  
BRANCH   4   5
HETATM    5  C   UNL     1      -9.002   8.409  69.644  1.00  0.00    -0.145 C  
BRANCH   5   6
HETATM    6  C   UNL     1      -7.942   7.321  69.751  1.00  0.00    -0.123 C  
BRANCH   6   7
HETATM    7  C   UNL     1      -6.629   7.749  69.100  1.00  0.00    -0.040 C  
BRANCH   7   8
HETATM    8  C   UNL     1      -6.883   8.143  67.647  1.00  0.00    -0.070 C  
BRANCH   8   9
HETATM    9  C   UNL     1      -6.790   9.649  67.444  1.00  0.00    -0.083 C  
BRANCH   9  10
HETATM   10  C   UNL     1      -6.066  10.011  66.138  1.00  0.00    -0.074 C  
BRANCH  10  11
HETATM   11  C   UNL     1      -6.087   8.901  65.079  1.00  0.00    -0.060 C  
BRANCH  11  12
HETATM   12  C   UNL     1      -7.478   8.736  64.518  1.00  0.00    -0.106 C  
HETATM   13  O   UNL     1      -8.212   7.783  64.727  1.00  0.00    -0.145 OA 
BRANCH  12  14
HETATM   14  O   UNL     1      -7.858   9.890  63.903  1.00  0.00    -0.137 OA 
BRANCH  14  15
HETATM   15  C   UNL     1      -9.037   9.765  63.098  1.00  0.00    -0.243 C  
BRANCH  15  16
HETATM   16  C   UNL     1      -9.956  10.922  63.504  1.00  0.00    -0.363 C  
BRANCH  16  17
HETATM   17  N   UNL     1      -9.486  11.684  64.649  1.00  0.00    -0.414 N  
HETATM   18  C   UNL     1     -10.373  12.328  65.477  1.00  0.00    -0.267 C  
HETATM   19  H   UNL     1      -8.486  11.741  64.840  1.00  0.00     0.000 HD 
HETATM   20  O   UNL     1     -11.577  12.401  65.251  1.00  0.00    -0.344 OA 
BRANCH  18  21
HETATM   21  C   UNL     1      -9.772  13.043  66.670  1.00  0.00    -0.256 C  
BRANCH  21  22
HETATM   22  N   UNL     1     -10.022  14.494  66.539  1.00  0.00    -0.270 NA 
HETATM   23  C   UNL     1     -10.335  15.016  65.326  1.00  0.00    -0.395 A  
HETATM   24  C   UNL     1     -10.550  16.379  65.179  1.00  0.00    -0.287 A  
HETATM   25  C   UNL     1     -10.464  17.207  66.289  1.00  0.00    -0.260 A  
HETATM   26  C   UNL     1     -10.161  16.657  67.527  1.00  0.00    -0.273 A  
HETATM   27  C   UNL     1      -9.943  15.289  67.629  1.00  0.00    -0.222 A  
ENDBRANCH  21  22
ENDBRANCH  18  21
ENDBRANCH  16  17
ENDBRANCH  15  16
ENDBRANCH  14  15
ENDBRANCH  12  14
ENDBRANCH  11  12
ENDBRANCH  10  11
ENDBRANCH   9  10
ENDBRANCH   8   9
ENDBRANCH   7   8
ENDBRANCH   6   7
ENDBRANCH   5   6
ENDBRANCH   4   5
ENDBRANCH   3   4
ENDBRANCH   2   3
TORSDOF 16
ENDMDL
MODEL      413
REMARK 921   NORMALIZED FREE ENERGY PREDICTED BY IDOCK:   -1.87 KCAL/MOL
REMARK 922        TOTAL FREE ENERGY PREDICTED BY IDOCK:   -5.70 KCAL/MOL
REMARK 923 INTER-LIGAND FREE ENERGY PREDICTED BY IDOCK:   -5.27 KCAL/MOL
REMARK 924 INTRA-LIGAND FREE ENERGY PREDICTED BY IDOCK:   -0.43 KCAL/MOL
REMARK 927      BINDING AFFINITY PREDICTED BY RF-SCORE:    0.00 PKD
ROOT
HETATM    1  C   UNL     1      -8.482  10.678  68.187  1.00  0.00    -0.122 C  
HETATM    2  C   UNL     1      -7.758  10.944  66.878  1.00  0.00    -0.135 C  
ENDROOT
BRANCH   2   3
HETATM    3  C   UNL     1      -6.291  11.290  67.123  1.00  0.00    -0.096 C  
BRANCH   3   4
HETATM    4  C   UNL     1      -5.399  10.733  66.016  1.00  0.00    -0.119 C  
BRANCH   4   5
HETATM    5  C   UNL     1      -6.233  10.003  64.964  1.00  0.00    -0.115 C  
BRANCH   5   6
HETATM    6  C   UNL     1      -6.097   8.495  65.124  1.00  0.00    -0.052 C  
BRANCH   6   7
HETATM    7  C   UNL     1      -5.490   8.125  66.475  1.00  0.00    -0.028 C  
BRANCH   7   8
HETATM    8  C   UNL     1      -6.341   7.048  67.141  1.00  0.00    -0.052 C  
BRANCH   8   9
HETATM    9  C   UNL     1      -7.609   6.758  66.351  1.00  0.00    -0.089 C  
BRANCH   9  10
HETATM   10  C   UNL     1      -8.508   5.731  67.057  1.00  0.00    -0.107 C  
BRANCH  10  11
HETATM   11  C   UNL     1      -7.902   5.142  68.338  1.00  0.00    -0.087 C  
BRANCH  11  12
HETATM   12  C   UNL     1      -8.864   5.289  69.491  1.00  0.00    -0.104 C  
HETATM   13  O   UNL     1      -9.553   4.392  69.950  1.00  0.00    -0.168 OA 
BRANCH  12  14
HETATM   14  O   UNL     1      -8.708   6.517  70.058  1.00  0.00    -0.138 OA 
BRANCH  14  15
HETATM   15  C   UNL     1      -9.577   7.524  69.525  1.00  0.00    -0.156 C  
BRANCH  15  16
HETATM   16  C   UNL     1     -11.003   6.992  69.701  1.00  0.00    -0.236 C  
BRANCH  16  17
HETATM   17  N   UNL     1     -11.961   7.987  70.154  1.00  0.00    -0.313 N  
HETATM   18  C   UNL     1     -11.619   8.908  71.114  1.00  0.00    -0.300 C  
HETATM   19  H   UNL     1     -12.899   8.002  69.754  1.00  0.00     0.000 HD 
HETATM   20  O   UNL     1     -10.553   8.884  71.722  1.00  0.00    -0.314 OA 
BRANCH  18  21
HETATM   21  C   UNL     1     -12.680   9.930  71.464  1.00  0.00    -0.415 C  
BRANCH  21  22
HETATM   22  N   UNL     1     -12.408  11.180  70.723  1.00  0.00    -0.382 NA 
HETATM   23  C   UNL     1     -12.560  12.377  71.345  1.00  0.00    -0.193 A  
HETATM   24  C   UNL     1     -12.332  13.563  70.659  1.00  0.00    -0.432 A  
HETATM   25  C   UNL     1     -11.927  13.516  69.333  1.00  0.00    -0.383 A  
HETATM   26  C   UNL     1     -11.759  12.284  68.715  1.00  0.00    -0.390 A  
HETATM   27  C   UNL     1     -12.007  11.122  69.434  1.00  0.00    -0.349 A  
ENDBRANCH  21  22
ENDBRANCH  18  21
ENDBRANCH  16  17
ENDBRANCH  15  16
ENDBRANCH  14  15
ENDBRANCH  12  14
ENDBRANCH  11  12
ENDBRANCH  10  11
ENDBRANCH   9  10
ENDBRANCH   8   9
ENDBRANCH   7   8
ENDBRANCH   6   7
ENDBRANCH   5   6
ENDBRANCH   4   5
ENDBRANCH   3   4
ENDBRANCH   2   3
TORSDOF 16
ENDMDL
MODEL      414
REMARK 921   NORMALIZED FREE ENERGY PREDICTED BY IDOCK:   -1.83 KCAL/MOL
REMARK 922        TOTAL FREE ENERGY PREDICTED BY IDOCK:   -5.63 KCAL/MOL
REMARK 923 INTER-LIGAND FREE ENERGY PREDICTED BY IDOCK:   -4.26 KCAL/MOL
REMARK 924 INTRA-LIGAND FREE ENERGY PREDICTED BY IDOCK:   -1.37 KCAL/MOL
REMARK 927      BINDING AFFINITY PREDICTED BY RF-SCORE:    0.00 PKD
ROOT
HETATM    1  C   UNL     1      -7.541   8.117  72.113  1.00  0.00    -0.142 C  
HETATM    2  C   UNL     1      -8.980   8.493  72.420  1.00  0.00    -0.284 C  
ENDROOT
BRANCH   2   3
HETATM    3  C   UNL     1      -9.948   7.430  71.902  1.00  0.00    -0.196 C  
BRANCH   3   4
HETATM    4  C   UNL     1     -11.074   7.176  72.900  1.00  0.00    -0.338 C  
BRANCH   4   5
HETATM    5  C   UNL     1     -11.144   5.695  73.273  1.00  0.00    -0.288 C  
BRANCH   5   6
HETATM    6  C   UNL     1      -9.868   4.976  72.854  1.00  0.00    -0.180 C  
BRANCH   6   7
HETATM    7  C   UNL     1     -10.171   3.739  72.012  1.00  0.00    -0.157 C  
BRANCH   7   8
HETATM    8  C   UNL     1      -9.034   2.731  72.157  1.00  0.00    -0.128 C  
BRANCH   8   9
HETATM    9  C   UNL     1      -8.525   2.252  70.805  1.00  0.00    -0.086 C  
BRANCH   9  10
HETATM   10  C   UNL     1      -9.197   2.993  69.639  1.00  0.00    -0.219 C  
BRANCH  10  11
HETATM   11  C   UNL     1      -8.307   3.152  68.399  1.00  0.00    -0.091 C  
BRANCH  11  12
HETATM   12  C   UNL     1      -9.023   2.648  67.171  1.00  0.00    -0.154 C  
HETATM   13  O   UNL     1      -9.742   1.662  67.131  1.00  0.00     0.156 OA 
BRANCH  12  14
HETATM   14  O   UNL     1      -8.900   3.560  66.167  1.00  0.00    -0.118 OA 
BRANCH  14  15
HETATM   15  C   UNL     1     -10.141   4.141  65.746  1.00  0.00    -0.164 C  
BRANCH  15  16
HETATM   16  C   UNL     1     -10.368   5.360  66.647  1.00  0.00    -0.275 C  
BRANCH  16  17
HETATM   17  N   UNL     1      -9.999   6.628  66.040  1.00  0.00    -0.372 N  
HETATM   18  C   UNL     1     -10.174   7.810  66.718  1.00  0.00    -0.276 C  
HETATM   19  H   UNL     1      -9.605   6.640  65.099  1.00  0.00     0.000 HD 
HETATM   20  O   UNL     1     -10.743   7.888  67.802  1.00  0.00    -0.206 OA 
BRANCH  18  21
HETATM   21  C   UNL     1      -9.700   9.061  66.007  1.00  0.00    -0.269 C  
BRANCH  21  22
HETATM   22  N   UNL     1      -8.227   9.142  66.103  1.00  0.00    -0.110 NA 
HETATM   23  C   UNL     1      -7.482   9.207  64.970  1.00  0.00    -0.105 A  
HETATM   24  C   UNL     1      -6.097   9.260  65.039  1.00  0.00    -0.065 A  
HETATM   25  C   UNL     1      -5.475   9.267  66.280  1.00  0.00    -0.044 A  
HETATM   26  C   UNL     1      -6.250   9.217  67.431  1.00  0.00    -0.058 A  
HETATM   27  C   UNL     1      -7.634   9.155  67.317  1.00  0.00    -0.088 A  
ENDBRANCH  21  22
ENDBRANCH  18  21
ENDBRANCH  16  17
ENDBRANCH  15  16
ENDBRANCH  14  15
ENDBRANCH  12  14
ENDBRANCH  11  12
ENDBRANCH  10  11
ENDBRANCH   9  10
ENDBRANCH   8   9
ENDBRANCH   7   8
ENDBRANCH   6   7
ENDBRANCH   5   6
ENDBRANCH   4   5
ENDBRANCH   3   4
ENDBRANCH   2   3
TORSDOF 16
ENDMDL
MODEL      415
REMARK 921   NORMALIZED FREE ENERGY PREDICTED BY IDOCK:   -1.81 KCAL/MOL
REMARK 922        TOTAL FREE ENERGY PREDICTED BY IDOCK:   -5.59 KCAL/MOL
REMARK 923 INTER-LIGAND FREE ENERGY PREDICTED BY IDOCK:   -4.45 KCAL/MOL
REMARK 924 INTRA-LIGAND FREE ENERGY PREDICTED BY IDOCK:   -1.13 KCAL/MOL
REMARK 927      BINDING AFFINITY PREDICTED BY RF-SCORE:    0.00 PKD
ROOT
HETATM    1  C   UNL     1     -10.823   2.786  63.300  1.00  0.00    -0.230 C  
HETATM    2  C   UNL     1      -9.310   2.817  63.168  1.00  0.00    -0.094 C  
ENDROOT
BRANCH   2   3
HETATM    3  C   UNL     1      -8.645   3.039  64.525  1.00  0.00    -0.095 C  
BRANCH   3   4
HETATM    4  C   UNL     1      -7.303   3.750  64.374  1.00  0.00    -0.067 C  
BRANCH   4   5
HETATM    5  C   UNL     1      -7.219   4.953  65.313  1.00  0.00    -0.067 C  
BRANCH   5   6
HETATM    6  C   UNL     1      -7.659   4.568  66.719  1.00  0.00    -0.086 C  
BRANCH   6   7
HETATM    7  C   UNL     1      -6.834   5.287  67.783  1.00  0.00    -0.060 C  
BRANCH   7   8
HETATM    8  C   UNL     1      -7.683   6.370  68.443  1.00  0.00    -0.104 C  
BRANCH   8   9
HETATM    9  C   UNL     1      -6.911   7.671  68.614  1.00  0.00    -0.066 C  
BRANCH   9  10
HETATM   10  C   UNL     1      -6.090   8.023  67.363  1.00  0.00    -0.051 C  
BRANCH  10  11
HETATM   11  C   UNL     1      -6.824   8.930  66.365  1.00  0.00    -0.075 C  
BRANCH  11  12
HETATM   12  C   UNL     1      -6.692  10.376  66.773  1.00  0.00    -0.086 C  
HETATM   13  O   UNL     1      -5.669  10.898  67.190  1.00  0.00    -0.042 OA 
BRANCH  12  14
HETATM   14  O   UNL     1      -7.825  11.050  66.431  1.00  0.00    -0.150 OA 
BRANCH  14  15
HETATM   15  C   UNL     1      -8.308  11.938  67.446  1.00  0.00    -0.163 C  
BRANCH  15  16
HETATM   16  C   UNL     1      -8.165  11.186  68.774  1.00  0.00    -0.135 C  
BRANCH  16  17
HETATM   17  N   UNL     1      -9.423  10.942  69.461  1.00  0.00    -0.410 N  
HETATM   18  C   UNL     1     -10.281   9.959  69.030  1.00  0.00    -0.200 C  
HETATM   19  H   UNL     1      -9.672  11.508  70.272  1.00  0.00     0.000 HD 
HETATM   20  O   UNL     1     -10.107   9.315  68.000  1.00  0.00    -0.174 OA 
BRANCH  18  21
HETATM   21  C   UNL     1     -11.533   9.760  69.858  1.00  0.00    -0.140 C  
BRANCH  21  22
HETATM   22  N   UNL     1     -11.350   8.583  70.734  1.00  0.00    -0.268 NA 
HETATM   23  C   UNL     1     -11.480   7.334  70.219  1.00  0.00    -0.210 A  
HETATM   24  C   UNL     1     -11.334   6.217  71.030  1.00  0.00    -0.378 A  
HETATM   25  C   UNL     1     -11.034   6.385  72.374  1.00  0.00    -0.284 A  
HETATM   26  C   UNL     1     -10.887   7.668  72.885  1.00  0.00    -0.446 A  
HETATM   27  C   UNL     1     -11.050   8.759  72.040  1.00  0.00    -0.371 A  
ENDBRANCH  21  22
ENDBRANCH  18  21
ENDBRANCH  16  17
ENDBRANCH  15  16
ENDBRANCH  14  15
ENDBRANCH  12  14
ENDBRANCH  11  12
ENDBRANCH  10  11
ENDBRANCH   9  10
ENDBRANCH   8   9
ENDBRANCH   7   8
ENDBRANCH   6   7
ENDBRANCH   5   6
ENDBRANCH   4   5
ENDBRANCH   3   4
ENDBRANCH   2   3
TORSDOF 16
ENDMDL
MODEL      416
REMARK 921   NORMALIZED FREE ENERGY PREDICTED BY IDOCK:   -1.81 KCAL/MOL
REMARK 922        TOTAL FREE ENERGY PREDICTED BY IDOCK:   -5.58 KCAL/MOL
REMARK 923 INTER-LIGAND FREE ENERGY PREDICTED BY IDOCK:   -4.06 KCAL/MOL
REMARK 924 INTRA-LIGAND FREE ENERGY PREDICTED BY IDOCK:   -1.52 KCAL/MOL
REMARK 927      BINDING AFFINITY PREDICTED BY RF-SCORE:    0.00 PKD
ROOT
HETATM    1  C   UNL     1      -8.109  11.297  67.760  1.00  0.00    -0.119 C  
HETATM    2  C   UNL     1      -7.925  10.693  66.379  1.00  0.00    -0.142 C  
ENDROOT
BRANCH   2   3
HETATM    3  C   UNL     1      -6.453  10.691  65.972  1.00  0.00    -0.129 C  
BRANCH   3   4
HETATM    4  C   UNL     1      -6.223   9.838  64.728  1.00  0.00    -0.095 C  
BRANCH   4   5
HETATM    5  C   UNL     1      -7.552   9.467  64.072  1.00  0.00    -0.115 C  
BRANCH   5   6
HETATM    6  C   UNL     1      -7.553   8.002  63.653  1.00  0.00    -0.129 C  
BRANCH   6   7
HETATM    7  C   UNL     1      -6.397   7.235  64.289  1.00  0.00    -0.040 C  
BRANCH   7   8
HETATM    8  C   UNL     1      -6.934   5.992  64.993  1.00  0.00    -0.059 C  
BRANCH   8   9
HETATM    9  C   UNL     1      -8.448   5.887  64.883  1.00  0.00    -0.085 C  
BRANCH   9  10
HETATM   10  C   UNL     1      -8.891   4.556  64.257  1.00  0.00    -0.152 C  
BRANCH  10  11
HETATM   11  C   UNL     1      -7.888   3.409  64.443  1.00  0.00    -0.082 C  
BRANCH  11  12
HETATM   12  C   UNL     1      -8.612   2.125  64.762  1.00  0.00    -0.100 C  
HETATM   13  O   UNL     1      -9.296   1.490  63.975  1.00  0.00    -0.110 OA 
BRANCH  12  14
HETATM   14  O   UNL     1      -8.237   1.687  65.995  1.00  0.00    -0.077 OA 
BRANCH  14  15
HETATM   15  C   UNL     1      -9.237   1.855  67.007  1.00  0.00    -0.029 C  
BRANCH  15  16
HETATM   16  C   UNL     1      -8.749   2.998  67.903  1.00  0.00    -0.111 C  
BRANCH  16  17
HETATM   17  N   UNL     1      -9.613   4.167  67.904  1.00  0.00    -0.166 N  
HETATM   18  C   UNL     1      -9.957   4.787  69.081  1.00  0.00    -0.163 C  
HETATM   19  H   UNL     1      -9.968   4.532  67.020  1.00  0.00     0.000 HD 
HETATM   20  O   UNL     1      -9.665   4.345  70.187  1.00  0.00    -0.186 OA 
BRANCH  18  21
HETATM   21  C   UNL     1     -10.816   6.029  68.953  1.00  0.00    -0.331 C  
BRANCH  21  22
HETATM   22  N   UNL     1     -10.530   6.931  70.088  1.00  0.00    -0.203 NA 
HETATM   23  C   UNL     1     -11.435   7.056  71.092  1.00  0.00    -0.294 A  
HETATM   24  C   UNL     1     -11.196   7.916  72.155  1.00  0.00    -0.363 A  
HETATM   25  C   UNL     1     -10.010   8.636  72.196  1.00  0.00    -0.386 A  
HETATM   26  C   UNL     1      -9.086   8.486  71.171  1.00  0.00    -0.238 A  
HETATM   27  C   UNL     1      -9.369   7.622  70.121  1.00  0.00    -0.157 A  
ENDBRANCH  21  22
ENDBRANCH  18  21
ENDBRANCH  16  17
ENDBRANCH  15  16
ENDBRANCH  14  15
ENDBRANCH  12  14
ENDBRANCH  11  12
ENDBRANCH  10  11
ENDBRANCH   9  10
ENDBRANCH   8   9
ENDBRANCH   7   8
ENDBRANCH   6   7
ENDBRANCH   5   6
ENDBRANCH   4   5
ENDBRANCH   3   4
ENDBRANCH   2   3
TORSDOF 16
ENDMDL
MODEL      417
REMARK 921   NORMALIZED FREE ENERGY PREDICTED BY IDOCK:   -1.75 KCAL/MOL
REMARK 922        TOTAL FREE ENERGY PREDICTED BY IDOCK:   -5.48 KCAL/MOL
REMARK 923 INTER-LIGAND FREE ENERGY PREDICTED BY IDOCK:   -4.67 KCAL/MOL
REMARK 924 INTRA-LIGAND FREE ENERGY PREDICTED BY IDOCK:   -0.81 KCAL/MOL
REMARK 927      BINDING AFFINITY PREDICTED BY RF-SCORE:    0.00 PKD
ROOT
HETATM    1  C   UNL     1     -10.630   2.465  63.507  1.00  0.00    -0.176 C  
HETATM    2  C   UNL     1      -9.183   2.300  63.074  1.00  0.00    -0.091 C  
ENDROOT
BRANCH   2   3
HETATM    3  C   UNL     1      -8.286   1.982  64.267  1.00  0.00    -0.078 C  
BRANCH   3   4
HETATM    4  C   UNL     1      -6.925   2.659  64.132  1.00  0.00    -0.041 C  
BRANCH   4   5
HETATM    5  C   UNL     1      -6.693   3.644  65.277  1.00  0.00    -0.045 C  
BRANCH   5   6
HETATM    6  C   UNL     1      -6.903   2.962  66.623  1.00  0.00    -0.048 C  
BRANCH   6   7
HETATM    7  C   UNL     1      -6.507   3.872  67.782  1.00  0.00    -0.038 C  
BRANCH   7   8
HETATM    8  C   UNL     1      -7.738   4.616  68.292  1.00  0.00    -0.081 C  
BRANCH   8   9
HETATM    9  C   UNL     1      -7.500   6.118  68.374  1.00  0.00    -0.087 C  
BRANCH   9  10
HETATM   10  C   UNL     1      -6.703   6.643  67.170  1.00  0.00    -0.063 C  
BRANCH  10  11
HETATM   11  C   UNL     1      -7.487   7.609  66.271  1.00  0.00    -0.083 C  
BRANCH  11  12
HETATM   12  C   UNL     1      -7.666   8.939  66.961  1.00  0.00    -0.098 C  
HETATM   13  O   UNL     1      -6.757   9.673  67.318  1.00  0.00    -0.070 OA 
BRANCH  12  14
HETATM   14  O   UNL     1      -8.984   9.280  66.954  1.00  0.00    -0.128 OA 
BRANCH  14  15
HETATM   15  C   UNL     1      -9.637   9.125  68.220  1.00  0.00    -0.148 C  
BRANCH  15  16
HETATM   16  C   UNL     1      -9.617  10.507  68.882  1.00  0.00    -0.193 C  
BRANCH  16  17
HETATM   17  N   UNL     1     -10.662  11.405  68.421  1.00  0.00    -0.192 N  
HETATM   18  C   UNL     1     -10.397  12.732  68.185  1.00  0.00    -0.239 C  
HETATM   19  H   UNL     1     -11.605  11.046  68.270  1.00  0.00     0.000 HD 
HETATM   20  O   UNL     1      -9.323  13.263  68.449  1.00  0.00    -0.205 OA 
BRANCH  18  21
HETATM   21  C   UNL     1     -11.550  13.558  67.653  1.00  0.00    -0.339 C  
BRANCH  21  22
HETATM   22  N   UNL     1     -11.670  13.337  66.196  1.00  0.00    -0.356 NA 
HETATM   23  C   UNL     1     -11.664  14.400  65.352  1.00  0.00    -0.362 A  
HETATM   24  C   UNL     1     -11.798  14.214  63.983  1.00  0.00    -0.301 A  
HETATM   25  C   UNL     1     -11.919  12.928  63.478  1.00  0.00    -0.629 A  
HETATM   26  C   UNL     1     -11.906  11.849  64.351  1.00  0.00    -0.336 A  
HETATM   27  C   UNL     1     -11.779  12.078  65.715  1.00  0.00    -0.245 A  
ENDBRANCH  21  22
ENDBRANCH  18  21
ENDBRANCH  16  17
ENDBRANCH  15  16
ENDBRANCH  14  15
ENDBRANCH  12  14
ENDBRANCH  11  12
ENDBRANCH  10  11
ENDBRANCH   9  10
ENDBRANCH   8   9
ENDBRANCH   7   8
ENDBRANCH   6   7
ENDBRANCH   5   6
ENDBRANCH   4   5
ENDBRANCH   3   4
ENDBRANCH   2   3
TORSDOF 16
ENDMDL
MODEL      418
REMARK 921   NORMALIZED FREE ENERGY PREDICTED BY IDOCK:   -1.56 KCAL/MOL
REMARK 922        TOTAL FREE ENERGY PREDICTED BY IDOCK:   -5.10 KCAL/MOL
REMARK 923 INTER-LIGAND FREE ENERGY PREDICTED BY IDOCK:   -4.82 KCAL/MOL
REMARK 924 INTRA-LIGAND FREE ENERGY PREDICTED BY IDOCK:   -0.28 KCAL/MOL
REMARK 927      BINDING AFFINITY PREDICTED BY RF-SCORE:    0.00 PKD
ROOT
HETATM    1  C   UNL     1      -9.816   2.185  63.921  1.00  0.00    -0.134 C  
HETATM    2  C   UNL     1     -10.394   3.581  64.075  1.00  0.00    -0.242 C  
ENDROOT
BRANCH   2   3
HETATM    3  C   UNL     1      -9.681   4.352  65.183  1.00  0.00    -0.186 C  
BRANCH   3   4
HETATM    4  C   UNL     1      -9.118   3.406  66.240  1.00  0.00    -0.160 C  
BRANCH   4   5
HETATM    5  C   UNL     1      -7.600   3.284  66.107  1.00  0.00    -0.077 C  
BRANCH   5   6
HETATM    6  C   UNL     1      -6.956   4.663  66.044  1.00  0.00    -0.066 C  
BRANCH   6   7
HETATM    7  C   UNL     1      -7.303   5.503  67.270  1.00  0.00    -0.080 C  
BRANCH   7   8
HETATM    8  C   UNL     1      -6.061   6.253  67.745  1.00  0.00    -0.020 C  
BRANCH   8   9
HETATM    9  C   UNL     1      -6.046   7.693  67.252  1.00  0.00    -0.048 C  
BRANCH   9  10
HETATM   10  C   UNL     1      -5.939   7.779  65.721  1.00  0.00    -0.038 C  
BRANCH  10  11
HETATM   11  C   UNL     1      -5.557   9.169  65.195  1.00  0.00    -0.053 C  
BRANCH  11  12
HETATM   12  C   UNL     1      -6.626  10.174  65.543  1.00  0.00    -0.118 C  
HETATM   13  O   UNL     1      -6.462  11.162  66.242  1.00  0.00    -0.132 OA 
BRANCH  12  14
HETATM   14  O   UNL     1      -7.745   9.918  64.810  1.00  0.00    -0.127 OA 
BRANCH  14  15
HETATM   15  C   UNL     1      -8.902  10.652  65.230  1.00  0.00    -0.189 C  
BRANCH  15  16
HETATM   16  C   UNL     1      -9.549   9.825  66.347  1.00  0.00    -0.200 C  
BRANCH  16  17
HETATM   17  N   UNL     1     -10.629  10.504  67.044  1.00  0.00    -0.253 N  
HETATM   18  C   UNL     1     -10.362  11.452  68.002  1.00  0.00    -0.184 C  
HETATM   19  H   UNL     1     -11.597  10.274  66.819  1.00  0.00     0.000 HD 
HETATM   20  O   UNL     1      -9.231  11.702  68.408  1.00  0.00    -0.182 OA 
BRANCH  18  21
HETATM   21  C   UNL     1     -11.567  12.132  68.619  1.00  0.00    -0.321 C  
BRANCH  21  22
HETATM   22  N   UNL     1     -11.965  11.396  69.838  1.00  0.00    -0.336 NA 
HETATM   23  C   UNL     1     -11.614  10.092  69.981  1.00  0.00    -0.253 A  
HETATM   24  C   UNL     1     -11.998   9.378  71.108  1.00  0.00    -0.413 A  
HETATM   25  C   UNL     1     -12.728  10.014  72.101  1.00  0.00    -0.354 A  
HETATM   26  C   UNL     1     -13.065  11.352  71.950  1.00  0.00    -0.505 A  
HETATM   27  C   UNL     1     -12.669  12.028  70.803  1.00  0.00    -0.143 A  
ENDBRANCH  21  22
ENDBRANCH  18  21
ENDBRANCH  16  17
ENDBRANCH  15  16
ENDBRANCH  14  15
ENDBRANCH  12  14
ENDBRANCH  11  12
ENDBRANCH  10  11
ENDBRANCH   9  10
ENDBRANCH   8   9
ENDBRANCH   7   8
ENDBRANCH   6   7
ENDBRANCH   5   6
ENDBRANCH   4   5
ENDBRANCH   3   4
ENDBRANCH   2   3
TORSDOF 16
ENDMDL
MODEL      419
REMARK 921   NORMALIZED FREE ENERGY PREDICTED BY IDOCK:   -1.56 KCAL/MOL
REMARK 922        TOTAL FREE ENERGY PREDICTED BY IDOCK:   -5.09 KCAL/MOL
REMARK 923 INTER-LIGAND FREE ENERGY PREDICTED BY IDOCK:   -4.64 KCAL/MOL
REMARK 924 INTRA-LIGAND FREE ENERGY PREDICTED BY IDOCK:   -0.46 KCAL/MOL
REMARK 927      BINDING AFFINITY PREDICTED BY RF-SCORE:    0.00 PKD
ROOT
HETATM    1  C   UNL     1     -12.112  12.053  63.587  1.00  0.00    -0.627 C  
HETATM    2  C   UNL     1     -12.187  13.547  63.854  1.00  0.00    -0.458 C  
ENDROOT
BRANCH   2   3
HETATM    3  C   UNL     1     -11.448  13.912  65.139  1.00  0.00    -0.324 C  
BRANCH   3   4
HETATM    4  C   UNL     1     -12.047  13.195  66.346  1.00  0.00    -0.447 C  
BRANCH   4   5
HETATM    5  C   UNL     1     -11.274  13.535  67.619  1.00  0.00    -0.304 C  
BRANCH   5   6
HETATM    6  C   UNL     1     -10.677  12.278  68.236  1.00  0.00    -0.244 C  
BRANCH   6   7
HETATM    7  C   UNL     1     -10.228  11.285  67.166  1.00  0.00    -0.235 C  
BRANCH   7   8
HETATM    8  C   UNL     1      -8.726  11.428  66.934  1.00  0.00    -0.165 C  
BRANCH   8   9
HETATM    9  C   UNL     1      -7.923  10.490  67.824  1.00  0.00    -0.106 C  
BRANCH   9  10
HETATM   10  C   UNL     1      -7.679  11.086  69.219  1.00  0.00    -0.071 C  
BRANCH  10  11
HETATM   11  C   UNL     1      -6.453  10.510  69.943  1.00  0.00    -0.116 C  
BRANCH  11  12
HETATM   12  C   UNL     1      -6.835   9.276  70.720  1.00  0.00    -0.100 C  
HETATM   13  O   UNL     1      -7.822   8.588  70.508  1.00  0.00    -0.074 OA 
BRANCH  12  14
HETATM   14  O   UNL     1      -5.821   8.939  71.564  1.00  0.00    -0.046 OA 
BRANCH  14  15
HETATM   15  C   UNL     1      -5.800   7.554  71.933  1.00  0.00    -0.036 C  
BRANCH  15  16
HETATM   16  C   UNL     1      -6.039   7.513  73.446  1.00  0.00    -0.060 C  
BRANCH  16  17
HETATM   17  N   UNL     1      -6.714   6.313  73.912  1.00  0.00    -0.074 N  
HETATM   18  C   UNL     1      -8.036   6.087  73.613  1.00  0.00    -0.102 C  
HETATM   19  H   UNL     1      -6.200   5.630  74.468  1.00  0.00     0.000 HD 
HETATM   20  O   UNL     1      -8.750   6.910  73.049  1.00  0.00    -0.119 OA 
BRANCH  18  21
HETATM   21  C   UNL     1      -8.615   4.776  74.103  1.00  0.00    -0.108 C  
BRANCH  21  22
HETATM   22  N   UNL     1      -8.871   3.898  72.942  1.00  0.00    -0.098 NA 
HETATM   23  C   UNL     1      -8.369   4.227  71.725  1.00  0.00    -0.101 A  
HETATM   24  C   UNL     1      -8.618   3.427  70.619  1.00  0.00    -0.115 A  
HETATM   25  C   UNL     1      -9.372   2.272  70.768  1.00  0.00    -0.207 A  
HETATM   26  C   UNL     1      -9.865   1.938  72.022  1.00  0.00    -0.207 A  
HETATM   27  C   UNL     1      -9.600   2.771  73.102  1.00  0.00    -0.095 A  
ENDBRANCH  21  22
ENDBRANCH  18  21
ENDBRANCH  16  17
ENDBRANCH  15  16
ENDBRANCH  14  15
ENDBRANCH  12  14
ENDBRANCH  11  12
ENDBRANCH  10  11
ENDBRANCH   9  10
ENDBRANCH   8   9
ENDBRANCH   7   8
ENDBRANCH   6   7
ENDBRANCH   5   6
ENDBRANCH   4   5
ENDBRANCH   3   4
ENDBRANCH   2   3
TORSDOF 16
ENDMDL
MODEL      420
REMARK 921   NORMALIZED FREE ENERGY PREDICTED BY IDOCK:   -1.51 KCAL/MOL
REMARK 922        TOTAL FREE ENERGY PREDICTED BY IDOCK:   -5.00 KCAL/MOL
REMARK 923 INTER-LIGAND FREE ENERGY PREDICTED BY IDOCK:   -3.69 KCAL/MOL
REMARK 924 INTRA-LIGAND FREE ENERGY PREDICTED BY IDOCK:   -1.31 KCAL/MOL
REMARK 927      BINDING AFFINITY PREDICTED BY RF-SCORE:    0.00 PKD
ROOT
HETATM    1  C   UNL     1      -7.396   2.845  71.278  1.00  0.00    -0.033 C  
HETATM    2  C   UNL     1      -8.421   3.844  70.768  1.00  0.00    -0.099 C  
ENDROOT
BRANCH   2   3
HETATM    3  C   UNL     1      -9.827   3.477  71.239  1.00  0.00    -0.205 C  
BRANCH   3   4
HETATM    4  C   UNL     1      -9.789   2.353  72.271  1.00  0.00    -0.219 C  
BRANCH   4   5
HETATM    5  C   UNL     1     -10.258   2.854  73.636  1.00  0.00    -0.197 C  
BRANCH   5   6
HETATM    6  C   UNL     1     -11.033   4.157  73.492  1.00  0.00    -0.360 C  
BRANCH   6   7
HETATM    7  C   UNL     1     -10.388   5.286  74.291  1.00  0.00    -0.308 C  
BRANCH   7   8
HETATM    8  C   UNL     1      -9.408   6.047  73.402  1.00  0.00    -0.134 C  
BRANCH   8   9
HETATM    9  C   UNL     1     -10.073   7.224  72.703  1.00  0.00    -0.233 C  
BRANCH   9  10
HETATM   10  C   UNL     1     -10.026   7.089  71.173  1.00  0.00    -0.191 C  
BRANCH  10  11
HETATM   11  C   UNL     1     -11.365   7.369  70.476  1.00  0.00    -0.295 C  
BRANCH  11  12
HETATM   12  C   UNL     1     -11.406   8.790  69.971  1.00  0.00    -0.032 C  
HETATM   13  O   UNL     1     -12.287   9.599  70.217  1.00  0.00    -0.037 OA 
BRANCH  12  14
HETATM   14  O   UNL     1     -10.227   9.088  69.358  1.00  0.00    -0.192 OA 
BRANCH  14  15
HETATM   15  C   UNL     1     -10.016  10.489  69.141  1.00  0.00    -0.220 C  
BRANCH  15  16
HETATM   16  C   UNL     1      -9.587  10.633  67.677  1.00  0.00    -0.161 C  
BRANCH  16  17
HETATM   17  N   UNL     1      -8.279  10.073  67.380  1.00  0.00    -0.117 N  
HETATM   18  C   UNL     1      -8.156   8.941  66.611  1.00  0.00    -0.107 C  
HETATM   19  H   UNL     1      -7.442  10.526  67.748  1.00  0.00     0.000 HD 
HETATM   20  O   UNL     1      -9.114   8.278  66.229  1.00  0.00    -0.167 OA 
BRANCH  18  21
HETATM   21  C   UNL     1      -6.741   8.484  66.321  1.00  0.00    -0.069 C  
BRANCH  21  22
HETATM   22  N   UNL     1      -6.745   7.642  65.107  1.00  0.00    -0.047 NA 
HETATM   23  C   UNL     1      -7.091   6.332  65.198  1.00  0.00    -0.061 A  
HETATM   24  C   UNL     1      -7.079   5.519  64.072  1.00  0.00    -0.049 A  
HETATM   25  C   UNL     1      -6.730   6.061  62.844  1.00  0.00    -0.040 A  
HETATM   26  C   UNL     1      -6.395   7.406  62.762  1.00  0.00    -0.054 A  
HETATM   27  C   UNL     1      -6.411   8.182  63.914  1.00  0.00    -0.067 A  
ENDBRANCH  21  22
ENDBRANCH  18  21
ENDBRANCH  16  17
ENDBRANCH  15  16
ENDBRANCH  14  15
ENDBRANCH  12  14
ENDBRANCH  11  12
ENDBRANCH  10  11
ENDBRANCH   9  10
ENDBRANCH   8   9
ENDBRANCH   7   8
ENDBRANCH   6   7
ENDBRANCH   5   6
ENDBRANCH   4   5
ENDBRANCH   3   4
ENDBRANCH   2   3
TORSDOF 16
ENDMDL
MODEL      421
REMARK 921   NORMALIZED FREE ENERGY PREDICTED BY IDOCK:   -1.41 KCAL/MOL
REMARK 922        TOTAL FREE ENERGY PREDICTED BY IDOCK:   -4.81 KCAL/MOL
REMARK 923 INTER-LIGAND FREE ENERGY PREDICTED BY IDOCK:   -3.75 KCAL/MOL
REMARK 924 INTRA-LIGAND FREE ENERGY PREDICTED BY IDOCK:   -1.06 KCAL/MOL
REMARK 927      BINDING AFFINITY PREDICTED BY RF-SCORE:    0.00 PKD
ROOT
HETATM    1  C   UNL     1     -11.145   8.537  70.124  1.00  0.00    -0.192 C  
HETATM    2  C   UNL     1     -10.201   9.645  69.689  1.00  0.00    -0.239 C  
ENDROOT
BRANCH   2   3
HETATM    3  C   UNL     1     -10.368   9.957  68.204  1.00  0.00    -0.232 C  
BRANCH   3   4
HETATM    4  C   UNL     1     -11.403  11.056  67.982  1.00  0.00    -0.374 C  
BRANCH   4   5
HETATM    5  C   UNL     1     -10.723  12.413  67.802  1.00  0.00    -0.247 C  
BRANCH   5   6
HETATM    6  C   UNL     1      -9.336  12.242  67.195  1.00  0.00    -0.196 C  
BRANCH   6   7
HETATM    7  C   UNL     1      -8.237  12.523  68.216  1.00  0.00    -0.168 C  
BRANCH   7   8
HETATM    8  C   UNL     1      -7.121  13.328  67.557  1.00  0.00    -0.156 C  
BRANCH   8   9
HETATM    9  C   UNL     1      -5.962  13.577  68.512  1.00  0.00    -0.090 C  
BRANCH   9  10
HETATM   10  C   UNL     1      -6.136  12.825  69.840  1.00  0.00    -0.122 C  
BRANCH  10  11
HETATM   11  C   UNL     1      -5.230  11.594  69.989  1.00  0.00    -0.079 C  
BRANCH  11  12
HETATM   12  C   UNL     1      -6.061  10.349  70.168  1.00  0.00    -0.097 C  
HETATM   13  O   UNL     1      -6.541   9.970  71.225  1.00  0.00    -0.327 OA 
BRANCH  12  14
HETATM   14  O   UNL     1      -6.351   9.817  68.948  1.00  0.00    -0.042 OA 
BRANCH  14  15
HETATM   15  C   UNL     1      -5.222   9.249  68.272  1.00  0.00    -0.037 C  
BRANCH  15  16
HETATM   16  C   UNL     1      -5.743   8.004  67.547  1.00  0.00    -0.038 C  
BRANCH  16  17
HETATM   17  N   UNL     1      -6.885   7.373  68.188  1.00  0.00    -0.061 N  
HETATM   18  C   UNL     1      -7.915   6.856  67.440  1.00  0.00    -0.112 C  
HETATM   19  H   UNL     1      -6.922   7.313  69.205  1.00  0.00     0.000 HD 
HETATM   20  O   UNL     1      -7.998   6.988  66.223  1.00  0.00    -0.106 OA 
BRANCH  18  21
HETATM   21  C   UNL     1      -9.022   6.172  68.215  1.00  0.00    -0.114 C  
BRANCH  21  22
HETATM   22  N   UNL     1      -8.788   4.713  68.206  1.00  0.00    -0.103 NA 
HETATM   23  C   UNL     1      -7.833   4.190  67.394  1.00  0.00    -0.091 A  
HETATM   24  C   UNL     1      -7.614   2.820  67.355  1.00  0.00    -0.065 A  
HETATM   25  C   UNL     1      -8.366   1.985  68.169  1.00  0.00    -0.077 A  
HETATM   26  C   UNL     1      -9.327   2.535  69.007  1.00  0.00    -0.209 A  
HETATM   27  C   UNL     1      -9.521   3.910  69.009  1.00  0.00    -0.170 A  
ENDBRANCH  21  22
ENDBRANCH  18  21
ENDBRANCH  16  17
ENDBRANCH  15  16
ENDBRANCH  14  15
ENDBRANCH  12  14
ENDBRANCH  11  12
ENDBRANCH  10  11
ENDBRANCH   9  10
ENDBRANCH   8   9
ENDBRANCH   7   8
ENDBRANCH   6   7
ENDBRANCH   5   6
ENDBRANCH   4   5
ENDBRANCH   3   4
ENDBRANCH   2   3
TORSDOF 16
ENDMDL
MODEL      422
REMARK 921   NORMALIZED FREE ENERGY PREDICTED BY IDOCK:   -1.39 KCAL/MOL
REMARK 922        TOTAL FREE ENERGY PREDICTED BY IDOCK:   -4.76 KCAL/MOL
REMARK 923 INTER-LIGAND FREE ENERGY PREDICTED BY IDOCK:   -3.09 KCAL/MOL
REMARK 924 INTRA-LIGAND FREE ENERGY PREDICTED BY IDOCK:   -1.67 KCAL/MOL
REMARK 927      BINDING AFFINITY PREDICTED BY RF-SCORE:    0.00 PKD
ROOT
HETATM    1  C   UNL     1     -11.485  12.731  63.397  1.00  0.00    -0.454 C  
HETATM    2  C   UNL     1     -11.043  11.959  64.628  1.00  0.00    -0.373 C  
ENDROOT
BRANCH   2   3
HETATM    3  C   UNL     1      -9.681  11.304  64.405  1.00  0.00    -0.293 C  
BRANCH   3   4
HETATM    4  C   UNL     1      -9.604   9.940  65.086  1.00  0.00    -0.367 C  
BRANCH   4   5
HETATM    5  C   UNL     1      -8.436   9.890  66.069  1.00  0.00    -0.135 C  
BRANCH   5   6
HETATM    6  C   UNL     1      -8.895   9.356  67.420  1.00  0.00    -0.135 C  
BRANCH   6   7
HETATM    7  C   UNL     1     -10.417   9.353  67.536  1.00  0.00    -0.343 C  
BRANCH   7   8
HETATM    8  C   UNL     1     -10.848  10.329  68.628  1.00  0.00    -0.272 C  
BRANCH   8   9
HETATM    9  C   UNL     1     -11.335  11.649  68.048  1.00  0.00    -0.366 C  
BRANCH   9  10
HETATM   10  C   UNL     1     -10.558  12.849  68.611  1.00  0.00    -0.256 C  
BRANCH  10  11
HETATM   11  C   UNL     1     -11.184  13.470  69.868  1.00  0.00     0.008 C  
BRANCH  11  12
HETATM   12  C   UNL     1     -11.160  14.975  69.778  1.00  0.00    -0.276 C  
HETATM   13  O   UNL     1     -12.114  15.707  69.992  1.00  0.00    -0.360 OA 
BRANCH  12  14
HETATM   14  O   UNL     1      -9.877  15.400  69.607  1.00  0.00    -0.264 OA 
BRANCH  14  15
HETATM   15  C   UNL     1      -8.942  14.826  70.529  1.00  0.00     1.695 C  
BRANCH  15  16
HETATM   16  C   UNL     1      -7.551  15.090  69.943  1.00  0.00     0.027 C  
BRANCH  16  17
HETATM   17  N   UNL     1      -7.539  15.309  68.506  1.00  0.00    -0.114 N  
HETATM   18  C   UNL     1      -7.265  16.551  67.985  1.00  0.00    -0.143 C  
HETATM   19  H   UNL     1      -7.736  14.532  67.876  1.00  0.00     0.000 HD 
HETATM   20  O   UNL     1      -7.130  17.557  68.674  1.00  0.00    -0.222 OA 
BRANCH  18  21
HETATM   21  C   UNL     1      -7.225  16.644  66.474  1.00  0.00    -0.206 C  
BRANCH  21  22
HETATM   22  N   UNL     1      -8.605  16.776  65.962  1.00  0.00    -0.500 NA 
HETATM   23  C   UNL     1      -9.149  18.009  65.802  1.00  0.00     0.405 A  
HETATM   24  C   UNL     1     -10.451  18.153  65.343  1.00  0.00     0.228 A  
HETATM   25  C   UNL     1     -11.191  17.022  65.030  1.00  0.00     0.230 A  
HETATM   26  C   UNL     1     -10.618  15.767  65.182  1.00  0.00    -0.436 A  
HETATM   27  C   UNL     1      -9.314  15.668  65.652  1.00  0.00    -0.172 A  
ENDBRANCH  21  22
ENDBRANCH  18  21
ENDBRANCH  16  17
ENDBRANCH  15  16
ENDBRANCH  14  15
ENDBRANCH  12  14
ENDBRANCH  11  12
ENDBRANCH  10  11
ENDBRANCH   9  10
ENDBRANCH   8   9
ENDBRANCH   7   8
ENDBRANCH   6   7
ENDBRANCH   5   6
ENDBRANCH   4   5
ENDBRANCH   3   4
ENDBRANCH   2   3
TORSDOF 16
ENDMDL
MODEL      423
REMARK 921   NORMALIZED FREE ENERGY PREDICTED BY IDOCK:   -1.22 KCAL/MOL
REMARK 922        TOTAL FREE ENERGY PREDICTED BY IDOCK:   -4.45 KCAL/MOL
REMARK 923 INTER-LIGAND FREE ENERGY PREDICTED BY IDOCK:   -2.69 KCAL/MOL
REMARK 924 INTRA-LIGAND FREE ENERGY PREDICTED BY IDOCK:   -1.75 KCAL/MOL
REMARK 927      BINDING AFFINITY PREDICTED BY RF-SCORE:    0.00 PKD
ROOT
HETATM    1  C   UNL     1      -9.027  10.062  69.836  1.00  0.00    -0.178 C  
HETATM    2  C   UNL     1     -10.443  10.525  69.539  1.00  0.00    -0.265 C  
ENDROOT
BRANCH   2   3
HETATM    3  C   UNL     1     -11.466   9.486  69.993  1.00  0.00    -0.149 C  
BRANCH   3   4
HETATM    4  C   UNL     1     -11.632   9.499  71.510  1.00  0.00    -0.465 C  
BRANCH   4   5
HETATM    5  C   UNL     1     -11.844   8.084  72.045  1.00  0.00    -0.376 C  
BRANCH   5   6
HETATM    6  C   UNL     1     -10.507   7.413  72.331  1.00  0.00    -0.273 C  
BRANCH   6   7
HETATM    7  C   UNL     1     -10.668   5.913  72.560  1.00  0.00    -0.274 C  
BRANCH   7   8
HETATM    8  C   UNL     1     -11.013   5.228  71.240  1.00  0.00    -0.059 C  
BRANCH   8   9
HETATM    9  C   UNL     1      -9.866   5.308  70.242  1.00  0.00    -0.284 C  
BRANCH   9  10
HETATM   10  C   UNL     1     -10.356   5.635  68.823  1.00  0.00    -0.288 C  
BRANCH  10  11
HETATM   11  C   UNL     1      -9.554   4.950  67.708  1.00  0.00    -0.184 C  
BRANCH  11  12
HETATM   12  C   UNL     1      -8.284   5.713  67.430  1.00  0.00    -0.101 C  
HETATM   13  O   UNL     1      -7.184   5.437  67.884  1.00  0.00    -0.069 OA 
BRANCH  12  14
HETATM   14  O   UNL     1      -8.512   6.634  66.453  1.00  0.00    -0.115 OA 
BRANCH  14  15
HETATM   15  C   UNL     1      -8.305   7.990  66.867  1.00  0.00    -0.116 C  
BRANCH  15  16
HETATM   16  C   UNL     1      -7.063   8.480  66.114  1.00  0.00    -0.077 C  
BRANCH  16  17
HETATM   17  N   UNL     1      -7.008   9.920  65.925  1.00  0.00    -0.101 N  
HETATM   18  C   UNL     1      -6.046  10.676  66.550  1.00  0.00    -0.088 C  
HETATM   19  H   UNL     1      -7.692  10.376  65.321  1.00  0.00     0.000 HD 
HETATM   20  O   UNL     1      -5.262  10.221  67.377  1.00  0.00    -0.040 OA 
BRANCH  18  21
HETATM   21  C   UNL     1      -6.053  12.157  66.233  1.00  0.00     1.090 C  
BRANCH  21  22
HETATM   22  N   UNL     1      -6.502  12.904  67.427  1.00  0.00    -0.174 NA 
HETATM   23  C   UNL     1      -7.791  12.803  67.839  1.00  0.00    -0.156 A  
HETATM   24  C   UNL     1      -8.238  13.514  68.944  1.00  0.00     0.149 A  
HETATM   25  C   UNL     1      -7.348  14.318  69.642  1.00  0.00     0.110 A  
HETATM   26  C   UNL     1      -6.027  14.399  69.220  1.00  0.00    -0.097 A  
HETATM   27  C   UNL     1      -5.624  13.678  68.103  1.00  0.00    -0.115 A  
ENDBRANCH  21  22
ENDBRANCH  18  21
ENDBRANCH  16  17
ENDBRANCH  15  16
ENDBRANCH  14  15
ENDBRANCH  12  14
ENDBRANCH  11  12
ENDBRANCH  10  11
ENDBRANCH   9  10
ENDBRANCH   8   9
ENDBRANCH   7   8
ENDBRANCH   6   7
ENDBRANCH   5   6
ENDBRANCH   4   5
ENDBRANCH   3   4
ENDBRANCH   2   3
TORSDOF 16
ENDMDL
MODEL      424
REMARK 921   NORMALIZED FREE ENERGY PREDICTED BY IDOCK:   -0.74 KCAL/MOL
REMARK 922        TOTAL FREE ENERGY PREDICTED BY IDOCK:   -3.51 KCAL/MOL
REMARK 923 INTER-LIGAND FREE ENERGY PREDICTED BY IDOCK:   -3.07 KCAL/MOL
REMARK 924 INTRA-LIGAND FREE ENERGY PREDICTED BY IDOCK:   -0.44 KCAL/MOL
REMARK 927      BINDING AFFINITY PREDICTED BY RF-SCORE:    0.00 PKD
ROOT
HETATM    1  C   UNL     1      -5.641  10.565  72.698  1.00  0.00     0.702 C  
HETATM    2  C   UNL     1      -5.126  11.994  72.669  1.00  0.00     0.371 C  
ENDROOT
BRANCH   2   3
HETATM    3  C   UNL     1      -5.348  12.629  71.298  1.00  0.00    -0.117 C  
BRANCH   3   4
HETATM    4  C   UNL     1      -6.093  11.681  70.363  1.00  0.00    -0.074 C  
BRANCH   4   5
HETATM    5  C   UNL     1      -6.144  12.247  68.944  1.00  0.00    -0.073 C  
BRANCH   5   6
HETATM    6  C   UNL     1      -6.783  11.246  67.990  1.00  0.00    -0.062 C  
BRANCH   6   7
HETATM    7  C   UNL     1      -8.202  10.885  68.423  1.00  0.00    -0.133 C  
BRANCH   7   8
HETATM    8  C   UNL     1      -9.186  11.899  67.845  1.00  0.00    -0.187 C  
BRANCH   8   9
HETATM    9  C   UNL     1     -10.225  12.329  68.871  1.00  0.00    -0.041 C  
BRANCH   9  10
HETATM   10  C   UNL     1     -10.728  13.759  68.619  1.00  0.00    -0.270 C  
BRANCH  10  11
HETATM   11  C   UNL     1     -10.436  14.738  69.766  1.00  0.00    -0.087 C  
BRANCH  11  12
HETATM   12  C   UNL     1      -9.326  15.682  69.380  1.00  0.00    -0.279 C  
HETATM   13  O   UNL     1      -8.141  15.390  69.330  1.00  0.00    -0.214 OA 
BRANCH  12  14
HETATM   14  O   UNL     1      -9.860  16.846  68.918  1.00  0.00    -0.253 OA 
BRANCH  14  15
HETATM   15  C   UNL     1     -10.663  16.697  67.741  1.00  0.00    -0.327 C  
BRANCH  15  16
HETATM   16  C   UNL     1      -9.716  16.217  66.636  1.00  0.00    -0.244 C  
BRANCH  16  17
HETATM   17  N   UNL     1     -10.344  15.366  65.638  1.00  0.00    -0.342 N  
HETATM   18  C   UNL     1     -11.168  15.899  64.678  1.00  0.00    -0.351 C  
HETATM   19  H   UNL     1     -10.170  14.361  65.651  1.00  0.00     0.000 HD 
HETATM   20  O   UNL     1     -11.516  17.076  64.664  1.00  0.00    -0.750 OA 
BRANCH  18  21
HETATM   21  C   UNL     1     -11.719  14.924  63.658  1.00  0.00     0.806 C  
BRANCH  21  22
HETATM   22  N   UNL     1     -11.506  13.545  64.144  1.00  0.00    -0.379 NA 
HETATM   23  C   UNL     1     -12.290  13.053  65.137  1.00  0.00    -0.484 A  
HETATM   24  C   UNL     1     -12.090  11.768  65.624  1.00  0.00     0.347 A  
HETATM   25  C   UNL     1     -11.092  10.978  65.072  1.00  0.00    -0.017 A  
HETATM   26  C   UNL     1     -10.309  11.488  64.045  1.00  0.00    -0.406 A  
HETATM   27  C   UNL     1     -10.535  12.782  63.594  1.00  0.00    -0.205 A  
ENDBRANCH  21  22
ENDBRANCH  18  21
ENDBRANCH  16  17
ENDBRANCH  15  16
ENDBRANCH  14  15
ENDBRANCH  12  14
ENDBRANCH  11  12
ENDBRANCH  10  11
ENDBRANCH   9  10
ENDBRANCH   8   9
ENDBRANCH   7   8
ENDBRANCH   6   7
ENDBRANCH   5   6
ENDBRANCH   4   5
ENDBRANCH   3   4
ENDBRANCH   2   3
TORSDOF 16
ENDMDL
MODEL      425
REMARK 921   NORMALIZED FREE ENERGY PREDICTED BY IDOCK:   -0.26 KCAL/MOL
REMARK 922        TOTAL FREE ENERGY PREDICTED BY IDOCK:   -2.59 KCAL/MOL
REMARK 923 INTER-LIGAND FREE ENERGY PREDICTED BY IDOCK:   -2.52 KCAL/MOL
REMARK 924 INTRA-LIGAND FREE ENERGY PREDICTED BY IDOCK:   -0.06 KCAL/MOL
REMARK 927      BINDING AFFINITY PREDICTED BY RF-SCORE:    0.00 PKD
ROOT
HETATM    1  C   UNL     1     -11.477  18.071  67.827  1.00  0.00     0.864 C  
HETATM    2  C   UNL     1     -11.090  16.654  67.440  1.00  0.00     0.001 C  
ENDROOT
BRANCH   2   3
HETATM    3  C   UNL     1     -10.056  16.084  68.409  1.00  0.00    -0.229 C  
BRANCH   3   4
HETATM    4  C   UNL     1     -10.245  14.581  68.599  1.00  0.00    -0.243 C  
BRANCH   4   5
HETATM    5  C   UNL     1     -10.865  13.951  67.353  1.00  0.00    -0.291 C  
BRANCH   5   6
HETATM    6  C   UNL     1     -10.465  12.486  67.237  1.00  0.00    -0.232 C  
BRANCH   6   7
HETATM    7  C   UNL     1     -11.394  11.722  66.298  1.00  0.00    -0.350 C  
BRANCH   7   8
HETATM    8  C   UNL     1     -10.903  10.284  66.150  1.00  0.00     0.052 C  
BRANCH   8   9
HETATM    9  C   UNL     1     -10.903   9.545  67.481  1.00  0.00    -0.239 C  
BRANCH   9  10
HETATM   10  C   UNL     1      -9.650   8.675  67.659  1.00  0.00    -0.190 C  
BRANCH  10  11
HETATM   11  C   UNL     1      -8.348   9.349  67.203  1.00  0.00    -0.124 C  
BRANCH  11  12
HETATM   12  C   UNL     1      -7.812   8.671  65.967  1.00  0.00    -0.102 C  
HETATM   13  O   UNL     1      -8.097   8.975  64.819  1.00  0.00    -0.127 OA 
BRANCH  12  14
HETATM   14  O   UNL     1      -6.824   7.802  66.318  1.00  0.00    -0.059 OA 
BRANCH  14  15
HETATM   15  C   UNL     1      -6.575   7.735  67.727  1.00  0.00    -0.060 C  
BRANCH  15  16
HETATM   16  C   UNL     1      -6.710   6.258  68.114  1.00  0.00    -0.068 C  
BRANCH  16  17
HETATM   17  N   UNL     1      -7.963   5.645  67.705  1.00  0.00    -0.097 N  
HETATM   18  C   UNL     1      -8.001   4.340  67.277  1.00  0.00    -0.096 C  
HETATM   19  H   UNL     1      -8.824   6.191  67.736  1.00  0.00     0.000 HD 
HETATM   20  O   UNL     1      -6.997   3.656  67.105  1.00  0.00    -0.056 OA 
BRANCH  18  21
HETATM   21  C   UNL     1      -9.371   3.794  66.932  1.00  0.00    -0.193 C  
BRANCH  21  22
HETATM   22  N   UNL     1      -9.312   3.150  65.602  1.00  0.00    -0.142 NA 
HETATM   23  C   UNL     1      -8.424   2.149  65.378  1.00  0.00    -0.100 A  
HETATM   24  C   UNL     1      -8.338   1.548  64.130  1.00  0.00    -0.069 A  
HETATM   25  C   UNL     1      -9.184   1.966  63.112  1.00  0.00    -0.091 A  
HETATM   26  C   UNL     1     -10.099   2.979  63.360  1.00  0.00    -0.156 A  
HETATM   27  C   UNL     1     -10.146   3.561  64.621  1.00  0.00    -0.124 A  
ENDBRANCH  21  22
ENDBRANCH  18  21
ENDBRANCH  16  17
ENDBRANCH  15  16
ENDBRANCH  14  15
ENDBRANCH  12  14
ENDBRANCH  11  12
ENDBRANCH  10  11
ENDBRANCH   9  10
ENDBRANCH   8   9
ENDBRANCH   7   8
ENDBRANCH   6   7
ENDBRANCH   5   6
ENDBRANCH   4   5
ENDBRANCH   3   4
ENDBRANCH   2   3
TORSDOF 16
ENDMDL
MODEL      426
REMARK 921   NORMALIZED FREE ENERGY PREDICTED BY IDOCK:   -0.15 KCAL/MOL
REMARK 922        TOTAL FREE ENERGY PREDICTED BY IDOCK:   -2.37 KCAL/MOL
REMARK 923 INTER-LIGAND FREE ENERGY PREDICTED BY IDOCK:   -2.89 KCAL/MOL
REMARK 924 INTRA-LIGAND FREE ENERGY PREDICTED BY IDOCK:    0.52 KCAL/MOL
REMARK 927      BINDING AFFINITY PREDICTED BY RF-SCORE:    0.00 PKD
ROOT
HETATM    1  C   UNL     1      -5.728  10.547  72.807  1.00  0.00     0.935 C  
HETATM    2  C   UNL     1      -5.152  11.949  72.902  1.00  0.00     0.454 C  
ENDROOT
BRANCH   2   3
HETATM    3  C   UNL     1      -5.135  12.630  71.535  1.00  0.00    -0.130 C  
BRANCH   3   4
HETATM    4  C   UNL     1      -5.796  11.756  70.473  1.00  0.00    -0.125 C  
BRANCH   4   5
HETATM    5  C   UNL     1      -5.457  12.256  69.070  1.00  0.00    -0.063 C  
BRANCH   5   6
HETATM    6  C   UNL     1      -5.691  11.159  68.039  1.00  0.00    -0.042 C  
BRANCH   6   7
HETATM    7  C   UNL     1      -7.090  10.563  68.160  1.00  0.00    -0.082 C  
BRANCH   7   8
HETATM    8  C   UNL     1      -8.107  11.513  67.531  1.00  0.00    -0.137 C  
BRANCH   8   9
HETATM    9  C   UNL     1      -8.248  11.281  66.033  1.00  0.00    -0.045 C  
BRANCH   9  10
HETATM   10  C   UNL     1      -9.717  11.300  65.582  1.00  0.00    -0.267 C  
BRANCH  10  11
HETATM   11  C   UNL     1     -10.515  10.054  65.990  1.00  0.00    -0.145 C  
BRANCH  11  12
HETATM   12  C   UNL     1     -11.089  10.229  67.374  1.00  0.00    -0.189 C  
HETATM   13  O   UNL     1     -10.597   9.785  68.400  1.00  0.00    -0.208 OA 
BRANCH  12  14
HETATM   14  O   UNL     1     -12.127  11.109  67.327  1.00  0.00    -0.242 OA 
BRANCH  14  15
HETATM   15  C   UNL     1     -11.740  12.458  67.038  1.00  0.00    -0.353 C  
BRANCH  15  16
HETATM   16  C   UNL     1     -11.131  13.012  68.331  1.00  0.00    -0.262 C  
BRANCH  16  17
HETATM   17  N   UNL     1     -10.126  14.042  68.124  1.00  0.00    -0.238 N  
HETATM   18  C   UNL     1     -10.491  15.339  67.858  1.00  0.00    -0.253 C  
HETATM   19  H   UNL     1      -9.137  13.798  68.177  1.00  0.00     0.000 HD 
HETATM   20  O   UNL     1     -11.652  15.687  67.667  1.00  0.00    -0.237 OA 
BRANCH  18  21
HETATM   21  C   UNL     1      -9.358  16.334  67.717  1.00  0.00    -0.216 C  
BRANCH  21  22
HETATM   22  N   UNL     1      -9.907  17.705  67.801  1.00  0.00    -0.282 NA 
HETATM   23  C   UNL     1     -10.169  18.395  66.662  1.00  0.00    -0.394 A  
HETATM   24  C   UNL     1     -10.663  19.691  66.720  1.00  0.00    -0.562 A  
HETATM   25  C   UNL     1     -10.907  20.273  67.955  1.00  0.00     0.111 A  
HETATM   26  C   UNL     1     -10.650  19.549  69.112  1.00  0.00     0.343 A  
HETATM   27  C   UNL     1     -10.148  18.258  69.010  1.00  0.00    -0.260 A  
ENDBRANCH  21  22
ENDBRANCH  18  21
ENDBRANCH  16  17
ENDBRANCH  15  16
ENDBRANCH  14  15
ENDBRANCH  12  14
ENDBRANCH  11  12
ENDBRANCH  10  11
ENDBRANCH   9  10
ENDBRANCH   8   9
ENDBRANCH   7   8
ENDBRANCH   6   7
ENDBRANCH   5   6
ENDBRANCH   4   5
ENDBRANCH   3   4
ENDBRANCH   2   3
TORSDOF 16
ENDMDL
MODEL      427
REMARK 921   NORMALIZED FREE ENERGY PREDICTED BY IDOCK:   -0.01 KCAL/MOL
REMARK 922        TOTAL FREE ENERGY PREDICTED BY IDOCK:   -2.10 KCAL/MOL
REMARK 923 INTER-LIGAND FREE ENERGY PREDICTED BY IDOCK:   -2.17 KCAL/MOL
REMARK 924 INTRA-LIGAND FREE ENERGY PREDICTED BY IDOCK:    0.07 KCAL/MOL
REMARK 927      BINDING AFFINITY PREDICTED BY RF-SCORE:    0.00 PKD
ROOT
HETATM    1  C   UNL     1      -5.749  10.564  72.799  1.00  0.00     0.935 C  
HETATM    2  C   UNL     1      -5.158  11.956  72.941  1.00  0.00     0.454 C  
ENDROOT
BRANCH   2   3
HETATM    3  C   UNL     1      -5.132  12.680  71.597  1.00  0.00    -0.100 C  
BRANCH   3   4
HETATM    4  C   UNL     1      -5.839  11.867  70.516  1.00  0.00    -0.125 C  
BRANCH   4   5
HETATM    5  C   UNL     1      -5.467  12.376  69.124  1.00  0.00    -0.069 C  
BRANCH   5   6
HETATM    6  C   UNL     1      -5.785  11.326  68.067  1.00  0.00    -0.042 C  
BRANCH   6   7
HETATM    7  C   UNL     1      -7.247  10.892  68.128  1.00  0.00    -0.083 C  
BRANCH   7   8
HETATM    8  C   UNL     1      -8.119  11.931  67.427  1.00  0.00    -0.165 C  
BRANCH   8   9
HETATM    9  C   UNL     1      -8.206  11.681  65.929  1.00  0.00     0.259 C  
BRANCH   9  10
HETATM   10  C   UNL     1      -9.638  11.850  65.397  1.00  0.00    -0.183 C  
BRANCH  10  11
HETATM   11  C   UNL     1     -10.606  10.742  65.836  1.00  0.00    -0.216 C  
BRANCH  11  12
HETATM   12  C   UNL     1     -11.281  11.117  67.131  1.00  0.00    -0.249 C  
HETATM   13  O   UNL     1     -10.901  10.785  68.244  1.00  0.00    -0.195 OA 
BRANCH  12  14
HETATM   14  O   UNL     1     -12.259  12.032  66.885  1.00  0.00    -0.529 OA 
BRANCH  14  15
HETATM   15  C   UNL     1     -11.774  13.301  66.428  1.00  0.00    -0.373 C  
BRANCH  15  16
HETATM   16  C   UNL     1     -11.236  14.023  67.668  1.00  0.00    -0.297 C  
BRANCH  16  17
HETATM   17  N   UNL     1     -10.186  14.988  67.389  1.00  0.00    -0.234 N  
HETATM   18  C   UNL     1     -10.487  16.234  66.895  1.00  0.00    -0.302 C  
HETATM   19  H   UNL     1      -9.212  14.737  67.561  1.00  0.00     0.000 HD 
HETATM   20  O   UNL     1     -11.618  16.570  66.556  1.00  0.00     0.631 OA 
BRANCH  18  21
HETATM   21  C   UNL     1      -9.316  17.173  66.697  1.00  0.00    -0.260 C  
BRANCH  21  22
HETATM   22  N   UNL     1      -8.179  16.707  67.519  1.00  0.00    -0.163 NA 
HETATM   23  C   UNL     1      -7.949  17.271  68.732  1.00  0.00    -0.250 A  
HETATM   24  C   UNL     1      -6.873  16.862  69.508  1.00  0.00    -0.125 A  
HETATM   25  C   UNL     1      -6.042  15.854  69.043  1.00  0.00    -0.122 A  
HETATM   26  C   UNL     1      -6.298  15.273  67.809  1.00  0.00    -0.181 A  
HETATM   27  C   UNL     1      -7.380  15.718  67.059  1.00  0.00    -0.191 A  
ENDBRANCH  21  22
ENDBRANCH  18  21
ENDBRANCH  16  17
ENDBRANCH  15  16
ENDBRANCH  14  15
ENDBRANCH  12  14
ENDBRANCH  11  12
ENDBRANCH  10  11
ENDBRANCH   9  10
ENDBRANCH   8   9
ENDBRANCH   7   8
ENDBRANCH   6   7
ENDBRANCH   5   6
ENDBRANCH   4   5
ENDBRANCH   3   4
ENDBRANCH   2   3
TORSDOF 16
ENDMDL
MODEL      428
REMARK 921   NORMALIZED FREE ENERGY PREDICTED BY IDOCK:    0.65 KCAL/MOL
REMARK 922        TOTAL FREE ENERGY PREDICTED BY IDOCK:   -0.82 KCAL/MOL
REMARK 923 INTER-LIGAND FREE ENERGY PREDICTED BY IDOCK:   -4.90 KCAL/MOL
REMARK 924 INTRA-LIGAND FREE ENERGY PREDICTED BY IDOCK:    4.08 KCAL/MOL
REMARK 927      BINDING AFFINITY PREDICTED BY RF-SCORE:    0.00 PKD
ROOT
HETATM    1  C   UNL     1     -12.641  12.360  63.438  1.00  0.00    -0.481 C  
HETATM    2  C   UNL     1     -12.657  12.493  64.951  1.00  0.00    -0.469 C  
ENDROOT
BRANCH   2   3
HETATM    3  C   UNL     1     -11.425  11.838  65.572  1.00  0.00    -0.241 C  
BRANCH   3   4
HETATM    4  C   UNL     1     -10.775  10.852  64.605  1.00  0.00    -0.254 C  
BRANCH   4   5
HETATM    5  C   UNL     1      -9.571  10.170  65.253  1.00  0.00    -0.338 C  
BRANCH   5   6
HETATM    6  C   UNL     1      -8.479  11.186  65.558  1.00  0.00    -0.003 C  
BRANCH   6   7
HETATM    7  C   UNL     1      -9.047  12.443  66.212  1.00  0.00    -0.099 C  
BRANCH   7   8
HETATM    8  C   UNL     1      -9.393  12.149  67.669  1.00  0.00    -0.187 C  
BRANCH   8   9
HETATM    9  C   UNL     1      -8.150  11.875  68.504  1.00  0.00    -0.130 C  
BRANCH   9  10
HETATM   10  C   UNL     1      -7.028  11.233  67.675  1.00  0.00    -0.085 C  
BRANCH  10  11
HETATM   11  C   UNL     1      -6.480   9.926  68.265  1.00  0.00    -0.055 C  
BRANCH  11  12
HETATM   12  C   UNL     1      -6.372  10.032  69.766  1.00  0.00    -0.058 C  
HETATM   13  O   UNL     1      -7.159  10.626  70.487  1.00  0.00    -0.227 OA 
BRANCH  12  14
HETATM   14  O   UNL     1      -5.377   9.214  70.209  1.00  0.00    -0.027 OA 
BRANCH  14  15
HETATM   15  C   UNL     1      -5.812   8.210  71.134  1.00  0.00    -0.034 C  
BRANCH  15  16
HETATM   16  C   UNL     1      -5.516   8.763  72.532  1.00  0.00    -0.060 C  
BRANCH  16  17
HETATM   17  N   UNL     1      -6.405   8.269  73.571  1.00  0.00    -0.109 N  
HETATM   18  C   UNL     1      -7.761   8.205  73.364  1.00  0.00    -0.160 C  
HETATM   19  H   UNL     1      -6.017   7.966  74.464  1.00  0.00     0.000 HD 
HETATM   20  O   UNL     1      -8.314   8.653  72.364  1.00  0.00    -0.340 OA 
BRANCH  18  21
HETATM   21  C   UNL     1      -8.580   7.620  74.496  1.00  0.00    -0.140 C  
BRANCH  21  22
HETATM   22  N   UNL     1      -9.484   6.584  73.952  1.00  0.00    -0.161 NA 
HETATM   23  C   UNL     1     -10.348   6.901  72.955  1.00  0.00    -0.244 A  
HETATM   24  C   UNL     1     -11.221   5.948  72.448  1.00  0.00    -0.340 A  
HETATM   25  C   UNL     1     -11.189   4.656  72.954  1.00  0.00    -0.246 A  
HETATM   26  C   UNL     1     -10.288   4.341  73.962  1.00  0.00    -0.273 A  
HETATM   27  C   UNL     1      -9.439   5.327  74.449  1.00  0.00    -0.136 A  
ENDBRANCH  21  22
ENDBRANCH  18  21
ENDBRANCH  16  17
ENDBRANCH  15  16
ENDBRANCH  14  15
ENDBRANCH  12  14
ENDBRANCH  11  12
ENDBRANCH  10  11
ENDBRANCH   9  10
ENDBRANCH   8   9
ENDBRANCH   7   8
ENDBRANCH   6   7
ENDBRANCH   5   6
ENDBRANCH   4   5
ENDBRANCH   3   4
ENDBRANCH   2   3
TORSDOF 16
ENDMDL
MODEL      429
REMARK 921   NORMALIZED FREE ENERGY PREDICTED BY IDOCK:    1.37 KCAL/MOL
REMARK 922        TOTAL FREE ENERGY PREDICTED BY IDOCK:    0.57 KCAL/MOL
REMARK 923 INTER-LIGAND FREE ENERGY PREDICTED BY IDOCK:    0.50 KCAL/MOL
REMARK 924 INTRA-LIGAND FREE ENERGY PREDICTED BY IDOCK:    0.07 KCAL/MOL
REMARK 927      BINDING AFFINITY PREDICTED BY RF-SCORE:    0.00 PKD
ROOT
HETATM    1  C   UNL     1      -5.320  11.213  73.686  1.00  0.00     0.772 C  
HETATM    2  C   UNL     1      -5.134  12.588  74.305  1.00  0.00     0.141 C  
ENDROOT
BRANCH   2   3
HETATM    3  C   UNL     1      -5.532  13.690  73.326  1.00  0.00     0.015 C  
BRANCH   3   4
HETATM    4  C   UNL     1      -6.328  13.126  72.152  1.00  0.00     2.542 C  
BRANCH   4   5
HETATM    5  C   UNL     1      -6.380  14.129  71.000  1.00  0.00     0.093 C  
BRANCH   5   6
HETATM    6  C   UNL     1      -6.768  13.434  69.702  1.00  0.00     0.056 C  
BRANCH   6   7
HETATM    7  C   UNL     1      -8.093  13.961  69.157  1.00  0.00     0.242 C  
BRANCH   7   8
HETATM    8  C   UNL     1      -7.895  15.369  68.603  1.00  0.00    -0.142 C  
BRANCH   8   9
HETATM    9  C   UNL     1      -7.166  15.356  67.267  1.00  0.00    -0.229 C  
BRANCH   9  10
HETATM   10  C   UNL     1      -7.965  16.070  66.166  1.00  0.00     0.172 C  
BRANCH  10  11
HETATM   11  C   UNL     1      -9.169  15.272  65.645  1.00  0.00     0.005 C  
BRANCH  11  12
HETATM   12  C   UNL     1     -10.404  15.604  66.444  1.00  0.00    -0.296 C  
HETATM   13  O   UNL     1     -10.665  15.163  67.552  1.00  0.00    -0.271 OA 
BRANCH  12  14
HETATM   14  O   UNL     1     -11.086  16.609  65.828  1.00  0.00    -0.038 OA 
BRANCH  14  15
HETATM   15  C   UNL     1     -10.393  17.863  65.809  1.00  0.00    -0.180 C  
BRANCH  15  16
HETATM   16  C   UNL     1     -10.395  18.371  67.255  1.00  0.00    -0.392 C  
BRANCH  16  17
HETATM   17  N   UNL     1      -9.182  19.073  67.643  1.00  0.00    -0.291 N  
HETATM   18  C   UNL     1      -8.820  20.246  67.026  1.00  0.00    -0.326 C  
HETATM   19  H   UNL     1      -8.593  18.691  68.382  1.00  0.00     0.000 HD 
HETATM   20  O   UNL     1      -9.413  20.710  66.056  1.00  0.00    -0.039 OA 
BRANCH  18  21
HETATM   21  C   UNL     1      -7.568  20.917  67.552  1.00  0.00    -0.216 C  
BRANCH  21  22
HETATM   22  N   UNL     1      -6.789  19.935  68.336  1.00  0.00    -0.292 NA 
HETATM   23  C   UNL     1      -6.909  19.907  69.688  1.00  0.00    -0.255 A  
HETATM   24  C   UNL     1      -6.169  19.008  70.444  1.00  0.00     0.001 A  
HETATM   25  C   UNL     1      -5.315  18.121  69.804  1.00  0.00    -0.211 A  
HETATM   26  C   UNL     1      -5.215  18.149  68.420  1.00  0.00    -0.162 A  
HETATM   27  C   UNL     1      -5.966  19.071  67.702  1.00  0.00    -0.199 A  
ENDBRANCH  21  22
ENDBRANCH  18  21
ENDBRANCH  16  17
ENDBRANCH  15  16
ENDBRANCH  14  15
ENDBRANCH  12  14
ENDBRANCH  11  12
ENDBRANCH  10  11
ENDBRANCH   9  10
ENDBRANCH   8   9
ENDBRANCH   7   8
ENDBRANCH   6   7
ENDBRANCH   5   6
ENDBRANCH   4   5
ENDBRANCH   3   4
ENDBRANCH   2   3
TORSDOF 16
ENDMDL
MODEL      430
REMARK 921   NORMALIZED FREE ENERGY PREDICTED BY IDOCK:    3.55 KCAL/MOL
REMARK 922        TOTAL FREE ENERGY PREDICTED BY IDOCK:    4.79 KCAL/MOL
REMARK 923 INTER-LIGAND FREE ENERGY PREDICTED BY IDOCK:   -0.73 KCAL/MOL
REMARK 924 INTRA-LIGAND FREE ENERGY PREDICTED BY IDOCK:    5.52 KCAL/MOL
REMARK 927      BINDING AFFINITY PREDICTED BY RF-SCORE:    0.00 PKD
ROOT
HETATM    1  C   UNL     1     -12.579  13.103  63.879  1.00  0.00    -0.249 C  
HETATM    2  C   UNL     1     -12.276  12.565  65.267  1.00  0.00    -0.493 C  
ENDROOT
BRANCH   2   3
HETATM    3  C   UNL     1     -11.095  11.597  65.234  1.00  0.00    -0.298 C  
BRANCH   3   4
HETATM    4  C   UNL     1     -11.294  10.448  66.218  1.00  0.00     0.688 C  
BRANCH   4   5
HETATM    5  C   UNL     1      -9.949   9.870  66.657  1.00  0.00    -0.277 C  
BRANCH   5   6
HETATM    6  C   UNL     1     -10.061   9.242  68.041  1.00  0.00    -0.234 C  
BRANCH   6   7
HETATM    7  C   UNL     1     -11.481   9.346  68.592  1.00  0.00     0.429 C  
BRANCH   7   8
HETATM    8  C   UNL     1     -11.608  10.604  69.446  1.00  0.00    -0.352 C  
BRANCH   8   9
HETATM    9  C   UNL     1     -11.208  11.855  68.675  1.00  0.00    -0.311 C  
BRANCH   9  10
HETATM   10  C   UNL     1     -10.960  13.052  69.606  1.00  0.00     0.140 C  
BRANCH  10  11
HETATM   11  C   UNL     1     -12.230  13.828  69.984  1.00  0.00    -0.407 C  
BRANCH  11  12
HETATM   12  C   UNL     1     -11.979  15.313  69.912  1.00  0.00    -0.343 C  
HETATM   13  O   UNL     1     -12.841  16.176  69.971  1.00  0.00    -0.021 OA 
BRANCH  12  14
HETATM   14  O   UNL     1     -10.638  15.549  69.961  1.00  0.00    -0.289 OA 
BRANCH  14  15
HETATM   15  C   UNL     1      -9.872  14.472  70.513  1.00  0.00     1.459 C  
BRANCH  15  16
HETATM   16  C   UNL     1      -8.712  14.232  69.541  1.00  0.00     0.552 C  
BRANCH  16  17
HETATM   17  N   UNL     1      -8.769  15.038  68.333  1.00  0.00    -0.168 N  
HETATM   18  C   UNL     1      -8.542  16.392  68.379  1.00  0.00    -0.209 C  
HETATM   19  H   UNL     1      -8.979  14.593  67.440  1.00  0.00     0.000 HD 
HETATM   20  O   UNL     1      -8.395  17.017  69.425  1.00  0.00     0.011 OA 
BRANCH  18  21
HETATM   21  C   UNL     1      -8.571  17.117  67.050  1.00  0.00    -0.218 C  
BRANCH  21  22
HETATM   22  N   UNL     1      -9.340  18.371  67.201  1.00  0.00    -0.266 NA 
HETATM   23  C   UNL     1     -10.692  18.349  67.086  1.00  0.00    -0.330 A  
HETATM   24  C   UNL     1     -11.430  19.519  67.202  1.00  0.00     0.511 A  
HETATM   25  C   UNL     1     -10.775  20.715  67.457  1.00  0.00     0.564 A  
HETATM   26  C   UNL     1      -9.393  20.721  67.589  1.00  0.00    -0.312 A  
HETATM   27  C   UNL     1      -8.691  19.529  67.457  1.00  0.00    -0.307 A  
ENDBRANCH  21  22
ENDBRANCH  18  21
ENDBRANCH  16  17
ENDBRANCH  15  16
ENDBRANCH  14  15
ENDBRANCH  12  14
ENDBRANCH  11  12
ENDBRANCH  10  11
ENDBRANCH   9  10
ENDBRANCH   8   9
ENDBRANCH   7   8
ENDBRANCH   6   7
ENDBRANCH   5   6
ENDBRANCH   4   5
ENDBRANCH   3   4
ENDBRANCH   2   3
TORSDOF 16
ENDMDL
MODEL      431
REMARK 921   NORMALIZED FREE ENERGY PREDICTED BY IDOCK:    7.63 KCAL/MOL
REMARK 922        TOTAL FREE ENERGY PREDICTED BY IDOCK:   12.69 KCAL/MOL
REMARK 923 INTER-LIGAND FREE ENERGY PREDICTED BY IDOCK:   10.60 KCAL/MOL
REMARK 924 INTRA-LIGAND FREE ENERGY PREDICTED BY IDOCK:    2.09 KCAL/MOL
REMARK 927      BINDING AFFINITY PREDICTED BY RF-SCORE:    0.00 PKD
ROOT
HETATM    1  C   UNL     1     -11.622   7.822  71.214  1.00  0.00    -0.301 C  
HETATM    2  C   UNL     1     -11.569   9.201  70.578  1.00  0.00    -0.238 C  
ENDROOT
BRANCH   2   3
HETATM    3  C   UNL     1     -12.931   9.598  70.014  1.00  0.00     0.781 C  
BRANCH   3   4
HETATM    4  C   UNL     1     -12.803  10.161  68.602  1.00  0.00     3.372 C  
BRANCH   4   5
HETATM    5  C   UNL     1     -12.344  11.618  68.638  1.00  0.00     0.252 C  
BRANCH   5   6
HETATM    6  C   UNL     1     -11.989  12.034  70.060  1.00  0.00    -0.400 C  
BRANCH   6   7
HETATM    7  C   UNL     1     -11.444  13.459  70.109  1.00  0.00    -0.059 C  
BRANCH   7   8
HETATM    8  C   UNL     1     -11.195  13.961  68.690  1.00  0.00    -0.298 C  
BRANCH   8   9
HETATM    9  C   UNL     1     -12.445  13.867  67.827  1.00  0.00     0.188 C  
BRANCH   9  10
HETATM   10  C   UNL     1     -12.467  14.936  66.723  1.00  0.00     0.473 C  
BRANCH  10  11
HETATM   11  C   UNL     1     -11.382  16.012  66.869  1.00  0.00     0.191 C  
BRANCH  11  12
HETATM   12  C   UNL     1     -10.581  16.126  65.596  1.00  0.00    -0.363 C  
HETATM   13  O   UNL     1      -9.363  16.066  65.524  1.00  0.00    -0.380 OA 
BRANCH  12  14
HETATM   14  O   UNL     1     -11.424  16.115  64.527  1.00  0.00    -0.421 OA 
BRANCH  14  15
HETATM   15  C   UNL     1     -11.657  14.813  63.977  1.00  0.00     0.096 C  
BRANCH  15  16
HETATM   16  C   UNL     1     -10.281  14.150  63.852  1.00  0.00     1.933 C  
BRANCH  16  17
HETATM   17  N   UNL     1     -10.128  12.938  64.640  1.00  0.00    -0.544 N  
HETATM   18  C   UNL     1     -10.408  11.707  64.099  1.00  0.00    -0.337 C  
HETATM   19  H   UNL     1      -9.808  13.003  65.606  1.00  0.00     0.000 HD 
HETATM   20  O   UNL     1     -10.902  11.555  62.986  1.00  0.00    -0.224 OA 
BRANCH  18  21
HETATM   21  C   UNL     1     -10.156  10.513  64.996  1.00  0.00    -0.321 C  
BRANCH  21  22
HETATM   22  N   UNL     1      -9.406   9.489  64.238  1.00  0.00    -0.121 NA 
HETATM   23  C   UNL     1      -8.083   9.668  63.993  1.00  0.00    -0.152 A  
HETATM   24  C   UNL     1      -7.367   8.728  63.263  1.00  0.00    -0.100 A  
HETATM   25  C   UNL     1      -8.011   7.590  62.800  1.00  0.00    -0.119 A  
HETATM   26  C   UNL     1      -9.361   7.411  63.073  1.00  0.00     2.331 A  
HETATM   27  C   UNL     1     -10.042   8.380  63.798  1.00  0.00     5.356 A  
ENDBRANCH  21  22
ENDBRANCH  18  21
ENDBRANCH  16  17
ENDBRANCH  15  16
ENDBRANCH  14  15
ENDBRANCH  12  14
ENDBRANCH  11  12
ENDBRANCH  10  11
ENDBRANCH   9  10
ENDBRANCH   8   9
ENDBRANCH   7   8
ENDBRANCH   6   7
ENDBRANCH   5   6
ENDBRANCH   4   5
ENDBRANCH   3   4
ENDBRANCH   2   3
TORSDOF 16
ENDMDL
