MODEL        1
REMARK 921   NORMALIZED FREE ENERGY PREDICTED BY IDOCK:   -7.85 KCAL/MOL
REMARK 922        TOTAL FREE ENERGY PREDICTED BY IDOCK:  -11.88 KCAL/MOL
REMARK 923 INTER-LIGAND FREE ENERGY PREDICTED BY IDOCK:  -10.15 KCAL/MOL
REMARK 924 INTRA-LIGAND FREE ENERGY PREDICTED BY IDOCK:   -1.73 KCAL/MOL
REMARK 927      BINDING AFFINITY PREDICTED BY RF-SCORE:    0.00 PKD
ROOT
HETATM    1  O   UNL     1     -14.133   8.996  73.209  1.00  0.00    -1.218 OA 
HETATM    2  H   UNL     1     -14.317   8.114  73.511  1.00  0.00     0.000 HD 
HETATM    3  C   UNL     1     -13.248   8.985  72.102  1.00  0.00    -0.446 C  
HETATM    4  C   UNL     1     -12.951  10.400  71.618  1.00  0.00    -0.581 C  
HETATM    5  C   UNL     1     -11.634  10.235  70.891  1.00  0.00    -0.365 C  
HETATM    6  N   UNL     1     -10.933   9.201  71.632  1.00  0.00    -0.358 N  
HETATM    7  C   UNL     1     -11.860   8.444  72.468  1.00  0.00    -0.358 C  
ENDROOT
BRANCH   6   8
HETATM    8  C   UNL     1      -9.570   9.041  71.444  1.00  0.00    -0.285 C  
HETATM    9  O   UNL     1      -8.838   8.867  72.412  1.00  0.00    -0.396 OA 
BRANCH   8  10
HETATM   10  N   UNL     1      -9.169   9.137  70.132  1.00  0.00    -0.189 N  
HETATM   11  H   UNL     1      -9.526   8.431  69.489  1.00  0.00     0.000 HD 
BRANCH  10  12
HETATM   12  C   UNL     1      -8.323  10.103  69.598  1.00  0.00    -0.161 A  
HETATM   13  C   UNL     1      -8.558  11.142  68.708  1.00  0.00    -0.132 A  
HETATM   14  N   UNL     1      -9.674  11.614  68.054  1.00  0.00    -0.177 NA 
HETATM   15  C   UNL     1      -9.521  12.585  67.187  1.00  0.00    -0.208 A  
HETATM   16  C   UNL     1      -6.951  10.210  69.918  1.00  0.00    -0.133 A  
HETATM   17  C   UNL     1      -8.205  13.276  66.963  1.00  0.00    -0.058 A  
HETATM   18  N   UNL     1      -6.329  11.190  69.271  1.00  0.00    -0.067 NA 
HETATM   19  C   UNL     1      -7.156  12.823  67.654  1.00  0.00    -0.145 A  
HETATM   20  N   UNL     1      -7.308  11.756  68.521  1.00  0.00    -0.097 NA 
BRANCH  15  21
HETATM   21  N   UNL     1     -10.571  13.050  66.431  1.00  0.00    -0.281 NA 
HETATM   22  C   UNL     1     -12.576  14.076  65.701  1.00  0.00    -0.542 C  
HETATM   23  C   UNL     1     -10.498  13.175  64.988  1.00  0.00    -0.342 C  
HETATM   24  C   UNL     1     -11.894  13.425  66.932  1.00  0.00    -0.403 C  
HETATM   25  C   UNL     1     -11.445  14.325  64.707  1.00  0.00    -0.394 C  
BRANCH  24  26
HETATM   26  C   UNL     1     -11.775  14.274  68.181  1.00  0.00    -0.385 A  
HETATM   27  C   UNL     1     -11.164  15.532  68.227  1.00  0.00    -0.343 A  
HETATM   28  C   UNL     1     -10.999  16.222  69.432  1.00  0.00    -0.337 A  
HETATM   29  F   UNL     1     -10.696  16.112  67.113  1.00  0.00    -0.303 F  
HETATM   30  C   UNL     1     -11.437  15.653  70.626  1.00  0.00    -0.400 A  
HETATM   31  C   UNL     1     -12.053  14.409  70.596  1.00  0.00    -0.334 A  
HETATM   32  C   UNL     1     -12.227  13.725  69.398  1.00  0.00    -0.325 A  
HETATM   33  F   UNL     1     -12.471  13.854  71.741  1.00  0.00    -0.384 F  
ENDBRANCH  24  26
ENDBRANCH  15  21
ENDBRANCH  10  12
ENDBRANCH   8  10
ENDBRANCH   6   8
TORSDOF 5
ENDMDL
MODEL        2
REMARK 921   NORMALIZED FREE ENERGY PREDICTED BY IDOCK:   -7.57 KCAL/MOL
REMARK 922        TOTAL FREE ENERGY PREDICTED BY IDOCK:  -11.51 KCAL/MOL
REMARK 923 INTER-LIGAND FREE ENERGY PREDICTED BY IDOCK:  -10.15 KCAL/MOL
REMARK 924 INTRA-LIGAND FREE ENERGY PREDICTED BY IDOCK:   -1.36 KCAL/MOL
REMARK 927      BINDING AFFINITY PREDICTED BY RF-SCORE:    0.00 PKD
ROOT
HETATM    1  O   UNL     1     -13.722  16.223  74.059  1.00  0.00    -0.764 OA 
HETATM    2  H   UNL     1     -14.643  16.058  74.225  1.00  0.00     0.000 HD 
HETATM    3  C   UNL     1     -13.387  15.945  72.709  1.00  0.00    -0.508 C  
HETATM    4  C   UNL     1     -11.910  16.209  72.442  1.00  0.00    -0.637 C  
HETATM    5  C   UNL     1     -11.632  15.354  71.225  1.00  0.00    -0.386 C  
HETATM    6  N   UNL     1     -12.487  14.190  71.392  1.00  0.00    -0.350 N  
HETATM    7  C   UNL     1     -13.544  14.459  72.362  1.00  0.00    -0.480 C  
ENDROOT
BRANCH   6   8
HETATM    8  C   UNL     1     -12.239  13.055  70.637  1.00  0.00    -0.307 C  
HETATM    9  O   UNL     1     -12.956  12.070  70.768  1.00  0.00    -0.091 OA 
BRANCH   8  10
HETATM   10  N   UNL     1     -11.142  13.156  69.815  1.00  0.00    -0.471 N  
HETATM   11  H   UNL     1     -10.226  13.097  70.260  1.00  0.00     0.000 HD 
BRANCH  10  12
HETATM   12  C   UNL     1     -11.159  13.331  68.435  1.00  0.00    -0.270 A  
HETATM   13  C   UNL     1     -10.884  14.437  67.643  1.00  0.00    -0.273 A  
HETATM   14  N   UNL     1     -10.481  15.728  67.901  1.00  0.00    -0.263 NA 
HETATM   15  C   UNL     1     -10.402  16.565  66.897  1.00  0.00    -0.300 A  
HETATM   16  C   UNL     1     -11.475  12.304  67.517  1.00  0.00    -0.347 A  
HETATM   17  C   UNL     1     -10.621  16.148  65.469  1.00  0.00    -0.394 A  
HETATM   18  N   UNL     1     -11.456  12.700  66.250  1.00  0.00    -0.342 NA 
HETATM   19  C   UNL     1     -10.960  14.874  65.255  1.00  0.00    -0.380 A  
HETATM   20  N   UNL     1     -11.105  14.008  66.324  1.00  0.00    -0.304 NA 
BRANCH  15  21
HETATM   21  N   UNL     1     -10.093  17.893  67.086  1.00  0.00    -0.326 NA 
HETATM   22  C   UNL     1      -9.036  19.923  67.689  1.00  0.00    -0.416 C  
HETATM   23  C   UNL     1     -10.727  18.956  66.332  1.00  0.00    -0.290 C  
HETATM   24  C   UNL     1      -9.156  18.426  68.075  1.00  0.00    -0.294 C  
HETATM   25  C   UNL     1      -9.652  20.024  66.296  1.00  0.00    -0.516 C  
BRANCH  24  26
HETATM   26  C   UNL     1      -7.875  17.617  68.093  1.00  0.00    -0.257 A  
HETATM   27  C   UNL     1      -7.064  17.392  66.975  1.00  0.00    -0.183 A  
HETATM   28  C   UNL     1      -5.948  16.554  67.037  1.00  0.00    -0.157 A  
HETATM   29  F   UNL     1      -7.347  17.961  65.795  1.00  0.00    -0.306 F  
HETATM   30  C   UNL     1      -5.626  15.910  68.229  1.00  0.00    -0.109 A  
HETATM   31  C   UNL     1      -6.415  16.128  69.351  1.00  0.00    -0.185 A  
HETATM   32  C   UNL     1      -7.521  16.970  69.294  1.00  0.00    -0.092 A  
HETATM   33  F   UNL     1      -6.114  15.508  70.499  1.00  0.00    -0.149 F  
ENDBRANCH  24  26
ENDBRANCH  15  21
ENDBRANCH  10  12
ENDBRANCH   8  10
ENDBRANCH   6   8
TORSDOF 5
ENDMDL
MODEL        3
REMARK 921   NORMALIZED FREE ENERGY PREDICTED BY IDOCK:   -7.53 KCAL/MOL
REMARK 922        TOTAL FREE ENERGY PREDICTED BY IDOCK:  -11.46 KCAL/MOL
REMARK 923 INTER-LIGAND FREE ENERGY PREDICTED BY IDOCK:  -10.28 KCAL/MOL
REMARK 924 INTRA-LIGAND FREE ENERGY PREDICTED BY IDOCK:   -1.19 KCAL/MOL
REMARK 927      BINDING AFFINITY PREDICTED BY RF-SCORE:    0.00 PKD
ROOT
HETATM    1  O   UNL     1     -13.361  16.379  74.040  1.00  0.00    -0.915 OA 
HETATM    2  H   UNL     1     -12.636  16.681  74.576  1.00  0.00     0.000 HD 
HETATM    3  C   UNL     1     -12.937  15.398  73.109  1.00  0.00    -0.515 C  
HETATM    4  C   UNL     1     -14.099  14.914  72.250  1.00  0.00    -0.600 C  
HETATM    5  C   UNL     1     -13.402  14.370  71.021  1.00  0.00    -0.300 C  
HETATM    6  N   UNL     1     -12.243  15.228  70.847  1.00  0.00    -0.323 N  
HETATM    7  C   UNL     1     -11.950  15.958  72.077  1.00  0.00    -0.513 C  
ENDROOT
BRANCH   6   8
HETATM    8  C   UNL     1     -11.574  15.223  69.634  1.00  0.00    -0.321 C  
HETATM    9  O   UNL     1     -11.726  16.156  68.853  1.00  0.00    -0.357 OA 
BRANCH   8  10
HETATM   10  N   UNL     1     -10.810  14.102  69.417  1.00  0.00    -0.397 N  
HETATM   11  H   UNL     1      -9.958  14.011  69.970  1.00  0.00     0.000 HD 
BRANCH  10  12
HETATM   12  C   UNL     1     -11.086  13.078  68.517  1.00  0.00    -0.266 A  
HETATM   13  C   UNL     1     -10.792  11.722  68.546  1.00  0.00    -0.224 A  
HETATM   14  N   UNL     1     -10.162  10.894  69.448  1.00  0.00    -0.174 NA 
HETATM   15  C   UNL     1      -9.966   9.643  69.110  1.00  0.00    -0.185 A  
HETATM   16  C   UNL     1     -11.797  13.263  67.310  1.00  0.00    -0.372 A  
HETATM   17  C   UNL     1     -10.498   9.051  67.835  1.00  0.00    -0.291 A  
HETATM   18  N   UNL     1     -11.922  12.154  66.591  1.00  0.00    -0.629 NA 
HETATM   19  C   UNL     1     -11.149   9.875  67.009  1.00  0.00     0.112 A  
HETATM   20  N   UNL     1     -11.298  11.210  67.340  1.00  0.00    -0.453 NA 
BRANCH  15  21
HETATM   21  N   UNL     1      -9.267   8.777  69.918  1.00  0.00    -0.153 NA 
HETATM   22  C   UNL     1      -8.612   7.303  71.652  1.00  0.00    -0.120 C  
HETATM   23  C   UNL     1      -8.091   8.063  69.463  1.00  0.00    -0.120 C  
HETATM   24  C   UNL     1      -9.552   8.492  71.326  1.00  0.00    -0.203 C  
HETATM   25  C   UNL     1      -8.129   6.796  70.295  1.00  0.00    -0.120 C  
BRANCH  24  26
HETATM   26  C   UNL     1     -11.036   8.274  71.540  1.00  0.00    -0.312 A  
HETATM   27  C   UNL     1     -11.728   7.117  71.165  1.00  0.00    -0.313 A  
HETATM   28  C   UNL     1     -13.115   7.018  71.301  1.00  0.00    -0.329 A  
HETATM   29  F   UNL     1     -11.080   6.068  70.641  1.00  0.00    -0.320 F  
HETATM   30  C   UNL     1     -13.844   8.091  71.810  1.00  0.00    -0.452 A  
HETATM   31  C   UNL     1     -13.172   9.243  72.194  1.00  0.00    -0.461 A  
HETATM   32  C   UNL     1     -11.790   9.341  72.069  1.00  0.00    -0.370 A  
HETATM   33  F   UNL     1     -13.867  10.280  72.679  1.00  0.00    -0.284 F  
ENDBRANCH  24  26
ENDBRANCH  15  21
ENDBRANCH  10  12
ENDBRANCH   8  10
ENDBRANCH   6   8
TORSDOF 5
ENDMDL
MODEL        4
REMARK 921   NORMALIZED FREE ENERGY PREDICTED BY IDOCK:   -7.50 KCAL/MOL
REMARK 922        TOTAL FREE ENERGY PREDICTED BY IDOCK:  -11.42 KCAL/MOL
REMARK 923 INTER-LIGAND FREE ENERGY PREDICTED BY IDOCK:   -9.89 KCAL/MOL
REMARK 924 INTRA-LIGAND FREE ENERGY PREDICTED BY IDOCK:   -1.53 KCAL/MOL
REMARK 927      BINDING AFFINITY PREDICTED BY RF-SCORE:    0.00 PKD
ROOT
HETATM    1  O   UNL     1     -14.371   8.904  73.109  1.00  0.00    -1.143 OA 
HETATM    2  H   UNL     1     -14.590   8.008  73.341  1.00  0.00     0.000 HD 
HETATM    3  C   UNL     1     -13.430   8.945  72.050  1.00  0.00    -0.433 C  
HETATM    4  C   UNL     1     -13.079  10.381  71.679  1.00  0.00    -0.553 C  
HETATM    5  C   UNL     1     -11.730  10.233  71.010  1.00  0.00    -0.370 C  
HETATM    6  N   UNL     1     -11.089   9.135  71.713  1.00  0.00    -0.370 N  
HETATM    7  C   UNL     1     -12.075   8.346  72.448  1.00  0.00    -0.378 C  
ENDROOT
BRANCH   6   8
HETATM    8  C   UNL     1      -9.722   8.954  71.583  1.00  0.00    -0.309 C  
HETATM    9  O   UNL     1      -9.030   8.812  72.585  1.00  0.00    -0.380 OA 
BRANCH   8  10
HETATM   10  N   UNL     1      -9.271   8.994  70.285  1.00  0.00    -0.185 N  
HETATM   11  H   UNL     1      -9.564   8.234  69.672  1.00  0.00     0.000 HD 
BRANCH  10  12
HETATM   12  C   UNL     1      -8.453   9.971  69.727  1.00  0.00    -0.172 A  
HETATM   13  C   UNL     1      -8.713  10.969  68.799  1.00  0.00    -0.145 A  
HETATM   14  N   UNL     1      -9.836  11.378  68.116  1.00  0.00    -0.184 NA 
HETATM   15  C   UNL     1      -9.706  12.323  67.217  1.00  0.00    -0.195 A  
HETATM   16  C   UNL     1      -7.090  10.137  70.059  1.00  0.00    -0.154 A  
HETATM   17  C   UNL     1      -8.412  13.053  66.984  1.00  0.00    -0.142 A  
HETATM   18  N   UNL     1      -6.494  11.115  69.385  1.00  0.00    -0.087 NA 
HETATM   19  C   UNL     1      -7.357  12.660  67.703  1.00  0.00    -0.139 A  
HETATM   20  N   UNL     1      -7.483  11.620  68.605  1.00  0.00    -0.112 NA 
BRANCH  15  21
HETATM   21  N   UNL     1     -10.762  12.724  66.433  1.00  0.00    -0.259 NA 
HETATM   22  C   UNL     1     -12.667  13.833  65.568  1.00  0.00    -0.530 C  
HETATM   23  C   UNL     1     -10.855  12.397  65.024  1.00  0.00    -0.295 C  
HETATM   24  C   UNL     1     -11.939  13.466  66.887  1.00  0.00    -0.385 C  
HETATM   25  C   UNL     1     -11.647  13.563  64.464  1.00  0.00    -0.410 C  
BRANCH  24  26
HETATM   26  C   UNL     1     -11.536  14.613  67.791  1.00  0.00    -0.382 A  
HETATM   27  C   UNL     1     -11.846  14.694  69.153  1.00  0.00    -0.312 A  
HETATM   28  C   UNL     1     -11.531  15.826  69.910  1.00  0.00    -0.347 A  
HETATM   29  F   UNL     1     -12.479  13.689  69.776  1.00  0.00    -0.353 F  
HETATM   30  C   UNL     1     -10.903  16.913  69.308  1.00  0.00    -0.214 A  
HETATM   31  C   UNL     1     -10.580  16.847  67.959  1.00  0.00    -0.367 A  
HETATM   32  C   UNL     1     -10.884  15.717  67.206  1.00  0.00    -0.298 A  
HETATM   33  F   UNL     1      -9.981  17.891  67.372  1.00  0.00    -0.286 F  
ENDBRANCH  24  26
ENDBRANCH  15  21
ENDBRANCH  10  12
ENDBRANCH   8  10
ENDBRANCH   6   8
TORSDOF 5
ENDMDL
MODEL        5
REMARK 921   NORMALIZED FREE ENERGY PREDICTED BY IDOCK:   -7.37 KCAL/MOL
REMARK 922        TOTAL FREE ENERGY PREDICTED BY IDOCK:  -11.26 KCAL/MOL
REMARK 923 INTER-LIGAND FREE ENERGY PREDICTED BY IDOCK:   -9.82 KCAL/MOL
REMARK 924 INTRA-LIGAND FREE ENERGY PREDICTED BY IDOCK:   -1.44 KCAL/MOL
REMARK 927      BINDING AFFINITY PREDICTED BY RF-SCORE:    0.00 PKD
ROOT
HETATM    1  O   UNL     1     -13.328  15.825  70.371  1.00  0.00    -0.756 OA 
HETATM    2  H   UNL     1     -12.632  16.130  69.800  1.00  0.00     0.000 HD 
HETATM    3  C   UNL     1     -12.888  14.758  71.193  1.00  0.00    -0.341 C  
HETATM    4  C   UNL     1     -14.005  14.268  72.108  1.00  0.00    -0.618 C  
HETATM    5  C   UNL     1     -13.568  12.859  72.444  1.00  0.00    -0.478 C  
HETATM    6  N   UNL     1     -12.900  12.386  71.243  1.00  0.00    -0.313 N  
HETATM    7  C   UNL     1     -12.527  13.506  70.383  1.00  0.00    -0.275 C  
ENDROOT
BRANCH   6   8
HETATM    8  C   UNL     1     -12.676  11.028  71.084  1.00  0.00    -0.419 C  
HETATM    9  O   UNL     1     -12.787  10.277  72.046  1.00  0.00    -0.417 OA 
BRANCH   8  10
HETATM   10  N   UNL     1     -12.300  10.666  69.812  1.00  0.00    -0.517 N  
HETATM   11  H   UNL     1     -13.046  10.551  69.127  1.00  0.00     0.000 HD 
BRANCH  10  12
HETATM   12  C   UNL     1     -11.000  10.442  69.370  1.00  0.00    -0.251 A  
HETATM   13  C   UNL     1     -10.068  11.287  68.783  1.00  0.00    -0.194 A  
HETATM   14  N   UNL     1     -10.058  12.622  68.446  1.00  0.00    -0.231 NA 
HETATM   15  C   UNL     1      -9.019  13.092  67.802  1.00  0.00    -0.191 A  
HETATM   16  C   UNL     1     -10.340   9.197  69.470  1.00  0.00    -0.215 A  
HETATM   17  C   UNL     1      -7.795  12.265  67.517  1.00  0.00    -0.166 A  
HETATM   18  N   UNL     1      -9.114   9.203  68.960  1.00  0.00    -0.142 NA 
HETATM   19  C   UNL     1      -7.823  10.987  67.905  1.00  0.00    -0.110 A  
HETATM   20  N   UNL     1      -8.948  10.478  68.529  1.00  0.00    -0.140 NA 
BRANCH  15  21
HETATM   21  N   UNL     1      -8.973  14.391  67.354  1.00  0.00    -0.189 NA 
HETATM   22  C   UNL     1      -9.272  16.387  66.115  1.00  0.00    -0.365 C  
HETATM   23  C   UNL     1      -8.581  15.497  68.206  1.00  0.00    -0.161 C  
HETATM   24  C   UNL     1      -9.248  14.842  65.989  1.00  0.00    -0.140 C  
HETATM   25  C   UNL     1      -9.353  16.661  67.615  1.00  0.00    -0.224 C  
BRANCH  24  26
HETATM   26  C   UNL     1     -10.497  14.178  65.445  1.00  0.00    -0.372 A  
HETATM   27  C   UNL     1     -11.775  14.323  65.996  1.00  0.00    -0.379 A  
HETATM   28  C   UNL     1     -12.869  13.605  65.506  1.00  0.00    -0.443 A  
HETATM   29  F   UNL     1     -11.988  15.146  67.033  1.00  0.00    -0.287 F  
HETATM   30  C   UNL     1     -12.700  12.711  64.452  1.00  0.00    -0.417 A  
HETATM   31  C   UNL     1     -11.441  12.561  63.888  1.00  0.00    -0.437 A  
HETATM   32  C   UNL     1     -10.352  13.282  64.367  1.00  0.00    -0.372 A  
HETATM   33  F   UNL     1     -11.270  11.699  62.877  1.00  0.00    -0.264 F  
ENDBRANCH  24  26
ENDBRANCH  15  21
ENDBRANCH  10  12
ENDBRANCH   8  10
ENDBRANCH   6   8
TORSDOF 5
ENDMDL
MODEL        6
REMARK 921   NORMALIZED FREE ENERGY PREDICTED BY IDOCK:   -7.37 KCAL/MOL
REMARK 922        TOTAL FREE ENERGY PREDICTED BY IDOCK:  -11.26 KCAL/MOL
REMARK 923 INTER-LIGAND FREE ENERGY PREDICTED BY IDOCK:  -10.02 KCAL/MOL
REMARK 924 INTRA-LIGAND FREE ENERGY PREDICTED BY IDOCK:   -1.24 KCAL/MOL
REMARK 927      BINDING AFFINITY PREDICTED BY RF-SCORE:    0.00 PKD
ROOT
HETATM    1  O   UNL     1     -13.043  16.287  74.412  1.00  0.00    -0.930 OA 
HETATM    2  H   UNL     1     -12.253  16.313  74.939  1.00  0.00     0.000 HD 
HETATM    3  C   UNL     1     -12.863  15.482  73.259  1.00  0.00    -0.517 C  
HETATM    4  C   UNL     1     -14.130  15.439  72.412  1.00  0.00    -0.645 C  
HETATM    5  C   UNL     1     -13.604  15.068  71.042  1.00  0.00    -0.381 C  
HETATM    6  N   UNL     1     -12.299  15.704  70.965  1.00  0.00    -0.402 N  
HETATM    7  C   UNL     1     -11.819  16.064  72.296  1.00  0.00    -0.529 C  
ENDROOT
BRANCH   6   8
HETATM    8  C   UNL     1     -11.690  15.850  69.729  1.00  0.00    -0.318 C  
HETATM    9  O   UNL     1     -12.254  15.440  68.721  1.00  0.00    -0.208 OA 
BRANCH   8  10
HETATM   10  N   UNL     1     -10.446  16.432  69.782  1.00  0.00    -0.278 N  
HETATM   11  H   UNL     1     -10.348  17.256  70.374  1.00  0.00     0.000 HD 
BRANCH  10  12
HETATM   12  C   UNL     1      -9.308  16.006  69.105  1.00  0.00    -0.251 A  
HETATM   13  C   UNL     1      -8.945  14.763  68.604  1.00  0.00    -0.185 A  
HETATM   14  N   UNL     1      -9.553  13.529  68.562  1.00  0.00    -0.191 NA 
HETATM   15  C   UNL     1      -8.872  12.517  68.083  1.00  0.00    -0.191 A  
HETATM   16  C   UNL     1      -8.231  16.856  68.767  1.00  0.00    -0.244 A  
HETATM   17  C   UNL     1      -7.505  12.671  67.476  1.00  0.00    -0.155 A  
HETATM   18  N   UNL     1      -7.236  16.232  68.146  1.00  0.00    -0.139 NA 
HETATM   19  C   UNL     1      -6.969  13.895  67.490  1.00  0.00    -0.144 A  
HETATM   20  N   UNL     1      -7.666  14.948  68.054  1.00  0.00    -0.113 NA 
BRANCH  15  21
HETATM   21  N   UNL     1      -9.377  11.238  68.089  1.00  0.00    -0.174 NA 
HETATM   22  C   UNL     1     -10.659   9.292  67.672  1.00  0.00    -0.324 C  
HETATM   23  C   UNL     1      -8.622  10.104  68.583  1.00  0.00    -0.123 C  
HETATM   24  C   UNL     1     -10.721  10.841  67.668  1.00  0.00    -0.258 C  
HETATM   25  C   UNL     1      -9.172   8.955  67.761  1.00  0.00    -0.153 C  
BRANCH  24  26
HETATM   26  C   UNL     1     -11.095  11.510  66.361  1.00  0.00    -0.328 A  
HETATM   27  C   UNL     1     -10.524  11.201  65.122  1.00  0.00    -0.277 A  
HETATM   28  C   UNL     1     -10.841  11.924  63.969  1.00  0.00    -0.438 A  
HETATM   29  F   UNL     1      -9.631  10.208  65.004  1.00  0.00    -0.256 F  
HETATM   30  C   UNL     1     -11.738  12.987  64.038  1.00  0.00    -0.497 A  
HETATM   31  C   UNL     1     -12.321  13.302  65.258  1.00  0.00    -0.476 A  
HETATM   32  C   UNL     1     -12.014  12.578  66.406  1.00  0.00    -0.386 A  
HETATM   33  F   UNL     1     -13.179  14.327  65.333  1.00  0.00    -0.505 F  
ENDBRANCH  24  26
ENDBRANCH  15  21
ENDBRANCH  10  12
ENDBRANCH   8  10
ENDBRANCH   6   8
TORSDOF 5
ENDMDL
MODEL        7
REMARK 921   NORMALIZED FREE ENERGY PREDICTED BY IDOCK:   -7.35 KCAL/MOL
REMARK 922        TOTAL FREE ENERGY PREDICTED BY IDOCK:  -11.23 KCAL/MOL
REMARK 923 INTER-LIGAND FREE ENERGY PREDICTED BY IDOCK:   -9.61 KCAL/MOL
REMARK 924 INTRA-LIGAND FREE ENERGY PREDICTED BY IDOCK:   -1.62 KCAL/MOL
REMARK 927      BINDING AFFINITY PREDICTED BY RF-SCORE:    0.00 PKD
ROOT
HETATM    1  O   UNL     1     -13.419  16.160  73.913  1.00  0.00    -0.915 OA 
HETATM    2  H   UNL     1     -12.862  16.807  74.330  1.00  0.00     0.000 HD 
HETATM    3  C   UNL     1     -12.655  15.232  73.162  1.00  0.00    -0.463 C  
HETATM    4  C   UNL     1     -13.549  14.195  72.492  1.00  0.00    -0.644 C  
HETATM    5  C   UNL     1     -12.690  13.703  71.347  1.00  0.00    -0.352 C  
HETATM    6  N   UNL     1     -11.928  14.868  70.933  1.00  0.00    -0.295 N  
HETATM    7  C   UNL     1     -11.936  15.890  71.977  1.00  0.00    -0.513 C  
ENDROOT
BRANCH   6   8
HETATM    8  C   UNL     1     -11.295  14.860  69.701  1.00  0.00    -0.282 C  
HETATM    9  O   UNL     1     -10.109  15.161  69.625  1.00  0.00    -0.232 OA 
BRANCH   8  10
HETATM   10  N   UNL     1     -12.118  14.536  68.649  1.00  0.00    -0.552 N  
HETATM   11  H   UNL     1     -12.969  15.088  68.543  1.00  0.00     0.000 HD 
BRANCH  10  12
HETATM   12  C   UNL     1     -11.904  13.529  67.714  1.00  0.00    -0.362 A  
HETATM   13  C   UNL     1     -11.117  12.386  67.756  1.00  0.00    -0.247 A  
HETATM   14  N   UNL     1     -10.298  11.817  68.705  1.00  0.00    -0.205 NA 
HETATM   15  C   UNL     1      -9.611  10.752  68.374  1.00  0.00    -0.176 A  
HETATM   16  C   UNL     1     -12.526  13.488  66.446  1.00  0.00    -0.292 A  
HETATM   17  C   UNL     1      -9.766  10.064  67.046  1.00  0.00    -0.227 A  
HETATM   18  N   UNL     1     -12.155  12.450  65.706  1.00  0.00    -0.610 NA 
HETATM   19  C   UNL     1     -10.609  10.618  66.170  1.00  0.00    -0.142 A  
HETATM   20  N   UNL     1     -11.284  11.778  66.501  1.00  0.00    -0.318 NA 
BRANCH  15  21
HETATM   21  N   UNL     1      -8.706  10.178  69.236  1.00  0.00    -0.168 NA 
HETATM   22  C   UNL     1      -7.685   8.939  70.977  1.00  0.00    -0.155 C  
HETATM   23  C   UNL     1      -7.293  10.077  68.929  1.00  0.00    -0.080 C  
HETATM   24  C   UNL     1      -9.001   9.652  70.569  1.00  0.00    -0.128 C  
HETATM   25  C   UNL     1      -6.878   8.830  69.685  1.00  0.00    -0.046 C  
BRANCH  24  26
HETATM   26  C   UNL     1     -10.260   8.809  70.548  1.00  0.00    -0.240 A  
HETATM   27  C   UNL     1     -11.488   9.207  71.089  1.00  0.00    -0.318 A  
HETATM   28  C   UNL     1     -12.586   8.343  71.125  1.00  0.00    -0.156 A  
HETATM   29  F   UNL     1     -11.645  10.430  71.613  1.00  0.00    -0.351 F  
HETATM   30  C   UNL     1     -12.470   7.048  70.625  1.00  0.00    -0.173 A  
HETATM   31  C   UNL     1     -11.262   6.640  70.077  1.00  0.00    -0.369 A  
HETATM   32  C   UNL     1     -10.170   7.501  70.031  1.00  0.00    -0.215 A  
HETATM   33  F   UNL     1     -11.142   5.395  69.599  1.00  0.00    -0.381 F  
ENDBRANCH  24  26
ENDBRANCH  15  21
ENDBRANCH  10  12
ENDBRANCH   8  10
ENDBRANCH   6   8
TORSDOF 5
ENDMDL
MODEL        8
REMARK 921   NORMALIZED FREE ENERGY PREDICTED BY IDOCK:   -7.32 KCAL/MOL
REMARK 922        TOTAL FREE ENERGY PREDICTED BY IDOCK:  -11.19 KCAL/MOL
REMARK 923 INTER-LIGAND FREE ENERGY PREDICTED BY IDOCK:  -10.43 KCAL/MOL
REMARK 924 INTRA-LIGAND FREE ENERGY PREDICTED BY IDOCK:   -0.76 KCAL/MOL
REMARK 927      BINDING AFFINITY PREDICTED BY RF-SCORE:    0.00 PKD
ROOT
HETATM    1  O   UNL     1      -8.196  20.897  66.794  1.00  0.00    -0.556 OA 
HETATM    2  H   UNL     1      -7.699  21.396  67.432  1.00  0.00     0.000 HD 
HETATM    3  C   UNL     1      -9.279  20.217  67.406  1.00  0.00    -0.374 C  
HETATM    4  C   UNL     1     -10.076  19.415  66.383  1.00  0.00    -0.532 C  
HETATM    5  C   UNL     1     -10.757  18.368  67.236  1.00  0.00    -0.353 C  
HETATM    6  N   UNL     1      -9.806  18.082  68.296  1.00  0.00    -0.335 N  
HETATM    7  C   UNL     1      -8.811  19.145  68.399  1.00  0.00    -0.347 C  
ENDROOT
BRANCH   6   8
HETATM    8  C   UNL     1      -9.964  16.934  69.056  1.00  0.00    -0.265 C  
HETATM    9  O   UNL     1      -8.991  16.233  69.307  1.00  0.00    -0.244 OA 
BRANCH   8  10
HETATM   10  N   UNL     1     -11.263  16.682  69.427  1.00  0.00    -0.296 N  
HETATM   11  H   UNL     1     -11.945  17.420  69.251  1.00  0.00     0.000 HD 
BRANCH  10  12
HETATM   12  C   UNL     1     -11.739  15.517  70.019  1.00  0.00    -0.346 A  
HETATM   13  C   UNL     1     -11.565  14.179  69.691  1.00  0.00    -0.292 A  
HETATM   14  N   UNL     1     -10.865  13.513  68.711  1.00  0.00    -0.253 NA 
HETATM   15  C   UNL     1     -10.996  12.212  68.630  1.00  0.00    -0.245 A  
HETATM   16  C   UNL     1     -12.546  15.498  71.179  1.00  0.00    -0.448 A  
HETATM   17  C   UNL     1     -11.783  11.409  69.629  1.00  0.00    -0.415 A  
HETATM   18  N   UNL     1     -12.908  14.277  71.555  1.00  0.00    -0.327 NA 
HETATM   19  C   UNL     1     -12.406  12.088  70.596  1.00  0.00    -0.304 A  
HETATM   20  N   UNL     1     -12.318  13.467  70.640  1.00  0.00    -0.360 NA 
BRANCH  15  21
HETATM   21  N   UNL     1     -10.400  11.487  67.625  1.00  0.00    -0.183 NA 
HETATM   22  C   UNL     1      -9.654  10.690  65.523  1.00  0.00    -0.271 C  
HETATM   23  C   UNL     1      -9.313  10.560  67.870  1.00  0.00    -0.143 C  
HETATM   24  C   UNL     1     -10.788  11.492  66.213  1.00  0.00    -0.282 C  
HETATM   25  C   UNL     1      -8.542  10.600  66.565  1.00  0.00    -0.143 C  
BRANCH  24  26
HETATM   26  C   UNL     1     -11.023  12.907  65.726  1.00  0.00    -0.303 A  
HETATM   27  C   UNL     1     -12.145  13.317  64.997  1.00  0.00    -0.408 A  
HETATM   28  C   UNL     1     -12.255  14.615  64.491  1.00  0.00    -0.473 A  
HETATM   29  F   UNL     1     -13.148  12.466  64.741  1.00  0.00    -0.547 F  
HETATM   30  C   UNL     1     -11.228  15.533  64.698  1.00  0.00    -0.381 A  
HETATM   31  C   UNL     1     -10.111  15.145  65.426  1.00  0.00    -0.350 A  
HETATM   32  C   UNL     1     -10.003  13.856  65.939  1.00  0.00    -0.317 A  
HETATM   33  F   UNL     1      -9.117  16.021  65.624  1.00  0.00    -0.338 F  
ENDBRANCH  24  26
ENDBRANCH  15  21
ENDBRANCH  10  12
ENDBRANCH   8  10
ENDBRANCH   6   8
TORSDOF 5
ENDMDL
MODEL        9
REMARK 921   NORMALIZED FREE ENERGY PREDICTED BY IDOCK:   -7.30 KCAL/MOL
REMARK 922        TOTAL FREE ENERGY PREDICTED BY IDOCK:  -11.16 KCAL/MOL
REMARK 923 INTER-LIGAND FREE ENERGY PREDICTED BY IDOCK:   -9.77 KCAL/MOL
REMARK 924 INTRA-LIGAND FREE ENERGY PREDICTED BY IDOCK:   -1.39 KCAL/MOL
REMARK 927      BINDING AFFINITY PREDICTED BY RF-SCORE:    0.00 PKD
ROOT
HETATM    1  O   UNL     1      -7.637   8.811  72.603  1.00  0.00    -0.353 OA 
HETATM    2  H   UNL     1      -7.156   9.038  71.816  1.00  0.00     0.000 HD 
HETATM    3  C   UNL     1      -8.875   8.197  72.290  1.00  0.00    -0.186 C  
HETATM    4  C   UNL     1      -9.647   7.834  73.553  1.00  0.00    -0.332 C  
HETATM    5  C   UNL     1     -11.076   7.754  73.061  1.00  0.00    -0.359 C  
HETATM    6  N   UNL     1     -11.163   8.766  72.022  1.00  0.00    -0.364 N  
HETATM    7  C   UNL     1      -9.832   9.148  71.559  1.00  0.00    -0.265 C  
ENDROOT
BRANCH   6   8
HETATM    8  C   UNL     1     -12.410   9.192  71.595  1.00  0.00    -0.360 C  
HETATM    9  O   UNL     1     -13.405   8.913  72.253  1.00  0.00    -0.396 OA 
BRANCH   8  10
HETATM   10  N   UNL     1     -12.391   9.879  70.404  1.00  0.00    -0.483 N  
HETATM   11  H   UNL     1     -12.433   9.323  69.551  1.00  0.00     0.000 HD 
BRANCH  10  12
HETATM   12  C   UNL     1     -12.322  11.260  70.251  1.00  0.00    -0.307 A  
HETATM   13  C   UNL     1     -12.158  12.054  69.125  1.00  0.00    -0.183 A  
HETATM   14  N   UNL     1     -12.029  11.799  67.779  1.00  0.00    -0.600 NA 
HETATM   15  C   UNL     1     -11.790  12.807  66.976  1.00  0.00    -0.361 A  
HETATM   16  C   UNL     1     -12.435  12.175  71.322  1.00  0.00    -0.185 A  
HETATM   17  C   UNL     1     -11.763  14.234  67.447  1.00  0.00    -0.422 A  
HETATM   18  N   UNL     1     -12.313  13.445  70.950  1.00  0.00    -0.375 NA 
HETATM   19  C   UNL     1     -11.943  14.445  68.753  1.00  0.00    -0.295 A  
HETATM   20  N   UNL     1     -12.132  13.374  69.607  1.00  0.00    -0.310 NA 
BRANCH  15  21
HETATM   21  N   UNL     1     -11.561  12.621  65.632  1.00  0.00    -0.356 NA 
HETATM   22  C   UNL     1     -10.633  12.013  63.541  1.00  0.00    -0.514 C  
HETATM   23  C   UNL     1     -12.612  12.728  64.640  1.00  0.00    -0.419 C  
HETATM   24  C   UNL     1     -10.265  12.352  65.009  1.00  0.00    -0.283 C  
HETATM   25  C   UNL     1     -12.142  11.781  63.554  1.00  0.00    -0.485 C  
BRANCH  24  26
HETATM   26  C   UNL     1      -9.502  11.299  65.787  1.00  0.00    -0.252 A  
HETATM   27  C   UNL     1      -8.469  11.575  66.689  1.00  0.00    -0.172 A  
HETATM   28  C   UNL     1      -7.739  10.553  67.301  1.00  0.00    -0.106 A  
HETATM   29  F   UNL     1      -8.131  12.839  66.983  1.00  0.00    -0.170 F  
HETATM   30  C   UNL     1      -8.024   9.221  67.008  1.00  0.00    -0.102 A  
HETATM   31  C   UNL     1      -9.052   8.929  66.121  1.00  0.00    -0.203 A  
HETATM   32  C   UNL     1      -9.787   9.945  65.518  1.00  0.00    -0.381 A  
HETATM   33  F   UNL     1      -9.328   7.651  65.830  1.00  0.00    -0.192 F  
ENDBRANCH  24  26
ENDBRANCH  15  21
ENDBRANCH  10  12
ENDBRANCH   8  10
ENDBRANCH   6   8
TORSDOF 5
ENDMDL
MODEL       10
REMARK 921   NORMALIZED FREE ENERGY PREDICTED BY IDOCK:   -7.25 KCAL/MOL
REMARK 922        TOTAL FREE ENERGY PREDICTED BY IDOCK:  -11.10 KCAL/MOL
REMARK 923 INTER-LIGAND FREE ENERGY PREDICTED BY IDOCK:   -9.59 KCAL/MOL
REMARK 924 INTRA-LIGAND FREE ENERGY PREDICTED BY IDOCK:   -1.50 KCAL/MOL
REMARK 927      BINDING AFFINITY PREDICTED BY RF-SCORE:    0.00 PKD
ROOT
HETATM    1  O   UNL     1     -13.524  10.699  72.416  1.00  0.00    -0.603 OA 
HETATM    2  H   UNL     1     -12.852  11.193  72.870  1.00  0.00     0.000 HD 
HETATM    3  C   UNL     1     -13.245   9.310  72.441  1.00  0.00    -0.426 C  
HETATM    4  C   UNL     1     -14.324   8.517  71.712  1.00  0.00    -0.522 C  
HETATM    5  C   UNL     1     -13.608   7.235  71.347  1.00  0.00    -0.311 C  
HETATM    6  N   UNL     1     -12.236   7.641  71.090  1.00  0.00    -0.306 N  
HETATM    7  C   UNL     1     -11.969   8.955  71.667  1.00  0.00    -0.345 C  
ENDROOT
BRANCH   6   8
HETATM    8  C   UNL     1     -11.392   6.779  70.410  1.00  0.00    -0.347 C  
HETATM    9  O   UNL     1     -11.060   5.719  70.928  1.00  0.00    -0.268 OA 
BRANCH   8  10
HETATM   10  N   UNL     1     -10.973   7.250  69.189  1.00  0.00    -0.414 N  
HETATM   11  H   UNL     1     -11.494   6.936  68.370  1.00  0.00     0.000 HD 
BRANCH  10  12
HETATM   12  C   UNL     1      -9.906   8.114  68.961  1.00  0.00    -0.176 A  
HETATM   13  C   UNL     1      -9.779   9.223  68.136  1.00  0.00    -0.150 A  
HETATM   14  N   UNL     1     -10.628   9.885  67.278  1.00  0.00    -0.258 NA 
HETATM   15  C   UNL     1     -10.143  10.870  66.563  1.00  0.00    -0.222 A  
HETATM   16  C   UNL     1      -8.655   8.005  69.609  1.00  0.00    -0.135 A  
HETATM   17  C   UNL     1      -8.737  11.377  66.723  1.00  0.00    -0.174 A  
HETATM   18  N   UNL     1      -7.774   8.919  69.220  1.00  0.00    -0.092 NA 
HETATM   19  C   UNL     1      -7.959  10.740  67.603  1.00  0.00    -0.110 A  
HETATM   20  N   UNL     1      -8.456   9.660  68.310  1.00  0.00    -0.118 NA 
BRANCH  15  21
HETATM   21  N   UNL     1     -10.904  11.521  65.620  1.00  0.00    -0.272 NA 
HETATM   22  C   UNL     1     -12.346  13.029  64.500  1.00  0.00    -0.461 C  
HETATM   23  C   UNL     1     -10.710  11.335  64.196  1.00  0.00    -0.369 C  
HETATM   24  C   UNL     1     -12.022  12.427  65.892  1.00  0.00    -0.367 C  
HETATM   25  C   UNL     1     -11.149  12.668  63.623  1.00  0.00    -0.496 C  
BRANCH  24  26
HETATM   26  C   UNL     1     -11.668  13.402  66.996  1.00  0.00    -0.426 A  
HETATM   27  C   UNL     1     -11.903  13.175  68.357  1.00  0.00    -0.351 A  
HETATM   28  C   UNL     1     -11.644  14.156  69.318  1.00  0.00    -0.350 A  
HETATM   29  F   UNL     1     -12.407  12.009  68.783  1.00  0.00    -0.307 F  
HETATM   30  C   UNL     1     -11.150  15.399  68.928  1.00  0.00    -0.275 A  
HETATM   31  C   UNL     1     -10.903  15.637  67.583  1.00  0.00    -0.307 A  
HETATM   32  C   UNL     1     -11.151  14.659  66.626  1.00  0.00    -0.334 A  
HETATM   33  F   UNL     1     -10.434  16.832  67.202  1.00  0.00    -0.303 F  
ENDBRANCH  24  26
ENDBRANCH  15  21
ENDBRANCH  10  12
ENDBRANCH   8  10
ENDBRANCH   6   8
TORSDOF 5
ENDMDL
MODEL       11
REMARK 921   NORMALIZED FREE ENERGY PREDICTED BY IDOCK:   -7.24 KCAL/MOL
REMARK 922        TOTAL FREE ENERGY PREDICTED BY IDOCK:  -11.08 KCAL/MOL
REMARK 923 INTER-LIGAND FREE ENERGY PREDICTED BY IDOCK:   -9.47 KCAL/MOL
REMARK 924 INTRA-LIGAND FREE ENERGY PREDICTED BY IDOCK:   -1.61 KCAL/MOL
REMARK 927      BINDING AFFINITY PREDICTED BY RF-SCORE:    0.00 PKD
ROOT
HETATM    1  O   UNL     1     -14.177   8.951  73.346  1.00  0.00    -1.241 OA 
HETATM    2  H   UNL     1     -14.413   8.043  73.496  1.00  0.00     0.000 HD 
HETATM    3  C   UNL     1     -13.497   9.107  72.112  1.00  0.00    -0.469 C  
HETATM    4  C   UNL     1     -13.118  10.564  71.870  1.00  0.00    -0.567 C  
HETATM    5  C   UNL     1     -11.971  10.453  70.890  1.00  0.00    -0.377 C  
HETATM    6  N   UNL     1     -11.284   9.229  71.267  1.00  0.00    -0.324 N  
HETATM    7  C   UNL     1     -12.142   8.388  72.095  1.00  0.00    -0.373 C  
ENDROOT
BRANCH   6   8
HETATM    8  C   UNL     1     -10.001   9.001  70.797  1.00  0.00    -0.245 C  
HETATM    9  O   UNL     1      -9.037   9.338  71.475  1.00  0.00    -0.315 OA 
BRANCH   8  10
HETATM   10  N   UNL     1      -9.953   8.431  69.547  1.00  0.00    -0.186 N  
HETATM   11  H   UNL     1     -10.582   7.648  69.374  1.00  0.00     0.000 HD 
BRANCH  10  12
HETATM   12  C   UNL     1      -9.129   8.819  68.496  1.00  0.00    -0.138 A  
HETATM   13  C   UNL     1      -9.300   9.762  67.491  1.00  0.00    -0.133 A  
HETATM   14  N   UNL     1     -10.296  10.657  67.172  1.00  0.00    -0.216 NA 
HETATM   15  C   UNL     1     -10.173  11.355  66.070  1.00  0.00    -0.245 A  
HETATM   16  C   UNL     1      -7.846   8.276  68.261  1.00  0.00    -0.118 A  
HETATM   17  C   UNL     1      -8.944  11.302  65.205  1.00  0.00    -0.047 A  
HETATM   18  N   UNL     1      -7.246   8.774  67.186  1.00  0.00    -0.079 NA 
HETATM   19  C   UNL     1      -7.977  10.458  65.576  1.00  0.00    -0.153 A  
HETATM   20  N   UNL     1      -8.138   9.676  66.706  1.00  0.00    -0.112 NA 
BRANCH  15  21
HETATM   21  N   UNL     1     -11.166  12.203  65.638  1.00  0.00    -0.324 NA 
HETATM   22  C   UNL     1     -12.618  14.050  65.345  1.00  0.00    -0.529 C  
HETATM   23  C   UNL     1     -11.840  12.031  64.366  1.00  0.00    -0.313 C  
HETATM   24  C   UNL     1     -11.716  13.336  66.384  1.00  0.00    -0.373 C  
HETATM   25  C   UNL     1     -12.221  13.452  63.997  1.00  0.00    -0.466 C  
BRANCH  24  26
HETATM   26  C   UNL     1     -10.608  14.156  67.012  1.00  0.00    -0.276 A  
HETATM   27  C   UNL     1     -10.412  14.298  68.390  1.00  0.00    -0.249 A  
HETATM   28  C   UNL     1      -9.430  15.149  68.905  1.00  0.00    -0.213 A  
HETATM   29  F   UNL     1     -11.177  13.634  69.266  1.00  0.00    -0.264 F  
HETATM   30  C   UNL     1      -8.627  15.890  68.041  1.00  0.00    -0.164 A  
HETATM   31  C   UNL     1      -8.803  15.755  66.671  1.00  0.00    -0.288 A  
HETATM   32  C   UNL     1      -9.772  14.901  66.155  1.00  0.00    -0.333 A  
HETATM   33  F   UNL     1      -8.038  16.468  65.835  1.00  0.00    -0.341 F  
ENDBRANCH  24  26
ENDBRANCH  15  21
ENDBRANCH  10  12
ENDBRANCH   8  10
ENDBRANCH   6   8
TORSDOF 5
ENDMDL
MODEL       12
REMARK 921   NORMALIZED FREE ENERGY PREDICTED BY IDOCK:   -7.19 KCAL/MOL
REMARK 922        TOTAL FREE ENERGY PREDICTED BY IDOCK:  -11.03 KCAL/MOL
REMARK 923 INTER-LIGAND FREE ENERGY PREDICTED BY IDOCK:   -9.48 KCAL/MOL
REMARK 924 INTRA-LIGAND FREE ENERGY PREDICTED BY IDOCK:   -1.54 KCAL/MOL
REMARK 927      BINDING AFFINITY PREDICTED BY RF-SCORE:    0.00 PKD
ROOT
HETATM    1  O   UNL     1     -12.404  14.038  62.985  1.00  0.00    -1.101 OA 
HETATM    2  H   UNL     1     -11.834  14.517  62.393  1.00  0.00     0.000 HD 
HETATM    3  C   UNL     1     -11.709  13.638  64.154  1.00  0.00    -0.386 C  
HETATM    4  C   UNL     1     -12.623  12.870  65.103  1.00  0.00    -0.536 C  
HETATM    5  C   UNL     1     -11.644  12.069  65.934  1.00  0.00    -0.300 C  
HETATM    6  N   UNL     1     -10.560  11.752  65.021  1.00  0.00    -0.277 N  
HETATM    7  C   UNL     1     -10.592  12.630  63.854  1.00  0.00    -0.428 C  
ENDROOT
BRANCH   6   8
HETATM    8  C   UNL     1      -9.664  10.751  65.357  1.00  0.00    -0.245 C  
HETATM    9  O   UNL     1     -10.065   9.603  65.511  1.00  0.00    -0.290 OA 
BRANCH   8  10
HETATM   10  N   UNL     1      -8.371  11.187  65.524  1.00  0.00    -0.366 N  
HETATM   11  H   UNL     1      -7.767  11.165  64.702  1.00  0.00     0.000 HD 
BRANCH  10  12
HETATM   12  C   UNL     1      -7.806  11.656  66.705  1.00  0.00    -0.130 A  
HETATM   13  C   UNL     1      -7.956  12.857  67.385  1.00  0.00    -0.178 A  
HETATM   14  N   UNL     1      -8.708  13.992  67.177  1.00  0.00    -0.219 NA 
HETATM   15  C   UNL     1      -8.536  15.007  67.988  1.00  0.00    -0.158 A  
HETATM   16  C   UNL     1      -6.908  10.907  67.498  1.00  0.00    -0.079 A  
HETATM   17  C   UNL     1      -7.642  14.942  69.195  1.00  0.00    -0.160 A  
HETATM   18  N   UNL     1      -6.471  11.561  68.569  1.00  0.00    -0.052 NA 
HETATM   19  C   UNL     1      -6.968  13.806  69.391  1.00  0.00     0.002 A  
HETATM   20  N   UNL     1      -7.104  12.759  68.497  1.00  0.00    -0.096 NA 
BRANCH  15  21
HETATM   21  N   UNL     1      -9.184  16.204  67.793  1.00  0.00    -0.202 NA 
HETATM   22  C   UNL     1     -10.760  17.971  67.802  1.00  0.00    -0.350 C  
HETATM   23  C   UNL     1      -8.486  17.414  67.405  1.00  0.00    -0.206 C  
HETATM   24  C   UNL     1     -10.627  16.428  67.888  1.00  0.00    -0.320 C  
HETATM   25  C   UNL     1      -9.346  18.504  68.016  1.00  0.00    -0.321 C  
BRANCH  24  26
HETATM   26  C   UNL     1     -11.195  15.758  69.123  1.00  0.00    -0.322 A  
HETATM   27  C   UNL     1     -11.918  14.560  69.111  1.00  0.00    -0.309 A  
HETATM   28  C   UNL     1     -12.500  14.045  70.273  1.00  0.00    -0.403 A  
HETATM   29  F   UNL     1     -12.094  13.874  67.974  1.00  0.00    -0.374 F  
HETATM   30  C   UNL     1     -12.377  14.733  71.477  1.00  0.00    -0.404 A  
HETATM   31  C   UNL     1     -11.656  15.919  71.508  1.00  0.00    -0.465 A  
HETATM   32  C   UNL     1     -11.067  16.429  70.356  1.00  0.00    -0.246 A  
HETATM   33  F   UNL     1     -11.539  16.589  72.662  1.00  0.00    -0.565 F  
ENDBRANCH  24  26
ENDBRANCH  15  21
ENDBRANCH  10  12
ENDBRANCH   8  10
ENDBRANCH   6   8
TORSDOF 5
ENDMDL
MODEL       13
REMARK 921   NORMALIZED FREE ENERGY PREDICTED BY IDOCK:   -7.16 KCAL/MOL
REMARK 922        TOTAL FREE ENERGY PREDICTED BY IDOCK:  -10.98 KCAL/MOL
REMARK 923 INTER-LIGAND FREE ENERGY PREDICTED BY IDOCK:   -9.35 KCAL/MOL
REMARK 924 INTRA-LIGAND FREE ENERGY PREDICTED BY IDOCK:   -1.64 KCAL/MOL
REMARK 927      BINDING AFFINITY PREDICTED BY RF-SCORE:    0.00 PKD
ROOT
HETATM    1  O   UNL     1     -13.306  15.723  70.496  1.00  0.00    -0.767 OA 
HETATM    2  H   UNL     1     -12.574  16.099  70.020  1.00  0.00     0.000 HD 
HETATM    3  C   UNL     1     -12.895  14.611  71.272  1.00  0.00    -0.335 C  
HETATM    4  C   UNL     1     -14.068  14.008  72.036  1.00  0.00    -0.600 C  
HETATM    5  C   UNL     1     -13.601  12.593  72.303  1.00  0.00    -0.409 C  
HETATM    6  N   UNL     1     -12.803  12.244  71.140  1.00  0.00    -0.279 N  
HETATM    7  C   UNL     1     -12.404  13.443  70.408  1.00  0.00    -0.312 C  
ENDROOT
BRANCH   6   8
HETATM    8  C   UNL     1     -12.504  10.913  70.900  1.00  0.00    -0.408 C  
HETATM    9  O   UNL     1     -13.408  10.089  70.837  1.00  0.00    -0.382 OA 
BRANCH   8  10
HETATM   10  N   UNL     1     -11.159  10.651  70.791  1.00  0.00    -0.333 N  
HETATM   11  H   UNL     1     -10.592  10.801  71.626  1.00  0.00     0.000 HD 
BRANCH  10  12
HETATM   12  C   UNL     1     -10.496  10.201  69.654  1.00  0.00    -0.252 A  
HETATM   13  C   UNL     1     -10.567  10.603  68.328  1.00  0.00    -0.194 A  
HETATM   14  N   UNL     1     -11.271  11.575  67.654  1.00  0.00    -0.260 NA 
HETATM   15  C   UNL     1     -11.169  11.623  66.348  1.00  0.00    -0.287 A  
HETATM   16  C   UNL     1      -9.531   9.169  69.664  1.00  0.00    -0.172 A  
HETATM   17  C   UNL     1     -10.232  10.740  65.572  1.00  0.00    -0.330 A  
HETATM   18  N   UNL     1      -9.046   8.884  68.461  1.00  0.00    -0.137 NA 
HETATM   19  C   UNL     1      -9.527   9.843  66.268  1.00  0.00    -0.193 A  
HETATM   20  N   UNL     1      -9.686   9.753  67.639  1.00  0.00    -0.152 NA 
BRANCH  15  21
HETATM   21  N   UNL     1     -11.909  12.507  65.598  1.00  0.00    -0.424 NA 
HETATM   22  C   UNL     1     -12.888  14.460  64.686  1.00  0.00     0.078 C  
HETATM   23  C   UNL     1     -12.489  12.148  64.319  1.00  0.00    -0.363 C  
HETATM   24  C   UNL     1     -12.261  13.876  65.978  1.00  0.00    -0.462 C  
HETATM   25  C   UNL     1     -12.515  13.474  63.583  1.00  0.00    -0.278 C  
BRANCH  24  26
HETATM   26  C   UNL     1     -11.059  14.602  66.548  1.00  0.00    -0.329 A  
HETATM   27  C   UNL     1      -9.805  14.663  65.930  1.00  0.00    -0.330 A  
HETATM   28  C   UNL     1      -8.710  15.265  66.555  1.00  0.00    -0.314 A  
HETATM   29  F   UNL     1      -9.608  14.124  64.718  1.00  0.00    -0.166 F  
HETATM   30  C   UNL     1      -8.849  15.812  67.828  1.00  0.00    -0.173 A  
HETATM   31  C   UNL     1     -10.088  15.767  68.452  1.00  0.00    -0.222 A  
HETATM   32  C   UNL     1     -11.182  15.177  67.828  1.00  0.00    -0.327 A  
HETATM   33  F   UNL     1     -10.227  16.286  69.679  1.00  0.00    -0.238 F  
ENDBRANCH  24  26
ENDBRANCH  15  21
ENDBRANCH  10  12
ENDBRANCH   8  10
ENDBRANCH   6   8
TORSDOF 5
ENDMDL
MODEL       14
REMARK 921   NORMALIZED FREE ENERGY PREDICTED BY IDOCK:   -7.16 KCAL/MOL
REMARK 922        TOTAL FREE ENERGY PREDICTED BY IDOCK:  -10.98 KCAL/MOL
REMARK 923 INTER-LIGAND FREE ENERGY PREDICTED BY IDOCK:   -9.52 KCAL/MOL
REMARK 924 INTRA-LIGAND FREE ENERGY PREDICTED BY IDOCK:   -1.46 KCAL/MOL
REMARK 927      BINDING AFFINITY PREDICTED BY RF-SCORE:    0.00 PKD
ROOT
HETATM    1  O   UNL     1     -12.804   6.191  72.473  1.00  0.00    -0.531 OA 
HETATM    2  H   UNL     1     -12.127   5.595  72.176  1.00  0.00     0.000 HD 
HETATM    3  C   UNL     1     -13.066   7.193  71.505  1.00  0.00    -0.375 C  
HETATM    4  C   UNL     1     -14.153   8.150  71.982  1.00  0.00    -0.446 C  
HETATM    5  C   UNL     1     -13.889   9.392  71.158  1.00  0.00    -0.037 C  
HETATM    6  N   UNL     1     -12.446   9.425  70.996  1.00  0.00    -0.275 N  
HETATM    7  C   UNL     1     -11.863   8.117  71.279  1.00  0.00    -0.287 C  
ENDROOT
BRANCH   6   8
HETATM    8  C   UNL     1     -11.838  10.600  70.584  1.00  0.00    -0.363 C  
HETATM    9  O   UNL     1     -10.674  10.580  70.200  1.00  0.00    -0.268 OA 
BRANCH   8  10
HETATM   10  N   UNL     1     -12.637  11.713  70.692  1.00  0.00    -0.270 N  
HETATM   11  H   UNL     1     -13.574  11.573  71.071  1.00  0.00     0.000 HD 
BRANCH  10  12
HETATM   12  C   UNL     1     -12.293  13.013  70.335  1.00  0.00    -0.277 A  
HETATM   13  C   UNL     1     -12.001  13.583  69.104  1.00  0.00    -0.333 A  
HETATM   14  N   UNL     1     -11.963  13.112  67.811  1.00  0.00    -0.339 NA 
HETATM   15  C   UNL     1     -11.546  13.920  66.868  1.00  0.00    -0.378 A  
HETATM   16  C   UNL     1     -12.188  14.079  71.257  1.00  0.00    -0.310 A  
HETATM   17  C   UNL     1     -11.216  15.365  67.121  1.00  0.00    -0.256 A  
HETATM   18  N   UNL     1     -11.820  15.228  70.701  1.00  0.00    -0.305 NA 
HETATM   19  C   UNL     1     -11.314  15.798  68.381  1.00  0.00    -0.372 A  
HETATM   20  N   UNL     1     -11.694  14.925  69.384  1.00  0.00    -0.302 NA 
BRANCH  15  21
HETATM   21  N   UNL     1     -11.396  13.497  65.568  1.00  0.00    -0.295 NA 
HETATM   22  C   UNL     1     -10.687  12.390  63.599  1.00  0.00    -0.497 C  
HETATM   23  C   UNL     1     -12.407  13.720  64.553  1.00  0.00    -0.358 C  
HETATM   24  C   UNL     1     -10.218  12.831  65.009  1.00  0.00    -0.272 C  
HETATM   25  C   UNL     1     -12.206  12.543  63.620  1.00  0.00    -0.642 C  
BRANCH  24  26
HETATM   26  C   UNL     1      -9.725  11.742  65.940  1.00  0.00    -0.259 A  
HETATM   27  C   UNL     1      -8.668  11.893  66.845  1.00  0.00    -0.191 A  
HETATM   28  C   UNL     1      -8.196  10.820  67.605  1.00  0.00    -0.115 A  
HETATM   29  F   UNL     1      -8.056  13.076  66.997  1.00  0.00    -0.172 F  
HETATM   30  C   UNL     1      -8.773   9.560  67.465  1.00  0.00    -0.126 A  
HETATM   31  C   UNL     1      -9.828   9.394  66.578  1.00  0.00    -0.258 A  
HETATM   32  C   UNL     1     -10.306  10.463  65.827  1.00  0.00    -0.257 A  
HETATM   33  F   UNL     1     -10.384   8.184  66.434  1.00  0.00    -0.349 F  
ENDBRANCH  24  26
ENDBRANCH  15  21
ENDBRANCH  10  12
ENDBRANCH   8  10
ENDBRANCH   6   8
TORSDOF 5
ENDMDL
MODEL       15
REMARK 921   NORMALIZED FREE ENERGY PREDICTED BY IDOCK:   -7.13 KCAL/MOL
REMARK 922        TOTAL FREE ENERGY PREDICTED BY IDOCK:  -10.94 KCAL/MOL
REMARK 923 INTER-LIGAND FREE ENERGY PREDICTED BY IDOCK:   -9.24 KCAL/MOL
REMARK 924 INTRA-LIGAND FREE ENERGY PREDICTED BY IDOCK:   -1.70 KCAL/MOL
REMARK 927      BINDING AFFINITY PREDICTED BY RF-SCORE:    0.00 PKD
ROOT
HETATM    1  O   UNL     1     -12.493  13.915  63.207  1.00  0.00    -1.113 OA 
HETATM    2  H   UNL     1     -13.385  14.175  63.406  1.00  0.00     0.000 HD 
HETATM    3  C   UNL     1     -12.148  12.713  63.875  1.00  0.00    -0.487 C  
HETATM    4  C   UNL     1     -10.716  12.296  63.556  1.00  0.00    -0.497 C  
HETATM    5  C   UNL     1     -10.357  11.409  64.728  1.00  0.00    -0.294 C  
HETATM    6  N   UNL     1     -11.064  11.989  65.857  1.00  0.00    -0.313 N  
HETATM    7  C   UNL     1     -12.132  12.874  65.400  1.00  0.00    -0.454 C  
ENDROOT
BRANCH   6   8
HETATM    8  C   UNL     1     -10.695  11.630  67.143  1.00  0.00    -0.247 C  
HETATM    9  O   UNL     1      -9.525  11.354  67.385  1.00  0.00    -0.165 OA 
BRANCH   8  10
HETATM   10  N   UNL     1     -11.739  11.586  68.036  1.00  0.00    -0.299 N  
HETATM   11  H   UNL     1     -12.460  10.884  67.868  1.00  0.00     0.000 HD 
BRANCH  10  12
HETATM   12  C   UNL     1     -11.909  12.406  69.147  1.00  0.00    -0.300 A  
HETATM   13  C   UNL     1     -11.596  13.740  69.363  1.00  0.00    -0.310 A  
HETATM   14  N   UNL     1     -11.042  14.735  68.589  1.00  0.00    -0.251 NA 
HETATM   15  C   UNL     1     -10.793  15.893  69.151  1.00  0.00    -0.268 A  
HETATM   16  C   UNL     1     -12.503  11.978  70.356  1.00  0.00    -0.153 A  
HETATM   17  C   UNL     1     -11.189  16.213  70.566  1.00  0.00    -0.381 A  
HETATM   18  N   UNL     1     -12.538  12.919  71.292  1.00  0.00    -0.321 NA 
HETATM   19  C   UNL     1     -11.770  15.237  71.269  1.00  0.00    -0.372 A  
HETATM   20  N   UNL     1     -11.974  13.996  70.691  1.00  0.00    -0.321 NA 
BRANCH  15  21
HETATM   21  N   UNL     1     -10.160  16.906  68.469  1.00  0.00    -0.278 NA 
HETATM   22  C   UNL     1      -8.547  18.301  67.442  1.00  0.00    -0.250 C  
HETATM   23  C   UNL     1     -10.864  17.799  67.570  1.00  0.00    -0.211 C  
HETATM   24  C   UNL     1      -8.746  17.265  68.578  1.00  0.00    -0.273 C  
HETATM   25  C   UNL     1      -9.791  18.173  66.567  1.00  0.00    -0.362 C  
BRANCH  24  26
HETATM   26  C   UNL     1      -7.872  16.028  68.541  1.00  0.00    -0.160 A  
HETATM   27  C   UNL     1      -7.849  15.107  67.488  1.00  0.00    -0.181 A  
HETATM   28  C   UNL     1      -7.094  13.933  67.559  1.00  0.00    -0.175 A  
HETATM   29  F   UNL     1      -8.573  15.311  66.379  1.00  0.00    -0.292 F  
HETATM   30  C   UNL     1      -6.348  13.652  68.702  1.00  0.00    -0.091 A  
HETATM   31  C   UNL     1      -6.353  14.560  69.752  1.00  0.00    -0.148 A  
HETATM   32  C   UNL     1      -7.096  15.733  69.680  1.00  0.00    -0.150 A  
HETATM   33  F   UNL     1      -5.643  14.294  70.856  1.00  0.00    -0.123 F  
ENDBRANCH  24  26
ENDBRANCH  15  21
ENDBRANCH  10  12
ENDBRANCH   8  10
ENDBRANCH   6   8
TORSDOF 5
ENDMDL
MODEL       16
REMARK 921   NORMALIZED FREE ENERGY PREDICTED BY IDOCK:   -7.13 KCAL/MOL
REMARK 922        TOTAL FREE ENERGY PREDICTED BY IDOCK:  -10.94 KCAL/MOL
REMARK 923 INTER-LIGAND FREE ENERGY PREDICTED BY IDOCK:   -9.32 KCAL/MOL
REMARK 924 INTRA-LIGAND FREE ENERGY PREDICTED BY IDOCK:   -1.62 KCAL/MOL
REMARK 927      BINDING AFFINITY PREDICTED BY RF-SCORE:    0.00 PKD
ROOT
HETATM    1  O   UNL     1     -11.250   8.772  69.414  1.00  0.00    -0.440 OA 
HETATM    2  H   UNL     1     -10.998   9.093  70.272  1.00  0.00     0.000 HD 
HETATM    3  C   UNL     1     -10.122   8.631  68.568  1.00  0.00    -0.190 C  
HETATM    4  C   UNL     1     -10.525   8.116  67.191  1.00  0.00    -0.396 C  
HETATM    5  C   UNL     1      -9.378   8.569  66.315  1.00  0.00    -0.224 C  
HETATM    6  N   UNL     1      -8.955   9.835  66.890  1.00  0.00    -0.137 N  
HETATM    7  C   UNL     1      -9.454   9.976  68.255  1.00  0.00    -0.140 C  
ENDROOT
BRANCH   6   8
HETATM    8  C   UNL     1      -8.154  10.683  66.142  1.00  0.00    -0.154 C  
HETATM    9  O   UNL     1      -7.104  11.102  66.617  1.00  0.00    -0.133 OA 
BRANCH   8  10
HETATM   10  N   UNL     1      -8.671  11.003  64.910  1.00  0.00    -0.362 N  
HETATM   11  H   UNL     1      -8.145  10.691  64.094  1.00  0.00     0.000 HD 
BRANCH  10  12
HETATM   12  C   UNL     1      -9.843  11.713  64.667  1.00  0.00    -0.227 A  
HETATM   13  C   UNL     1     -10.554  12.612  65.450  1.00  0.00    -0.282 A  
HETATM   14  N   UNL     1     -10.374  13.145  66.706  1.00  0.00    -0.250 NA 
HETATM   15  C   UNL     1     -11.314  13.917  67.193  1.00  0.00    -0.327 A  
HETATM   16  C   UNL     1     -10.566  11.643  63.455  1.00  0.00    -0.435 A  
HETATM   17  C   UNL     1     -12.520  14.333  66.397  1.00  0.00    -0.287 A  
HETATM   18  N   UNL     1     -11.669  12.384  63.452  1.00  0.00    -0.481 NA 
HETATM   19  C   UNL     1     -12.633  13.835  65.162  1.00  0.00    -0.433 A  
HETATM   20  N   UNL     1     -11.670  12.970  64.676  1.00  0.00    -0.343 NA 
BRANCH  15  21
HETATM   21  N   UNL     1     -11.248  14.415  68.473  1.00  0.00    -0.253 NA 
HETATM   22  C   UNL     1     -10.730  15.693  70.398  1.00  0.00    -0.336 C  
HETATM   23  C   UNL     1     -12.245  14.111  69.481  1.00  0.00    -0.305 C  
HETATM   24  C   UNL     1     -10.178  15.252  69.018  1.00  0.00    -0.239 C  
HETATM   25  C   UNL     1     -12.217  15.346  70.359  1.00  0.00    -0.430 C  
BRANCH  24  26
HETATM   26  C   UNL     1      -9.806  16.351  68.044  1.00  0.00    -0.238 A  
HETATM   27  C   UNL     1      -8.627  16.376  67.290  1.00  0.00    -0.181 A  
HETATM   28  C   UNL     1      -8.297  17.468  66.483  1.00  0.00    -0.304 A  
HETATM   29  F   UNL     1      -7.761  15.354  67.335  1.00  0.00    -0.146 F  
HETATM   30  C   UNL     1      -9.145  18.571  66.423  1.00  0.00    -0.276 A  
HETATM   31  C   UNL     1     -10.322  18.560  67.158  1.00  0.00    -0.399 A  
HETATM   32  C   UNL     1     -10.658  17.470  67.955  1.00  0.00    -0.390 A  
HETATM   33  F   UNL     1     -11.139  19.621  67.110  1.00  0.00    -0.581 F  
ENDBRANCH  24  26
ENDBRANCH  15  21
ENDBRANCH  10  12
ENDBRANCH   8  10
ENDBRANCH   6   8
TORSDOF 5
ENDMDL
MODEL       17
REMARK 921   NORMALIZED FREE ENERGY PREDICTED BY IDOCK:   -7.08 KCAL/MOL
REMARK 922        TOTAL FREE ENERGY PREDICTED BY IDOCK:  -10.88 KCAL/MOL
REMARK 923 INTER-LIGAND FREE ENERGY PREDICTED BY IDOCK:   -9.94 KCAL/MOL
REMARK 924 INTRA-LIGAND FREE ENERGY PREDICTED BY IDOCK:   -0.94 KCAL/MOL
REMARK 927      BINDING AFFINITY PREDICTED BY RF-SCORE:    0.00 PKD
ROOT
HETATM    1  O   UNL     1     -13.514  16.033  73.964  1.00  0.00    -0.836 OA 
HETATM    2  H   UNL     1     -14.274  15.681  74.411  1.00  0.00     0.000 HD 
HETATM    3  C   UNL     1     -13.476  15.616  72.610  1.00  0.00    -0.566 C  
HETATM    4  C   UNL     1     -12.256  16.181  71.892  1.00  0.00    -0.497 C  
HETATM    5  C   UNL     1     -12.074  15.221  70.736  1.00  0.00    -0.351 C  
HETATM    6  N   UNL     1     -12.491  13.932  71.260  1.00  0.00    -0.359 N  
HETATM    7  C   UNL     1     -13.292  14.100  72.470  1.00  0.00    -0.518 C  
ENDROOT
BRANCH   6   8
HETATM    8  C   UNL     1     -12.138  12.778  70.579  1.00  0.00    -0.285 C  
HETATM    9  O   UNL     1     -12.733  11.731  70.808  1.00  0.00    -0.262 OA 
BRANCH   8  10
HETATM   10  N   UNL     1     -11.085  12.939  69.711  1.00  0.00    -0.466 N  
HETATM   11  H   UNL     1     -10.157  12.706  70.064  1.00  0.00     0.000 HD 
BRANCH  10  12
HETATM   12  C   UNL     1     -11.162  13.389  68.397  1.00  0.00    -0.279 A  
HETATM   13  C   UNL     1     -10.293  14.157  67.634  1.00  0.00    -0.241 A  
HETATM   14  N   UNL     1      -9.061  14.727  67.862  1.00  0.00    -0.180 NA 
HETATM   15  C   UNL     1      -8.547  15.488  66.927  1.00  0.00    -0.256 A  
HETATM   16  C   UNL     1     -12.237  13.097  67.528  1.00  0.00    -0.116 A  
HETATM   17  C   UNL     1      -9.191  15.673  65.581  1.00  0.00    -0.113 A  
HETATM   18  N   UNL     1     -12.116  13.651  66.327  1.00  0.00    -0.419 NA 
HETATM   19  C   UNL     1     -10.362  15.062  65.381  1.00  0.00    -0.383 A  
HETATM   20  N   UNL     1     -10.932  14.310  66.392  1.00  0.00    -0.307 NA 
BRANCH  15  21
HETATM   21  N   UNL     1      -7.363  16.163  67.115  1.00  0.00    -0.194 NA 
HETATM   22  C   UNL     1      -5.711  17.840  67.374  1.00  0.00    -0.162 C  
HETATM   23  C   UNL     1      -6.191  15.536  67.693  1.00  0.00    -0.149 C  
HETATM   24  C   UNL     1      -7.090  17.548  66.728  1.00  0.00    -0.211 C  
HETATM   25  C   UNL     1      -5.489  16.699  68.365  1.00  0.00    -0.121 C  
BRANCH  24  26
HETATM   26  C   UNL     1      -8.239  18.453  67.123  1.00  0.00    -0.248 A  
HETATM   27  C   UNL     1      -8.693  18.630  68.435  1.00  0.00    -0.333 A  
HETATM   28  C   UNL     1      -9.821  19.402  68.721  1.00  0.00    -0.530 A  
HETATM   29  F   UNL     1      -8.067  18.042  69.464  1.00  0.00     0.055 F  
HETATM   30  C   UNL     1     -10.530  20.010  67.688  1.00  0.00    -0.476 A  
HETATM   31  C   UNL     1     -10.089  19.852  66.381  1.00  0.00    -0.499 A  
HETATM   32  C   UNL     1      -8.960  19.091  66.094  1.00  0.00    -0.202 A  
HETATM   33  F   UNL     1     -10.769  20.429  65.382  1.00  0.00    -0.439 F  
ENDBRANCH  24  26
ENDBRANCH  15  21
ENDBRANCH  10  12
ENDBRANCH   8  10
ENDBRANCH   6   8
TORSDOF 5
ENDMDL
MODEL       18
REMARK 921   NORMALIZED FREE ENERGY PREDICTED BY IDOCK:   -7.08 KCAL/MOL
REMARK 922        TOTAL FREE ENERGY PREDICTED BY IDOCK:  -10.88 KCAL/MOL
REMARK 923 INTER-LIGAND FREE ENERGY PREDICTED BY IDOCK:   -9.64 KCAL/MOL
REMARK 924 INTRA-LIGAND FREE ENERGY PREDICTED BY IDOCK:   -1.24 KCAL/MOL
REMARK 927      BINDING AFFINITY PREDICTED BY RF-SCORE:    0.00 PKD
ROOT
HETATM    1  O   UNL     1     -11.684  16.025  63.675  1.00  0.00    -1.184 OA 
HETATM    2  H   UNL     1     -11.330  16.749  64.179  1.00  0.00     0.000 HD 
HETATM    3  C   UNL     1     -11.835  14.867  64.478  1.00  0.00    -0.396 C  
HETATM    4  C   UNL     1     -12.402  13.705  63.669  1.00  0.00    -0.328 C  
HETATM    5  C   UNL     1     -11.960  12.497  64.466  1.00  0.00    -0.404 C  
HETATM    6  N   UNL     1     -10.668  12.873  65.016  1.00  0.00    -0.294 N  
HETATM    7  C   UNL     1     -10.490  14.321  64.976  1.00  0.00    -0.435 C  
ENDROOT
BRANCH   6   8
HETATM    8  C   UNL     1      -9.833  11.886  65.515  1.00  0.00    -0.232 C  
HETATM    9  O   UNL     1      -9.098  11.270  64.753  1.00  0.00    -0.142 OA 
BRANCH   8  10
HETATM   10  N   UNL     1      -9.958  11.676  66.868  1.00  0.00    -0.200 N  
HETATM   11  H   UNL     1      -9.629  10.780  67.227  1.00  0.00     0.000 HD 
BRANCH  10  12
HETATM   12  C   UNL     1     -10.488  12.568  67.795  1.00  0.00    -0.220 A  
HETATM   13  C   UNL     1     -10.001  13.762  68.308  1.00  0.00    -0.243 A  
HETATM   14  N   UNL     1      -8.865  14.508  68.093  1.00  0.00    -0.170 NA 
HETATM   15  C   UNL     1      -8.669  15.569  68.836  1.00  0.00    -0.206 A  
HETATM   16  C   UNL     1     -11.746  12.398  68.417  1.00  0.00    -0.336 A  
HETATM   17  C   UNL     1      -9.683  16.066  69.829  1.00  0.00    -0.064 A  
HETATM   18  N   UNL     1     -12.041  13.356  69.288  1.00  0.00    -0.297 NA 
HETATM   19  C   UNL     1     -10.796  15.342  69.973  1.00  0.00    -0.305 A  
HETATM   20  N   UNL     1     -10.970  14.187  69.232  1.00  0.00    -0.242 NA 
BRANCH  15  21
HETATM   21  N   UNL     1      -7.517  16.315  68.742  1.00  0.00    -0.182 NA 
HETATM   22  C   UNL     1      -5.919  17.985  68.233  1.00  0.00    -0.173 C  
HETATM   23  C   UNL     1      -6.398  16.138  69.646  1.00  0.00    -0.192 C  
HETATM   24  C   UNL     1      -7.225  17.325  67.724  1.00  0.00    -0.159 C  
HETATM   25  C   UNL     1      -5.777  17.521  69.681  1.00  0.00    -0.231 C  
BRANCH  24  26
HETATM   26  C   UNL     1      -8.418  18.235  67.513  1.00  0.00    -0.252 A  
HETATM   27  C   UNL     1      -8.832  19.220  68.417  1.00  0.00    -0.352 A  
HETATM   28  C   UNL     1      -9.999  19.960  68.209  1.00  0.00    -0.552 A  
HETATM   29  F   UNL     1      -8.129  19.472  69.529  1.00  0.00    -0.308 F  
HETATM   30  C   UNL     1     -10.787  19.717  67.086  1.00  0.00    -0.467 A  
HETATM   31  C   UNL     1     -10.387  18.750  66.175  1.00  0.00    -0.448 A  
HETATM   32  C   UNL     1      -9.220  18.019  66.374  1.00  0.00    -0.256 A  
HETATM   33  F   UNL     1     -11.143  18.507  65.096  1.00  0.00    -0.364 F  
ENDBRANCH  24  26
ENDBRANCH  15  21
ENDBRANCH  10  12
ENDBRANCH   8  10
ENDBRANCH   6   8
TORSDOF 5
ENDMDL
MODEL       19
REMARK 921   NORMALIZED FREE ENERGY PREDICTED BY IDOCK:   -7.05 KCAL/MOL
REMARK 922        TOTAL FREE ENERGY PREDICTED BY IDOCK:  -10.84 KCAL/MOL
REMARK 923 INTER-LIGAND FREE ENERGY PREDICTED BY IDOCK:  -10.24 KCAL/MOL
REMARK 924 INTRA-LIGAND FREE ENERGY PREDICTED BY IDOCK:   -0.60 KCAL/MOL
REMARK 927      BINDING AFFINITY PREDICTED BY RF-SCORE:    0.00 PKD
ROOT
HETATM    1  O   UNL     1      -9.412  20.887  67.309  1.00  0.00    -0.613 OA 
HETATM    2  H   UNL     1      -9.494  21.518  68.014  1.00  0.00     0.000 HD 
HETATM    3  C   UNL     1     -10.368  19.848  67.436  1.00  0.00    -0.426 C  
HETATM    4  C   UNL     1     -10.236  18.835  66.305  1.00  0.00    -0.466 C  
HETATM    5  C   UNL     1     -10.872  17.593  66.892  1.00  0.00    -0.032 C  
HETATM    6  N   UNL     1     -10.546  17.648  68.307  1.00  0.00    -0.367 N  
HETATM    7  C   UNL     1     -10.144  18.997  68.693  1.00  0.00    -0.382 C  
ENDROOT
BRANCH   6   8
HETATM    8  C   UNL     1     -10.683  16.505  69.077  1.00  0.00    -0.332 C  
HETATM    9  O   UNL     1      -9.690  15.977  69.563  1.00  0.00    -0.253 OA 
BRANCH   8  10
HETATM   10  N   UNL     1     -11.976  16.050  69.182  1.00  0.00    -0.395 N  
HETATM   11  H   UNL     1     -12.650  16.418  68.511  1.00  0.00     0.000 HD 
BRANCH  10  12
HETATM   12  C   UNL     1     -12.455  15.136  70.115  1.00  0.00    -0.318 A  
HETATM   13  C   UNL     1     -12.302  13.760  70.218  1.00  0.00    -0.337 A  
HETATM   14  N   UNL     1     -11.629  12.810  69.484  1.00  0.00    -0.289 NA 
HETATM   15  C   UNL     1     -11.776  11.550  69.816  1.00  0.00    -0.353 A  
HETATM   16  C   UNL     1     -13.240  15.493  71.233  1.00  0.00    -0.515 A  
HETATM   17  C   UNL     1     -12.554  11.113  71.026  1.00  0.00    -0.503 A  
HETATM   18  N   UNL     1     -13.609  14.456  71.977  1.00  0.00    -0.384 NA 
HETATM   19  C   UNL     1     -13.151  12.069  71.742  1.00  0.00    -0.355 A  
HETATM   20  N   UNL     1     -13.045  13.392  71.352  1.00  0.00    -0.323 NA 
BRANCH  15  21
HETATM   21  N   UNL     1     -11.208  10.538  69.078  1.00  0.00    -0.248 NA 
HETATM   22  C   UNL     1     -10.258   9.241  67.340  1.00  0.00    -0.304 C  
HETATM   23  C   UNL     1     -10.553   9.399  69.691  1.00  0.00    -0.225 C  
HETATM   24  C   UNL     1     -11.220  10.424  67.619  1.00  0.00    -0.213 C  
HETATM   25  C   UNL     1      -9.515   9.016  68.654  1.00  0.00    -0.149 C  
BRANCH  24  26
HETATM   26  C   UNL     1     -10.882  11.752  66.973  1.00  0.00    -0.306 A  
HETATM   27  C   UNL     1      -9.677  12.439  67.160  1.00  0.00    -0.207 A  
HETATM   28  C   UNL     1      -9.466  13.708  66.614  1.00  0.00    -0.285 A  
HETATM   29  F   UNL     1      -8.688  11.907  67.891  1.00  0.00    -0.141 F  
HETATM   30  C   UNL     1     -10.471  14.324  65.872  1.00  0.00    -0.315 A  
HETATM   31  C   UNL     1     -11.670  13.653  65.670  1.00  0.00    -0.342 A  
HETATM   32  C   UNL     1     -11.879  12.386  66.204  1.00  0.00    -0.442 A  
HETATM   33  F   UNL     1     -12.643  14.241  64.963  1.00  0.00    -0.422 F  
ENDBRANCH  24  26
ENDBRANCH  15  21
ENDBRANCH  10  12
ENDBRANCH   8  10
ENDBRANCH   6   8
TORSDOF 5
ENDMDL
MODEL       20
REMARK 921   NORMALIZED FREE ENERGY PREDICTED BY IDOCK:   -7.04 KCAL/MOL
REMARK 922        TOTAL FREE ENERGY PREDICTED BY IDOCK:  -10.83 KCAL/MOL
REMARK 923 INTER-LIGAND FREE ENERGY PREDICTED BY IDOCK:   -9.37 KCAL/MOL
REMARK 924 INTRA-LIGAND FREE ENERGY PREDICTED BY IDOCK:   -1.46 KCAL/MOL
REMARK 927      BINDING AFFINITY PREDICTED BY RF-SCORE:    0.00 PKD
ROOT
HETATM    1  O   UNL     1     -11.582  16.230  63.706  1.00  0.00    -1.539 OA 
HETATM    2  H   UNL     1     -11.116  17.046  63.562  1.00  0.00     0.000 HD 
HETATM    3  C   UNL     1     -11.534  15.847  65.070  1.00  0.00    -0.079 C  
HETATM    4  C   UNL     1     -12.280  14.538  65.302  1.00  0.00    -0.321 C  
HETATM    5  C   UNL     1     -11.659  14.020  66.581  1.00  0.00    -0.382 C  
HETATM    6  N   UNL     1     -10.273  14.452  66.516  1.00  0.00    -0.268 N  
HETATM    7  C   UNL     1     -10.109  15.523  65.538  1.00  0.00    -0.373 C  
ENDROOT
BRANCH   6   8
HETATM    8  C   UNL     1      -9.342  13.865  67.358  1.00  0.00    -0.228 C  
HETATM    9  O   UNL     1      -9.154  14.332  68.475  1.00  0.00    -0.194 OA 
BRANCH   8  10
HETATM   10  N   UNL     1      -8.677  12.798  66.802  1.00  0.00    -0.368 N  
HETATM   11  H   UNL     1      -7.700  12.945  66.548  1.00  0.00     0.000 HD 
BRANCH  10  12
HETATM   12  C   UNL     1      -9.206  11.536  66.553  1.00  0.00    -0.194 A  
HETATM   13  C   UNL     1      -9.381  10.432  67.375  1.00  0.00    -0.145 A  
HETATM   14  N   UNL     1      -9.131  10.173  68.704  1.00  0.00    -0.137 NA 
HETATM   15  C   UNL     1      -9.336   8.958  69.149  1.00  0.00    -0.148 A  
HETATM   16  C   UNL     1      -9.722  11.134  65.300  1.00  0.00    -0.241 A  
HETATM   17  C   UNL     1      -9.935   7.870  68.301  1.00  0.00    -0.204 A  
HETATM   18  N   UNL     1     -10.152   9.878  65.281  1.00  0.00    -0.263 NA 
HETATM   19  C   UNL     1     -10.211   8.175  67.030  1.00  0.00    -0.308 A  
HETATM   20  N   UNL     1      -9.935   9.441  66.547  1.00  0.00    -0.251 NA 
BRANCH  15  21
HETATM   21  N   UNL     1      -9.026   8.600  70.440  1.00  0.00    -0.149 NA 
HETATM   22  C   UNL     1      -9.099   8.184  72.770  1.00  0.00    -0.328 C  
HETATM   23  C   UNL     1      -7.918   7.722  70.762  1.00  0.00    -0.101 C  
HETATM   24  C   UNL     1      -9.702   9.070  71.650  1.00  0.00    -0.276 C  
HETATM   25  C   UNL     1      -8.387   7.049  72.037  1.00  0.00    -0.106 C  
BRANCH  24  26
HETATM   26  C   UNL     1     -11.206   9.029  71.476  1.00  0.00    -0.418 A  
HETATM   27  C   UNL     1     -11.987  10.119  71.077  1.00  0.00    -0.378 A  
HETATM   28  C   UNL     1     -13.382  10.043  71.031  1.00  0.00    -0.334 A  
HETATM   29  F   UNL     1     -11.420  11.287  70.743  1.00  0.00    -0.354 F  
HETATM   30  C   UNL     1     -14.027   8.864  71.399  1.00  0.00    -0.299 A  
HETATM   31  C   UNL     1     -13.267   7.771  71.790  1.00  0.00    -0.318 A  
HETATM   32  C   UNL     1     -11.878   7.841  71.827  1.00  0.00    -0.328 A  
HETATM   33  F   UNL     1     -13.882   6.636  72.150  1.00  0.00    -0.332 F  
ENDBRANCH  24  26
ENDBRANCH  15  21
ENDBRANCH  10  12
ENDBRANCH   8  10
ENDBRANCH   6   8
TORSDOF 5
ENDMDL
MODEL       21
REMARK 921   NORMALIZED FREE ENERGY PREDICTED BY IDOCK:   -7.00 KCAL/MOL
REMARK 922        TOTAL FREE ENERGY PREDICTED BY IDOCK:  -10.77 KCAL/MOL
REMARK 923 INTER-LIGAND FREE ENERGY PREDICTED BY IDOCK:   -9.19 KCAL/MOL
REMARK 924 INTRA-LIGAND FREE ENERGY PREDICTED BY IDOCK:   -1.58 KCAL/MOL
REMARK 927      BINDING AFFINITY PREDICTED BY RF-SCORE:    0.00 PKD
ROOT
HETATM    1  O   UNL     1      -9.997   4.238  69.859  1.00  0.00    -0.221 OA 
HETATM    2  H   UNL     1      -9.675   3.811  70.645  1.00  0.00     0.000 HD 
HETATM    3  C   UNL     1      -9.810   5.642  69.925  1.00  0.00    -0.189 C  
HETATM    4  C   UNL     1     -10.327   6.326  68.664  1.00  0.00    -0.243 C  
HETATM    5  C   UNL     1     -10.577   7.743  69.133  1.00  0.00    -0.183 C  
HETATM    6  N   UNL     1     -11.008   7.603  70.514  1.00  0.00    -0.246 N  
HETATM    7  C   UNL     1     -10.640   6.291  71.039  1.00  0.00    -0.238 C  
ENDROOT
BRANCH   6   8
HETATM    8  C   UNL     1     -11.638   8.667  71.137  1.00  0.00    -0.281 C  
HETATM    9  O   UNL     1     -11.548   8.799  72.353  1.00  0.00    -0.352 OA 
BRANCH   8  10
HETATM   10  N   UNL     1     -12.357   9.471  70.286  1.00  0.00    -0.456 N  
HETATM   11  H   UNL     1     -13.002   9.005  69.647  1.00  0.00     0.000 HD 
BRANCH  10  12
HETATM   12  C   UNL     1     -12.292  10.859  70.211  1.00  0.00    -0.330 A  
HETATM   13  C   UNL     1     -12.119  11.715  69.133  1.00  0.00    -0.251 A  
HETATM   14  N   UNL     1     -11.973  11.536  67.776  1.00  0.00    -0.637 NA 
HETATM   15  C   UNL     1     -11.728  12.587  67.033  1.00  0.00    -0.367 A  
HETATM   16  C   UNL     1     -12.422  11.713  71.329  1.00  0.00    -0.266 A  
HETATM   17  C   UNL     1     -11.714  13.987  67.583  1.00  0.00    -0.412 A  
HETATM   18  N   UNL     1     -12.301  13.001  71.030  1.00  0.00    -0.322 NA 
HETATM   19  C   UNL     1     -11.910  14.124  68.897  1.00  0.00    -0.347 A  
HETATM   20  N   UNL     1     -12.104  13.006  69.687  1.00  0.00    -0.278 NA 
BRANCH  15  21
HETATM   21  N   UNL     1     -11.483  12.478  65.684  1.00  0.00    -0.342 NA 
HETATM   22  C   UNL     1     -10.525  11.995  63.574  1.00  0.00    -0.505 C  
HETATM   23  C   UNL     1     -12.525  12.627  64.687  1.00  0.00    -0.466 C  
HETATM   24  C   UNL     1     -10.177  12.258  65.061  1.00  0.00    -0.285 C  
HETATM   25  C   UNL     1     -12.031  11.745  63.557  1.00  0.00    -0.484 C  
BRANCH  24  26
HETATM   26  C   UNL     1      -9.409  11.173  65.790  1.00  0.00    -0.238 A  
HETATM   27  C   UNL     1      -8.369  11.411  66.694  1.00  0.00    -0.172 A  
HETATM   28  C   UNL     1      -7.635  10.364  67.257  1.00  0.00    -0.095 A  
HETATM   29  F   UNL     1      -8.026  12.661  67.035  1.00  0.00    -0.165 F  
HETATM   30  C   UNL     1      -7.926   9.046  66.914  1.00  0.00    -0.105 A  
HETATM   31  C   UNL     1      -8.961   8.791  66.024  1.00  0.00    -0.192 A  
HETATM   32  C   UNL     1      -9.699   9.832  65.469  1.00  0.00    -0.382 A  
HETATM   33  F   UNL     1      -9.243   7.527  65.685  1.00  0.00    -0.139 F  
ENDBRANCH  24  26
ENDBRANCH  15  21
ENDBRANCH  10  12
ENDBRANCH   8  10
ENDBRANCH   6   8
TORSDOF 5
ENDMDL
MODEL       22
REMARK 921   NORMALIZED FREE ENERGY PREDICTED BY IDOCK:   -6.94 KCAL/MOL
REMARK 922        TOTAL FREE ENERGY PREDICTED BY IDOCK:  -10.69 KCAL/MOL
REMARK 923 INTER-LIGAND FREE ENERGY PREDICTED BY IDOCK:  -10.43 KCAL/MOL
REMARK 924 INTRA-LIGAND FREE ENERGY PREDICTED BY IDOCK:   -0.26 KCAL/MOL
REMARK 927      BINDING AFFINITY PREDICTED BY RF-SCORE:    0.00 PKD
ROOT
HETATM    1  O   UNL     1     -12.759  16.368  74.537  1.00  0.00    -0.878 OA 
HETATM    2  H   UNL     1     -12.002  16.156  75.072  1.00  0.00     0.000 HD 
HETATM    3  C   UNL     1     -12.908  15.446  73.471  1.00  0.00    -0.552 C  
HETATM    4  C   UNL     1     -14.122  15.788  72.613  1.00  0.00    -0.482 C  
HETATM    5  C   UNL     1     -13.796  15.121  71.294  1.00  0.00    -0.472 C  
HETATM    6  N   UNL     1     -12.352  15.227  71.175  1.00  0.00    -0.327 N  
HETATM    7  C   UNL     1     -11.746  15.513  72.472  1.00  0.00    -0.468 C  
ENDROOT
BRANCH   6   8
HETATM    8  C   UNL     1     -11.758  15.022  69.941  1.00  0.00    -0.307 C  
HETATM    9  O   UNL     1     -10.867  15.773  69.563  1.00  0.00    -0.240 OA 
BRANCH   8  10
HETATM   10  N   UNL     1     -12.288  13.971  69.230  1.00  0.00    -0.472 N  
HETATM   11  H   UNL     1     -12.928  14.203  68.472  1.00  0.00     0.000 HD 
BRANCH  10  12
HETATM   12  C   UNL     1     -12.035  12.620  69.446  1.00  0.00    -0.260 A  
HETATM   13  C   UNL     1     -11.426  11.659  68.652  1.00  0.00    -0.290 A  
HETATM   14  N   UNL     1     -10.840  11.671  67.406  1.00  0.00    -0.236 NA 
HETATM   15  C   UNL     1     -10.435  10.533  66.899  1.00  0.00    -0.246 A  
HETATM   16  C   UNL     1     -12.374  11.938  70.636  1.00  0.00    -0.313 A  
HETATM   17  C   UNL     1     -10.479   9.239  67.665  1.00  0.00    -0.325 A  
HETATM   18  N   UNL     1     -12.064  10.646  70.615  1.00  0.00    -0.332 NA 
HETATM   19  C   UNL     1     -11.008   9.278  68.891  1.00  0.00    -0.017 A  
HETATM   20  N   UNL     1     -11.493  10.470  69.397  1.00  0.00    -0.260 NA 
BRANCH  15  21
HETATM   21  N   UNL     1      -9.921  10.451  65.626  1.00  0.00    -0.257 NA 
HETATM   22  C   UNL     1      -9.418  10.825  63.343  1.00  0.00    -0.345 C  
HETATM   23  C   UNL     1      -8.714   9.710  65.318  1.00  0.00    -0.160 C  
HETATM   24  C   UNL     1     -10.516  11.027  64.419  1.00  0.00    -0.354 C  
HETATM   25  C   UNL     1      -8.158  10.463  64.125  1.00  0.00    -0.095 C  
BRANCH  24  26
HETATM   26  C   UNL     1     -10.976  12.448  64.673  1.00  0.00    -0.344 A  
HETATM   27  C   UNL     1     -12.300  12.884  64.553  1.00  0.00    -0.417 A  
HETATM   28  C   UNL     1     -12.644  14.230  64.704  1.00  0.00    -0.277 A  
HETATM   29  F   UNL     1     -13.286  12.022  64.267  1.00  0.00    -0.509 F  
HETATM   30  C   UNL     1     -11.656  15.176  64.970  1.00  0.00    -0.294 A  
HETATM   31  C   UNL     1     -10.338  14.759  65.100  1.00  0.00    -0.410 A  
HETATM   32  C   UNL     1      -9.995  13.418  64.959  1.00  0.00    -0.179 A  
HETATM   33  F   UNL     1      -9.383  15.664  65.349  1.00  0.00    -0.311 F  
ENDBRANCH  24  26
ENDBRANCH  15  21
ENDBRANCH  10  12
ENDBRANCH   8  10
ENDBRANCH   6   8
TORSDOF 5
ENDMDL
MODEL       23
REMARK 921   NORMALIZED FREE ENERGY PREDICTED BY IDOCK:   -6.93 KCAL/MOL
REMARK 922        TOTAL FREE ENERGY PREDICTED BY IDOCK:  -10.69 KCAL/MOL
REMARK 923 INTER-LIGAND FREE ENERGY PREDICTED BY IDOCK:   -9.79 KCAL/MOL
REMARK 924 INTRA-LIGAND FREE ENERGY PREDICTED BY IDOCK:   -0.90 KCAL/MOL
REMARK 927      BINDING AFFINITY PREDICTED BY RF-SCORE:    0.00 PKD
ROOT
HETATM    1  O   UNL     1     -14.146   8.849  73.332  1.00  0.00    -1.256 OA 
HETATM    2  H   UNL     1     -14.356   7.929  73.437  1.00  0.00     0.000 HD 
HETATM    3  C   UNL     1     -13.450   9.082  72.119  1.00  0.00    -0.459 C  
HETATM    4  C   UNL     1     -13.112  10.559  71.951  1.00  0.00    -0.567 C  
HETATM    5  C   UNL     1     -11.945  10.527  70.988  1.00  0.00    -0.364 C  
HETATM    6  N   UNL     1     -11.228   9.308  71.320  1.00  0.00    -0.324 N  
HETATM    7  C   UNL     1     -12.074   8.404  72.094  1.00  0.00    -0.373 C  
ENDROOT
BRANCH   6   8
HETATM    8  C   UNL     1      -9.931   9.141  70.864  1.00  0.00    -0.288 C  
HETATM    9  O   UNL     1      -9.303   8.134  71.173  1.00  0.00    -0.145 OA 
BRANCH   8  10
HETATM   10  N   UNL     1      -9.460  10.191  70.112  1.00  0.00    -0.387 N  
HETATM   11  H   UNL     1      -8.855  10.862  70.585  1.00  0.00     0.000 HD 
BRANCH  10  12
HETATM   12  C   UNL     1      -9.729  10.427  68.768  1.00  0.00    -0.183 A  
HETATM   13  C   UNL     1      -9.707  11.594  68.016  1.00  0.00    -0.182 A  
HETATM   14  N   UNL     1      -9.403  12.908  68.289  1.00  0.00    -0.210 NA 
HETATM   15  C   UNL     1      -9.581  13.796  67.342  1.00  0.00    -0.229 A  
HETATM   16  C   UNL     1     -10.088   9.416  67.849  1.00  0.00    -0.194 A  
HETATM   17  C   UNL     1      -9.995  13.425  65.945  1.00  0.00    -0.287 A  
HETATM   18  N   UNL     1     -10.326   9.871  66.624  1.00  0.00    -0.224 NA 
HETATM   19  C   UNL     1     -10.232  12.132  65.706  1.00  0.00    -0.254 A  
HETATM   20  N   UNL     1     -10.104  11.206  66.725  1.00  0.00    -0.211 NA 
BRANCH  15  21
HETATM   21  N   UNL     1      -9.384  15.139  67.564  1.00  0.00    -0.196 NA 
HETATM   22  C   UNL     1      -9.577  17.379  68.307  1.00  0.00    -0.292 C  
HETATM   23  C   UNL     1      -8.114  15.793  67.316  1.00  0.00    -0.188 C  
HETATM   24  C   UNL     1     -10.396  16.095  68.016  1.00  0.00    -0.271 C  
HETATM   25  C   UNL     1      -8.120  16.924  68.326  1.00  0.00    -0.217 C  
BRANCH  24  26
HETATM   26  C   UNL     1     -11.206  15.521  69.161  1.00  0.00    -0.300 A  
HETATM   27  C   UNL     1     -12.221  14.570  69.014  1.00  0.00    -0.180 A  
HETATM   28  C   UNL     1     -12.997  14.154  70.099  1.00  0.00     0.039 A  
HETATM   29  F   UNL     1     -12.497  14.038  67.815  1.00  0.00    -0.342 F  
HETATM   30  C   UNL     1     -12.776  14.697  71.362  1.00  0.00    -0.403 A  
HETATM   31  C   UNL     1     -11.767  15.636  71.527  1.00  0.00    -0.433 A  
HETATM   32  C   UNL     1     -10.986  16.045  70.451  1.00  0.00    -0.347 A  
HETATM   33  F   UNL     1     -11.553  16.167  72.738  1.00  0.00    -0.525 F  
ENDBRANCH  24  26
ENDBRANCH  15  21
ENDBRANCH  10  12
ENDBRANCH   8  10
ENDBRANCH   6   8
TORSDOF 5
ENDMDL
MODEL       24
REMARK 921   NORMALIZED FREE ENERGY PREDICTED BY IDOCK:   -6.90 KCAL/MOL
REMARK 922        TOTAL FREE ENERGY PREDICTED BY IDOCK:  -10.65 KCAL/MOL
REMARK 923 INTER-LIGAND FREE ENERGY PREDICTED BY IDOCK:   -9.49 KCAL/MOL
REMARK 924 INTRA-LIGAND FREE ENERGY PREDICTED BY IDOCK:   -1.16 KCAL/MOL
REMARK 927      BINDING AFFINITY PREDICTED BY RF-SCORE:    0.00 PKD
ROOT
HETATM    1  O   UNL     1      -5.172  19.781  70.316  1.00  0.00    -0.192 OA 
HETATM    2  H   UNL     1      -5.392  19.194  71.030  1.00  0.00     0.000 HD 
HETATM    3  C   UNL     1      -6.301  20.042  69.500  1.00  0.00    -0.344 C  
HETATM    4  C   UNL     1      -5.948  20.983  68.354  1.00  0.00    -0.349 C  
HETATM    5  C   UNL     1      -7.026  20.688  67.334  1.00  0.00    -0.344 C  
HETATM    6  N   UNL     1      -7.303  19.270  67.493  1.00  0.00    -0.229 N  
HETATM    7  C   UNL     1      -6.804  18.786  68.777  1.00  0.00    -0.285 C  
ENDROOT
BRANCH   6   8
HETATM    8  C   UNL     1      -7.992  18.599  66.496  1.00  0.00    -0.278 C  
HETATM    9  O   UNL     1      -7.384  18.163  65.525  1.00  0.00    -0.543 OA 
BRANCH   8  10
HETATM   10  N   UNL     1      -9.349  18.529  66.701  1.00  0.00    -0.301 N  
HETATM   11  H   UNL     1      -9.924  19.223  66.223  1.00  0.00     0.000 HD 
BRANCH  10  12
HETATM   12  C   UNL     1     -10.016  17.604  67.497  1.00  0.00    -0.322 A  
HETATM   13  C   UNL     1     -10.473  16.321  67.232  1.00  0.00    -0.300 A  
HETATM   14  N   UNL     1     -10.426  15.491  66.134  1.00  0.00    -0.301 NA 
HETATM   15  C   UNL     1     -11.057  14.344  66.196  1.00  0.00    -0.330 A  
HETATM   16  C   UNL     1     -10.357  17.833  68.849  1.00  0.00    -0.300 A  
HETATM   17  C   UNL     1     -11.728  13.850  67.448  1.00  0.00    -0.422 A  
HETATM   18  N   UNL     1     -11.014  16.823  69.410  1.00  0.00    -0.252 NA 
HETATM   19  C   UNL     1     -11.707  14.663  68.508  1.00  0.00    -0.316 A  
HETATM   20  N   UNL     1     -11.096  15.900  68.419  1.00  0.00    -0.328 NA 
BRANCH  15  21
HETATM   21  N   UNL     1     -11.131  13.501  65.112  1.00  0.00    -0.307 NA 
HETATM   22  C   UNL     1     -10.882  11.681  63.619  1.00  0.00    -0.503 C  
HETATM   23  C   UNL     1     -12.157  13.627  64.095  1.00  0.00    -0.435 C  
HETATM   24  C   UNL     1     -10.194  12.423  64.793  1.00  0.00    -0.279 C  
HETATM   25  C   UNL     1     -12.318  12.200  63.608  1.00  0.00    -0.673 C  
BRANCH  24  26
HETATM   26  C   UNL     1      -9.873  11.606  66.028  1.00  0.00    -0.258 A  
HETATM   27  C   UNL     1      -8.825  11.886  66.912  1.00  0.00    -0.197 A  
HETATM   28  C   UNL     1      -8.521  11.036  67.979  1.00  0.00    -0.129 A  
HETATM   29  F   UNL     1      -8.061  12.975  66.750  1.00  0.00    -0.123 F  
HETATM   30  C   UNL     1      -9.262   9.873  68.176  1.00  0.00    -0.131 A  
HETATM   31  C   UNL     1     -10.310   9.585  67.314  1.00  0.00    -0.255 A  
HETATM   32  C   UNL     1     -10.622  10.434  66.257  1.00  0.00    -0.180 A  
HETATM   33  F   UNL     1     -11.023   8.465  67.494  1.00  0.00    -0.286 F  
ENDBRANCH  24  26
ENDBRANCH  15  21
ENDBRANCH  10  12
ENDBRANCH   8  10
ENDBRANCH   6   8
TORSDOF 5
ENDMDL
MODEL       25
REMARK 921   NORMALIZED FREE ENERGY PREDICTED BY IDOCK:   -6.88 KCAL/MOL
REMARK 922        TOTAL FREE ENERGY PREDICTED BY IDOCK:  -10.62 KCAL/MOL
REMARK 923 INTER-LIGAND FREE ENERGY PREDICTED BY IDOCK:   -9.20 KCAL/MOL
REMARK 924 INTRA-LIGAND FREE ENERGY PREDICTED BY IDOCK:   -1.42 KCAL/MOL
REMARK 927      BINDING AFFINITY PREDICTED BY RF-SCORE:    0.00 PKD
ROOT
HETATM    1  O   UNL     1      -7.864  10.822  63.067  1.00  0.00    -0.332 OA 
HETATM    2  H   UNL     1      -7.832  11.050  62.146  1.00  0.00     0.000 HD 
HETATM    3  C   UNL     1      -9.195  10.576  63.489  1.00  0.00    -0.274 C  
HETATM    4  C   UNL     1      -9.247  10.210  64.968  1.00  0.00    -0.266 C  
HETATM    5  C   UNL     1     -10.672  10.550  65.347  1.00  0.00     0.032 C  
HETATM    6  N   UNL     1     -11.004  11.705  64.529  1.00  0.00    -0.318 N  
HETATM    7  C   UNL     1     -10.076  11.829  63.409  1.00  0.00    -0.446 C  
ENDROOT
BRANCH   6   8
HETATM    8  C   UNL     1     -12.105  12.475  64.863  1.00  0.00    -0.440 C  
HETATM    9  O   UNL     1     -13.228  12.102  64.542  1.00  0.00    -0.724 OA 
BRANCH   8  10
HETATM   10  N   UNL     1     -11.796  13.646  65.513  1.00  0.00    -0.345 N  
HETATM   11  H   UNL     1     -11.615  14.463  64.930  1.00  0.00     0.000 HD 
BRANCH  10  12
HETATM   12  C   UNL     1     -11.706  13.825  66.890  1.00  0.00    -0.395 A  
HETATM   13  C   UNL     1     -11.360  14.930  67.654  1.00  0.00    -0.337 A  
HETATM   14  N   UNL     1     -11.010  16.229  67.363  1.00  0.00    -0.236 NA 
HETATM   15  C   UNL     1     -10.644  17.010  68.350  1.00  0.00    -0.375 A  
HETATM   16  C   UNL     1     -11.997  12.815  67.834  1.00  0.00    -0.266 A  
HETATM   17  C   UNL     1     -10.699  16.582  69.790  1.00  0.00    -0.298 A  
HETATM   18  N   UNL     1     -11.819  13.196  69.093  1.00  0.00    -0.312 NA 
HETATM   19  C   UNL     1     -11.094  15.329  70.035  1.00  0.00    -0.287 A  
HETATM   20  N   UNL     1     -11.418  14.489  68.986  1.00  0.00    -0.273 NA 
BRANCH  15  21
HETATM   21  N   UNL     1     -10.195  18.291  68.129  1.00  0.00    -0.371 NA 
HETATM   22  C   UNL     1      -8.848  20.217  67.843  1.00  0.00    -0.294 C  
HETATM   23  C   UNL     1     -11.010  19.303  67.486  1.00  0.00    -0.316 C  
HETATM   24  C   UNL     1      -8.899  18.833  68.540  1.00  0.00    -0.345 C  
HETATM   25  C   UNL     1      -9.976  20.185  66.815  1.00  0.00    -0.604 C  
BRANCH  24  26
HETATM   26  C   UNL     1      -7.783  17.860  68.218  1.00  0.00    -0.279 A  
HETATM   27  C   UNL     1      -7.478  17.404  66.931  1.00  0.00    -0.209 A  
HETATM   28  C   UNL     1      -6.500  16.430  66.713  1.00  0.00    -0.051 A  
HETATM   29  F   UNL     1      -8.133  17.874  65.860  1.00  0.00    -0.254 F  
HETATM   30  C   UNL     1      -5.810  15.882  67.791  1.00  0.00    -0.166 A  
HETATM   31  C   UNL     1      -6.094  16.329  69.074  1.00  0.00    -0.142 A  
HETATM   32  C   UNL     1      -7.061  17.305  69.293  1.00  0.00    -0.155 A  
HETATM   33  F   UNL     1      -5.439  15.802  70.116  1.00  0.00    -0.123 F  
ENDBRANCH  24  26
ENDBRANCH  15  21
ENDBRANCH  10  12
ENDBRANCH   8  10
ENDBRANCH   6   8
TORSDOF 5
ENDMDL
MODEL       26
REMARK 921   NORMALIZED FREE ENERGY PREDICTED BY IDOCK:   -6.84 KCAL/MOL
REMARK 922        TOTAL FREE ENERGY PREDICTED BY IDOCK:  -10.56 KCAL/MOL
REMARK 923 INTER-LIGAND FREE ENERGY PREDICTED BY IDOCK:   -8.81 KCAL/MOL
REMARK 924 INTRA-LIGAND FREE ENERGY PREDICTED BY IDOCK:   -1.76 KCAL/MOL
REMARK 927      BINDING AFFINITY PREDICTED BY RF-SCORE:    0.00 PKD
ROOT
HETATM    1  O   UNL     1     -12.510  13.597  63.159  1.00  0.00    -1.033 OA 
HETATM    2  H   UNL     1     -12.587  14.100  62.356  1.00  0.00     0.000 HD 
HETATM    3  C   UNL     1     -12.532  14.441  64.297  1.00  0.00    -0.272 C  
HETATM    4  C   UNL     1     -12.409  13.634  65.585  1.00  0.00    -0.518 C  
HETATM    5  C   UNL     1     -11.884  14.655  66.571  1.00  0.00    -0.304 C  
HETATM    6  N   UNL     1     -11.028  15.523  65.779  1.00  0.00    -0.313 N  
HETATM    7  C   UNL     1     -11.318  15.377  64.355  1.00  0.00    -0.238 C  
ENDROOT
BRANCH   6   8
HETATM    8  C   UNL     1     -10.128  16.355  66.423  1.00  0.00    -0.316 C  
HETATM    9  O   UNL     1      -9.549  17.231  65.790  1.00  0.00    -0.528 OA 
BRANCH   8  10
HETATM   10  N   UNL     1      -9.950  16.067  67.755  1.00  0.00    -0.232 N  
HETATM   11  H   UNL     1     -10.675  16.387  68.397  1.00  0.00     0.000 HD 
BRANCH  10  12
HETATM   12  C   UNL     1      -8.877  15.381  68.314  1.00  0.00    -0.176 A  
HETATM   13  C   UNL     1      -8.422  14.082  68.137  1.00  0.00    -0.172 A  
HETATM   14  N   UNL     1      -8.823  13.020  67.357  1.00  0.00    -0.193 NA 
HETATM   15  C   UNL     1      -8.208  11.873  67.507  1.00  0.00    -0.155 A  
HETATM   16  C   UNL     1      -7.970  15.955  69.233  1.00  0.00    -0.229 A  
HETATM   17  C   UNL     1      -7.017  11.699  68.408  1.00  0.00    -0.079 A  
HETATM   18  N   UNL     1      -7.037  15.110  69.657  1.00  0.00    -0.190 NA 
HETATM   19  C   UNL     1      -6.626  12.766  69.110  1.00  0.00    -0.101 A  
HETATM   20  N   UNL     1      -7.317  13.959  68.996  1.00  0.00    -0.092 NA 
BRANCH  15  21
HETATM   21  N   UNL     1      -8.609  10.745  66.830  1.00  0.00    -0.133 NA 
HETATM   22  C   UNL     1      -9.591   8.676  66.227  1.00  0.00    -0.322 C  
HETATM   23  C   UNL     1      -8.572  10.648  65.384  1.00  0.00    -0.179 C  
HETATM   24  C   UNL     1      -9.065   9.493  67.436  1.00  0.00    -0.130 C  
HETATM   25  C   UNL     1      -9.704   9.685  65.086  1.00  0.00    -0.287 C  
BRANCH  24  26
HETATM   26  C   UNL     1     -10.045   9.765  68.559  1.00  0.00    -0.185 A  
HETATM   27  C   UNL     1     -11.187  10.564  68.437  1.00  0.00    -0.279 A  
HETATM   28  C   UNL     1     -11.996  10.856  69.539  1.00  0.00    -0.401 A  
HETATM   29  F   UNL     1     -11.532  11.096  67.257  1.00  0.00    -0.353 F  
HETATM   30  C   UNL     1     -11.668  10.357  70.797  1.00  0.00    -0.464 A  
HETATM   31  C   UNL     1     -10.543   9.556  70.934  1.00  0.00    -0.325 A  
HETATM   32  C   UNL     1      -9.740   9.256  69.838  1.00  0.00    -0.220 A  
HETATM   33  F   UNL     1     -10.218   9.078  72.142  1.00  0.00    -0.386 F  
ENDBRANCH  24  26
ENDBRANCH  15  21
ENDBRANCH  10  12
ENDBRANCH   8  10
ENDBRANCH   6   8
TORSDOF 5
ENDMDL
MODEL       27
REMARK 921   NORMALIZED FREE ENERGY PREDICTED BY IDOCK:   -6.83 KCAL/MOL
REMARK 922        TOTAL FREE ENERGY PREDICTED BY IDOCK:  -10.56 KCAL/MOL
REMARK 923 INTER-LIGAND FREE ENERGY PREDICTED BY IDOCK:   -9.18 KCAL/MOL
REMARK 924 INTRA-LIGAND FREE ENERGY PREDICTED BY IDOCK:   -1.38 KCAL/MOL
REMARK 927      BINDING AFFINITY PREDICTED BY RF-SCORE:    0.00 PKD
ROOT
HETATM    1  O   UNL     1      -9.810   5.774  65.728  1.00  0.00    -0.373 OA 
HETATM    2  H   UNL     1     -10.479   5.996  65.091  1.00  0.00     0.000 HD 
HETATM    3  C   UNL     1     -10.387   5.397  66.967  1.00  0.00    -0.248 C  
HETATM    4  C   UNL     1      -9.314   5.042  67.990  1.00  0.00    -0.152 C  
HETATM    5  C   UNL     1     -10.031   5.238  69.308  1.00  0.00    -0.215 C  
HETATM    6  N   UNL     1     -10.942   6.345  69.070  1.00  0.00    -0.323 N  
HETATM    7  C   UNL     1     -11.140   6.553  67.638  1.00  0.00    -0.287 C  
ENDROOT
BRANCH   6   8
HETATM    8  C   UNL     1     -11.506   7.002  70.151  1.00  0.00    -0.256 C  
HETATM    9  O   UNL     1     -11.983   6.353  71.075  1.00  0.00    -0.333 OA 
BRANCH   8  10
HETATM   10  N   UNL     1     -11.499   8.372  70.042  1.00  0.00    -0.456 N  
HETATM   11  H   UNL     1     -12.386   8.851  70.196  1.00  0.00     0.000 HD 
BRANCH  10  12
HETATM   12  C   UNL     1     -10.400   9.169  69.740  1.00  0.00    -0.215 A  
HETATM   13  C   UNL     1     -10.182  10.094  68.729  1.00  0.00    -0.186 A  
HETATM   14  N   UNL     1     -10.944  10.580  67.690  1.00  0.00    -0.300 NA 
HETATM   15  C   UNL     1     -10.382  11.403  66.840  1.00  0.00    -0.227 A  
HETATM   16  C   UNL     1      -9.208   9.184  70.500  1.00  0.00    -0.241 A  
HETATM   17  C   UNL     1      -8.983  11.925  67.016  1.00  0.00    -0.190 A  
HETATM   18  N   UNL     1      -8.279  10.000  70.015  1.00  0.00    -0.165 NA 
HETATM   19  C   UNL     1      -8.293  11.470  68.065  1.00  0.00    -0.146 A  
HETATM   20  N   UNL     1      -8.868  10.551  68.925  1.00  0.00    -0.157 NA 
BRANCH  15  21
HETATM   21  N   UNL     1     -11.049  11.861  65.728  1.00  0.00    -0.316 NA 
HETATM   22  C   UNL     1     -12.278  13.172  64.186  1.00  0.00    -0.465 C  
HETATM   23  C   UNL     1     -10.881  11.265  64.417  1.00  0.00    -0.303 C  
HETATM   24  C   UNL     1     -12.037  12.940  65.700  1.00  0.00    -0.458 C  
HETATM   25  C   UNL     1     -11.139  12.434  63.486  1.00  0.00    -0.521 C  
BRANCH  24  26
HETATM   26  C   UNL     1     -11.558  14.129  66.508  1.00  0.00    -0.389 A  
HETATM   27  C   UNL     1     -11.822  14.319  67.869  1.00  0.00    -0.358 A  
HETATM   28  C   UNL     1     -11.436  15.486  68.534  1.00  0.00    -0.369 A  
HETATM   29  F   UNL     1     -12.478  13.390  68.579  1.00  0.00    -0.294 F  
HETATM   30  C   UNL     1     -10.780  16.499  67.839  1.00  0.00    -0.337 A  
HETATM   31  C   UNL     1     -10.502  16.323  66.490  1.00  0.00    -0.290 A  
HETATM   32  C   UNL     1     -10.877  15.159  65.828  1.00  0.00    -0.358 A  
HETATM   33  F   UNL     1      -9.877  17.296  65.814  1.00  0.00    -0.255 F  
ENDBRANCH  24  26
ENDBRANCH  15  21
ENDBRANCH  10  12
ENDBRANCH   8  10
ENDBRANCH   6   8
TORSDOF 5
ENDMDL
MODEL       28
REMARK 921   NORMALIZED FREE ENERGY PREDICTED BY IDOCK:   -6.80 KCAL/MOL
REMARK 922        TOTAL FREE ENERGY PREDICTED BY IDOCK:  -10.52 KCAL/MOL
REMARK 923 INTER-LIGAND FREE ENERGY PREDICTED BY IDOCK:   -9.17 KCAL/MOL
REMARK 924 INTRA-LIGAND FREE ENERGY PREDICTED BY IDOCK:   -1.35 KCAL/MOL
REMARK 927      BINDING AFFINITY PREDICTED BY RF-SCORE:    0.00 PKD
ROOT
HETATM    1  O   UNL     1      -7.421   9.383  71.892  1.00  0.00    -0.251 OA 
HETATM    2  H   UNL     1      -7.078   9.592  71.032  1.00  0.00     0.000 HD 
HETATM    3  C   UNL     1      -8.505   8.473  71.805  1.00  0.00    -0.175 C  
HETATM    4  C   UNL     1      -9.056   8.138  73.186  1.00  0.00    -0.335 C  
HETATM    5  C   UNL     1     -10.465   7.677  72.881  1.00  0.00    -0.336 C  
HETATM    6  N   UNL     1     -10.877   8.483  71.744  1.00  0.00    -0.279 N  
HETATM    7  C   UNL     1      -9.717   9.076  71.083  1.00  0.00    -0.299 C  
ENDROOT
BRANCH   6   8
HETATM    8  C   UNL     1     -12.221   8.559  71.420  1.00  0.00    -0.304 C  
HETATM    9  O   UNL     1     -13.035   7.882  72.039  1.00  0.00    -0.302 OA 
BRANCH   8  10
HETATM   10  N   UNL     1     -12.499   9.397  70.366  1.00  0.00    -0.460 N  
HETATM   11  H   UNL     1     -12.730   8.957  69.476  1.00  0.00     0.000 HD 
BRANCH  10  12
HETATM   12  C   UNL     1     -12.495  10.788  70.397  1.00  0.00    -0.347 A  
HETATM   13  C   UNL     1     -12.284  11.730  69.400  1.00  0.00    -0.157 A  
HETATM   14  N   UNL     1     -12.032  11.660  68.048  1.00  0.00    -0.609 NA 
HETATM   15  C   UNL     1     -11.785  12.774  67.404  1.00  0.00    -0.366 A  
HETATM   16  C   UNL     1     -12.746  11.549  71.560  1.00  0.00    -0.334 A  
HETATM   17  C   UNL     1     -11.877  14.127  68.053  1.00  0.00    -0.400 A  
HETATM   18  N   UNL     1     -12.665  12.860  71.365  1.00  0.00    -0.330 NA 
HETATM   19  C   UNL     1     -12.174  14.156  69.355  1.00  0.00    -0.287 A  
HETATM   20  N   UNL     1     -12.372  12.974  70.045  1.00  0.00    -0.208 NA 
BRANCH  15  21
HETATM   21  N   UNL     1     -11.438  12.777  66.073  1.00  0.00    -0.331 NA 
HETATM   22  C   UNL     1     -10.289  12.538  64.017  1.00  0.00    -0.429 C  
HETATM   23  C   UNL     1     -12.420  12.869  65.011  1.00  0.00    -0.492 C  
HETATM   24  C   UNL     1     -10.076  12.745  65.538  1.00  0.00    -0.264 C  
HETATM   25  C   UNL     1     -11.750  12.121  63.874  1.00  0.00    -0.546 C  
BRANCH  24  26
HETATM   26  C   UNL     1      -9.238  11.711  66.262  1.00  0.00    -0.225 A  
HETATM   27  C   UNL     1      -9.452  10.330  66.193  1.00  0.00    -0.181 A  
HETATM   28  C   UNL     1      -8.705   9.434  66.964  1.00  0.00    -0.135 A  
HETATM   29  F   UNL     1     -10.401   9.819  65.396  1.00  0.00    -0.364 F  
HETATM   30  C   UNL     1      -7.728   9.910  67.834  1.00  0.00    -0.090 A  
HETATM   31  C   UNL     1      -7.497  11.277  67.909  1.00  0.00    -0.094 A  
HETATM   32  C   UNL     1      -8.232  12.170  67.136  1.00  0.00    -0.182 A  
HETATM   33  F   UNL     1      -6.563  11.743  68.748  1.00  0.00    -0.056 F  
ENDBRANCH  24  26
ENDBRANCH  15  21
ENDBRANCH  10  12
ENDBRANCH   8  10
ENDBRANCH   6   8
TORSDOF 5
ENDMDL
MODEL       29
REMARK 921   NORMALIZED FREE ENERGY PREDICTED BY IDOCK:   -6.79 KCAL/MOL
REMARK 922        TOTAL FREE ENERGY PREDICTED BY IDOCK:  -10.50 KCAL/MOL
REMARK 923 INTER-LIGAND FREE ENERGY PREDICTED BY IDOCK:   -9.23 KCAL/MOL
REMARK 924 INTRA-LIGAND FREE ENERGY PREDICTED BY IDOCK:   -1.28 KCAL/MOL
REMARK 927      BINDING AFFINITY PREDICTED BY RF-SCORE:    0.00 PKD
ROOT
HETATM    1  O   UNL     1     -12.620   8.329  71.192  1.00  0.00    -0.444 OA 
HETATM    2  H   UNL     1     -12.561   7.850  70.373  1.00  0.00     0.000 HD 
HETATM    3  C   UNL     1     -13.148   9.629  70.988  1.00  0.00    -0.241 C  
HETATM    4  C   UNL     1     -13.241  10.398  72.302  1.00  0.00    -0.285 C  
HETATM    5  C   UNL     1     -13.250  11.841  71.844  1.00  0.00    -0.362 C  
HETATM    6  N   UNL     1     -12.400  11.857  70.666  1.00  0.00    -0.349 N  
HETATM    7  C   UNL     1     -12.225  10.509  70.135  1.00  0.00    -0.280 C  
ENDROOT
BRANCH   6   8
HETATM    8  C   UNL     1     -11.921  13.069  70.195  1.00  0.00    -0.303 C  
HETATM    9  O   UNL     1     -12.400  14.116  70.613  1.00  0.00    -0.319 OA 
BRANCH   8  10
HETATM   10  N   UNL     1     -10.941  12.951  69.238  1.00  0.00    -0.436 N  
HETATM   11  H   UNL     1     -10.066  12.513  69.526  1.00  0.00     0.000 HD 
BRANCH  10  12
HETATM   12  C   UNL     1     -11.026  13.372  67.915  1.00  0.00    -0.256 A  
HETATM   13  C   UNL     1     -10.803  14.609  67.326  1.00  0.00    -0.305 A  
HETATM   14  N   UNL     1     -10.405  15.840  67.796  1.00  0.00    -0.268 NA 
HETATM   15  C   UNL     1     -10.384  16.847  66.958  1.00  0.00    -0.307 A  
HETATM   16  C   UNL     1     -11.373  12.522  66.841  1.00  0.00    -0.326 A  
HETATM   17  C   UNL     1     -10.666  16.690  65.489  1.00  0.00    -0.234 A  
HETATM   18  N   UNL     1     -11.419  13.141  65.667  1.00  0.00    -0.314 NA 
HETATM   19  C   UNL     1     -10.999  15.469  65.063  1.00  0.00    -0.440 A  
HETATM   20  N   UNL     1     -11.081  14.421  65.962  1.00  0.00    -0.318 NA 
BRANCH  15  21
HETATM   21  N   UNL     1     -10.084  18.124  67.371  1.00  0.00    -0.334 NA 
HETATM   22  C   UNL     1      -9.021  20.036  68.278  1.00  0.00    -0.223 C  
HETATM   23  C   UNL     1     -10.777  19.291  66.862  1.00  0.00    -0.444 C  
HETATM   24  C   UNL     1      -9.097  18.491  68.387  1.00  0.00    -0.322 C  
HETATM   25  C   UNL     1      -9.721  20.375  66.964  1.00  0.00    -0.588 C  
BRANCH  24  26
HETATM   26  C   UNL     1      -7.806  17.724  68.184  1.00  0.00    -0.264 A  
HETATM   27  C   UNL     1      -7.028  17.777  67.023  1.00  0.00    -0.176 A  
HETATM   28  C   UNL     1      -5.899  16.969  66.860  1.00  0.00    -0.225 A  
HETATM   29  F   UNL     1      -7.354  18.595  66.013  1.00  0.00    -0.249 F  
HETATM   30  C   UNL     1      -5.532  16.076  67.864  1.00  0.00    -0.145 A  
HETATM   31  C   UNL     1      -6.288  16.016  69.026  1.00  0.00    -0.140 A  
HETATM   32  C   UNL     1      -7.406  16.827  69.195  1.00  0.00    -0.213 A  
HETATM   33  F   UNL     1      -5.943  15.156  69.993  1.00  0.00    -0.113 F  
ENDBRANCH  24  26
ENDBRANCH  15  21
ENDBRANCH  10  12
ENDBRANCH   8  10
ENDBRANCH   6   8
TORSDOF 5
ENDMDL
MODEL       30
REMARK 921   NORMALIZED FREE ENERGY PREDICTED BY IDOCK:   -6.77 KCAL/MOL
REMARK 922        TOTAL FREE ENERGY PREDICTED BY IDOCK:  -10.48 KCAL/MOL
REMARK 923 INTER-LIGAND FREE ENERGY PREDICTED BY IDOCK:   -9.23 KCAL/MOL
REMARK 924 INTRA-LIGAND FREE ENERGY PREDICTED BY IDOCK:   -1.25 KCAL/MOL
REMARK 927      BINDING AFFINITY PREDICTED BY RF-SCORE:    0.00 PKD
ROOT
HETATM    1  O   UNL     1      -9.887   5.584  65.764  1.00  0.00    -0.348 OA 
HETATM    2  H   UNL     1     -10.544   5.863  65.138  1.00  0.00     0.000 HD 
HETATM    3  C   UNL     1     -10.474   5.248  67.010  1.00  0.00    -0.229 C  
HETATM    4  C   UNL     1      -9.418   4.800  68.014  1.00  0.00    -0.182 C  
HETATM    5  C   UNL     1     -10.097   5.046  69.344  1.00  0.00    -0.218 C  
HETATM    6  N   UNL     1     -10.918   6.225  69.125  1.00  0.00    -0.343 N  
HETATM    7  C   UNL     1     -11.119   6.457  67.698  1.00  0.00    -0.289 C  
ENDROOT
BRANCH   6   8
HETATM    8  C   UNL     1     -11.410   6.919  70.218  1.00  0.00    -0.324 C  
HETATM    9  O   UNL     1     -11.831   6.303  71.191  1.00  0.00    -0.305 OA 
BRANCH   8  10
HETATM   10  N   UNL     1     -11.404   8.285  70.065  1.00  0.00    -0.452 N  
HETATM   11  H   UNL     1     -12.295   8.766  70.186  1.00  0.00     0.000 HD 
BRANCH  10  12
HETATM   12  C   UNL     1     -10.300   9.075  69.761  1.00  0.00    -0.211 A  
HETATM   13  C   UNL     1     -10.061   9.963  68.722  1.00  0.00    -0.174 A  
HETATM   14  N   UNL     1     -10.799  10.406  67.647  1.00  0.00    -0.287 NA 
HETATM   15  C   UNL     1     -10.220  11.201  66.781  1.00  0.00    -0.232 A  
HETATM   16  C   UNL     1      -9.127   9.123  70.548  1.00  0.00    -0.241 A  
HETATM   17  C   UNL     1      -8.827  11.734  66.971  1.00  0.00    -0.182 A  
HETATM   18  N   UNL     1      -8.190   9.925  70.056  1.00  0.00    -0.183 NA 
HETATM   19  C   UNL     1      -8.161  11.321  68.053  1.00  0.00    -0.134 A  
HETATM   20  N   UNL     1      -8.754  10.433  68.932  1.00  0.00    -0.148 NA 
BRANCH  15  21
HETATM   21  N   UNL     1     -10.862  11.614  65.637  1.00  0.00    -0.282 NA 
HETATM   22  C   UNL     1     -12.106  12.838  64.038  1.00  0.00    -0.533 C  
HETATM   23  C   UNL     1     -10.580  11.043  64.335  1.00  0.00    -0.325 C  
HETATM   24  C   UNL     1     -11.927  12.614  65.561  1.00  0.00    -0.456 C  
HETATM   25  C   UNL     1     -10.879  12.196  63.396  1.00  0.00    -0.474 C  
BRANCH  24  26
HETATM   26  C   UNL     1     -11.584  13.830  66.399  1.00  0.00    -0.380 A  
HETATM   27  C   UNL     1     -10.687  14.831  66.010  1.00  0.00    -0.312 A  
HETATM   28  C   UNL     1     -10.339  15.876  66.870  1.00  0.00    -0.291 A  
HETATM   29  F   UNL     1     -10.113  14.809  64.799  1.00  0.00    -0.402 F  
HETATM   30  C   UNL     1     -10.879  15.932  68.152  1.00  0.00    -0.317 A  
HETATM   31  C   UNL     1     -11.777  14.951  68.551  1.00  0.00    -0.310 A  
HETATM   32  C   UNL     1     -12.133  13.915  67.694  1.00  0.00    -0.342 A  
HETATM   33  F   UNL     1     -12.296  14.996  69.785  1.00  0.00    -0.327 F  
ENDBRANCH  24  26
ENDBRANCH  15  21
ENDBRANCH  10  12
ENDBRANCH   8  10
ENDBRANCH   6   8
TORSDOF 5
ENDMDL
MODEL       31
REMARK 921   NORMALIZED FREE ENERGY PREDICTED BY IDOCK:   -6.77 KCAL/MOL
REMARK 922        TOTAL FREE ENERGY PREDICTED BY IDOCK:  -10.48 KCAL/MOL
REMARK 923 INTER-LIGAND FREE ENERGY PREDICTED BY IDOCK:   -9.46 KCAL/MOL
REMARK 924 INTRA-LIGAND FREE ENERGY PREDICTED BY IDOCK:   -1.02 KCAL/MOL
REMARK 927      BINDING AFFINITY PREDICTED BY RF-SCORE:    0.00 PKD
ROOT
HETATM    1  O   UNL     1     -13.362  16.227  74.205  1.00  0.00    -0.929 OA 
HETATM    2  H   UNL     1     -12.746  16.765  74.688  1.00  0.00     0.000 HD 
HETATM    3  C   UNL     1     -12.694  15.397  73.270  1.00  0.00    -0.508 C  
HETATM    4  C   UNL     1     -13.682  14.533  72.494  1.00  0.00    -0.580 C  
HETATM    5  C   UNL     1     -12.912  14.193  71.236  1.00  0.00    -0.356 C  
HETATM    6  N   UNL     1     -12.100  15.368  70.974  1.00  0.00    -0.329 N  
HETATM    7  C   UNL     1     -11.994  16.202  72.168  1.00  0.00    -0.537 C  
ENDROOT
BRANCH   6   8
HETATM    8  C   UNL     1     -11.529  15.530  69.722  1.00  0.00    -0.331 C  
HETATM    9  O   UNL     1     -10.434  16.070  69.618  1.00  0.00    -0.259 OA 
BRANCH   8  10
HETATM   10  N   UNL     1     -12.312  15.079  68.685  1.00  0.00    -0.589 N  
HETATM   11  H   UNL     1     -13.237  15.497  68.591  1.00  0.00     0.000 HD 
BRANCH  10  12
HETATM   12  C   UNL     1     -11.964  14.107  67.753  1.00  0.00    -0.354 A  
HETATM   13  C   UNL     1     -11.720  12.747  67.888  1.00  0.00    -0.357 A  
HETATM   14  N   UNL     1     -11.749  11.865  68.944  1.00  0.00    -0.302 NA 
HETATM   15  C   UNL     1     -11.362  10.631  68.734  1.00  0.00    -0.277 A  
HETATM   16  C   UNL     1     -11.801  14.364  66.373  1.00  0.00    -0.388 A  
HETATM   17  C   UNL     1     -11.000  10.113  67.369  1.00  0.00    -0.295 A  
HETATM   18  N   UNL     1     -11.441  13.295  65.672  1.00  0.00    -0.312 NA 
HETATM   19  C   UNL     1     -11.033  10.988  66.360  1.00  0.00    -0.137 A  
HETATM   20  N   UNL     1     -11.380  12.305  66.598  1.00  0.00    -0.323 NA 
BRANCH  15  21
HETATM   21  N   UNL     1     -11.279   9.715  69.756  1.00  0.00    -0.211 NA 
HETATM   22  C   UNL     1     -10.557   8.026  71.250  1.00  0.00    -0.245 C  
HETATM   23  C   UNL     1     -12.132   9.773  70.927  1.00  0.00    -0.321 C  
HETATM   24  C   UNL     1     -10.391   8.552  69.801  1.00  0.00    -0.212 C  
HETATM   25  C   UNL     1     -11.263   9.151  72.002  1.00  0.00    -0.310 C  
BRANCH  24  26
HETATM   26  C   UNL     1      -8.990   8.928  69.362  1.00  0.00    -0.145 A  
HETATM   27  C   UNL     1      -8.265   8.256  68.372  1.00  0.00    -0.132 A  
HETATM   28  C   UNL     1      -6.939   8.591  68.083  1.00  0.00    -0.074 A  
HETATM   29  F   UNL     1      -8.815   7.250  67.678  1.00  0.00    -0.123 F  
HETATM   30  C   UNL     1      -6.306   9.607  68.795  1.00  0.00    -0.046 A  
HETATM   31  C   UNL     1      -7.014  10.289  69.775  1.00  0.00    -0.129 A  
HETATM   32  C   UNL     1      -8.337   9.964  70.058  1.00  0.00    -0.191 A  
HETATM   33  F   UNL     1      -6.410  11.263  70.468  1.00  0.00    -0.159 F  
ENDBRANCH  24  26
ENDBRANCH  15  21
ENDBRANCH  10  12
ENDBRANCH   8  10
ENDBRANCH   6   8
TORSDOF 5
ENDMDL
MODEL       32
REMARK 921   NORMALIZED FREE ENERGY PREDICTED BY IDOCK:   -6.77 KCAL/MOL
REMARK 922        TOTAL FREE ENERGY PREDICTED BY IDOCK:  -10.48 KCAL/MOL
REMARK 923 INTER-LIGAND FREE ENERGY PREDICTED BY IDOCK:   -9.01 KCAL/MOL
REMARK 924 INTRA-LIGAND FREE ENERGY PREDICTED BY IDOCK:   -1.47 KCAL/MOL
REMARK 927      BINDING AFFINITY PREDICTED BY RF-SCORE:    0.00 PKD
ROOT
HETATM    1  O   UNL     1     -12.496  13.772  62.940  1.00  0.00    -1.009 OA 
HETATM    2  H   UNL     1     -13.397  14.067  62.998  1.00  0.00     0.000 HD 
HETATM    3  C   UNL     1     -12.278  12.629  63.749  1.00  0.00    -0.514 C  
HETATM    4  C   UNL     1     -10.831  12.155  63.656  1.00  0.00    -0.523 C  
HETATM    5  C   UNL     1     -10.653  11.371  64.938  1.00  0.00    -0.307 C  
HETATM    6  N   UNL     1     -11.479  12.066  65.911  1.00  0.00    -0.353 N  
HETATM    7  C   UNL     1     -12.451  12.928  65.243  1.00  0.00    -0.493 C  
ENDROOT
BRANCH   6   8
HETATM    8  C   UNL     1     -11.288  11.818  67.260  1.00  0.00    -0.315 C  
HETATM    9  O   UNL     1     -12.161  11.244  67.902  1.00  0.00    -0.634 OA 
BRANCH   8  10
HETATM   10  N   UNL     1     -10.101  12.301  67.757  1.00  0.00    -0.197 N  
HETATM   11  H   UNL     1      -9.987  13.314  67.773  1.00  0.00     0.000 HD 
BRANCH  10  12
HETATM   12  C   UNL     1      -9.041  11.541  68.241  1.00  0.00    -0.185 A  
HETATM   13  C   UNL     1      -9.006  10.446  69.093  1.00  0.00    -0.179 A  
HETATM   14  N   UNL     1      -9.965   9.703  69.744  1.00  0.00    -0.212 NA 
HETATM   15  C   UNL     1      -9.569   8.766  70.570  1.00  0.00    -0.191 A  
HETATM   16  C   UNL     1      -7.690  11.771  67.898  1.00  0.00    -0.125 A  
HETATM   17  C   UNL     1      -8.123   8.395  70.748  1.00  0.00    -0.114 A  
HETATM   18  N   UNL     1      -6.841  10.943  68.497  1.00  0.00    -0.057 NA 
HETATM   19  C   UNL     1      -7.225   9.106  70.060  1.00  0.00    -0.066 A  
HETATM   20  N   UNL     1      -7.643  10.137  69.238  1.00  0.00    -0.104 NA 
BRANCH  15  21
HETATM   21  N   UNL     1     -10.464   8.042  71.323  1.00  0.00    -0.199 NA 
HETATM   22  C   UNL     1     -12.013   6.424  72.089  1.00  0.00    -0.346 C  
HETATM   23  C   UNL     1     -10.563   8.179  72.763  1.00  0.00    -0.316 C  
HETATM   24  C   UNL     1     -11.456   7.097  70.808  1.00  0.00    -0.305 C  
HETATM   25  C   UNL     1     -11.033   6.804  73.196  1.00  0.00    -0.279 C  
BRANCH  24  26
HETATM   26  C   UNL     1     -10.841   6.185  69.766  1.00  0.00    -0.421 A  
HETATM   27  C   UNL     1      -9.848   5.236  70.032  1.00  0.00    -0.218 A  
HETATM   28  C   UNL     1      -9.251   4.495  69.008  1.00  0.00    -0.192 A  
HETATM   29  F   UNL     1      -9.420   5.020  71.283  1.00  0.00    -0.163 F  
HETATM   30  C   UNL     1      -9.634   4.701  67.685  1.00  0.00    -0.200 A  
HETATM   31  C   UNL     1     -10.623   5.634  67.404  1.00  0.00    -0.237 A  
HETATM   32  C   UNL     1     -11.226   6.365  68.422  1.00  0.00    -0.297 A  
HETATM   33  F   UNL     1     -10.992   5.841  66.134  1.00  0.00    -0.260 F  
ENDBRANCH  24  26
ENDBRANCH  15  21
ENDBRANCH  10  12
ENDBRANCH   8  10
ENDBRANCH   6   8
TORSDOF 5
ENDMDL
MODEL       33
REMARK 921   NORMALIZED FREE ENERGY PREDICTED BY IDOCK:   -6.76 KCAL/MOL
REMARK 922        TOTAL FREE ENERGY PREDICTED BY IDOCK:  -10.47 KCAL/MOL
REMARK 923 INTER-LIGAND FREE ENERGY PREDICTED BY IDOCK:   -8.83 KCAL/MOL
REMARK 924 INTRA-LIGAND FREE ENERGY PREDICTED BY IDOCK:   -1.64 KCAL/MOL
REMARK 927      BINDING AFFINITY PREDICTED BY RF-SCORE:    0.00 PKD
ROOT
HETATM    1  O   UNL     1     -11.161   5.528  66.067  1.00  0.00    -0.771 OA 
HETATM    2  H   UNL     1     -11.378   4.643  66.336  1.00  0.00     0.000 HD 
HETATM    3  C   UNL     1     -10.360   6.177  67.041  1.00  0.00    -0.237 C  
HETATM    4  C   UNL     1     -10.013   7.598  66.610  1.00  0.00    -0.284 C  
HETATM    5  C   UNL     1      -9.698   8.278  67.926  1.00  0.00    -0.161 C  
HETATM    6  N   UNL     1     -10.591   7.651  68.885  1.00  0.00    -0.194 N  
HETATM    7  C   UNL     1     -11.104   6.386  68.366  1.00  0.00    -0.285 C  
ENDROOT
BRANCH   6   8
HETATM    8  C   UNL     1     -10.805   8.262  70.110  1.00  0.00    -0.237 C  
HETATM    9  O   UNL     1      -9.955   8.177  70.989  1.00  0.00    -0.183 OA 
BRANCH   8  10
HETATM   10  N   UNL     1     -12.022   8.893  70.217  1.00  0.00    -0.455 N  
HETATM   11  H   UNL     1     -12.852   8.321  70.066  1.00  0.00     0.000 HD 
BRANCH  10  12
HETATM   12  C   UNL     1     -12.230  10.236  70.512  1.00  0.00    -0.301 A  
HETATM   13  C   UNL     1     -12.177  11.373  69.718  1.00  0.00    -0.265 A  
HETATM   14  N   UNL     1     -11.932  11.602  68.382  1.00  0.00    -0.533 NA 
HETATM   15  C   UNL     1     -11.865  12.843  67.967  1.00  0.00    -0.343 A  
HETATM   16  C   UNL     1     -12.582  10.713  71.795  1.00  0.00    -0.306 A  
HETATM   17  C   UNL     1     -12.156  14.017  68.861  1.00  0.00    -0.351 A  
HETATM   18  N   UNL     1     -12.705  12.035  71.855  1.00  0.00    -0.187 NA 
HETATM   19  C   UNL     1     -12.440  13.751  70.139  1.00  0.00    -0.267 A  
HETATM   20  N   UNL     1     -12.447  12.443  70.587  1.00  0.00    -0.284 NA 
BRANCH  15  21
HETATM   21  N   UNL     1     -11.537  13.154  66.668  1.00  0.00    -0.338 NA 
HETATM   22  C   UNL     1     -10.418  13.874  64.710  1.00  0.00    -0.451 C  
HETATM   23  C   UNL     1     -12.252  12.608  65.531  1.00  0.00    -0.440 C  
HETATM   24  C   UNL     1     -10.494  14.089  66.244  1.00  0.00    -0.286 C  
HETATM   25  C   UNL     1     -11.187  12.580  64.452  1.00  0.00    -0.388 C  
BRANCH  24  26
HETATM   26  C   UNL     1      -9.219  13.867  67.033  1.00  0.00    -0.257 A  
HETATM   27  C   UNL     1      -8.504  12.665  67.058  1.00  0.00    -0.150 A  
HETATM   28  C   UNL     1      -7.390  12.494  67.885  1.00  0.00    -0.115 A  
HETATM   29  F   UNL     1      -8.879  11.624  66.302  1.00  0.00    -0.184 F  
HETATM   30  C   UNL     1      -6.974  13.531  68.717  1.00  0.00    -0.102 A  
HETATM   31  C   UNL     1      -7.668  14.733  68.698  1.00  0.00    -0.130 A  
HETATM   32  C   UNL     1      -8.771  14.909  67.869  1.00  0.00    -0.164 A  
HETATM   33  F   UNL     1      -7.277  15.732  69.500  1.00  0.00    -0.178 F  
ENDBRANCH  24  26
ENDBRANCH  15  21
ENDBRANCH  10  12
ENDBRANCH   8  10
ENDBRANCH   6   8
TORSDOF 5
ENDMDL
MODEL       34
REMARK 921   NORMALIZED FREE ENERGY PREDICTED BY IDOCK:   -6.76 KCAL/MOL
REMARK 922        TOTAL FREE ENERGY PREDICTED BY IDOCK:  -10.46 KCAL/MOL
REMARK 923 INTER-LIGAND FREE ENERGY PREDICTED BY IDOCK:   -9.14 KCAL/MOL
REMARK 924 INTRA-LIGAND FREE ENERGY PREDICTED BY IDOCK:   -1.32 KCAL/MOL
REMARK 927      BINDING AFFINITY PREDICTED BY RF-SCORE:    0.00 PKD
ROOT
HETATM    1  O   UNL     1     -10.664   3.971  72.707  1.00  0.00    -0.165 OA 
HETATM    2  H   UNL     1     -11.349   3.388  72.401  1.00  0.00     0.000 HD 
HETATM    3  C   UNL     1     -11.199   5.217  73.120  1.00  0.00    -0.318 C  
HETATM    4  C   UNL     1     -10.100   6.153  73.610  1.00  0.00    -0.227 C  
HETATM    5  C   UNL     1     -10.728   7.521  73.448  1.00  0.00    -0.332 C  
HETATM    6  N   UNL     1     -11.569   7.400  72.269  1.00  0.00    -0.285 N  
HETATM    7  C   UNL     1     -11.829   5.998  71.959  1.00  0.00    -0.224 C  
ENDROOT
BRANCH   6   8
HETATM    8  C   UNL     1     -12.024   8.549  71.643  1.00  0.00    -0.316 C  
HETATM    9  O   UNL     1     -12.774   9.312  72.243  1.00  0.00    -0.382 OA 
BRANCH   8  10
HETATM   10  N   UNL     1     -11.593   8.691  70.346  1.00  0.00    -0.457 N  
HETATM   11  H   UNL     1     -12.180   8.283  69.618  1.00  0.00     0.000 HD 
BRANCH  10  12
HETATM   12  C   UNL     1     -10.434   9.337  69.929  1.00  0.00    -0.227 A  
HETATM   13  C   UNL     1     -10.188  10.189  68.861  1.00  0.00    -0.199 A  
HETATM   14  N   UNL     1     -10.964  10.721  67.857  1.00  0.00    -0.266 NA 
HETATM   15  C   UNL     1     -10.376  11.437  66.930  1.00  0.00    -0.227 A  
HETATM   16  C   UNL     1      -9.194   9.237  70.599  1.00  0.00    -0.264 A  
HETATM   17  C   UNL     1      -8.916  11.792  66.980  1.00  0.00    -0.186 A  
HETATM   18  N   UNL     1      -8.216   9.915  70.011  1.00  0.00    -0.183 NA 
HETATM   19  C   UNL     1      -8.206  11.298  67.998  1.00  0.00    -0.134 A  
HETATM   20  N   UNL     1      -8.818  10.491  68.940  1.00  0.00    -0.157 NA 
BRANCH  15  21
HETATM   21  N   UNL     1     -11.069  11.927  65.848  1.00  0.00    -0.312 NA 
HETATM   22  C   UNL     1     -12.325  13.287  64.372  1.00  0.00    -0.410 C  
HETATM   23  C   UNL     1     -10.941  11.363  64.519  1.00  0.00    -0.277 C  
HETATM   24  C   UNL     1     -12.046  13.016  65.873  1.00  0.00    -0.444 C  
HETATM   25  C   UNL     1     -11.213  12.557  63.624  1.00  0.00    -0.545 C  
BRANCH  24  26
HETATM   26  C   UNL     1     -11.534  14.180  66.697  1.00  0.00    -0.378 A  
HETATM   27  C   UNL     1     -11.813  14.371  68.055  1.00  0.00    -0.325 A  
HETATM   28  C   UNL     1     -11.391  15.518  68.734  1.00  0.00    -0.339 A  
HETATM   29  F   UNL     1     -12.515  13.465  68.748  1.00  0.00    -0.309 F  
HETATM   30  C   UNL     1     -10.686  16.509  68.056  1.00  0.00    -0.343 A  
HETATM   31  C   UNL     1     -10.394  16.332  66.710  1.00  0.00    -0.296 A  
HETATM   32  C   UNL     1     -10.803  15.187  66.035  1.00  0.00    -0.335 A  
HETATM   33  F   UNL     1      -9.721  17.284  66.051  1.00  0.00    -0.279 F  
ENDBRANCH  24  26
ENDBRANCH  15  21
ENDBRANCH  10  12
ENDBRANCH   8  10
ENDBRANCH   6   8
TORSDOF 5
ENDMDL
MODEL       35
REMARK 921   NORMALIZED FREE ENERGY PREDICTED BY IDOCK:   -6.74 KCAL/MOL
REMARK 922        TOTAL FREE ENERGY PREDICTED BY IDOCK:  -10.44 KCAL/MOL
REMARK 923 INTER-LIGAND FREE ENERGY PREDICTED BY IDOCK:   -9.81 KCAL/MOL
REMARK 924 INTRA-LIGAND FREE ENERGY PREDICTED BY IDOCK:   -0.63 KCAL/MOL
REMARK 927      BINDING AFFINITY PREDICTED BY RF-SCORE:    0.00 PKD
ROOT
HETATM    1  O   UNL     1     -13.148  12.369  63.363  1.00  0.00    -0.689 OA 
HETATM    2  H   UNL     1     -14.079  12.377  63.551  1.00  0.00     0.000 HD 
HETATM    3  C   UNL     1     -12.384  12.384  64.558  1.00  0.00    -0.438 C  
HETATM    4  C   UNL     1     -10.890  12.372  64.257  1.00  0.00    -0.395 C  
HETATM    5  C   UNL     1     -10.290  12.956  65.518  1.00  0.00    -0.291 C  
HETATM    6  N   UNL     1     -11.270  13.927  65.974  1.00  0.00    -0.297 N  
HETATM    7  C   UNL     1     -12.569  13.683  65.353  1.00  0.00    -0.491 C  
ENDROOT
BRANCH   6   8
HETATM    8  C   UNL     1     -10.895  14.878  66.908  1.00  0.00    -0.319 C  
HETATM    9  O   UNL     1     -10.782  16.051  66.570  1.00  0.00    -0.306 OA 
BRANCH   8  10
HETATM   10  N   UNL     1     -10.643  14.368  68.160  1.00  0.00    -0.233 N  
HETATM   11  H   UNL     1      -9.753  13.887  68.291  1.00  0.00     0.000 HD 
BRANCH  10  12
HETATM   12  C   UNL     1     -11.484  14.445  69.265  1.00  0.00    -0.285 A  
HETATM   13  C   UNL     1     -11.971  13.467  70.121  1.00  0.00    -0.326 A  
HETATM   14  N   UNL     1     -11.801  12.104  70.220  1.00  0.00    -0.304 NA 
HETATM   15  C   UNL     1     -12.503  11.454  71.115  1.00  0.00    -0.360 A  
HETATM   16  C   UNL     1     -12.022  15.653  69.761  1.00  0.00    -0.354 A  
HETATM   17  C   UNL     1     -13.394  12.145  72.109  1.00  0.00    -0.438 A  
HETATM   18  N   UNL     1     -12.821  15.489  70.809  1.00  0.00    -0.478 NA 
HETATM   19  C   UNL     1     -13.493  13.474  72.014  1.00  0.00    -0.494 A  
HETATM   20  N   UNL     1     -12.800  14.150  71.026  1.00  0.00    -0.343 NA 
BRANCH  15  21
HETATM   21  N   UNL     1     -12.455  10.083  71.215  1.00  0.00    -0.360 NA 
HETATM   22  C   UNL     1     -11.909   7.796  70.941  1.00  0.00    -0.257 C  
HETATM   23  C   UNL     1     -13.009   9.363  72.345  1.00  0.00    -0.351 C  
HETATM   24  C   UNL     1     -11.908   9.165  70.215  1.00  0.00     0.064 C  
HETATM   25  C   UNL     1     -12.133   8.128  72.414  1.00  0.00    -0.406 C  
BRANCH  24  26
HETATM   26  C   UNL     1     -10.576   9.667  69.695  1.00  0.00    -0.252 A  
HETATM   27  C   UNL     1     -10.377  10.209  68.421  1.00  0.00    -0.183 A  
HETATM   28  C   UNL     1      -9.103  10.562  67.966  1.00  0.00    -0.138 A  
HETATM   29  F   UNL     1     -11.406  10.389  67.581  1.00  0.00    -0.358 F  
HETATM   30  C   UNL     1      -7.993  10.367  68.784  1.00  0.00    -0.122 A  
HETATM   31  C   UNL     1      -8.174   9.838  70.055  1.00  0.00    -0.191 A  
HETATM   32  C   UNL     1      -9.442   9.494  70.513  1.00  0.00    -0.306 A  
HETATM   33  F   UNL     1      -7.110   9.642  70.845  1.00  0.00    -0.110 F  
ENDBRANCH  24  26
ENDBRANCH  15  21
ENDBRANCH  10  12
ENDBRANCH   8  10
ENDBRANCH   6   8
TORSDOF 5
ENDMDL
MODEL       36
REMARK 921   NORMALIZED FREE ENERGY PREDICTED BY IDOCK:   -6.73 KCAL/MOL
REMARK 922        TOTAL FREE ENERGY PREDICTED BY IDOCK:  -10.43 KCAL/MOL
REMARK 923 INTER-LIGAND FREE ENERGY PREDICTED BY IDOCK:   -9.73 KCAL/MOL
REMARK 924 INTRA-LIGAND FREE ENERGY PREDICTED BY IDOCK:   -0.70 KCAL/MOL
REMARK 927      BINDING AFFINITY PREDICTED BY RF-SCORE:    0.00 PKD
ROOT
HETATM    1  O   UNL     1      -8.262  20.964  66.855  1.00  0.00    -0.565 OA 
HETATM    2  H   UNL     1      -7.767  21.443  67.509  1.00  0.00     0.000 HD 
HETATM    3  C   UNL     1      -9.351  20.271  67.443  1.00  0.00    -0.400 C  
HETATM    4  C   UNL     1     -10.145  19.501  66.395  1.00  0.00    -0.551 C  
HETATM    5  C   UNL     1     -10.835  18.433  67.216  1.00  0.00    -0.257 C  
HETATM    6  N   UNL     1      -9.890  18.115  68.273  1.00  0.00    -0.331 N  
HETATM    7  C   UNL     1      -8.892  19.172  68.410  1.00  0.00    -0.347 C  
ENDROOT
BRANCH   6   8
HETATM    8  C   UNL     1     -10.056  16.948  69.001  1.00  0.00    -0.292 C  
HETATM    9  O   UNL     1      -9.085  16.241  69.246  1.00  0.00    -0.251 OA 
BRANCH   8  10
HETATM   10  N   UNL     1     -11.359  16.685  69.349  1.00  0.00    -0.268 N  
HETATM   11  H   UNL     1     -12.040  17.426  69.183  1.00  0.00     0.000 HD 
BRANCH  10  12
HETATM   12  C   UNL     1     -11.841  15.506  69.908  1.00  0.00    -0.362 A  
HETATM   13  C   UNL     1     -11.570  14.174  69.624  1.00  0.00    -0.292 A  
HETATM   14  N   UNL     1     -10.740  13.531  68.734  1.00  0.00    -0.250 NA 
HETATM   15  C   UNL     1     -10.800  12.224  68.663  1.00  0.00    -0.236 A  
HETATM   16  C   UNL     1     -12.765  15.462  70.976  1.00  0.00    -0.448 A  
HETATM   17  C   UNL     1     -11.650  11.396  69.586  1.00  0.00    -0.399 A  
HETATM   18  N   UNL     1     -13.107  14.229  71.333  1.00  0.00    -0.335 NA 
HETATM   19  C   UNL     1     -12.404  12.056  70.470  1.00  0.00    -0.282 A  
HETATM   20  N   UNL     1     -12.385  13.438  70.499  1.00  0.00    -0.345 NA 
BRANCH  15  21
HETATM   21  N   UNL     1     -10.067  11.516  67.739  1.00  0.00    -0.179 NA 
HETATM   22  C   UNL     1      -9.016  10.767  65.754  1.00  0.00    -0.203 C  
HETATM   23  C   UNL     1      -9.049  10.557  68.119  1.00  0.00    -0.141 C  
HETATM   24  C   UNL     1     -10.228  11.574  66.285  1.00  0.00    -0.230 C  
HETATM   25  C   UNL     1      -8.082  10.619  66.953  1.00  0.00    -0.124 C  
BRANCH  24  26
HETATM   26  C   UNL     1     -10.358  13.009  65.815  1.00  0.00    -0.296 A  
HETATM   27  C   UNL     1      -9.436  14.022  66.102  1.00  0.00    -0.185 A  
HETATM   28  C   UNL     1      -9.664  15.347  65.722  1.00  0.00    -0.385 A  
HETATM   29  F   UNL     1      -8.307  13.755  66.773  1.00  0.00    -0.185 F  
HETATM   30  C   UNL     1     -10.836  15.688  65.051  1.00  0.00    -0.468 A  
HETATM   31  C   UNL     1     -11.757  14.694  64.751  1.00  0.00    -0.428 A  
HETATM   32  C   UNL     1     -11.528  13.372  65.119  1.00  0.00    -0.316 A  
HETATM   33  F   UNL     1     -12.889  15.015  64.111  1.00  0.00    -0.375 F  
ENDBRANCH  24  26
ENDBRANCH  15  21
ENDBRANCH  10  12
ENDBRANCH   8  10
ENDBRANCH   6   8
TORSDOF 5
ENDMDL
MODEL       37
REMARK 921   NORMALIZED FREE ENERGY PREDICTED BY IDOCK:   -6.72 KCAL/MOL
REMARK 922        TOTAL FREE ENERGY PREDICTED BY IDOCK:  -10.41 KCAL/MOL
REMARK 923 INTER-LIGAND FREE ENERGY PREDICTED BY IDOCK:   -9.28 KCAL/MOL
REMARK 924 INTRA-LIGAND FREE ENERGY PREDICTED BY IDOCK:   -1.13 KCAL/MOL
REMARK 927      BINDING AFFINITY PREDICTED BY RF-SCORE:    0.00 PKD
ROOT
HETATM    1  O   UNL     1     -12.435  13.958  63.044  1.00  0.00    -1.099 OA 
HETATM    2  H   UNL     1     -13.231  14.380  63.347  1.00  0.00     0.000 HD 
HETATM    3  C   UNL     1     -12.227  12.720  63.703  1.00  0.00    -0.512 C  
HETATM    4  C   UNL     1     -10.951  12.043  63.217  1.00  0.00    -0.399 C  
HETATM    5  C   UNL     1     -10.605  11.118  64.364  1.00  0.00    -0.343 C  
HETATM    6  N   UNL     1     -11.038  11.832  65.553  1.00  0.00    -0.301 N  
HETATM    7  C   UNL     1     -11.979  12.893  65.207  1.00  0.00    -0.419 C  
ENDROOT
BRANCH   6   8
HETATM    8  C   UNL     1     -10.571  11.426  66.793  1.00  0.00    -0.255 C  
HETATM    9  O   UNL     1     -10.322  10.242  66.990  1.00  0.00    -0.219 OA 
BRANCH   8  10
HETATM   10  N   UNL     1     -10.470  12.440  67.715  1.00  0.00    -0.214 N  
HETATM   11  H   UNL     1      -9.774  13.162  67.532  1.00  0.00     0.000 HD 
BRANCH  10  12
HETATM   12  C   UNL     1     -11.226  12.577  68.875  1.00  0.00    -0.281 A  
HETATM   13  C   UNL     1     -11.676  11.642  69.797  1.00  0.00    -0.352 A  
HETATM   14  N   UNL     1     -11.536  10.279  69.930  1.00  0.00    -0.261 NA 
HETATM   15  C   UNL     1     -12.188   9.679  70.896  1.00  0.00    -0.285 A  
HETATM   16  C   UNL     1     -11.695  13.816  69.365  1.00  0.00    -0.325 A  
HETATM   17  C   UNL     1     -12.986  10.428  71.926  1.00  0.00    -0.555 A  
HETATM   18  N   UNL     1     -12.419  13.710  70.473  1.00  0.00    -0.339 NA 
HETATM   19  C   UNL     1     -13.056  11.756  71.792  1.00  0.00    -0.375 A  
HETATM   20  N   UNL     1     -12.419  12.378  70.734  1.00  0.00    -0.324 NA 
BRANCH  15  21
HETATM   21  N   UNL     1     -12.170   8.311  71.039  1.00  0.00    -0.233 NA 
HETATM   22  C   UNL     1     -11.498   6.054  71.285  1.00  0.00    -0.251 C  
HETATM   23  C   UNL     1     -13.325   7.558  71.486  1.00  0.00    -0.352 C  
HETATM   24  C   UNL     1     -11.046   7.427  70.725  1.00  0.00    -0.265 C  
HETATM   25  C   UNL     1     -12.696   6.366  72.179  1.00  0.00    -0.038 C  
BRANCH  24  26
HETATM   26  C   UNL     1      -9.748   7.995  71.263  1.00  0.00    -0.199 A  
HETATM   27  C   UNL     1      -8.694   8.452  70.465  1.00  0.00    -0.147 A  
HETATM   28  C   UNL     1      -7.483   8.872  71.023  1.00  0.00    -0.124 A  
HETATM   29  F   UNL     1      -8.803   8.481  69.129  1.00  0.00    -0.135 F  
HETATM   30  C   UNL     1      -7.301   8.832  72.403  1.00  0.00     0.060 A  
HETATM   31  C   UNL     1      -8.340   8.390  73.210  1.00  0.00    -0.113 A  
HETATM   32  C   UNL     1      -9.550   7.980  72.658  1.00  0.00    -0.327 A  
HETATM   33  F   UNL     1      -8.170   8.344  74.537  1.00  0.00    -0.301 F  
ENDBRANCH  24  26
ENDBRANCH  15  21
ENDBRANCH  10  12
ENDBRANCH   8  10
ENDBRANCH   6   8
TORSDOF 5
ENDMDL
MODEL       38
REMARK 921   NORMALIZED FREE ENERGY PREDICTED BY IDOCK:   -6.71 KCAL/MOL
REMARK 922        TOTAL FREE ENERGY PREDICTED BY IDOCK:  -10.41 KCAL/MOL
REMARK 923 INTER-LIGAND FREE ENERGY PREDICTED BY IDOCK:   -9.04 KCAL/MOL
REMARK 924 INTRA-LIGAND FREE ENERGY PREDICTED BY IDOCK:   -1.36 KCAL/MOL
REMARK 927      BINDING AFFINITY PREDICTED BY RF-SCORE:    0.00 PKD
ROOT
HETATM    1  O   UNL     1     -11.466  15.921  63.912  1.00  0.00    -1.031 OA 
HETATM    2  H   UNL     1     -11.474  16.734  64.403  1.00  0.00     0.000 HD 
HETATM    3  C   UNL     1     -12.133  14.889  64.618  1.00  0.00    -0.378 C  
HETATM    4  C   UNL     1     -12.120  13.583  63.830  1.00  0.00    -0.493 C  
HETATM    5  C   UNL     1     -12.322  12.540  64.908  1.00  0.00    -0.470 C  
HETATM    6  N   UNL     1     -11.642  13.080  66.073  1.00  0.00    -0.346 N  
HETATM    7  C   UNL     1     -11.417  14.515  65.922  1.00  0.00    -0.345 C  
ENDROOT
BRANCH   6   8
HETATM    8  C   UNL     1     -11.343  12.239  67.132  1.00  0.00    -0.335 C  
HETATM    9  O   UNL     1     -12.157  12.084  68.035  1.00  0.00    -0.514 OA 
BRANCH   8  10
HETATM   10  N   UNL     1     -10.091  11.675  67.064  1.00  0.00    -0.207 N  
HETATM   11  H   UNL     1      -9.296  12.311  67.125  1.00  0.00     0.000 HD 
BRANCH  10  12
HETATM   12  C   UNL     1      -9.803  10.322  66.921  1.00  0.00    -0.197 A  
HETATM   13  C   UNL     1      -9.446   9.353  67.848  1.00  0.00    -0.132 A  
HETATM   14  N   UNL     1      -9.268   9.347  69.213  1.00  0.00    -0.153 NA 
HETATM   15  C   UNL     1      -8.826   8.250  69.777  1.00  0.00    -0.142 A  
HETATM   16  C   UNL     1      -9.848   9.636  65.686  1.00  0.00    -0.299 A  
HETATM   17  C   UNL     1      -8.615   6.971  69.015  1.00  0.00    -0.129 A  
HETATM   18  N   UNL     1      -9.510   8.355  65.777  1.00  0.00    -0.094 NA 
HETATM   19  C   UNL     1      -8.848   7.003  67.700  1.00  0.00    -0.119 A  
HETATM   20  N   UNL     1      -9.253   8.180  67.098  1.00  0.00    -0.140 NA 
BRANCH  15  21
HETATM   21  N   UNL     1      -8.538   8.194  71.121  1.00  0.00    -0.126 NA 
HETATM   22  C   UNL     1      -8.684   8.182  73.484  1.00  0.00    -0.317 C  
HETATM   23  C   UNL     1      -7.301   7.637  71.631  1.00  0.00    -0.068 C  
HETATM   24  C   UNL     1      -9.375   8.715  72.203  1.00  0.00    -0.273 C  
HETATM   25  C   UNL     1      -7.711   7.112  72.993  1.00  0.00    -0.099 C  
BRANCH  24  26
HETATM   26  C   UNL     1     -10.826   8.331  71.994  1.00  0.00    -0.370 A  
HETATM   27  C   UNL     1     -11.304   7.016  72.000  1.00  0.00    -0.264 A  
HETATM   28  C   UNL     1     -12.638   6.721  71.703  1.00  0.00    -0.380 A  
HETATM   29  F   UNL     1     -10.489   5.988  72.273  1.00  0.00    -0.210 F  
HETATM   30  C   UNL     1     -13.522   7.747  71.380  1.00  0.00    -0.317 A  
HETATM   31  C   UNL     1     -13.066   9.058  71.377  1.00  0.00    -0.284 A  
HETATM   32  C   UNL     1     -11.742   9.355  71.682  1.00  0.00    -0.468 A  
HETATM   33  F   UNL     1     -13.910  10.049  71.062  1.00  0.00    -0.344 F  
ENDBRANCH  24  26
ENDBRANCH  15  21
ENDBRANCH  10  12
ENDBRANCH   8  10
ENDBRANCH   6   8
TORSDOF 5
ENDMDL
MODEL       39
REMARK 921   NORMALIZED FREE ENERGY PREDICTED BY IDOCK:   -6.69 KCAL/MOL
REMARK 922        TOTAL FREE ENERGY PREDICTED BY IDOCK:  -10.37 KCAL/MOL
REMARK 923 INTER-LIGAND FREE ENERGY PREDICTED BY IDOCK:   -9.77 KCAL/MOL
REMARK 924 INTRA-LIGAND FREE ENERGY PREDICTED BY IDOCK:   -0.60 KCAL/MOL
REMARK 927      BINDING AFFINITY PREDICTED BY RF-SCORE:    0.00 PKD
ROOT
HETATM    1  O   UNL     1     -12.515   5.904  72.588  1.00  0.00    -0.537 OA 
HETATM    2  H   UNL     1     -12.590   6.167  73.498  1.00  0.00     0.000 HD 
HETATM    3  C   UNL     1     -11.469   6.605  71.937  1.00  0.00    -0.291 C  
HETATM    4  C   UNL     1     -11.348   6.183  70.477  1.00  0.00    -0.381 C  
HETATM    5  C   UNL     1     -10.648   7.367  69.844  1.00  0.00    -0.236 C  
HETATM    6  N   UNL     1     -11.145   8.520  70.575  1.00  0.00    -0.246 N  
HETATM    7  C   UNL     1     -11.743   8.111  71.843  1.00  0.00    -0.310 C  
ENDROOT
BRANCH   6   8
HETATM    8  C   UNL     1     -10.971   9.786  70.040  1.00  0.00    -0.277 C  
HETATM    9  O   UNL     1      -9.847  10.168  69.736  1.00  0.00    -0.232 OA 
BRANCH   8  10
HETATM   10  N   UNL     1     -12.131  10.518  69.942  1.00  0.00    -0.445 N  
HETATM   11  H   UNL     1     -12.811  10.213  69.247  1.00  0.00     0.000 HD 
BRANCH  10  12
HETATM   12  C   UNL     1     -12.466  11.635  70.700  1.00  0.00    -0.295 A  
HETATM   13  C   UNL     1     -12.165  12.981  70.541  1.00  0.00    -0.313 A  
HETATM   14  N   UNL     1     -11.469  13.705  69.600  1.00  0.00    -0.248 NA 
HETATM   15  C   UNL     1     -11.293  14.987  69.809  1.00  0.00    -0.283 A  
HETATM   16  C   UNL     1     -13.262  11.583  71.866  1.00  0.00    -0.374 A  
HETATM   17  C   UNL     1     -11.913  15.715  70.969  1.00  0.00    -0.445 A  
HETATM   18  N   UNL     1     -13.434  12.766  72.446  1.00  0.00    -0.520 NA 
HETATM   19  C   UNL     1     -12.624  14.986  71.833  1.00  0.00    -0.333 A  
HETATM   20  N   UNL     1     -12.754  13.622  71.643  1.00  0.00    -0.331 NA 
BRANCH  15  21
HETATM   21  N   UNL     1     -10.534  15.759  68.961  1.00  0.00    -0.213 NA 
HETATM   22  C   UNL     1      -9.275  16.565  67.125  1.00  0.00    -0.226 C  
HETATM   23  C   UNL     1     -10.424  17.198  69.104  1.00  0.00    -0.296 C  
HETATM   24  C   UNL     1      -9.705  15.269  67.858  1.00  0.00    -0.211 C  
HETATM   25  C   UNL     1     -10.188  17.656  67.678  1.00  0.00    -0.351 C  
BRANCH  24  26
HETATM   26  C   UNL     1     -10.454  14.234  67.042  1.00  0.00    -0.271 A  
HETATM   27  C   UNL     1     -10.117  12.877  66.985  1.00  0.00    -0.245 A  
HETATM   28  C   UNL     1     -10.787  11.993  66.135  1.00  0.00    -0.325 A  
HETATM   29  F   UNL     1      -9.120  12.383  67.732  1.00  0.00    -0.165 F  
HETATM   30  C   UNL     1     -11.810  12.457  65.312  1.00  0.00    -0.451 A  
HETATM   31  C   UNL     1     -12.162  13.799  65.363  1.00  0.00    -0.440 A  
HETATM   32  C   UNL     1     -11.503  14.680  66.215  1.00  0.00    -0.351 A  
HETATM   33  F   UNL     1     -13.141  14.254  64.570  1.00  0.00    -0.126 F  
ENDBRANCH  24  26
ENDBRANCH  15  21
ENDBRANCH  10  12
ENDBRANCH   8  10
ENDBRANCH   6   8
TORSDOF 5
ENDMDL
MODEL       40
REMARK 921   NORMALIZED FREE ENERGY PREDICTED BY IDOCK:   -6.68 KCAL/MOL
REMARK 922        TOTAL FREE ENERGY PREDICTED BY IDOCK:  -10.36 KCAL/MOL
REMARK 923 INTER-LIGAND FREE ENERGY PREDICTED BY IDOCK:   -8.90 KCAL/MOL
REMARK 924 INTRA-LIGAND FREE ENERGY PREDICTED BY IDOCK:   -1.46 KCAL/MOL
REMARK 927      BINDING AFFINITY PREDICTED BY RF-SCORE:    0.00 PKD
ROOT
HETATM    1  O   UNL     1     -11.757  16.681  64.002  1.00  0.00    -1.394 OA 
HETATM    2  H   UNL     1     -11.887  16.514  63.076  1.00  0.00     0.000 HD 
HETATM    3  C   UNL     1     -10.912  15.705  64.587  1.00  0.00    -0.325 C  
HETATM    4  C   UNL     1     -10.705  15.973  66.073  1.00  0.00    -0.271 C  
HETATM    5  C   UNL     1     -10.312  14.612  66.606  1.00  0.00    -0.273 C  
HETATM    6  N   UNL     1     -11.063  13.669  65.795  1.00  0.00    -0.287 N  
HETATM    7  C   UNL     1     -11.537  14.304  64.569  1.00  0.00    -0.387 C  
ENDROOT
BRANCH   6   8
HETATM    8  C   UNL     1     -11.199  12.361  66.230  1.00  0.00    -0.317 C  
HETATM    9  O   UNL     1     -12.201  12.028  66.853  1.00  0.00    -0.529 OA 
BRANCH   8  10
HETATM   10  N   UNL     1     -10.126  11.555  65.931  1.00  0.00    -0.222 N  
HETATM   11  H   UNL     1     -10.016  11.277  64.956  1.00  0.00     0.000 HD 
BRANCH  10  12
HETATM   12  C   UNL     1      -9.175  11.083  66.830  1.00  0.00    -0.161 A  
HETATM   13  C   UNL     1      -9.296  10.316  67.980  1.00  0.00    -0.138 A  
HETATM   14  N   UNL     1     -10.353   9.730  68.638  1.00  0.00    -0.193 NA 
HETATM   15  C   UNL     1     -10.120   9.136  69.783  1.00  0.00    -0.199 A  
HETATM   16  C   UNL     1      -7.787  11.314  66.698  1.00  0.00    -0.152 A  
HETATM   17  C   UNL     1      -8.736   8.971  70.347  1.00  0.00    -0.224 A  
HETATM   18  N   UNL     1      -7.066  10.793  67.685  1.00  0.00    -0.089 NA 
HETATM   19  C   UNL     1      -7.730   9.509  69.653  1.00  0.00    -0.112 A  
HETATM   20  N   UNL     1      -7.988  10.190  68.477  1.00  0.00    -0.101 NA 
BRANCH  15  21
HETATM   21  N   UNL     1     -11.137   8.606  70.542  1.00  0.00    -0.242 NA 
HETATM   22  C   UNL     1     -12.742   7.160  71.511  1.00  0.00    -0.433 C  
HETATM   23  C   UNL     1     -11.605   9.229  71.764  1.00  0.00    -0.388 C  
HETATM   24  C   UNL     1     -11.915   7.407  70.224  1.00  0.00     0.061 C  
HETATM   25  C   UNL     1     -12.096   8.045  72.574  1.00  0.00    -0.338 C  
BRANCH  24  26
HETATM   26  C   UNL     1     -11.008   6.284  69.764  1.00  0.00    -0.444 A  
HETATM   27  C   UNL     1     -10.770   5.957  68.424  1.00  0.00    -0.250 A  
HETATM   28  C   UNL     1     -10.001   4.846  68.068  1.00  0.00    -0.175 A  
HETATM   29  F   UNL     1     -11.295   6.690  67.433  1.00  0.00    -0.405 F  
HETATM   30  C   UNL     1      -9.458   4.028  69.056  1.00  0.00    -0.243 A  
HETATM   31  C   UNL     1      -9.677   4.344  70.391  1.00  0.00    -0.214 A  
HETATM   32  C   UNL     1     -10.434   5.454  70.748  1.00  0.00    -0.317 A  
HETATM   33  F   UNL     1      -9.163   3.558  71.346  1.00  0.00    -0.139 F  
ENDBRANCH  24  26
ENDBRANCH  15  21
ENDBRANCH  10  12
ENDBRANCH   8  10
ENDBRANCH   6   8
TORSDOF 5
ENDMDL
MODEL       41
REMARK 921   NORMALIZED FREE ENERGY PREDICTED BY IDOCK:   -6.67 KCAL/MOL
REMARK 922        TOTAL FREE ENERGY PREDICTED BY IDOCK:  -10.36 KCAL/MOL
REMARK 923 INTER-LIGAND FREE ENERGY PREDICTED BY IDOCK:   -9.25 KCAL/MOL
REMARK 924 INTRA-LIGAND FREE ENERGY PREDICTED BY IDOCK:   -1.11 KCAL/MOL
REMARK 927      BINDING AFFINITY PREDICTED BY RF-SCORE:    0.00 PKD
ROOT
HETATM    1  O   UNL     1     -11.818   6.637  72.907  1.00  0.00    -0.482 OA 
HETATM    2  H   UNL     1     -12.496   6.577  73.570  1.00  0.00     0.000 HD 
HETATM    3  C   UNL     1     -11.452   7.985  72.667  1.00  0.00    -0.402 C  
HETATM    4  C   UNL     1     -10.364   8.080  71.603  1.00  0.00    -0.267 C  
HETATM    5  C   UNL     1     -10.522   9.494  71.089  1.00  0.00    -0.288 C  
HETATM    6  N   UNL     1     -11.949   9.757  71.170  1.00  0.00    -0.347 N  
HETATM    7  C   UNL     1     -12.600   8.804  72.064  1.00  0.00    -0.385 C  
ENDROOT
BRANCH   6   8
HETATM    8  C   UNL     1     -12.480  10.827  70.469  1.00  0.00    -0.360 C  
HETATM    9  O   UNL     1     -12.592  10.760  69.250  1.00  0.00    -0.324 OA 
BRANCH   8  10
HETATM   10  N   UNL     1     -12.802  11.908  71.255  1.00  0.00    -0.351 N  
HETATM   11  H   UNL     1     -13.339  11.719  72.101  1.00  0.00     0.000 HD 
BRANCH  10  12
HETATM   12  C   UNL     1     -12.467  13.235  71.007  1.00  0.00    -0.336 A  
HETATM   13  C   UNL     1     -12.182  13.909  69.828  1.00  0.00    -0.332 A  
HETATM   14  N   UNL     1     -12.145  13.548  68.500  1.00  0.00    -0.334 NA 
HETATM   15  C   UNL     1     -11.735  14.435  67.626  1.00  0.00    -0.391 A  
HETATM   16  C   UNL     1     -12.367  14.221  72.015  1.00  0.00    -0.198 A  
HETATM   17  C   UNL     1     -11.415  15.856  67.999  1.00  0.00    -0.236 A  
HETATM   18  N   UNL     1     -12.008  15.415  71.556  1.00  0.00    -0.339 NA 
HETATM   19  C   UNL     1     -11.512  16.181  69.291  1.00  0.00    -0.304 A  
HETATM   20  N   UNL     1     -11.884  15.225  70.218  1.00  0.00    -0.292 NA 
BRANCH  15  21
HETATM   21  N   UNL     1     -11.586  14.123  66.295  1.00  0.00    -0.356 NA 
HETATM   22  C   UNL     1     -10.774  13.332  64.217  1.00  0.00    -0.408 C  
HETATM   23  C   UNL     1     -12.700  14.110  65.368  1.00  0.00    -0.431 C  
HETATM   24  C   UNL     1     -10.325  13.822  65.617  1.00  0.00    -0.311 C  
HETATM   25  C   UNL     1     -12.273  13.070  64.350  1.00  0.00    -0.471 C  
BRANCH  24  26
HETATM   26  C   UNL     1      -9.485  12.868  66.442  1.00  0.00    -0.228 A  
HETATM   27  C   UNL     1      -9.862  11.559  66.765  1.00  0.00    -0.203 A  
HETATM   28  C   UNL     1      -9.087  10.763  67.612  1.00  0.00    -0.148 A  
HETATM   29  F   UNL     1     -10.996  11.031  66.284  1.00  0.00    -0.320 F  
HETATM   30  C   UNL     1      -7.915  11.271  68.167  1.00  0.00    -0.131 A  
HETATM   31  C   UNL     1      -7.523  12.565  67.851  1.00  0.00    -0.120 A  
HETATM   32  C   UNL     1      -8.287  13.356  66.999  1.00  0.00    -0.089 A  
HETATM   33  F   UNL     1      -6.400  13.062  68.385  1.00  0.00    -0.066 F  
ENDBRANCH  24  26
ENDBRANCH  15  21
ENDBRANCH  10  12
ENDBRANCH   8  10
ENDBRANCH   6   8
TORSDOF 5
ENDMDL
MODEL       42
REMARK 921   NORMALIZED FREE ENERGY PREDICTED BY IDOCK:   -6.67 KCAL/MOL
REMARK 922        TOTAL FREE ENERGY PREDICTED BY IDOCK:  -10.35 KCAL/MOL
REMARK 923 INTER-LIGAND FREE ENERGY PREDICTED BY IDOCK:   -9.17 KCAL/MOL
REMARK 924 INTRA-LIGAND FREE ENERGY PREDICTED BY IDOCK:   -1.18 KCAL/MOL
REMARK 927      BINDING AFFINITY PREDICTED BY RF-SCORE:    0.00 PKD
ROOT
HETATM    1  O   UNL     1      -7.633  20.948  66.613  1.00  0.00    -0.531 OA 
HETATM    2  H   UNL     1      -6.724  20.684  66.696  1.00  0.00     0.000 HD 
HETATM    3  C   UNL     1      -8.487  20.086  67.345  1.00  0.00    -0.336 C  
HETATM    4  C   UNL     1      -9.946  20.509  67.210  1.00  0.00    -0.528 C  
HETATM    5  C   UNL     1     -10.695  19.233  67.527  1.00  0.00    -0.463 C  
HETATM    6  N   UNL     1      -9.849  18.172  67.008  1.00  0.00    -0.308 N  
HETATM    7  C   UNL     1      -8.488  18.655  66.791  1.00  0.00    -0.286 C  
ENDROOT
BRANCH   6   8
HETATM    8  C   UNL     1     -10.384  16.907  66.829  1.00  0.00    -0.298 C  
HETATM    9  O   UNL     1     -10.721  16.246  67.804  1.00  0.00    -0.315 OA 
BRANCH   8  10
HETATM   10  N   UNL     1     -10.443  16.503  65.516  1.00  0.00    -0.346 N  
HETATM   11  H   UNL     1     -10.028  17.126  64.823  1.00  0.00     0.000 HD 
BRANCH  10  12
HETATM   12  C   UNL     1     -11.013  15.327  65.041  1.00  0.00    -0.437 A  
HETATM   13  C   UNL     1     -10.678  13.995  65.239  1.00  0.00    -0.358 A  
HETATM   14  N   UNL     1      -9.708  13.346  65.970  1.00  0.00    -0.253 NA 
HETATM   15  C   UNL     1      -9.613  12.044  65.857  1.00  0.00    -0.223 A  
HETATM   16  C   UNL     1     -12.154  15.288  64.207  1.00  0.00    -0.208 A  
HETATM   17  C   UNL     1     -10.586  11.223  65.057  1.00  0.00    -0.353 A  
HETATM   18  N   UNL     1     -12.510  14.059  63.852  1.00  0.00    -0.756 NA 
HETATM   19  C   UNL     1     -11.544  11.885  64.403  1.00  0.00    -0.292 A  
HETATM   20  N   UNL     1     -11.602  13.265  64.473  1.00  0.00    -0.352 NA 
BRANCH  15  21
HETATM   21  N   UNL     1      -8.616  11.336  66.485  1.00  0.00    -0.166 NA 
HETATM   22  C   UNL     1      -7.309  10.152  68.065  1.00  0.00    -0.086 C  
HETATM   23  C   UNL     1      -7.585  10.624  65.754  1.00  0.00    -0.120 C  
HETATM   24  C   UNL     1      -8.409  11.235  67.931  1.00  0.00    -0.131 C  
HETATM   25  C   UNL     1      -7.239   9.485  66.693  1.00  0.00    -0.086 C  
BRANCH  24  26
HETATM   26  C   UNL     1      -9.720  10.975  68.644  1.00  0.00    -0.198 A  
HETATM   27  C   UNL     1     -10.611  11.973  69.052  1.00  0.00    -0.098 A  
HETATM   28  C   UNL     1     -11.757  11.673  69.794  1.00  0.00    -0.425 A  
HETATM   29  F   UNL     1     -10.382  13.261  68.761  1.00  0.00    -0.232 F  
HETATM   30  C   UNL     1     -12.028  10.356  70.154  1.00  0.00    -0.357 A  
HETATM   31  C   UNL     1     -11.159   9.351  69.750  1.00  0.00    -0.172 A  
HETATM   32  C   UNL     1     -10.023   9.646  69.004  1.00  0.00    -0.189 A  
HETATM   33  F   UNL     1     -11.411   8.083  70.098  1.00  0.00    -0.261 F  
ENDBRANCH  24  26
ENDBRANCH  15  21
ENDBRANCH  10  12
ENDBRANCH   8  10
ENDBRANCH   6   8
TORSDOF 5
ENDMDL
MODEL       43
REMARK 921   NORMALIZED FREE ENERGY PREDICTED BY IDOCK:   -6.66 KCAL/MOL
REMARK 922        TOTAL FREE ENERGY PREDICTED BY IDOCK:  -10.34 KCAL/MOL
REMARK 923 INTER-LIGAND FREE ENERGY PREDICTED BY IDOCK:   -9.01 KCAL/MOL
REMARK 924 INTRA-LIGAND FREE ENERGY PREDICTED BY IDOCK:   -1.33 KCAL/MOL
REMARK 927      BINDING AFFINITY PREDICTED BY RF-SCORE:    0.00 PKD
ROOT
HETATM    1  O   UNL     1      -9.447  11.167  62.502  1.00  0.00    -0.511 OA 
HETATM    2  H   UNL     1      -9.839  11.555  61.728  1.00  0.00     0.000 HD 
HETATM    3  C   UNL     1     -10.371  11.117  63.575  1.00  0.00    -0.387 C  
HETATM    4  C   UNL     1      -9.742  10.496  64.817  1.00  0.00    -0.365 C  
HETATM    5  C   UNL     1     -10.606  11.035  65.936  1.00  0.00    -0.206 C  
HETATM    6  N   UNL     1     -10.988  12.366  65.495  1.00  0.00    -0.284 N  
HETATM    7  C   UNL     1     -10.787  12.513  64.056  1.00  0.00    -0.406 C  
ENDROOT
BRANCH   6   8
HETATM    8  C   UNL     1     -11.498  13.264  66.419  1.00  0.00    -0.329 C  
HETATM    9  O   UNL     1     -12.455  13.968  66.117  1.00  0.00    -0.467 OA 
BRANCH   8  10
HETATM   10  N   UNL     1     -10.815  13.291  67.612  1.00  0.00    -0.254 N  
HETATM   11  H   UNL     1      -9.808  13.138  67.570  1.00  0.00     0.000 HD 
BRANCH  10  12
HETATM   12  C   UNL     1     -11.365  13.506  68.871  1.00  0.00    -0.289 A  
HETATM   13  C   UNL     1     -11.897  12.628  69.806  1.00  0.00    -0.309 A  
HETATM   14  N   UNL     1     -12.058  11.262  69.859  1.00  0.00    -0.332 NA 
HETATM   15  C   UNL     1     -12.702  10.753  70.880  1.00  0.00    -0.384 A  
HETATM   16  C   UNL     1     -11.470  14.779  69.476  1.00  0.00    -0.298 A  
HETATM   17  C   UNL     1     -13.169  11.582  72.044  1.00  0.00    -0.443 A  
HETATM   18  N   UNL     1     -12.053  14.754  70.669  1.00  0.00    -0.288 NA 
HETATM   19  C   UNL     1     -12.948  12.898  71.979  1.00  0.00    -0.280 A  
HETATM   20  N   UNL     1     -12.325  13.440  70.870  1.00  0.00    -0.375 NA 
BRANCH  15  21
HETATM   21  N   UNL     1     -12.980   9.408  70.961  1.00  0.00    -0.222 NA 
HETATM   22  C   UNL     1     -12.813   7.050  71.095  1.00  0.00    -0.328 C  
HETATM   23  C   UNL     1     -14.270   8.903  71.387  1.00  0.00    -0.171 C  
HETATM   24  C   UNL     1     -12.076   8.318  70.592  1.00  0.00     0.042 C  
HETATM   25  C   UNL     1     -13.913   7.571  72.017  1.00  0.00    -0.294 C  
BRANCH  24  26
HETATM   26  C   UNL     1     -10.684   8.565  71.139  1.00  0.00    -0.290 A  
HETATM   27  C   UNL     1      -9.601   9.013  70.375  1.00  0.00    -0.208 A  
HETATM   28  C   UNL     1      -8.319   9.126  70.918  1.00  0.00    -0.231 A  
HETATM   29  F   UNL     1      -9.756   9.330  69.082  1.00  0.00    -0.154 F  
HETATM   30  C   UNL     1      -8.093   8.780  72.248  1.00  0.00     0.015 A  
HETATM   31  C   UNL     1      -9.158   8.341  73.023  1.00  0.00    -0.249 A  
HETATM   32  C   UNL     1     -10.437   8.237  72.487  1.00  0.00    -0.406 A  
HETATM   33  F   UNL     1      -8.946   8.001  74.301  1.00  0.00    -0.303 F  
ENDBRANCH  24  26
ENDBRANCH  15  21
ENDBRANCH  10  12
ENDBRANCH   8  10
ENDBRANCH   6   8
TORSDOF 5
ENDMDL
MODEL       44
REMARK 921   NORMALIZED FREE ENERGY PREDICTED BY IDOCK:   -6.65 KCAL/MOL
REMARK 922        TOTAL FREE ENERGY PREDICTED BY IDOCK:  -10.33 KCAL/MOL
REMARK 923 INTER-LIGAND FREE ENERGY PREDICTED BY IDOCK:   -9.06 KCAL/MOL
REMARK 924 INTRA-LIGAND FREE ENERGY PREDICTED BY IDOCK:   -1.27 KCAL/MOL
REMARK 927      BINDING AFFINITY PREDICTED BY RF-SCORE:    0.00 PKD
ROOT
HETATM    1  O   UNL     1     -10.604   4.020  72.907  1.00  0.00    -0.169 OA 
HETATM    2  H   UNL     1     -11.305   3.428  72.660  1.00  0.00     0.000 HD 
HETATM    3  C   UNL     1     -11.108   5.302  73.242  1.00  0.00    -0.316 C  
HETATM    4  C   UNL     1      -9.983   6.251  73.638  1.00  0.00    -0.218 C  
HETATM    5  C   UNL     1     -10.593   7.614  73.392  1.00  0.00    -0.293 C  
HETATM    6  N   UNL     1     -11.464   7.425  72.244  1.00  0.00    -0.276 N  
HETATM    7  C   UNL     1     -11.753   6.008  72.042  1.00  0.00    -0.257 C  
ENDROOT
BRANCH   6   8
HETATM    8  C   UNL     1     -11.916   8.534  71.548  1.00  0.00    -0.303 C  
HETATM    9  O   UNL     1     -12.679   9.324  72.093  1.00  0.00    -0.377 OA 
BRANCH   8  10
HETATM   10  N   UNL     1     -11.465   8.605  70.252  1.00  0.00    -0.448 N  
HETATM   11  H   UNL     1     -12.023   8.129  69.543  1.00  0.00     0.000 HD 
BRANCH  10  12
HETATM   12  C   UNL     1     -10.322   9.264  69.812  1.00  0.00    -0.218 A  
HETATM   13  C   UNL     1     -10.096  10.084  68.715  1.00  0.00    -0.185 A  
HETATM   14  N   UNL     1     -10.885  10.562  67.693  1.00  0.00    -0.279 NA 
HETATM   15  C   UNL     1     -10.314  11.259  66.742  1.00  0.00    -0.238 A  
HETATM   16  C   UNL     1      -9.081   9.218  70.485  1.00  0.00    -0.259 A  
HETATM   17  C   UNL     1      -8.863  11.652  66.779  1.00  0.00    -0.184 A  
HETATM   18  N   UNL     1      -8.119   9.899  69.873  1.00  0.00    -0.180 NA 
HETATM   19  C   UNL     1      -8.142  11.211  67.813  1.00  0.00    -0.117 A  
HETATM   20  N   UNL     1      -8.734  10.422  68.783  1.00  0.00    -0.137 NA 
BRANCH  15  21
HETATM   21  N   UNL     1     -11.018  11.695  65.644  1.00  0.00    -0.286 NA 
HETATM   22  C   UNL     1     -12.318  12.966  64.127  1.00  0.00    -0.450 C  
HETATM   23  C   UNL     1     -10.858  11.105  64.329  1.00  0.00    -0.284 C  
HETATM   24  C   UNL     1     -12.040  12.743  65.636  1.00  0.00    -0.459 C  
HETATM   25  C   UNL     1     -11.171  12.265  63.404  1.00  0.00    -0.497 C  
BRANCH  24  26
HETATM   26  C   UNL     1     -11.582  13.947  66.435  1.00  0.00    -0.382 A  
HETATM   27  C   UNL     1     -10.582  14.835  66.024  1.00  0.00    -0.312 A  
HETATM   28  C   UNL     1     -10.137  15.869  66.853  1.00  0.00    -0.267 A  
HETATM   29  F   UNL     1     -10.001  14.711  64.823  1.00  0.00    -0.392 F  
HETATM   30  C   UNL     1     -10.682  16.026  68.125  1.00  0.00    -0.311 A  
HETATM   31  C   UNL     1     -11.681  15.158  68.545  1.00  0.00    -0.325 A  
HETATM   32  C   UNL     1     -12.133  14.135  67.719  1.00  0.00    -0.321 A  
HETATM   33  F   UNL     1     -12.205  15.300  69.769  1.00  0.00    -0.316 F  
ENDBRANCH  24  26
ENDBRANCH  15  21
ENDBRANCH  10  12
ENDBRANCH   8  10
ENDBRANCH   6   8
TORSDOF 5
ENDMDL
MODEL       45
REMARK 921   NORMALIZED FREE ENERGY PREDICTED BY IDOCK:   -6.65 KCAL/MOL
REMARK 922        TOTAL FREE ENERGY PREDICTED BY IDOCK:  -10.32 KCAL/MOL
REMARK 923 INTER-LIGAND FREE ENERGY PREDICTED BY IDOCK:   -8.61 KCAL/MOL
REMARK 924 INTRA-LIGAND FREE ENERGY PREDICTED BY IDOCK:   -1.72 KCAL/MOL
REMARK 927      BINDING AFFINITY PREDICTED BY RF-SCORE:    0.00 PKD
ROOT
HETATM    1  O   UNL     1     -11.339  16.610  64.188  1.00  0.00    -1.419 OA 
HETATM    2  H   UNL     1     -11.317  15.761  63.761  1.00  0.00     0.000 HD 
HETATM    3  C   UNL     1     -10.420  16.666  65.266  1.00  0.00    -0.173 C  
HETATM    4  C   UNL     1     -10.456  18.028  65.951  1.00  0.00    -0.268 C  
HETATM    5  C   UNL     1      -9.906  17.724  67.328  1.00  0.00    -0.312 C  
HETATM    6  N   UNL     1     -10.372  16.379  67.621  1.00  0.00    -0.277 N  
HETATM    7  C   UNL     1     -10.787  15.697  66.398  1.00  0.00    -0.252 C  
ENDROOT
BRANCH   6   8
HETATM    8  C   UNL     1     -10.336  15.920  68.927  1.00  0.00    -0.228 C  
HETATM    9  O   UNL     1     -11.374  15.844  69.574  1.00  0.00    -0.291 OA 
BRANCH   8  10
HETATM   10  N   UNL     1      -9.073  15.624  69.383  1.00  0.00    -0.274 N  
HETATM   11  H   UNL     1      -8.851  15.905  70.338  1.00  0.00     0.000 HD 
BRANCH  10  12
HETATM   12  C   UNL     1      -8.070  14.978  68.669  1.00  0.00    -0.153 A  
HETATM   13  C   UNL     1      -7.969  13.679  68.191  1.00  0.00    -0.148 A  
HETATM   14  N   UNL     1      -8.797  12.579  68.215  1.00  0.00    -0.187 NA 
HETATM   15  C   UNL     1      -8.340  11.448  67.737  1.00  0.00    -0.127 A  
HETATM   16  C   UNL     1      -6.872  15.605  68.255  1.00  0.00    -0.119 A  
HETATM   17  C   UNL     1      -7.000  11.331  67.064  1.00  0.00    -0.126 A  
HETATM   18  N   UNL     1      -6.044  14.793  67.609  1.00  0.00    -0.309 NA 
HETATM   19  C   UNL     1      -6.248  12.433  67.014  1.00  0.00     0.023 A  
HETATM   20  N   UNL     1      -6.708  13.610  67.577  1.00  0.00    -0.198 NA 
BRANCH  15  21
HETATM   21  N   UNL     1      -9.072  10.286  67.806  1.00  0.00    -0.134 NA 
HETATM   22  C   UNL     1     -10.724   8.613  67.528  1.00  0.00    -0.209 C  
HETATM   23  C   UNL     1      -8.504   9.031  68.259  1.00  0.00    -0.129 C  
HETATM   24  C   UNL     1     -10.497  10.146  67.501  1.00  0.00    -0.253 C  
HETATM   25  C   UNL     1      -9.324   8.004  67.503  1.00  0.00    -0.171 C  
BRANCH  24  26
HETATM   26  C   UNL     1     -10.845  10.870  66.216  1.00  0.00    -0.191 A  
HETATM   27  C   UNL     1     -10.231  10.631  64.982  1.00  0.00    -0.310 A  
HETATM   28  C   UNL     1     -10.529  11.402  63.855  1.00  0.00    -0.444 A  
HETATM   29  F   UNL     1      -9.316   9.661  64.845  1.00  0.00    -0.255 F  
HETATM   30  C   UNL     1     -11.448  12.444  63.947  1.00  0.00    -0.509 A  
HETATM   31  C   UNL     1     -12.073  12.690  65.163  1.00  0.00    -0.455 A  
HETATM   32  C   UNL     1     -11.785  11.917  66.283  1.00  0.00    -0.223 A  
HETATM   33  F   UNL     1     -12.953  13.694  65.260  1.00  0.00    -0.487 F  
ENDBRANCH  24  26
ENDBRANCH  15  21
ENDBRANCH  10  12
ENDBRANCH   8  10
ENDBRANCH   6   8
TORSDOF 5
ENDMDL
MODEL       46
REMARK 921   NORMALIZED FREE ENERGY PREDICTED BY IDOCK:   -6.63 KCAL/MOL
REMARK 922        TOTAL FREE ENERGY PREDICTED BY IDOCK:  -10.30 KCAL/MOL
REMARK 923 INTER-LIGAND FREE ENERGY PREDICTED BY IDOCK:   -8.63 KCAL/MOL
REMARK 924 INTRA-LIGAND FREE ENERGY PREDICTED BY IDOCK:   -1.67 KCAL/MOL
REMARK 927      BINDING AFFINITY PREDICTED BY RF-SCORE:    0.00 PKD
ROOT
HETATM    1  O   UNL     1     -12.478  14.595  63.795  1.00  0.00    -1.041 OA 
HETATM    2  H   UNL     1     -12.791  13.698  63.774  1.00  0.00     0.000 HD 
HETATM    3  C   UNL     1     -11.439  14.752  64.748  1.00  0.00    -0.410 C  
HETATM    4  C   UNL     1     -10.936  16.191  64.783  1.00  0.00    -0.330 C  
HETATM    5  C   UNL     1     -10.313  16.293  66.159  1.00  0.00    -0.341 C  
HETATM    6  N   UNL     1     -11.135  15.438  66.998  1.00  0.00    -0.307 N  
HETATM    7  C   UNL     1     -11.923  14.517  66.185  1.00  0.00    -0.312 C  
ENDROOT
BRANCH   6   8
HETATM    8  C   UNL     1     -11.053  15.562  68.376  1.00  0.00    -0.315 C  
HETATM    9  O   UNL     1     -10.015  15.964  68.889  1.00  0.00    -0.205 OA 
BRANCH   8  10
HETATM   10  N   UNL     1     -12.186  15.164  69.044  1.00  0.00    -0.585 N  
HETATM   11  H   UNL     1     -13.018  15.742  68.925  1.00  0.00     0.000 HD 
BRANCH  10  12
HETATM   12  C   UNL     1     -12.309  14.050  69.868  1.00  0.00    -0.310 A  
HETATM   13  C   UNL     1     -11.897  12.735  69.705  1.00  0.00    -0.317 A  
HETATM   14  N   UNL     1     -11.217  12.055  68.720  1.00  0.00    -0.243 NA 
HETATM   15  C   UNL     1     -11.073  10.759  68.846  1.00  0.00    -0.253 A  
HETATM   16  C   UNL     1     -12.919  14.079  71.142  1.00  0.00    -0.332 A  
HETATM   17  C   UNL     1     -11.517  10.006  70.070  1.00  0.00    -0.310 A  
HETATM   18  N   UNL     1     -12.950  12.895  71.743  1.00  0.00    -0.348 NA 
HETATM   19  C   UNL     1     -12.128  10.710  71.027  1.00  0.00    -0.368 A  
HETATM   20  N   UNL     1     -12.335  12.067  70.861  1.00  0.00    -0.351 NA 
BRANCH  15  21
HETATM   21  N   UNL     1     -10.484   9.998  67.863  1.00  0.00    -0.214 NA 
HETATM   22  C   UNL     1      -9.056   9.185  66.159  1.00  0.00    -0.234 C  
HETATM   23  C   UNL     1     -10.754   8.583  67.706  1.00  0.00    -0.101 C  
HETATM   24  C   UNL     1      -9.572  10.485  66.827  1.00  0.00    -0.170 C  
HETATM   25  C   UNL     1      -9.460   8.062  67.111  1.00  0.00    -0.207 C  
BRANCH  24  26
HETATM   26  C   UNL     1      -8.531  11.413  67.421  1.00  0.00    -0.143 A  
HETATM   27  C   UNL     1      -7.696  11.082  68.494  1.00  0.00    -0.122 A  
HETATM   28  C   UNL     1      -6.825  12.017  69.059  1.00  0.00    -0.105 A  
HETATM   29  F   UNL     1      -7.721   9.855  69.033  1.00  0.00    -0.074 F  
HETATM   30  C   UNL     1      -6.780  13.317  68.561  1.00  0.00    -0.092 A  
HETATM   31  C   UNL     1      -7.596  13.660  67.491  1.00  0.00    -0.170 A  
HETATM   32  C   UNL     1      -8.457  12.728  66.920  1.00  0.00    -0.106 A  
HETATM   33  F   UNL     1      -7.562  14.910  67.011  1.00  0.00    -0.218 F  
ENDBRANCH  24  26
ENDBRANCH  15  21
ENDBRANCH  10  12
ENDBRANCH   8  10
ENDBRANCH   6   8
TORSDOF 5
ENDMDL
MODEL       47
REMARK 921   NORMALIZED FREE ENERGY PREDICTED BY IDOCK:   -6.63 KCAL/MOL
REMARK 922        TOTAL FREE ENERGY PREDICTED BY IDOCK:  -10.30 KCAL/MOL
REMARK 923 INTER-LIGAND FREE ENERGY PREDICTED BY IDOCK:   -8.74 KCAL/MOL
REMARK 924 INTRA-LIGAND FREE ENERGY PREDICTED BY IDOCK:   -1.55 KCAL/MOL
REMARK 927      BINDING AFFINITY PREDICTED BY RF-SCORE:    0.00 PKD
ROOT
HETATM    1  O   UNL     1     -11.247   5.740  71.727  1.00  0.00    -0.264 OA 
HETATM    2  H   UNL     1     -11.970   5.265  72.119  1.00  0.00     0.000 HD 
HETATM    3  C   UNL     1     -11.286   7.114  72.075  1.00  0.00    -0.258 C  
HETATM    4  C   UNL     1     -10.125   7.876  71.446  1.00  0.00    -0.212 C  
HETATM    5  C   UNL     1     -10.632   9.302  71.429  1.00  0.00    -0.347 C  
HETATM    6  N   UNL     1     -12.063   9.181  71.207  1.00  0.00    -0.309 N  
HETATM    7  C   UNL     1     -12.520   7.827  71.507  1.00  0.00    -0.324 C  
ENDROOT
BRANCH   6   8
HETATM    8  C   UNL     1     -12.782  10.294  70.804  1.00  0.00    -0.346 C  
HETATM    9  O   UNL     1     -13.189  10.369  69.650  1.00  0.00     0.118 OA 
BRANCH   8  10
HETATM   10  N   UNL     1     -12.930  11.251  71.780  1.00  0.00    -0.454 N  
HETATM   11  H   UNL     1     -12.897  10.931  72.747  1.00  0.00     0.000 HD 
BRANCH  10  12
HETATM   12  C   UNL     1     -13.121  12.613  71.575  1.00  0.00    -0.278 A  
HETATM   13  C   UNL     1     -12.398  13.545  70.843  1.00  0.00    -0.356 A  
HETATM   14  N   UNL     1     -11.273  13.483  70.051  1.00  0.00     0.044 NA 
HETATM   15  C   UNL     1     -10.790  14.602  69.570  1.00  0.00    -0.217 A  
HETATM   16  C   UNL     1     -14.200  13.346  72.119  1.00  0.00    -0.231 A  
HETATM   17  C   UNL     1     -11.473  15.929  69.753  1.00  0.00    -0.342 A  
HETATM   18  N   UNL     1     -14.171  14.639  71.817  1.00  0.00    -0.485 NA 
HETATM   19  C   UNL     1     -12.590  15.940  70.486  1.00  0.00    -0.142 A  
HETATM   20  N   UNL     1     -13.062  14.766  71.045  1.00  0.00    -0.360 NA 
BRANCH  15  21
HETATM   21  N   UNL     1      -9.622  14.631  68.845  1.00  0.00    -0.207 NA 
HETATM   22  C   UNL     1      -7.994  14.436  67.137  1.00  0.00    -0.147 C  
HETATM   23  C   UNL     1      -8.485  15.444  69.230  1.00  0.00    -0.258 C  
HETATM   24  C   UNL     1      -9.330  13.839  67.650  1.00  0.00    -0.213 C  
HETATM   25  C   UNL     1      -7.828  15.749  67.898  1.00  0.00    -0.149 C  
BRANCH  24  26
HETATM   26  C   UNL     1     -10.503  13.859  66.691  1.00  0.00    -0.272 A  
HETATM   27  C   UNL     1     -11.395  12.796  66.510  1.00  0.00    -0.322 A  
HETATM   28  C   UNL     1     -12.398  12.841  65.538  1.00  0.00    -0.495 A  
HETATM   29  F   UNL     1     -11.302  11.685  67.254  1.00  0.00    -0.304 F  
HETATM   30  C   UNL     1     -12.521  13.957  64.714  1.00  0.00    -0.386 A  
HETATM   31  C   UNL     1     -11.649  15.024  64.886  1.00  0.00    -0.374 A  
HETATM   32  C   UNL     1     -10.656  14.986  65.859  1.00  0.00    -0.338 A  
HETATM   33  F   UNL     1     -11.758  16.098  64.093  1.00  0.00    -0.518 F  
ENDBRANCH  24  26
ENDBRANCH  15  21
ENDBRANCH  10  12
ENDBRANCH   8  10
ENDBRANCH   6   8
TORSDOF 5
ENDMDL
MODEL       48
REMARK 921   NORMALIZED FREE ENERGY PREDICTED BY IDOCK:   -6.62 KCAL/MOL
REMARK 922        TOTAL FREE ENERGY PREDICTED BY IDOCK:  -10.28 KCAL/MOL
REMARK 923 INTER-LIGAND FREE ENERGY PREDICTED BY IDOCK:   -8.90 KCAL/MOL
REMARK 924 INTRA-LIGAND FREE ENERGY PREDICTED BY IDOCK:   -1.38 KCAL/MOL
REMARK 927      BINDING AFFINITY PREDICTED BY RF-SCORE:    0.00 PKD
ROOT
HETATM    1  O   UNL     1     -11.910  15.975  63.681  1.00  0.00    -1.280 OA 
HETATM    2  H   UNL     1     -12.088  16.729  64.230  1.00  0.00     0.000 HD 
HETATM    3  C   UNL     1     -12.458  14.793  64.240  1.00  0.00    -0.197 C  
HETATM    4  C   UNL     1     -12.173  13.582  63.358  1.00  0.00    -0.338 C  
HETATM    5  C   UNL     1     -12.291  12.427  64.329  1.00  0.00    -0.455 C  
HETATM    6  N   UNL     1     -11.803  12.956  65.591  1.00  0.00    -0.393 N  
HETATM    7  C   UNL     1     -11.799  14.416  65.573  1.00  0.00    -0.357 C  
ENDROOT
BRANCH   6   8
HETATM    8  C   UNL     1     -11.459  12.077  66.605  1.00  0.00    -0.346 C  
HETATM    9  O   UNL     1     -12.141  12.026  67.622  1.00  0.00    -0.547 OA 
BRANCH   8  10
HETATM   10  N   UNL     1     -10.314  11.356  66.359  1.00  0.00    -0.234 N  
HETATM   11  H   UNL     1     -10.186  11.006  65.410  1.00  0.00     0.000 HD 
BRANCH  10  12
HETATM   12  C   UNL     1      -9.314  11.059  67.279  1.00  0.00    -0.156 A  
HETATM   13  C   UNL     1      -9.319  10.272  68.422  1.00  0.00    -0.143 A  
HETATM   14  N   UNL     1     -10.266   9.495  69.051  1.00  0.00    -0.192 NA 
HETATM   15  C   UNL     1      -9.955   8.943  70.198  1.00  0.00    -0.185 A  
HETATM   16  C   UNL     1      -7.990  11.543  67.184  1.00  0.00    -0.160 A  
HETATM   17  C   UNL     1      -8.578   9.031  70.796  1.00  0.00    -0.259 A  
HETATM   18  N   UNL     1      -7.209  11.155  68.186  1.00  0.00    -0.077 NA 
HETATM   19  C   UNL     1      -7.672   9.752  70.130  1.00  0.00    -0.177 A  
HETATM   20  N   UNL     1      -8.023  10.385  68.952  1.00  0.00    -0.113 NA 
BRANCH  15  21
HETATM   21  N   UNL     1     -10.874   8.227  70.928  1.00  0.00    -0.225 NA 
HETATM   22  C   UNL     1     -12.335   6.548  71.734  1.00  0.00    -0.340 C  
HETATM   23  C   UNL     1     -11.227   8.573  72.291  1.00  0.00    -0.362 C  
HETATM   24  C   UNL     1     -11.652   7.084  70.450  1.00  0.00    -0.295 C  
HETATM   25  C   UNL     1     -11.603   7.230  72.887  1.00  0.00    -0.153 C  
BRANCH  24  26
HETATM   26  C   UNL     1     -10.771   6.116  69.685  1.00  0.00    -0.385 A  
HETATM   27  C   UNL     1     -10.750   5.999  68.291  1.00  0.00    -0.279 A  
HETATM   28  C   UNL     1      -9.987   5.017  67.651  1.00  0.00    -0.202 A  
HETATM   29  F   UNL     1     -11.481   6.815  67.520  1.00  0.00    -0.338 F  
HETATM   30  C   UNL     1      -9.233   4.120  68.404  1.00  0.00    -0.198 A  
HETATM   31  C   UNL     1      -9.237   4.229  69.788  1.00  0.00    -0.137 A  
HETATM   32  C   UNL     1      -9.987   5.210  70.427  1.00  0.00    -0.316 A  
HETATM   33  F   UNL     1      -8.519   3.366  70.519  1.00  0.00    -0.066 F  
ENDBRANCH  24  26
ENDBRANCH  15  21
ENDBRANCH  10  12
ENDBRANCH   8  10
ENDBRANCH   6   8
TORSDOF 5
ENDMDL
MODEL       49
REMARK 921   NORMALIZED FREE ENERGY PREDICTED BY IDOCK:   -6.61 KCAL/MOL
REMARK 922        TOTAL FREE ENERGY PREDICTED BY IDOCK:  -10.27 KCAL/MOL
REMARK 923 INTER-LIGAND FREE ENERGY PREDICTED BY IDOCK:   -8.81 KCAL/MOL
REMARK 924 INTRA-LIGAND FREE ENERGY PREDICTED BY IDOCK:   -1.46 KCAL/MOL
REMARK 927      BINDING AFFINITY PREDICTED BY RF-SCORE:    0.00 PKD
ROOT
HETATM    1  O   UNL     1     -12.188   5.701  72.824  1.00  0.00    -0.531 OA 
HETATM    2  H   UNL     1     -12.239   5.879  73.756  1.00  0.00     0.000 HD 
HETATM    3  C   UNL     1     -11.299   6.598  72.179  1.00  0.00    -0.274 C  
HETATM    4  C   UNL     1     -11.218   6.313  70.683  1.00  0.00    -0.401 C  
HETATM    5  C   UNL     1     -10.740   7.633  70.117  1.00  0.00    -0.240 C  
HETATM    6  N   UNL     1     -11.347   8.639  70.972  1.00  0.00    -0.266 N  
HETATM    7  C   UNL     1     -11.793   8.049  72.230  1.00  0.00    -0.369 C  
ENDROOT
BRANCH   6   8
HETATM    8  C   UNL     1     -11.393   9.955  70.539  1.00  0.00    -0.327 C  
HETATM    9  O   UNL     1     -10.419  10.445  69.979  1.00  0.00    -0.256 OA 
BRANCH   8  10
HETATM   10  N   UNL     1     -12.568  10.603  70.837  1.00  0.00    -0.375 N  
HETATM   11  H   UNL     1     -13.407  10.027  70.903  1.00  0.00     0.000 HD 
BRANCH  10  12
HETATM   12  C   UNL     1     -12.724  11.967  71.056  1.00  0.00    -0.241 A  
HETATM   13  C   UNL     1     -12.521  13.062  70.228  1.00  0.00    -0.147 A  
HETATM   14  N   UNL     1     -12.126  13.217  68.918  1.00  0.00    -0.287 NA 
HETATM   15  C   UNL     1     -11.942  14.433  68.465  1.00  0.00    -0.298 A  
HETATM   16  C   UNL     1     -13.177  12.520  72.275  1.00  0.00    -0.320 A  
HETATM   17  C   UNL     1     -12.252  15.660  69.277  1.00  0.00    -0.167 A  
HETATM   18  N   UNL     1     -13.225  13.848  72.271  1.00  0.00    -0.440 NA 
HETATM   19  C   UNL     1     -12.681  15.468  70.527  1.00  0.00    -0.388 A  
HETATM   20  N   UNL     1     -12.813  14.183  71.022  1.00  0.00    -0.343 NA 
BRANCH  15  21
HETATM   21  N   UNL     1     -11.464  14.666  67.197  1.00  0.00    -0.357 NA 
HETATM   22  C   UNL     1     -10.085  15.152  65.335  1.00  0.00    -0.384 C  
HETATM   23  C   UNL     1     -12.175  14.247  66.005  1.00  0.00    -0.404 C  
HETATM   24  C   UNL     1     -10.239  15.393  66.858  1.00  0.00    -0.273 C  
HETATM   25  C   UNL     1     -11.053  14.017  65.012  1.00  0.00    -0.364 C  
BRANCH  24  26
HETATM   26  C   UNL     1      -9.091  14.952  67.743  1.00  0.00    -0.185 A  
HETATM   27  C   UNL     1      -8.482  15.760  68.710  1.00  0.00    -0.198 A  
HETATM   28  C   UNL     1      -7.361  15.327  69.425  1.00  0.00    -0.207 A  
HETATM   29  F   UNL     1      -8.944  16.991  68.969  1.00  0.00    -0.263 F  
HETATM   30  C   UNL     1      -6.818  14.069  69.174  1.00  0.00    -0.112 A  
HETATM   31  C   UNL     1      -7.415  13.252  68.224  1.00  0.00    -0.126 A  
HETATM   32  C   UNL     1      -8.536  13.676  67.518  1.00  0.00    -0.197 A  
HETATM   33  F   UNL     1      -6.895  12.044  67.974  1.00  0.00    -0.064 F  
ENDBRANCH  24  26
ENDBRANCH  15  21
ENDBRANCH  10  12
ENDBRANCH   8  10
ENDBRANCH   6   8
TORSDOF 5
ENDMDL
MODEL       50
REMARK 921   NORMALIZED FREE ENERGY PREDICTED BY IDOCK:   -6.60 KCAL/MOL
REMARK 922        TOTAL FREE ENERGY PREDICTED BY IDOCK:  -10.25 KCAL/MOL
REMARK 923 INTER-LIGAND FREE ENERGY PREDICTED BY IDOCK:   -9.52 KCAL/MOL
REMARK 924 INTRA-LIGAND FREE ENERGY PREDICTED BY IDOCK:   -0.73 KCAL/MOL
REMARK 927      BINDING AFFINITY PREDICTED BY RF-SCORE:    0.00 PKD
ROOT
HETATM    1  O   UNL     1     -12.437  13.611  63.402  1.00  0.00    -0.916 OA 
HETATM    2  H   UNL     1     -13.206  14.123  63.182  1.00  0.00     0.000 HD 
HETATM    3  C   UNL     1     -12.549  13.049  64.699  1.00  0.00    -0.362 C  
HETATM    4  C   UNL     1     -11.314  12.227  65.053  1.00  0.00    -0.376 C  
HETATM    5  C   UNL     1     -11.344  12.214  66.566  1.00  0.00    -0.350 C  
HETATM    6  N   UNL     1     -11.896  13.507  66.933  1.00  0.00    -0.389 N  
HETATM    7  C   UNL     1     -12.583  14.118  65.799  1.00  0.00    -0.447 C  
ENDROOT
BRANCH   6   8
HETATM    8  C   UNL     1     -11.751  13.959  68.235  1.00  0.00    -0.361 C  
HETATM    9  O   UNL     1     -12.107  15.094  68.527  1.00  0.00    -0.250 OA 
BRANCH   8  10
HETATM   10  N   UNL     1     -11.160  13.051  69.082  1.00  0.00    -0.381 N  
HETATM   11  H   UNL     1     -10.146  12.959  69.023  1.00  0.00     0.000 HD 
BRANCH  10  12
HETATM   12  C   UNL     1     -11.811  12.247  70.011  1.00  0.00    -0.296 A  
HETATM   13  C   UNL     1     -11.706  10.892  70.291  1.00  0.00    -0.347 A  
HETATM   14  N   UNL     1     -10.934   9.865  69.795  1.00  0.00    -0.255 NA 
HETATM   15  C   UNL     1     -11.161   8.651  70.233  1.00  0.00    -0.184 A  
HETATM   16  C   UNL     1     -12.771  12.728  70.930  1.00  0.00    -0.192 A  
HETATM   17  C   UNL     1     -12.146   8.352  71.329  1.00  0.00    -0.315 A  
HETATM   18  N   UNL     1     -13.284  11.781  71.707  1.00  0.00    -0.420 NA 
HETATM   19  C   UNL     1     -12.839   9.382  71.820  1.00  0.00    -0.399 A  
HETATM   20  N   UNL     1     -12.641  10.653  71.311  1.00  0.00    -0.394 NA 
BRANCH  15  21
HETATM   21  N   UNL     1     -10.494   7.562  69.722  1.00  0.00    -0.225 NA 
HETATM   22  C   UNL     1      -9.195   5.599  69.465  1.00  0.00    -0.154 C  
HETATM   23  C   UNL     1     -10.777   7.020  68.408  1.00  0.00    -0.179 C  
HETATM   24  C   UNL     1      -9.398   6.841  70.371  1.00  0.00    -0.163 C  
HETATM   25  C   UNL     1     -10.433   5.553  68.573  1.00  0.00    -0.234 C  
BRANCH  24  26
HETATM   26  C   UNL     1      -9.716   6.582  71.830  1.00  0.00    -0.159 A  
HETATM   27  C   UNL     1      -9.217   7.341  72.895  1.00  0.00    -0.147 A  
HETATM   28  C   UNL     1      -9.468   6.990  74.224  1.00  0.00    -0.267 A  
HETATM   29  F   UNL     1      -8.460   8.424  72.673  1.00  0.00    -0.206 F  
HETATM   30  C   UNL     1     -10.221   5.855  74.514  1.00  0.00    -0.293 A  
HETATM   31  C   UNL     1     -10.731   5.096  73.470  1.00  0.00    -0.286 A  
HETATM   32  C   UNL     1     -10.491   5.448  72.146  1.00  0.00    -0.273 A  
HETATM   33  F   UNL     1     -11.451   4.000  73.742  1.00  0.00    -0.304 F  
ENDBRANCH  24  26
ENDBRANCH  15  21
ENDBRANCH  10  12
ENDBRANCH   8  10
ENDBRANCH   6   8
TORSDOF 5
ENDMDL
MODEL       51
REMARK 921   NORMALIZED FREE ENERGY PREDICTED BY IDOCK:   -6.59 KCAL/MOL
REMARK 922        TOTAL FREE ENERGY PREDICTED BY IDOCK:  -10.24 KCAL/MOL
REMARK 923 INTER-LIGAND FREE ENERGY PREDICTED BY IDOCK:   -8.54 KCAL/MOL
REMARK 924 INTRA-LIGAND FREE ENERGY PREDICTED BY IDOCK:   -1.70 KCAL/MOL
REMARK 927      BINDING AFFINITY PREDICTED BY RF-SCORE:    0.00 PKD
ROOT
HETATM    1  O   UNL     1     -13.675  12.503  72.829  1.00  0.00    -0.652 OA 
HETATM    2  H   UNL     1     -14.005  11.718  72.407  1.00  0.00     0.000 HD 
HETATM    3  C   UNL     1     -13.610  13.586  71.917  1.00  0.00    -0.424 C  
HETATM    4  C   UNL     1     -13.080  14.846  72.594  1.00  0.00    -0.520 C  
HETATM    5  C   UNL     1     -12.552  15.654  71.429  1.00  0.00    -0.457 C  
HETATM    6  N   UNL     1     -12.047  14.663  70.493  1.00  0.00    -0.299 N  
HETATM    7  C   UNL     1     -12.596  13.343  70.791  1.00  0.00    -0.294 C  
ENDROOT
BRANCH   6   8
HETATM    8  C   UNL     1     -11.196  15.064  69.477  1.00  0.00    -0.276 C  
HETATM    9  O   UNL     1     -10.071  15.467  69.750  1.00  0.00    -0.270 OA 
BRANCH   8  10
HETATM   10  N   UNL     1     -11.750  14.997  68.221  1.00  0.00    -0.410 N  
HETATM   11  H   UNL     1     -12.218  15.836  67.879  1.00  0.00     0.000 HD 
BRANCH  10  12
HETATM   12  C   UNL     1     -11.733  13.896  67.371  1.00  0.00    -0.389 A  
HETATM   13  C   UNL     1     -10.915  12.776  67.330  1.00  0.00    -0.253 A  
HETATM   14  N   UNL     1      -9.862  12.326  68.095  1.00  0.00    -0.207 NA 
HETATM   15  C   UNL     1      -9.236  11.241  67.712  1.00  0.00    -0.156 A  
HETATM   16  C   UNL     1     -12.649  13.708  66.312  1.00  0.00    -0.291 A  
HETATM   17  C   UNL     1      -9.688  10.410  66.544  1.00  0.00    -0.241 A  
HETATM   18  N   UNL     1     -12.432  12.600  65.612  1.00  0.00    -0.620 NA 
HETATM   19  C   UNL     1     -10.745  10.852  65.857  1.00  0.00    -0.124 A  
HETATM   20  N   UNL     1     -11.364  12.032  66.226  1.00  0.00    -0.347 NA 
BRANCH  15  21
HETATM   21  N   UNL     1      -8.121  10.779  68.373  1.00  0.00    -0.120 NA 
HETATM   22  C   UNL     1      -6.650   9.682  69.868  1.00  0.00    -0.065 C  
HETATM   23  C   UNL     1      -6.796  10.816  67.787  1.00  0.00    -0.073 C  
HETATM   24  C   UNL     1      -8.087  10.249  69.737  1.00  0.00    -0.110 C  
HETATM   25  C   UNL     1      -6.111   9.632  68.440  1.00  0.00    -0.043 C  
BRANCH  24  26
HETATM   26  C   UNL     1      -9.230   9.282  69.967  1.00  0.00    -0.231 A  
HETATM   27  C   UNL     1      -9.399   8.077  69.277  1.00  0.00    -0.151 A  
HETATM   28  C   UNL     1     -10.530   7.277  69.467  1.00  0.00    -0.238 A  
HETATM   29  F   UNL     1      -8.486   7.658  68.390  1.00  0.00    -0.121 F  
HETATM   30  C   UNL     1     -11.527   7.679  70.353  1.00  0.00    -0.192 A  
HETATM   31  C   UNL     1     -11.371   8.869  71.052  1.00  0.00    -0.291 A  
HETATM   32  C   UNL     1     -10.242   9.662  70.872  1.00  0.00    -0.303 A  
HETATM   33  F   UNL     1     -12.329   9.264  71.901  1.00  0.00    -0.373 F  
ENDBRANCH  24  26
ENDBRANCH  15  21
ENDBRANCH  10  12
ENDBRANCH   8  10
ENDBRANCH   6   8
TORSDOF 5
ENDMDL
MODEL       52
REMARK 921   NORMALIZED FREE ENERGY PREDICTED BY IDOCK:   -6.57 KCAL/MOL
REMARK 922        TOTAL FREE ENERGY PREDICTED BY IDOCK:  -10.22 KCAL/MOL
REMARK 923 INTER-LIGAND FREE ENERGY PREDICTED BY IDOCK:   -8.80 KCAL/MOL
REMARK 924 INTRA-LIGAND FREE ENERGY PREDICTED BY IDOCK:   -1.42 KCAL/MOL
REMARK 927      BINDING AFFINITY PREDICTED BY RF-SCORE:    0.00 PKD
ROOT
HETATM    1  O   UNL     1      -8.918   7.757  65.245  1.00  0.00    -0.384 OA 
HETATM    2  H   UNL     1      -8.937   7.715  66.194  1.00  0.00     0.000 HD 
HETATM    3  C   UNL     1      -8.744   9.090  64.795  1.00  0.00    -0.153 C  
HETATM    4  C   UNL     1      -8.714   9.158  63.272  1.00  0.00    -0.148 C  
HETATM    5  C   UNL     1      -9.101  10.595  62.994  1.00  0.00    -0.280 C  
HETATM    6  N   UNL     1     -10.040  10.933  64.051  1.00  0.00    -0.332 N  
HETATM    7  C   UNL     1      -9.931   9.991  65.160  1.00  0.00    -0.280 C  
ENDROOT
BRANCH   6   8
HETATM    8  C   UNL     1     -10.843  12.053  63.909  1.00  0.00    -0.399 C  
HETATM    9  O   UNL     1     -11.847  11.996  63.208  1.00  0.00    -0.426 OA 
BRANCH   8  10
HETATM   10  N   UNL     1     -10.379  13.164  64.572  1.00  0.00    -0.504 N  
HETATM   11  H   UNL     1      -9.809  13.817  64.035  1.00  0.00     0.000 HD 
BRANCH  10  12
HETATM   12  C   UNL     1     -10.613  13.485  65.905  1.00  0.00    -0.284 A  
HETATM   13  C   UNL     1      -9.937  14.321  66.783  1.00  0.00    -0.265 A  
HETATM   14  N   UNL     1      -8.836  15.140  66.676  1.00  0.00    -0.277 NA 
HETATM   15  C   UNL     1      -8.397  15.735  67.758  1.00  0.00    -0.154 A  
HETATM   16  C   UNL     1     -11.695  12.976  66.658  1.00  0.00    -0.381 A  
HETATM   17  C   UNL     1      -9.110  15.652  69.079  1.00  0.00    -0.241 A  
HETATM   18  N   UNL     1     -11.710  13.395  67.918  1.00  0.00    -0.341 NA 
HETATM   19  C   UNL     1     -10.205  14.888  69.130  1.00  0.00    -0.242 A  
HETATM   20  N   UNL     1     -10.628  14.210  68.002  1.00  0.00    -0.236 NA 
BRANCH  15  21
HETATM   21  N   UNL     1      -7.252  16.497  67.749  1.00  0.00    -0.134 NA 
HETATM   22  C   UNL     1      -5.697  18.273  67.561  1.00  0.00    -0.151 C  
HETATM   23  C   UNL     1      -6.038  16.088  68.427  1.00  0.00    -0.104 C  
HETATM   24  C   UNL     1      -7.065  17.763  67.039  1.00  0.00    -0.181 C  
HETATM   25  C   UNL     1      -5.396  17.413  68.787  1.00  0.00    -0.153 C  
BRANCH  24  26
HETATM   26  C   UNL     1      -8.260  18.674  67.240  1.00  0.00    -0.261 A  
HETATM   27  C   UNL     1      -8.624  19.243  68.465  1.00  0.00    -0.365 A  
HETATM   28  C   UNL     1      -9.794  19.995  68.603  1.00  0.00    -0.377 A  
HETATM   29  F   UNL     1      -7.867  19.067  69.557  1.00  0.00    -0.188 F  
HETATM   30  C   UNL     1     -10.635  20.183  67.509  1.00  0.00    -0.336 A  
HETATM   31  C   UNL     1     -10.284  19.632  66.284  1.00  0.00    -0.498 A  
HETATM   32  C   UNL     1      -9.115  18.891  66.141  1.00  0.00    -0.175 A  
HETATM   33  F   UNL     1     -11.091  19.804  65.229  1.00  0.00    -0.547 F  
ENDBRANCH  24  26
ENDBRANCH  15  21
ENDBRANCH  10  12
ENDBRANCH   8  10
ENDBRANCH   6   8
TORSDOF 5
ENDMDL
MODEL       53
REMARK 921   NORMALIZED FREE ENERGY PREDICTED BY IDOCK:   -6.55 KCAL/MOL
REMARK 922        TOTAL FREE ENERGY PREDICTED BY IDOCK:  -10.19 KCAL/MOL
REMARK 923 INTER-LIGAND FREE ENERGY PREDICTED BY IDOCK:  -10.33 KCAL/MOL
REMARK 924 INTRA-LIGAND FREE ENERGY PREDICTED BY IDOCK:    0.14 KCAL/MOL
REMARK 927      BINDING AFFINITY PREDICTED BY RF-SCORE:    0.00 PKD
ROOT
HETATM    1  O   UNL     1     -12.423  14.344  63.795  1.00  0.00    -1.002 OA 
HETATM    2  H   UNL     1     -12.859  13.500  63.770  1.00  0.00     0.000 HD 
HETATM    3  C   UNL     1     -11.417  14.372  64.794  1.00  0.00    -0.402 C  
HETATM    4  C   UNL     1     -10.718  15.726  64.835  1.00  0.00    -0.385 C  
HETATM    5  C   UNL     1     -10.150  15.767  66.237  1.00  0.00    -0.303 C  
HETATM    6  N   UNL     1     -11.122  15.053  67.047  1.00  0.00    -0.330 N  
HETATM    7  C   UNL     1     -11.994  14.235  66.209  1.00  0.00    -0.412 C  
ENDROOT
BRANCH   6   8
HETATM    8  C   UNL     1     -11.086  15.191  68.425  1.00  0.00    -0.282 C  
HETATM    9  O   UNL     1     -10.031  15.477  68.980  1.00  0.00    -0.207 OA 
BRANCH   8  10
HETATM   10  N   UNL     1     -12.287  14.943  69.046  1.00  0.00    -0.589 N  
HETATM   11  H   UNL     1     -13.079  15.520  68.765  1.00  0.00     0.000 HD 
BRANCH  10  12
HETATM   12  C   UNL     1     -12.526  13.980  70.022  1.00  0.00    -0.281 A  
HETATM   13  C   UNL     1     -12.140  12.651  70.118  1.00  0.00    -0.294 A  
HETATM   14  N   UNL     1     -11.384  11.810  69.333  1.00  0.00    -0.271 NA 
HETATM   15  C   UNL     1     -11.292  10.550  69.682  1.00  0.00    -0.281 A  
HETATM   16  C   UNL     1     -13.262  14.225  71.203  1.00  0.00    -0.321 A  
HETATM   17  C   UNL     1     -11.881  10.014  70.957  1.00  0.00    -0.476 A  
HETATM   18  N   UNL     1     -13.390  13.156  71.980  1.00  0.00    -0.483 NA 
HETATM   19  C   UNL     1     -12.565  10.873  71.718  1.00  0.00    -0.240 A  
HETATM   20  N   UNL     1     -12.713  12.187  71.314  1.00  0.00    -0.330 NA 
BRANCH  15  21
HETATM   21  N   UNL     1     -10.629   9.631  68.903  1.00  0.00    -0.214 NA 
HETATM   22  C   UNL     1      -9.353   7.789  68.139  1.00  0.00    -0.148 C  
HETATM   23  C   UNL     1     -10.890   9.477  67.486  1.00  0.00    -0.170 C  
HETATM   24  C   UNL     1      -9.558   8.737  69.348  1.00  0.00    -0.163 C  
HETATM   25  C   UNL     1     -10.571   8.014  67.247  1.00  0.00    -0.360 C  
BRANCH  24  26
HETATM   26  C   UNL     1      -9.911   8.094  70.673  1.00  0.00    -0.204 A  
HETATM   27  C   UNL     1     -10.967   7.194  70.860  1.00  0.00    -0.251 A  
HETATM   28  C   UNL     1     -11.302   6.712  72.129  1.00  0.00    -0.309 A  
HETATM   29  F   UNL     1     -11.709   6.779  69.824  1.00  0.00    -0.346 F  
HETATM   30  C   UNL     1     -10.585   7.135  73.246  1.00  0.00    -0.405 A  
HETATM   31  C   UNL     1      -9.529   8.021  73.077  1.00  0.00    -0.275 A  
HETATM   32  C   UNL     1      -9.188   8.494  71.814  1.00  0.00    -0.316 A  
HETATM   33  F   UNL     1      -8.840   8.435  74.148  1.00  0.00    -0.282 F  
ENDBRANCH  24  26
ENDBRANCH  15  21
ENDBRANCH  10  12
ENDBRANCH   8  10
ENDBRANCH   6   8
TORSDOF 5
ENDMDL
MODEL       54
REMARK 921   NORMALIZED FREE ENERGY PREDICTED BY IDOCK:   -6.53 KCAL/MOL
REMARK 922        TOTAL FREE ENERGY PREDICTED BY IDOCK:  -10.17 KCAL/MOL
REMARK 923 INTER-LIGAND FREE ENERGY PREDICTED BY IDOCK:   -9.61 KCAL/MOL
REMARK 924 INTRA-LIGAND FREE ENERGY PREDICTED BY IDOCK:   -0.56 KCAL/MOL
REMARK 927      BINDING AFFINITY PREDICTED BY RF-SCORE:    0.00 PKD
ROOT
HETATM    1  O   UNL     1     -12.475  14.012  63.036  1.00  0.00    -1.101 OA 
HETATM    2  H   UNL     1     -13.273  14.509  63.178  1.00  0.00     0.000 HD 
HETATM    3  C   UNL     1     -11.989  13.465  64.250  1.00  0.00    -0.430 C  
HETATM    4  C   UNL     1     -10.709  12.668  64.023  1.00  0.00    -0.457 C  
HETATM    5  C   UNL     1     -10.064  12.674  65.392  1.00  0.00    -0.261 C  
HETATM    6  N   UNL     1     -10.422  13.962  65.961  1.00  0.00    -0.291 N  
HETATM    7  C   UNL     1     -11.553  14.547  65.246  1.00  0.00    -0.359 C  
ENDROOT
BRANCH   6   8
HETATM    8  C   UNL     1      -9.724  14.434  67.061  1.00  0.00    -0.254 C  
HETATM    9  O   UNL     1      -8.500  14.368  67.077  1.00  0.00    -0.213 OA 
BRANCH   8  10
HETATM   10  N   UNL     1     -10.524  14.910  68.072  1.00  0.00    -0.243 N  
HETATM   11  H   UNL     1     -10.655  15.920  68.119  1.00  0.00     0.000 HD 
BRANCH  10  12
HETATM   12  C   UNL     1     -11.171  14.147  69.038  1.00  0.00    -0.271 A  
HETATM   13  C   UNL     1     -11.179  12.780  69.281  1.00  0.00    -0.190 A  
HETATM   14  N   UNL     1     -10.558  11.698  68.700  1.00  0.00    -0.203 NA 
HETATM   15  C   UNL     1     -10.867  10.500  69.131  1.00  0.00    -0.237 A  
HETATM   16  C   UNL     1     -11.998  14.693  70.046  1.00  0.00    -0.320 A  
HETATM   17  C   UNL     1     -11.781  10.267  70.302  1.00  0.00    -0.388 A  
HETATM   18  N   UNL     1     -12.536  13.779  70.845  1.00  0.00    -0.353 NA 
HETATM   19  C   UNL     1     -12.324  11.346  70.871  1.00  0.00    -0.381 A  
HETATM   20  N   UNL     1     -12.045  12.605  70.373  1.00  0.00    -0.352 NA 
BRANCH  15  21
HETATM   21  N   UNL     1     -10.357   9.366  68.543  1.00  0.00    -0.203 NA 
HETATM   22  C   UNL     1      -9.375   7.248  68.147  1.00  0.00    -0.131 C  
HETATM   23  C   UNL     1     -10.660   8.993  67.175  1.00  0.00    -0.220 C  
HETATM   24  C   UNL     1      -9.422   8.422  69.158  1.00  0.00    -0.155 C  
HETATM   25  C   UNL     1     -10.561   7.481  67.214  1.00  0.00    -0.394 C  
BRANCH  24  26
HETATM   26  C   UNL     1      -9.846   8.092  70.575  1.00  0.00    -0.194 A  
HETATM   27  C   UNL     1      -9.167   8.516  71.723  1.00  0.00    -0.246 A  
HETATM   28  C   UNL     1      -9.553   8.094  72.998  1.00  0.00    -0.336 A  
HETATM   29  F   UNL     1      -8.105   9.328  71.634  1.00  0.00    -0.124 F  
HETATM   30  C   UNL     1     -10.630   7.224  73.148  1.00  0.00    -0.400 A  
HETATM   31  C   UNL     1     -11.320   6.801  72.020  1.00  0.00    -0.272 A  
HETATM   32  C   UNL     1     -10.944   7.227  70.750  1.00  0.00    -0.273 A  
HETATM   33  F   UNL     1     -12.353   5.960  72.157  1.00  0.00    -0.359 F  
ENDBRANCH  24  26
ENDBRANCH  15  21
ENDBRANCH  10  12
ENDBRANCH   8  10
ENDBRANCH   6   8
TORSDOF 5
ENDMDL
MODEL       55
REMARK 921   NORMALIZED FREE ENERGY PREDICTED BY IDOCK:   -6.53 KCAL/MOL
REMARK 922        TOTAL FREE ENERGY PREDICTED BY IDOCK:  -10.16 KCAL/MOL
REMARK 923 INTER-LIGAND FREE ENERGY PREDICTED BY IDOCK:   -8.97 KCAL/MOL
REMARK 924 INTRA-LIGAND FREE ENERGY PREDICTED BY IDOCK:   -1.20 KCAL/MOL
REMARK 927      BINDING AFFINITY PREDICTED BY RF-SCORE:    0.00 PKD
ROOT
HETATM    1  O   UNL     1     -11.388   4.798  65.414  1.00  0.00    -0.950 OA 
HETATM    2  H   UNL     1     -12.265   4.810  65.778  1.00  0.00     0.000 HD 
HETATM    3  C   UNL     1     -10.409   4.935  66.430  1.00  0.00    -0.288 C  
HETATM    4  C   UNL     1      -9.001   4.916  65.846  1.00  0.00    -0.134 C  
HETATM    5  C   UNL     1      -8.188   5.622  66.910  1.00  0.00    -0.105 C  
HETATM    6  N   UNL     1      -9.092   6.617  67.462  1.00  0.00    -0.116 N  
HETATM    7  C   UNL     1     -10.478   6.299  67.130  1.00  0.00    -0.263 C  
ENDROOT
BRANCH   6   8
HETATM    8  C   UNL     1      -8.574   7.656  68.218  1.00  0.00    -0.124 C  
HETATM    9  O   UNL     1      -7.741   7.420  69.086  1.00  0.00    -0.106 OA 
BRANCH   8  10
HETATM   10  N   UNL     1      -9.107   8.887  67.920  1.00  0.00    -0.139 N  
HETATM   11  H   UNL     1      -8.793   9.329  67.056  1.00  0.00     0.000 HD 
BRANCH  10  12
HETATM   12  C   UNL     1     -10.034   9.591  68.682  1.00  0.00    -0.167 A  
HETATM   13  C   UNL     1     -10.426  10.922  68.658  1.00  0.00    -0.194 A  
HETATM   14  N   UNL     1     -10.084  12.011  67.889  1.00  0.00    -0.190 NA 
HETATM   15  C   UNL     1     -10.591  13.177  68.204  1.00  0.00    -0.245 A  
HETATM   16  C   UNL     1     -10.821   9.005  69.699  1.00  0.00    -0.186 A  
HETATM   17  C   UNL     1     -11.614  13.353  69.292  1.00  0.00    -0.365 A  
HETATM   18  N   UNL     1     -11.620   9.868  70.316  1.00  0.00    -0.259 NA 
HETATM   19  C   UNL     1     -11.959  12.263  69.982  1.00  0.00    -0.304 A  
HETATM   20  N   UNL     1     -11.373  11.045  69.689  1.00  0.00    -0.268 NA 
BRANCH  15  21
HETATM   21  N   UNL     1     -10.229  14.326  67.540  1.00  0.00    -0.239 NA 
HETATM   22  C   UNL     1      -9.746  15.942  65.878  1.00  0.00    -0.386 C  
HETATM   23  C   UNL     1     -10.173  15.619  68.192  1.00  0.00    -0.228 C  
HETATM   24  C   UNL     1      -9.806  14.416  66.141  1.00  0.00    -0.320 C  
HETATM   25  C   UNL     1     -10.480  16.577  67.057  1.00  0.00    -0.289 C  
BRANCH  24  26
HETATM   26  C   UNL     1     -10.721  13.601  65.250  1.00  0.00    -0.340 A  
HETATM   27  C   UNL     1     -12.118  13.681  65.265  1.00  0.00    -0.406 A  
HETATM   28  C   UNL     1     -12.908  12.830  64.487  1.00  0.00    -0.323 A  
HETATM   29  F   UNL     1     -12.748  14.569  66.046  1.00  0.00    -0.381 F  
HETATM   30  C   UNL     1     -12.308  11.866  63.680  1.00  0.00    -0.591 A  
HETATM   31  C   UNL     1     -10.923  11.779  63.647  1.00  0.00    -0.439 A  
HETATM   32  C   UNL     1     -10.134  12.631  64.413  1.00  0.00    -0.281 A  
HETATM   33  F   UNL     1     -10.340  10.850  62.878  1.00  0.00    -0.340 F  
ENDBRANCH  24  26
ENDBRANCH  15  21
ENDBRANCH  10  12
ENDBRANCH   8  10
ENDBRANCH   6   8
TORSDOF 5
ENDMDL
MODEL       56
REMARK 921   NORMALIZED FREE ENERGY PREDICTED BY IDOCK:   -6.52 KCAL/MOL
REMARK 922        TOTAL FREE ENERGY PREDICTED BY IDOCK:  -10.15 KCAL/MOL
REMARK 923 INTER-LIGAND FREE ENERGY PREDICTED BY IDOCK:   -8.43 KCAL/MOL
REMARK 924 INTRA-LIGAND FREE ENERGY PREDICTED BY IDOCK:   -1.73 KCAL/MOL
REMARK 927      BINDING AFFINITY PREDICTED BY RF-SCORE:    0.00 PKD
ROOT
HETATM    1  O   UNL     1     -10.130   7.094  66.169  1.00  0.00    -0.435 OA 
HETATM    2  H   UNL     1      -9.870   6.210  66.402  1.00  0.00     0.000 HD 
HETATM    3  C   UNL     1      -9.708   8.028  67.148  1.00  0.00    -0.195 C  
HETATM    4  C   UNL     1     -10.127   9.446  66.773  1.00  0.00    -0.325 C  
HETATM    5  C   UNL     1     -10.126  10.158  68.109  1.00  0.00    -0.152 C  
HETATM    6  N   UNL     1     -10.548   9.147  69.064  1.00  0.00    -0.220 N  
HETATM    7  C   UNL     1     -10.396   7.808  68.501  1.00  0.00    -0.197 C  
ENDROOT
BRANCH   6   8
HETATM    8  C   UNL     1     -10.977   9.541  70.320  1.00  0.00    -0.269 C  
HETATM    9  O   UNL     1     -10.279   9.311  71.301  1.00  0.00    -0.303 OA 
BRANCH   8  10
HETATM   10  N   UNL     1     -12.215  10.140  70.328  1.00  0.00    -0.462 N  
HETATM   11  H   UNL     1     -13.007   9.564  70.046  1.00  0.00     0.000 HD 
BRANCH  10  12
HETATM   12  C   UNL     1     -12.490  11.456  70.685  1.00  0.00    -0.327 A  
HETATM   13  C   UNL     1     -12.389  12.644  69.973  1.00  0.00    -0.094 A  
HETATM   14  N   UNL     1     -12.015  12.965  68.688  1.00  0.00    -0.297 NA 
HETATM   15  C   UNL     1     -11.942  14.232  68.361  1.00  0.00    -0.309 A  
HETATM   16  C   UNL     1     -12.985  11.840  71.951  1.00  0.00    -0.330 A  
HETATM   17  C   UNL     1     -12.356  15.338  69.292  1.00  0.00    -0.128 A  
HETATM   18  N   UNL     1     -13.151  13.151  72.082  1.00  0.00    -0.394 NA 
HETATM   19  C   UNL     1     -12.762  14.982  70.514  1.00  0.00    -0.357 A  
HETATM   20  N   UNL     1     -12.777  13.648  70.876  1.00  0.00    -0.330 NA 
BRANCH  15  21
HETATM   21  N   UNL     1     -11.491  14.635  67.126  1.00  0.00    -0.357 NA 
HETATM   22  C   UNL     1     -10.183  15.470  65.338  1.00  0.00    -0.409 C  
HETATM   23  C   UNL     1     -12.118  14.208  65.890  1.00  0.00    -0.426 C  
HETATM   24  C   UNL     1     -10.389  15.563  66.871  1.00  0.00    -0.290 C  
HETATM   25  C   UNL     1     -10.963  14.230  64.908  1.00  0.00    -0.413 C  
BRANCH  24  26
HETATM   26  C   UNL     1      -9.196  15.234  67.746  1.00  0.00    -0.187 A  
HETATM   27  C   UNL     1      -8.681  16.080  68.734  1.00  0.00    -0.223 A  
HETATM   28  C   UNL     1      -7.518  15.760  69.438  1.00  0.00    -0.216 A  
HETATM   29  F   UNL     1      -9.280  17.244  69.024  1.00  0.00    -0.265 F  
HETATM   30  C   UNL     1      -6.835  14.579  69.156  1.00  0.00    -0.123 A  
HETATM   31  C   UNL     1      -7.337  13.724  68.184  1.00  0.00    -0.124 A  
HETATM   32  C   UNL     1      -8.500  14.036  67.488  1.00  0.00    -0.201 A  
HETATM   33  F   UNL     1      -6.682  12.589  67.903  1.00  0.00    -0.067 F  
ENDBRANCH  24  26
ENDBRANCH  15  21
ENDBRANCH  10  12
ENDBRANCH   8  10
ENDBRANCH   6   8
TORSDOF 5
ENDMDL
MODEL       57
REMARK 921   NORMALIZED FREE ENERGY PREDICTED BY IDOCK:   -6.51 KCAL/MOL
REMARK 922        TOTAL FREE ENERGY PREDICTED BY IDOCK:  -10.15 KCAL/MOL
REMARK 923 INTER-LIGAND FREE ENERGY PREDICTED BY IDOCK:   -8.84 KCAL/MOL
REMARK 924 INTRA-LIGAND FREE ENERGY PREDICTED BY IDOCK:   -1.31 KCAL/MOL
REMARK 927      BINDING AFFINITY PREDICTED BY RF-SCORE:    0.00 PKD
ROOT
HETATM    1  O   UNL     1      -9.522   6.938  68.469  1.00  0.00    -0.134 OA 
HETATM    2  H   UNL     1      -9.507   6.076  68.071  1.00  0.00     0.000 HD 
HETATM    3  C   UNL     1     -10.271   7.852  67.687  1.00  0.00    -0.226 C  
HETATM    4  C   UNL     1     -10.294   9.236  68.326  1.00  0.00    -0.257 C  
HETATM    5  C   UNL     1     -10.595  10.142  67.152  1.00  0.00    -0.246 C  
HETATM    6  N   UNL     1      -9.937   9.509  66.021  1.00  0.00    -0.289 N  
HETATM    7  C   UNL     1      -9.631   8.112  66.317  1.00  0.00    -0.178 C  
ENDROOT
BRANCH   6   8
HETATM    8  C   UNL     1      -9.727  10.240  64.864  1.00  0.00    -0.320 C  
HETATM    9  O   UNL     1      -8.584  10.422  64.459  1.00  0.00    -0.174 OA 
BRANCH   8  10
HETATM   10  N   UNL     1     -10.876  10.735  64.295  1.00  0.00    -0.292 N  
HETATM   11  H   UNL     1     -11.521  10.054  63.893  1.00  0.00     0.000 HD 
BRANCH  10  12
HETATM   12  C   UNL     1     -11.246  12.073  64.216  1.00  0.00    -0.357 A  
HETATM   13  C   UNL     1     -10.779  13.199  64.880  1.00  0.00    -0.346 A  
HETATM   14  N   UNL     1      -9.796  13.424  65.817  1.00  0.00    -0.240 NA 
HETATM   15  C   UNL     1      -9.678  14.630  66.315  1.00  0.00    -0.307 A  
HETATM   16  C   UNL     1     -12.248  12.561  63.346  1.00  0.00    -0.517 A  
HETATM   17  C   UNL     1     -10.491  15.796  65.826  1.00  0.00    -0.384 A  
HETATM   18  N   UNL     1     -12.456  13.868  63.455  1.00  0.00    -0.812 NA 
HETATM   19  C   UNL     1     -11.400  15.547  64.879  1.00  0.00    -0.335 A  
HETATM   20  N   UNL     1     -11.566  14.260  64.401  1.00  0.00    -0.370 NA 
BRANCH  15  21
HETATM   21  N   UNL     1      -8.780  14.912  67.318  1.00  0.00    -0.194 NA 
HETATM   22  C   UNL     1      -7.777  15.467  69.390  1.00  0.00    -0.227 C  
HETATM   23  C   UNL     1      -7.380  14.545  67.238  1.00  0.00    -0.068 C  
HETATM   24  C   UNL     1      -9.069  15.647  68.551  1.00  0.00    -0.196 C  
HETATM   25  C   UNL     1      -7.004  14.350  68.694  1.00  0.00    -0.102 C  
BRANCH  24  26
HETATM   26  C   UNL     1     -10.364  15.166  69.172  1.00  0.00    -0.249 A  
HETATM   27  C   UNL     1     -11.283  15.993  69.828  1.00  0.00    -0.344 A  
HETATM   28  C   UNL     1     -12.411  15.472  70.466  1.00  0.00    -0.472 A  
HETATM   29  F   UNL     1     -11.097  17.320  69.882  1.00  0.00    -0.086 F  
HETATM   30  C   UNL     1     -12.637  14.098  70.470  1.00  0.00    -0.410 A  
HETATM   31  C   UNL     1     -11.741  13.263  69.817  1.00  0.00    -0.284 A  
HETATM   32  C   UNL     1     -10.622  13.780  69.172  1.00  0.00    -0.099 A  
HETATM   33  F   UNL     1     -11.949  11.940  69.822  1.00  0.00    -0.324 F  
ENDBRANCH  24  26
ENDBRANCH  15  21
ENDBRANCH  10  12
ENDBRANCH   8  10
ENDBRANCH   6   8
TORSDOF 5
ENDMDL
MODEL       58
REMARK 921   NORMALIZED FREE ENERGY PREDICTED BY IDOCK:   -6.50 KCAL/MOL
REMARK 922        TOTAL FREE ENERGY PREDICTED BY IDOCK:  -10.13 KCAL/MOL
REMARK 923 INTER-LIGAND FREE ENERGY PREDICTED BY IDOCK:   -8.72 KCAL/MOL
REMARK 924 INTRA-LIGAND FREE ENERGY PREDICTED BY IDOCK:   -1.41 KCAL/MOL
REMARK 927      BINDING AFFINITY PREDICTED BY RF-SCORE:    0.00 PKD
ROOT
HETATM    1  O   UNL     1     -12.080  16.910  72.794  1.00  0.00    -0.339 OA 
HETATM    2  H   UNL     1     -11.232  16.949  73.221  1.00  0.00     0.000 HD 
HETATM    3  C   UNL     1     -12.696  15.648  72.992  1.00  0.00    -0.471 C  
HETATM    4  C   UNL     1     -14.057  15.585  72.306  1.00  0.00    -0.637 C  
HETATM    5  C   UNL     1     -14.271  14.098  72.126  1.00  0.00    -0.546 C  
HETATM    6  N   UNL     1     -12.942  13.561  71.892  1.00  0.00    -0.349 N  
HETATM    7  C   UNL     1     -11.918  14.506  72.326  1.00  0.00    -0.057 C  
ENDROOT
BRANCH   6   8
HETATM    8  C   UNL     1     -12.811  12.290  71.357  1.00  0.00    -0.271 C  
HETATM    9  O   UNL     1     -12.300  12.145  70.252  1.00  0.00    -0.271 OA 
BRANCH   8  10
HETATM   10  N   UNL     1     -13.327  11.292  72.148  1.00  0.00    -0.569 N  
HETATM   11  H   UNL     1     -13.808  11.581  73.000  1.00  0.00     0.000 HD 
BRANCH  10  12
HETATM   12  C   UNL     1     -13.258   9.925  71.900  1.00  0.00    -0.458 A  
HETATM   13  C   UNL     1     -12.207   9.114  71.495  1.00  0.00    -0.349 A  
HETATM   14  N   UNL     1     -10.877   9.333  71.215  1.00  0.00    -0.320 NA 
HETATM   15  C   UNL     1     -10.167   8.332  70.754  1.00  0.00    -0.192 A  
HETATM   16  C   UNL     1     -14.352   9.043  72.052  1.00  0.00    -0.244 A  
HETATM   17  C   UNL     1     -10.712   6.937  70.628  1.00  0.00    -0.267 A  
HETATM   18  N   UNL     1     -14.067   7.784  71.735  1.00  0.00    -0.411 NA 
HETATM   19  C   UNL     1     -11.994   6.755  70.958  1.00  0.00    -0.379 A  
HETATM   20  N   UNL     1     -12.757   7.827  71.383  1.00  0.00    -0.325 NA 
BRANCH  15  21
HETATM   21  N   UNL     1      -8.856   8.494  70.368  1.00  0.00    -0.144 NA 
HETATM   22  C   UNL     1      -6.877   9.100  69.220  1.00  0.00    -0.049 C  
HETATM   23  C   UNL     1      -7.745   8.293  71.277  1.00  0.00    -0.099 C  
HETATM   24  C   UNL     1      -8.390   8.826  69.021  1.00  0.00    -0.129 C  
HETATM   25  C   UNL     1      -6.693   9.237  70.729  1.00  0.00    -0.094 C  
BRANCH  24  26
HETATM   26  C   UNL     1      -9.219   9.947  68.427  1.00  0.00    -0.130 A  
HETATM   27  C   UNL     1     -10.354   9.755  67.632  1.00  0.00    -0.230 A  
HETATM   28  C   UNL     1     -11.017  10.829  67.032  1.00  0.00    -0.292 A  
HETATM   29  F   UNL     1     -10.834   8.525  67.402  1.00  0.00    -0.338 F  
HETATM   30  C   UNL     1     -10.544  12.127  67.209  1.00  0.00    -0.255 A  
HETATM   31  C   UNL     1      -9.423  12.336  68.002  1.00  0.00    -0.206 A  
HETATM   32  C   UNL     1      -8.767  11.269  68.608  1.00  0.00    -0.136 A  
HETATM   33  F   UNL     1      -8.959  13.581  68.172  1.00  0.00    -0.163 F  
ENDBRANCH  24  26
ENDBRANCH  15  21
ENDBRANCH  10  12
ENDBRANCH   8  10
ENDBRANCH   6   8
TORSDOF 5
ENDMDL
MODEL       59
REMARK 921   NORMALIZED FREE ENERGY PREDICTED BY IDOCK:   -6.46 KCAL/MOL
REMARK 922        TOTAL FREE ENERGY PREDICTED BY IDOCK:  -10.08 KCAL/MOL
REMARK 923 INTER-LIGAND FREE ENERGY PREDICTED BY IDOCK:   -8.09 KCAL/MOL
REMARK 924 INTRA-LIGAND FREE ENERGY PREDICTED BY IDOCK:   -2.00 KCAL/MOL
REMARK 927      BINDING AFFINITY PREDICTED BY RF-SCORE:    0.00 PKD
ROOT
HETATM    1  O   UNL     1      -6.572  11.167  70.597  1.00  0.00    -0.491 OA 
HETATM    2  H   UNL     1      -6.327  11.811  69.942  1.00  0.00     0.000 HD 
HETATM    3  C   UNL     1      -7.155  10.022  69.996  1.00  0.00    -0.146 C  
HETATM    4  C   UNL     1      -7.548   8.989  71.046  1.00  0.00    -0.138 C  
HETATM    5  C   UNL     1      -8.611   8.179  70.336  1.00  0.00    -0.131 C  
HETATM    6  N   UNL     1      -9.296   9.137  69.485  1.00  0.00    -0.158 N  
HETATM    7  C   UNL     1      -8.486  10.339  69.303  1.00  0.00    -0.166 C  
ENDROOT
BRANCH   6   8
HETATM    8  C   UNL     1     -10.531   8.807  68.953  1.00  0.00    -0.197 C  
HETATM    9  O   UNL     1     -10.606   8.388  67.804  1.00  0.00    -0.229 OA 
BRANCH   8  10
HETATM   10  N   UNL     1     -11.588   9.034  69.803  1.00  0.00    -0.419 N  
HETATM   11  H   UNL     1     -12.158   8.227  70.055  1.00  0.00     0.000 HD 
BRANCH  10  12
HETATM   12  C   UNL     1     -11.954  10.258  70.353  1.00  0.00    -0.303 A  
HETATM   13  C   UNL     1     -11.985  11.537  69.815  1.00  0.00    -0.346 A  
HETATM   14  N   UNL     1     -11.700  12.066  68.577  1.00  0.00    -0.316 NA 
HETATM   15  C   UNL     1     -11.748  13.368  68.432  1.00  0.00    -0.355 A  
HETATM   16  C   UNL     1     -12.420  10.416  71.678  1.00  0.00    -0.370 A  
HETATM   17  C   UNL     1     -12.208  14.292  69.525  1.00  0.00    -0.341 A  
HETATM   18  N   UNL     1     -12.688  11.676  72.000  1.00  0.00    -0.133 NA 
HETATM   19  C   UNL     1     -12.525  13.735  70.697  1.00  0.00    -0.359 A  
HETATM   20  N   UNL     1     -12.413  12.367  70.865  1.00  0.00    -0.342 NA 
BRANCH  15  21
HETATM   21  N   UNL     1     -11.391  13.977  67.252  1.00  0.00    -0.315 NA 
HETATM   22  C   UNL     1     -10.261  15.203  65.570  1.00  0.00    -0.405 C  
HETATM   23  C   UNL     1     -11.979  13.615  65.978  1.00  0.00    -0.413 C  
HETATM   24  C   UNL     1     -10.440  15.081  67.105  1.00  0.00    -0.277 C  
HETATM   25  C   UNL     1     -10.864  13.922  64.998  1.00  0.00    -0.389 C  
BRANCH  24  26
HETATM   26  C   UNL     1      -9.191  14.827  67.925  1.00  0.00    -0.191 A  
HETATM   27  C   UNL     1      -8.782  15.612  69.008  1.00  0.00    -0.240 A  
HETATM   28  C   UNL     1      -7.567  15.383  69.660  1.00  0.00    -0.165 A  
HETATM   29  F   UNL     1      -9.537  16.629  69.445  1.00  0.00    -0.244 F  
HETATM   30  C   UNL     1      -6.726  14.360  69.228  1.00  0.00    -0.126 A  
HETATM   31  C   UNL     1      -7.121  13.566  68.159  1.00  0.00    -0.117 A  
HETATM   32  C   UNL     1      -8.334  13.786  67.515  1.00  0.00    -0.197 A  
HETATM   33  F   UNL     1      -6.314  12.585  67.735  1.00  0.00    -0.069 F  
ENDBRANCH  24  26
ENDBRANCH  15  21
ENDBRANCH  10  12
ENDBRANCH   8  10
ENDBRANCH   6   8
TORSDOF 5
ENDMDL
MODEL       60
REMARK 921   NORMALIZED FREE ENERGY PREDICTED BY IDOCK:   -6.46 KCAL/MOL
REMARK 922        TOTAL FREE ENERGY PREDICTED BY IDOCK:  -10.08 KCAL/MOL
REMARK 923 INTER-LIGAND FREE ENERGY PREDICTED BY IDOCK:   -8.82 KCAL/MOL
REMARK 924 INTRA-LIGAND FREE ENERGY PREDICTED BY IDOCK:   -1.26 KCAL/MOL
REMARK 927      BINDING AFFINITY PREDICTED BY RF-SCORE:    0.00 PKD
ROOT
HETATM    1  O   UNL     1     -14.376   6.389  72.330  1.00  0.00    -0.711 OA 
HETATM    2  H   UNL     1     -14.171   5.527  71.988  1.00  0.00     0.000 HD 
HETATM    3  C   UNL     1     -13.820   7.409  71.518  1.00  0.00    -0.374 C  
HETATM    4  C   UNL     1     -14.149   8.793  72.067  1.00  0.00    -0.508 C  
HETATM    5  C   UNL     1     -13.060   9.657  71.470  1.00  0.00    -0.400 C  
HETATM    6  N   UNL     1     -11.895   8.791  71.411  1.00  0.00    -0.292 N  
HETATM    7  C   UNL     1     -12.286   7.389  71.521  1.00  0.00    -0.353 C  
ENDROOT
BRANCH   6   8
HETATM    8  C   UNL     1     -10.642   9.354  71.231  1.00  0.00    -0.330 C  
HETATM    9  O   UNL     1      -9.755   9.137  72.049  1.00  0.00    -0.283 OA 
BRANCH   8  10
HETATM   10  N   UNL     1     -10.543  10.162  70.124  1.00  0.00    -0.316 N  
HETATM   11  H   UNL     1     -11.362  10.723  69.888  1.00  0.00     0.000 HD 
BRANCH  10  12
HETATM   12  C   UNL     1      -9.435  10.289  69.293  1.00  0.00    -0.215 A  
HETATM   13  C   UNL     1      -8.879  11.393  68.661  1.00  0.00    -0.125 A  
HETATM   14  N   UNL     1      -9.179  12.736  68.631  1.00  0.00    -0.038 NA 
HETATM   15  C   UNL     1      -8.484  13.510  67.834  1.00  0.00    -0.179 A  
HETATM   16  C   UNL     1      -8.597   9.210  68.931  1.00  0.00    -0.131 A  
HETATM   17  C   UNL     1      -7.305  13.014  67.043  1.00  0.00     0.173 A  
HETATM   18  N   UNL     1      -7.613   9.554  68.108  1.00  0.00    -0.079 NA 
HETATM   19  C   UNL     1      -7.013  11.714  67.139  1.00  0.00    -0.144 A  
HETATM   20  N   UNL     1      -7.789  10.888  67.932  1.00  0.00    -0.107 NA 
BRANCH  15  21
HETATM   21  N   UNL     1      -8.782  14.844  67.682  1.00  0.00    -0.168 NA 
HETATM   22  C   UNL     1      -9.672  16.911  66.947  1.00  0.00    -0.264 C  
HETATM   23  C   UNL     1      -8.519  15.825  68.716  1.00  0.00    -0.198 C  
HETATM   24  C   UNL     1      -9.336  15.471  66.481  1.00  0.00    -0.283 C  
HETATM   25  C   UNL     1      -9.598  16.862  68.471  1.00  0.00    -0.262 C  
BRANCH  24  26
HETATM   26  C   UNL     1     -10.478  14.646  65.922  1.00  0.00    -0.325 A  
HETATM   27  C   UNL     1     -11.674  14.388  66.600  1.00  0.00    -0.394 A  
HETATM   28  C   UNL     1     -12.648  13.537  66.069  1.00  0.00    -0.408 A  
HETATM   29  F   UNL     1     -11.918  14.937  67.798  1.00  0.00    -0.364 F  
HETATM   30  C   UNL     1     -12.434  12.913  64.842  1.00  0.00    -0.540 A  
HETATM   31  C   UNL     1     -11.255  13.165  64.153  1.00  0.00    -0.397 A  
HETATM   32  C   UNL     1     -10.289  14.019  64.674  1.00  0.00    -0.337 A  
HETATM   33  F   UNL     1     -11.041  12.564  62.975  1.00  0.00    -0.464 F  
ENDBRANCH  24  26
ENDBRANCH  15  21
ENDBRANCH  10  12
ENDBRANCH   8  10
ENDBRANCH   6   8
TORSDOF 5
ENDMDL
MODEL       61
REMARK 921   NORMALIZED FREE ENERGY PREDICTED BY IDOCK:   -6.45 KCAL/MOL
REMARK 922        TOTAL FREE ENERGY PREDICTED BY IDOCK:  -10.06 KCAL/MOL
REMARK 923 INTER-LIGAND FREE ENERGY PREDICTED BY IDOCK:   -8.58 KCAL/MOL
REMARK 924 INTRA-LIGAND FREE ENERGY PREDICTED BY IDOCK:   -1.48 KCAL/MOL
REMARK 927      BINDING AFFINITY PREDICTED BY RF-SCORE:    0.00 PKD
ROOT
HETATM    1  O   UNL     1     -11.971  16.187  72.567  1.00  0.00    -0.494 OA 
HETATM    2  H   UNL     1     -11.346  16.883  72.734  1.00  0.00     0.000 HD 
HETATM    3  C   UNL     1     -11.483  15.284  71.589  1.00  0.00    -0.405 C  
HETATM    4  C   UNL     1     -12.486  14.167  71.321  1.00  0.00    -0.446 C  
HETATM    5  C   UNL     1     -12.093  13.691  69.939  1.00  0.00    -0.341 C  
HETATM    6  N   UNL     1     -11.633  14.888  69.255  1.00  0.00    -0.288 N  
HETATM    7  C   UNL     1     -11.319  15.943  70.214  1.00  0.00    -0.372 C  
ENDROOT
BRANCH   6   8
HETATM    8  C   UNL     1     -11.517  14.876  67.875  1.00  0.00    -0.340 C  
HETATM    9  O   UNL     1     -10.714  15.621  67.326  1.00  0.00    -0.299 OA 
BRANCH   8  10
HETATM   10  N   UNL     1     -12.385  14.014  67.246  1.00  0.00    -0.540 N  
HETATM   11  H   UNL     1     -13.324  13.942  67.635  1.00  0.00     0.000 HD 
BRANCH  10  12
HETATM   12  C   UNL     1     -12.105  13.232  66.131  1.00  0.00    -0.421 A  
HETATM   13  C   UNL     1     -11.105  12.301  65.886  1.00  0.00    -0.322 A  
HETATM   14  N   UNL     1     -10.061  11.794  66.627  1.00  0.00    -0.201 NA 
HETATM   15  C   UNL     1      -9.226  10.972  66.041  1.00  0.00    -0.193 A  
HETATM   16  C   UNL     1     -12.879  13.243  64.949  1.00  0.00    -0.253 A  
HETATM   17  C   UNL     1      -9.425  10.474  64.636  1.00  0.00    -0.316 A  
HETATM   18  N   UNL     1     -12.414  12.437  64.001  1.00  0.00    -0.604 NA 
HETATM   19  C   UNL     1     -10.478  10.950  63.967  1.00  0.00    -0.309 A  
HETATM   20  N   UNL     1     -11.321  11.867  64.568  1.00  0.00    -0.329 NA 
BRANCH  15  21
HETATM   21  N   UNL     1      -8.110  10.493  66.687  1.00  0.00    -0.123 NA 
HETATM   22  C   UNL     1      -6.575   9.160  67.900  1.00  0.00    -0.063 C  
HETATM   23  C   UNL     1      -6.787  11.045  66.471  1.00  0.00    -0.132 C  
HETATM   24  C   UNL     1      -8.087   9.433  67.695  1.00  0.00    -0.106 C  
HETATM   25  C   UNL     1      -5.885   9.853  66.727  1.00  0.00    -0.054 C  
BRANCH  24  26
HETATM   26  C   UNL     1      -8.944   8.260  67.262  1.00  0.00    -0.149 A  
HETATM   27  C   UNL     1     -10.306   8.125  67.555  1.00  0.00    -0.261 A  
HETATM   28  C   UNL     1     -11.017   6.971  67.212  1.00  0.00    -0.372 A  
HETATM   29  F   UNL     1     -10.971   9.094  68.198  1.00  0.00    -0.241 F  
HETATM   30  C   UNL     1     -10.368   5.918  66.572  1.00  0.00    -0.237 A  
HETATM   31  C   UNL     1      -9.019   6.040  66.266  1.00  0.00    -0.149 A  
HETATM   32  C   UNL     1      -8.312   7.190  66.598  1.00  0.00    -0.114 A  
HETATM   33  F   UNL     1      -8.388   5.028  65.656  1.00  0.00    -0.109 F  
ENDBRANCH  24  26
ENDBRANCH  15  21
ENDBRANCH  10  12
ENDBRANCH   8  10
ENDBRANCH   6   8
TORSDOF 5
ENDMDL
MODEL       62
REMARK 921   NORMALIZED FREE ENERGY PREDICTED BY IDOCK:   -6.44 KCAL/MOL
REMARK 922        TOTAL FREE ENERGY PREDICTED BY IDOCK:  -10.05 KCAL/MOL
REMARK 923 INTER-LIGAND FREE ENERGY PREDICTED BY IDOCK:   -9.31 KCAL/MOL
REMARK 924 INTRA-LIGAND FREE ENERGY PREDICTED BY IDOCK:   -0.74 KCAL/MOL
REMARK 927      BINDING AFFINITY PREDICTED BY RF-SCORE:    0.00 PKD
ROOT
HETATM    1  O   UNL     1     -12.405  13.365  63.418  1.00  0.00    -0.808 OA 
HETATM    2  H   UNL     1     -13.207  13.806  63.164  1.00  0.00     0.000 HD 
HETATM    3  C   UNL     1     -12.471  12.912  64.759  1.00  0.00    -0.455 C  
HETATM    4  C   UNL     1     -11.184  12.204  65.167  1.00  0.00    -0.378 C  
HETATM    5  C   UNL     1     -11.202  12.320  66.676  1.00  0.00    -0.316 C  
HETATM    6  N   UNL     1     -11.834  13.603  66.938  1.00  0.00    -0.390 N  
HETATM    7  C   UNL     1     -12.566  14.068  65.763  1.00  0.00    -0.479 C  
ENDROOT
BRANCH   6   8
HETATM    8  C   UNL     1     -11.709  14.175  68.193  1.00  0.00    -0.355 C  
HETATM    9  O   UNL     1     -12.006  15.353  68.356  1.00  0.00    -0.301 OA 
BRANCH   8  10
HETATM   10  N   UNL     1     -11.207  13.325  69.150  1.00  0.00    -0.331 N  
HETATM   11  H   UNL     1     -10.207  13.128  69.112  1.00  0.00     0.000 HD 
BRANCH  10  12
HETATM   12  C   UNL     1     -11.930  12.708  70.165  1.00  0.00    -0.299 A  
HETATM   13  C   UNL     1     -12.001  11.382  70.570  1.00  0.00    -0.356 A  
HETATM   14  N   UNL     1     -11.393  10.217  70.159  1.00  0.00    -0.294 NA 
HETATM   15  C   UNL     1     -11.769   9.092  70.715  1.00  0.00    -0.242 A  
HETATM   16  C   UNL     1     -12.785  13.399  71.053  1.00  0.00    -0.307 A  
HETATM   17  C   UNL     1     -12.748   9.033  71.854  1.00  0.00    -0.450 A  
HETATM   18  N   UNL     1     -13.395  12.607  71.927  1.00  0.00    -0.451 NA 
HETATM   19  C   UNL     1     -13.277  10.191  72.259  1.00  0.00    -0.261 A  
HETATM   20  N   UNL     1     -12.926  11.370  71.627  1.00  0.00    -0.453 NA 
BRANCH  15  21
HETATM   21  N   UNL     1     -11.273   7.879  70.296  1.00  0.00    -0.241 NA 
HETATM   22  C   UNL     1      -9.961   6.167  69.319  1.00  0.00    -0.196 C  
HETATM   23  C   UNL     1     -11.679   6.622  70.894  1.00  0.00    -0.375 C  
HETATM   24  C   UNL     1     -10.338   7.666  69.190  1.00  0.00    -0.213 C  
HETATM   25  C   UNL     1     -10.452   5.752  70.704  1.00  0.00    -0.331 C  
BRANCH  24  26
HETATM   26  C   UNL     1      -9.203   8.667  69.246  1.00  0.00    -0.150 A  
HETATM   27  C   UNL     1      -8.354   8.842  70.345  1.00  0.00    -0.149 A  
HETATM   28  C   UNL     1      -7.389   9.852  70.370  1.00  0.00    -0.139 A  
HETATM   29  F   UNL     1      -8.455   8.054  71.424  1.00  0.00    -0.102 F  
HETATM   30  C   UNL     1      -7.261  10.721  69.289  1.00  0.00    -0.122 A  
HETATM   31  C   UNL     1      -8.089  10.556  68.187  1.00  0.00    -0.113 A  
HETATM   32  C   UNL     1      -9.044   9.546  68.155  1.00  0.00    -0.128 A  
HETATM   33  F   UNL     1      -7.975  11.392  67.147  1.00  0.00    -0.127 F  
ENDBRANCH  24  26
ENDBRANCH  15  21
ENDBRANCH  10  12
ENDBRANCH   8  10
ENDBRANCH   6   8
TORSDOF 5
ENDMDL
MODEL       63
REMARK 921   NORMALIZED FREE ENERGY PREDICTED BY IDOCK:   -6.43 KCAL/MOL
REMARK 922        TOTAL FREE ENERGY PREDICTED BY IDOCK:  -10.04 KCAL/MOL
REMARK 923 INTER-LIGAND FREE ENERGY PREDICTED BY IDOCK:   -9.13 KCAL/MOL
REMARK 924 INTRA-LIGAND FREE ENERGY PREDICTED BY IDOCK:   -0.92 KCAL/MOL
REMARK 927      BINDING AFFINITY PREDICTED BY RF-SCORE:    0.00 PKD
ROOT
HETATM    1  O   UNL     1     -12.221  14.023  63.684  1.00  0.00    -0.886 OA 
HETATM    2  H   UNL     1     -12.993  14.548  63.503  1.00  0.00     0.000 HD 
HETATM    3  C   UNL     1     -12.376  13.281  64.882  1.00  0.00    -0.425 C  
HETATM    4  C   UNL     1     -11.138  12.440  65.172  1.00  0.00    -0.348 C  
HETATM    5  C   UNL     1     -11.232  12.210  66.665  1.00  0.00    -0.324 C  
HETATM    6  N   UNL     1     -11.832  13.428  67.186  1.00  0.00    -0.375 N  
HETATM    7  C   UNL     1     -12.483  14.181  66.119  1.00  0.00    -0.395 C  
ENDROOT
BRANCH   6   8
HETATM    8  C   UNL     1     -11.754  13.693  68.544  1.00  0.00    -0.357 C  
HETATM    9  O   UNL     1     -12.158  14.766  68.977  1.00  0.00    -0.287 OA 
BRANCH   8  10
HETATM   10  N   UNL     1     -11.170  12.689  69.279  1.00  0.00    -0.395 N  
HETATM   11  H   UNL     1     -10.170  12.542  69.146  1.00  0.00     0.000 HD 
BRANCH  10  12
HETATM   12  C   UNL     1     -11.812  11.853  70.187  1.00  0.00    -0.308 A  
HETATM   13  C   UNL     1     -11.695  10.491  70.427  1.00  0.00    -0.344 A  
HETATM   14  N   UNL     1     -10.918   9.485  69.899  1.00  0.00    -0.236 NA 
HETATM   15  C   UNL     1     -11.134   8.257  70.301  1.00  0.00    -0.219 A  
HETATM   16  C   UNL     1     -12.772  12.299  71.122  1.00  0.00    -0.243 A  
HETATM   17  C   UNL     1     -12.112   7.918  71.391  1.00  0.00    -0.333 A  
HETATM   18  N   UNL     1     -13.275  11.326  71.873  1.00  0.00    -0.461 NA 
HETATM   19  C   UNL     1     -12.811   8.929  71.915  1.00  0.00    -0.380 A  
HETATM   20  N   UNL     1     -12.625  10.215  71.442  1.00  0.00    -0.385 NA 
BRANCH  15  21
HETATM   21  N   UNL     1     -10.460   7.189  69.756  1.00  0.00    -0.218 NA 
HETATM   22  C   UNL     1      -9.026   5.338  69.404  1.00  0.00    -0.124 C  
HETATM   23  C   UNL     1     -10.927   6.493  68.573  1.00  0.00    -0.286 C  
HETATM   24  C   UNL     1      -9.188   6.640  70.230  1.00  0.00    -0.156 C  
HETATM   25  C   UNL     1     -10.398   5.088  68.784  1.00  0.00    -0.109 C  
BRANCH  24  26
HETATM   26  C   UNL     1      -9.192   6.501  71.739  1.00  0.00    -0.149 A  
HETATM   27  C   UNL     1      -9.994   5.601  72.449  1.00  0.00    -0.170 A  
HETATM   28  C   UNL     1     -10.022   5.591  73.846  1.00  0.00    -0.203 A  
HETATM   29  F   UNL     1     -10.783   4.728  71.807  1.00  0.00    -0.253 F  
HETATM   30  C   UNL     1      -9.248   6.498  74.565  1.00  0.00    -0.228 A  
HETATM   31  C   UNL     1      -8.440   7.392  73.876  1.00  0.00    -0.185 A  
HETATM   32  C   UNL     1      -8.402   7.398  72.486  1.00  0.00    -0.128 A  
HETATM   33  F   UNL     1      -7.697   8.272  74.561  1.00  0.00    -0.218 F  
ENDBRANCH  24  26
ENDBRANCH  15  21
ENDBRANCH  10  12
ENDBRANCH   8  10
ENDBRANCH   6   8
TORSDOF 5
ENDMDL
MODEL       64
REMARK 921   NORMALIZED FREE ENERGY PREDICTED BY IDOCK:   -6.43 KCAL/MOL
REMARK 922        TOTAL FREE ENERGY PREDICTED BY IDOCK:  -10.04 KCAL/MOL
REMARK 923 INTER-LIGAND FREE ENERGY PREDICTED BY IDOCK:   -8.47 KCAL/MOL
REMARK 924 INTRA-LIGAND FREE ENERGY PREDICTED BY IDOCK:   -1.57 KCAL/MOL
REMARK 927      BINDING AFFINITY PREDICTED BY RF-SCORE:    0.00 PKD
ROOT
HETATM    1  O   UNL     1      -9.963  15.794  66.911  1.00  0.00    -0.234 OA 
HETATM    2  H   UNL     1      -9.051  15.912  66.674  1.00  0.00     0.000 HD 
HETATM    3  C   UNL     1     -10.439  14.524  66.497  1.00  0.00    -0.285 C  
HETATM    4  C   UNL     1     -11.904  14.334  66.876  1.00  0.00    -0.458 C  
HETATM    5  C   UNL     1     -12.365  13.269  65.904  1.00  0.00    -0.418 C  
HETATM    6  N   UNL     1     -11.611  13.530  64.690  1.00  0.00    -0.353 N  
HETATM    7  C   UNL     1     -10.452  14.373  64.971  1.00  0.00    -0.430 C  
ENDROOT
BRANCH   6   8
HETATM    8  C   UNL     1     -12.028  12.958  63.499  1.00  0.00    -0.556 C  
HETATM    9  O   UNL     1     -12.715  13.609  62.720  1.00  0.00    -0.420 OA 
BRANCH   8  10
HETATM   10  N   UNL     1     -11.637  11.650  63.337  1.00  0.00    -0.780 N  
HETATM   11  H   UNL     1     -12.350  10.992  63.024  1.00  0.00     0.000 HD 
BRANCH  10  12
HETATM   12  C   UNL     1     -10.363  11.138  63.557  1.00  0.00    -0.387 A  
HETATM   13  C   UNL     1      -9.778  10.576  64.684  1.00  0.00    -0.309 A  
HETATM   14  N   UNL     1     -10.219  10.298  65.958  1.00  0.00    -0.248 NA 
HETATM   15  C   UNL     1      -9.353   9.837  66.827  1.00  0.00    -0.152 A  
HETATM   16  C   UNL     1      -9.356  11.083  62.567  1.00  0.00    -0.259 A  
HETATM   17  C   UNL     1      -7.936   9.495  66.461  1.00  0.00    -0.112 A  
HETATM   18  N   UNL     1      -8.207  10.580  63.005  1.00  0.00    -0.154 NA 
HETATM   19  C   UNL     1      -7.560   9.732  65.201  1.00  0.00    -0.125 A  
HETATM   20  N   UNL     1      -8.459  10.278  64.303  1.00  0.00    -0.174 NA 
BRANCH  15  21
HETATM   21  N   UNL     1      -9.696   9.618  68.141  1.00  0.00    -0.144 NA 
HETATM   22  C   UNL     1     -10.386   8.642  70.185  1.00  0.00    -0.219 C  
HETATM   23  C   UNL     1      -9.304  10.517  69.209  1.00  0.00    -0.160 C  
HETATM   24  C   UNL     1     -10.522   8.520  68.645  1.00  0.00    -0.169 C  
HETATM   25  C   UNL     1      -9.210   9.591  70.405  1.00  0.00    -0.305 C  
BRANCH  24  26
HETATM   26  C   UNL     1     -10.105   7.204  68.021  1.00  0.00    -0.201 A  
HETATM   27  C   UNL     1      -8.855   6.602  68.203  1.00  0.00    -0.119 A  
HETATM   28  C   UNL     1      -8.498   5.436  67.519  1.00  0.00    -0.106 A  
HETATM   29  F   UNL     1      -7.946   7.139  69.028  1.00  0.00    -0.110 F  
HETATM   30  C   UNL     1      -9.390   4.852  66.624  1.00  0.00    -0.140 A  
HETATM   31  C   UNL     1     -10.638   5.432  66.438  1.00  0.00    -0.260 A  
HETATM   32  C   UNL     1     -11.000   6.586  67.124  1.00  0.00    -0.480 A  
HETATM   33  F   UNL     1     -11.499   4.879  65.574  1.00  0.00    -0.208 F  
ENDBRANCH  24  26
ENDBRANCH  15  21
ENDBRANCH  10  12
ENDBRANCH   8  10
ENDBRANCH   6   8
TORSDOF 5
ENDMDL
MODEL       65
REMARK 921   NORMALIZED FREE ENERGY PREDICTED BY IDOCK:   -6.42 KCAL/MOL
REMARK 922        TOTAL FREE ENERGY PREDICTED BY IDOCK:  -10.03 KCAL/MOL
REMARK 923 INTER-LIGAND FREE ENERGY PREDICTED BY IDOCK:   -9.19 KCAL/MOL
REMARK 924 INTRA-LIGAND FREE ENERGY PREDICTED BY IDOCK:   -0.84 KCAL/MOL
REMARK 927      BINDING AFFINITY PREDICTED BY RF-SCORE:    0.00 PKD
ROOT
HETATM    1  O   UNL     1      -9.559   6.864  65.856  1.00  0.00    -0.396 OA 
HETATM    2  H   UNL     1      -9.840   7.337  65.081  1.00  0.00     0.000 HD 
HETATM    3  C   UNL     1     -10.428   7.108  66.949  1.00  0.00    -0.294 C  
HETATM    4  C   UNL     1      -9.977   6.350  68.193  1.00  0.00    -0.143 C  
HETATM    5  C   UNL     1     -10.613   7.141  69.315  1.00  0.00    -0.221 C  
HETATM    6  N   UNL     1     -10.595   8.518  68.850  1.00  0.00    -0.187 N  
HETATM    7  C   UNL     1     -10.398   8.573  67.404  1.00  0.00    -0.286 C  
ENDROOT
BRANCH   6   8
HETATM    8  C   UNL     1     -10.790   9.543  69.762  1.00  0.00    -0.243 C  
HETATM    9  O   UNL     1     -10.167   9.544  70.817  1.00  0.00    -0.275 OA 
BRANCH   8  10
HETATM   10  N   UNL     1     -11.734  10.464  69.376  1.00  0.00    -0.446 N  
HETATM   11  H   UNL     1     -12.274  10.248  68.538  1.00  0.00     0.000 HD 
BRANCH  10  12
HETATM   12  C   UNL     1     -12.025  11.664  70.018  1.00  0.00    -0.351 A  
HETATM   13  C   UNL     1     -11.576  12.958  69.798  1.00  0.00    -0.218 A  
HETATM   14  N   UNL     1     -10.724  13.539  68.886  1.00  0.00    -0.231 NA 
HETATM   15  C   UNL     1     -10.439  14.810  69.023  1.00  0.00    -0.249 A  
HETATM   16  C   UNL     1     -12.930  11.778  71.098  1.00  0.00    -0.187 A  
HETATM   17  C   UNL     1     -11.089  15.682  70.062  1.00  0.00    -0.332 A  
HETATM   18  N   UNL     1     -13.035  13.013  71.575  1.00  0.00    -0.352 NA 
HETATM   19  C   UNL     1     -11.949  15.093  70.896  1.00  0.00    -0.328 A  
HETATM   20  N   UNL     1     -12.199  13.737  70.788  1.00  0.00    -0.361 NA 
BRANCH  15  21
HETATM   21  N   UNL     1      -9.529  15.439  68.206  1.00  0.00    -0.198 NA 
HETATM   22  C   UNL     1      -8.194  16.101  66.366  1.00  0.00    -0.336 C  
HETATM   23  C   UNL     1      -8.967  16.738  68.520  1.00  0.00    -0.244 C  
HETATM   24  C   UNL     1      -8.964  14.898  66.969  1.00  0.00    -0.236 C  
HETATM   25  C   UNL     1      -8.685  17.318  67.147  1.00  0.00    -0.231 C  
BRANCH  24  26
HETATM   26  C   UNL     1     -10.046  14.275  66.111  1.00  0.00    -0.325 A  
HETATM   27  C   UNL     1     -10.144  12.908  65.829  1.00  0.00    -0.287 A  
HETATM   28  C   UNL     1     -11.108  12.410  64.949  1.00  0.00    -0.344 A  
HETATM   29  F   UNL     1      -9.296  12.029  66.381  1.00  0.00    -0.206 F  
HETATM   30  C   UNL     1     -11.995  13.281  64.321  1.00  0.00    -0.477 A  
HETATM   31  C   UNL     1     -11.917  14.639  64.596  1.00  0.00    -0.462 A  
HETATM   32  C   UNL     1     -10.965  15.137  65.479  1.00  0.00    -0.370 A  
HETATM   33  F   UNL     1     -12.763  15.483  63.991  1.00  0.00    -0.370 F  
ENDBRANCH  24  26
ENDBRANCH  15  21
ENDBRANCH  10  12
ENDBRANCH   8  10
ENDBRANCH   6   8
TORSDOF 5
ENDMDL
MODEL       66
REMARK 921   NORMALIZED FREE ENERGY PREDICTED BY IDOCK:   -6.41 KCAL/MOL
REMARK 922        TOTAL FREE ENERGY PREDICTED BY IDOCK:  -10.02 KCAL/MOL
REMARK 923 INTER-LIGAND FREE ENERGY PREDICTED BY IDOCK:   -7.90 KCAL/MOL
REMARK 924 INTRA-LIGAND FREE ENERGY PREDICTED BY IDOCK:   -2.12 KCAL/MOL
REMARK 927      BINDING AFFINITY PREDICTED BY RF-SCORE:    0.00 PKD
ROOT
HETATM    1  O   UNL     1     -11.494   6.646  66.986  1.00  0.00    -0.763 OA 
HETATM    2  H   UNL     1     -11.559   6.539  66.044  1.00  0.00     0.000 HD 
HETATM    3  C   UNL     1     -10.597   7.690  67.323  1.00  0.00    -0.318 C  
HETATM    4  C   UNL     1     -10.493   7.861  68.835  1.00  0.00    -0.205 C  
HETATM    5  C   UNL     1      -9.153   8.545  69.002  1.00  0.00    -0.146 C  
HETATM    6  N   UNL     1      -8.327   7.999  67.939  1.00  0.00    -0.128 N  
HETATM    7  C   UNL     1      -9.154   7.378  66.908  1.00  0.00    -0.141 C  
ENDROOT
BRANCH   6   8
HETATM    8  C   UNL     1      -6.952   8.153  68.005  1.00  0.00    -0.077 C  
HETATM    9  O   UNL     1      -6.292   7.418  68.730  1.00  0.00    -0.033 OA 
BRANCH   8  10
HETATM   10  N   UNL     1      -6.466   9.188  67.241  1.00  0.00    -0.060 N  
HETATM   11  H   UNL     1      -6.100   8.948  66.320  1.00  0.00     0.000 HD 
BRANCH  10  12
HETATM   12  C   UNL     1      -6.424  10.530  67.603  1.00  0.00    -0.057 A  
HETATM   13  C   UNL     1      -7.312  11.573  67.377  1.00  0.00    -0.123 A  
HETATM   14  N   UNL     1      -8.536  11.676  66.755  1.00  0.00    -0.177 NA 
HETATM   15  C   UNL     1      -9.074  12.864  66.636  1.00  0.00    -0.177 A  
HETATM   16  C   UNL     1      -5.375  11.110  68.350  1.00  0.00    -0.043 A  
HETATM   17  C   UNL     1      -8.467  14.097  67.247  1.00  0.00    -0.228 A  
HETATM   18  N   UNL     1      -5.528  12.413  68.558  1.00  0.00    -0.054 NA 
HETATM   19  C   UNL     1      -7.304  13.948  67.886  1.00  0.00    -0.154 A  
HETATM   20  N   UNL     1      -6.708  12.702  67.955  1.00  0.00    -0.094 NA 
BRANCH  15  21
HETATM   21  N   UNL     1     -10.250  13.060  65.951  1.00  0.00    -0.288 NA 
HETATM   22  C   UNL     1     -12.531  13.196  65.330  1.00  0.00    -0.535 C  
HETATM   23  C   UNL     1     -10.329  13.872  64.753  1.00  0.00    -0.394 C  
HETATM   24  C   UNL     1     -11.546  12.460  66.274  1.00  0.00    -0.393 C  
HETATM   25  C   UNL     1     -11.751  14.397  64.800  1.00  0.00    -0.420 C  
BRANCH  24  26
HETATM   26  C   UNL     1     -11.823  12.549  67.761  1.00  0.00    -0.375 A  
HETATM   27  C   UNL     1     -11.946  13.748  68.473  1.00  0.00    -0.367 A  
HETATM   28  C   UNL     1     -12.104  13.761  69.861  1.00  0.00    -0.412 A  
HETATM   29  F   UNL     1     -11.896  14.930  67.844  1.00  0.00    -0.338 F  
HETATM   30  C   UNL     1     -12.130  12.563  70.571  1.00  0.00    -0.361 A  
HETATM   31  C   UNL     1     -12.018  11.365  69.880  1.00  0.00    -0.359 A  
HETATM   32  C   UNL     1     -11.871  11.348  68.497  1.00  0.00    -0.364 A  
HETATM   33  F   UNL     1     -12.037  10.209  70.557  1.00  0.00    -0.313 F  
ENDBRANCH  24  26
ENDBRANCH  15  21
ENDBRANCH  10  12
ENDBRANCH   8  10
ENDBRANCH   6   8
TORSDOF 5
ENDMDL
MODEL       67
REMARK 921   NORMALIZED FREE ENERGY PREDICTED BY IDOCK:   -6.39 KCAL/MOL
REMARK 922        TOTAL FREE ENERGY PREDICTED BY IDOCK:   -9.99 KCAL/MOL
REMARK 923 INTER-LIGAND FREE ENERGY PREDICTED BY IDOCK:   -8.47 KCAL/MOL
REMARK 924 INTRA-LIGAND FREE ENERGY PREDICTED BY IDOCK:   -1.52 KCAL/MOL
REMARK 927      BINDING AFFINITY PREDICTED BY RF-SCORE:    0.00 PKD
ROOT
HETATM    1  O   UNL     1      -9.314  19.186  67.957  1.00  0.00    -0.303 OA 
HETATM    2  H   UNL     1      -9.578  20.058  67.690  1.00  0.00     0.000 HD 
HETATM    3  C   UNL     1      -9.175  18.327  66.838  1.00  0.00    -0.282 C  
HETATM    4  C   UNL     1      -8.751  16.926  67.267  1.00  0.00    -0.207 C  
HETATM    5  C   UNL     1      -9.206  16.069  66.105  1.00  0.00    -0.352 C  
HETATM    6  N   UNL     1     -10.422  16.709  65.631  1.00  0.00    -0.345 N  
HETATM    7  C   UNL     1     -10.508  18.082  66.119  1.00  0.00    -0.331 C  
ENDROOT
BRANCH   6   8
HETATM    8  C   UNL     1     -11.277  16.004  64.800  1.00  0.00    -0.339 C  
HETATM    9  O   UNL     1     -11.596  16.477  63.715  1.00  0.00    -1.109 OA 
BRANCH   8  10
HETATM   10  N   UNL     1     -11.720  14.815  65.329  1.00  0.00    -0.339 N  
HETATM   11  H   UNL     1     -12.323  14.872  66.149  1.00  0.00     0.000 HD 
BRANCH  10  12
HETATM   12  C   UNL     1     -11.427  13.542  64.853  1.00  0.00    -0.334 A  
HETATM   13  C   UNL     1     -10.492  12.599  65.259  1.00  0.00    -0.289 A  
HETATM   14  N   UNL     1      -9.550  12.550  66.261  1.00  0.00    -0.250 NA 
HETATM   15  C   UNL     1      -8.746  11.516  66.307  1.00  0.00    -0.159 A  
HETATM   16  C   UNL     1     -12.111  12.927  63.780  1.00  0.00    -0.508 A  
HETATM   17  C   UNL     1      -8.884  10.336  65.385  1.00  0.00    -0.192 A  
HETATM   18  N   UNL     1     -11.647  11.720  63.476  1.00  0.00    -0.432 NA 
HETATM   19  C   UNL     1      -9.843  10.399  64.458  1.00  0.00    -0.339 A  
HETATM   20  N   UNL     1     -10.649  11.520  64.373  1.00  0.00    -0.311 NA 
BRANCH  15  21
HETATM   21  N   UNL     1      -7.723  11.436  67.223  1.00  0.00    -0.137 NA 
HETATM   22  C   UNL     1      -6.428  11.037  69.164  1.00  0.00    -0.066 C  
HETATM   23  C   UNL     1      -6.327  11.528  66.843  1.00  0.00    -0.146 C  
HETATM   24  C   UNL     1      -7.873  11.307  68.673  1.00  0.00    -0.139 C  
HETATM   25  C   UNL     1      -5.639  10.691  67.904  1.00  0.00    -0.043 C  
BRANCH  24  26
HETATM   26  C   UNL     1      -8.920  10.266  69.015  1.00  0.00    -0.175 A  
HETATM   27  C   UNL     1     -10.259  10.555  69.301  1.00  0.00    -0.225 A  
HETATM   28  C   UNL     1     -11.152   9.559  69.705  1.00  0.00    -0.216 A  
HETATM   29  F   UNL     1     -10.726  11.808  69.215  1.00  0.00    -0.240 F  
HETATM   30  C   UNL     1     -10.714   8.245  69.843  1.00  0.00    -0.234 A  
HETATM   31  C   UNL     1      -9.390   7.939  69.555  1.00  0.00    -0.156 A  
HETATM   32  C   UNL     1      -8.502   8.927  69.143  1.00  0.00    -0.132 A  
HETATM   33  F   UNL     1      -8.960   6.678  69.691  1.00  0.00    -0.138 F  
ENDBRANCH  24  26
ENDBRANCH  15  21
ENDBRANCH  10  12
ENDBRANCH   8  10
ENDBRANCH   6   8
TORSDOF 5
ENDMDL
MODEL       68
REMARK 921   NORMALIZED FREE ENERGY PREDICTED BY IDOCK:   -6.37 KCAL/MOL
REMARK 922        TOTAL FREE ENERGY PREDICTED BY IDOCK:   -9.96 KCAL/MOL
REMARK 923 INTER-LIGAND FREE ENERGY PREDICTED BY IDOCK:   -8.31 KCAL/MOL
REMARK 924 INTRA-LIGAND FREE ENERGY PREDICTED BY IDOCK:   -1.65 KCAL/MOL
REMARK 927      BINDING AFFINITY PREDICTED BY RF-SCORE:    0.00 PKD
ROOT
HETATM    1  O   UNL     1     -11.151   7.395  68.914  1.00  0.00    -0.433 OA 
HETATM    2  H   UNL     1     -12.063   7.516  68.674  1.00  0.00     0.000 HD 
HETATM    3  C   UNL     1     -10.351   8.468  68.447  1.00  0.00    -0.202 C  
HETATM    4  C   UNL     1      -8.889   8.274  68.830  1.00  0.00    -0.140 C  
HETATM    5  C   UNL     1      -8.161   9.127  67.815  1.00  0.00    -0.105 C  
HETATM    6  N   UNL     1      -8.961   9.023  66.607  1.00  0.00    -0.130 N  
HETATM    7  C   UNL     1     -10.303   8.539  66.915  1.00  0.00    -0.297 C  
ENDROOT
BRANCH   6   8
HETATM    8  C   UNL     1      -8.409   9.405  65.395  1.00  0.00    -0.137 C  
HETATM    9  O   UNL     1      -7.886   8.564  64.673  1.00  0.00    -0.115 OA 
BRANCH   8  10
HETATM   10  N   UNL     1      -8.482  10.755  65.145  1.00  0.00    -0.307 N  
HETATM   11  H   UNL     1      -7.607  11.278  65.180  1.00  0.00     0.000 HD 
BRANCH  10  12
HETATM   12  C   UNL     1      -9.633  11.477  64.848  1.00  0.00    -0.186 A  
HETATM   13  C   UNL     1     -10.366  12.389  65.595  1.00  0.00    -0.258 A  
HETATM   14  N   UNL     1     -10.232  12.929  66.854  1.00  0.00    -0.240 NA 
HETATM   15  C   UNL     1     -11.182  13.716  67.297  1.00  0.00    -0.309 A  
HETATM   16  C   UNL     1     -10.306  11.408  63.608  1.00  0.00    -0.410 A  
HETATM   17  C   UNL     1     -12.348  14.141  66.448  1.00  0.00    -0.431 A  
HETATM   18  N   UNL     1     -11.399  12.161  63.553  1.00  0.00    -0.444 NA 
HETATM   19  C   UNL     1     -12.416  13.636  65.213  1.00  0.00    -0.479 A  
HETATM   20  N   UNL     1     -11.444  12.755  64.772  1.00  0.00    -0.305 NA 
BRANCH  15  21
HETATM   21  N   UNL     1     -11.164  14.221  68.576  1.00  0.00    -0.253 NA 
HETATM   22  C   UNL     1     -10.663  15.461  70.529  1.00  0.00    -0.290 C  
HETATM   23  C   UNL     1     -12.266  14.043  69.500  1.00  0.00    -0.308 C  
HETATM   24  C   UNL     1     -10.055  14.943  69.201  1.00  0.00    -0.226 C  
HETATM   25  C   UNL     1     -12.171  15.280  70.372  1.00  0.00    -0.404 C  
BRANCH  24  26
HETATM   26  C   UNL     1      -9.487  15.980  68.254  1.00  0.00    -0.206 A  
HETATM   27  C   UNL     1     -10.221  17.036  67.704  1.00  0.00    -0.317 A  
HETATM   28  C   UNL     1      -9.663  17.902  66.759  1.00  0.00    -0.314 A  
HETATM   29  F   UNL     1     -11.500  17.240  68.051  1.00  0.00    -0.185 F  
HETATM   30  C   UNL     1      -8.349  17.717  66.336  1.00  0.00    -0.281 A  
HETATM   31  C   UNL     1      -7.603  16.680  66.878  1.00  0.00    -0.227 A  
HETATM   32  C   UNL     1      -8.153  15.823  67.826  1.00  0.00    -0.156 A  
HETATM   33  F   UNL     1      -6.341  16.493  66.472  1.00  0.00    -0.216 F  
ENDBRANCH  24  26
ENDBRANCH  15  21
ENDBRANCH  10  12
ENDBRANCH   8  10
ENDBRANCH   6   8
TORSDOF 5
ENDMDL
MODEL       69
REMARK 921   NORMALIZED FREE ENERGY PREDICTED BY IDOCK:   -6.35 KCAL/MOL
REMARK 922        TOTAL FREE ENERGY PREDICTED BY IDOCK:   -9.94 KCAL/MOL
REMARK 923 INTER-LIGAND FREE ENERGY PREDICTED BY IDOCK:   -8.98 KCAL/MOL
REMARK 924 INTRA-LIGAND FREE ENERGY PREDICTED BY IDOCK:   -0.95 KCAL/MOL
REMARK 927      BINDING AFFINITY PREDICTED BY RF-SCORE:    0.00 PKD
ROOT
HETATM    1  O   UNL     1     -11.749  16.228  70.499  1.00  0.00    -0.469 OA 
HETATM    2  H   UNL     1     -12.367  15.907  71.146  1.00  0.00     0.000 HD 
HETATM    3  C   UNL     1     -12.023  15.687  69.217  1.00  0.00    -0.320 C  
HETATM    4  C   UNL     1     -11.032  16.202  68.179  1.00  0.00    -0.341 C  
HETATM    5  C   UNL     1     -11.097  15.142  67.101  1.00  0.00    -0.335 C  
HETATM    6  N   UNL     1     -11.328  13.901  67.820  1.00  0.00    -0.293 N  
HETATM    7  C   UNL     1     -11.821  14.167  69.168  1.00  0.00    -0.341 C  
ENDROOT
BRANCH   6   8
HETATM    8  C   UNL     1     -11.107  12.695  67.176  1.00  0.00    -0.280 C  
HETATM    9  O   UNL     1     -12.055  12.063  66.725  1.00  0.00    -0.613 OA 
BRANCH   8  10
HETATM   10  N   UNL     1      -9.788  12.307  67.147  1.00  0.00    -0.201 N  
HETATM   11  H   UNL     1      -9.235  12.614  66.347  1.00  0.00     0.000 HD 
BRANCH  10  12
HETATM   12  C   UNL     1      -9.134  11.537  68.103  1.00  0.00    -0.181 A  
HETATM   13  C   UNL     1      -9.616  10.663  69.067  1.00  0.00    -0.195 A  
HETATM   14  N   UNL     1     -10.869  10.219  69.423  1.00  0.00    -0.229 NA 
HETATM   15  C   UNL     1     -10.978   9.442  70.472  1.00  0.00    -0.274 A  
HETATM   16  C   UNL     1      -7.730  11.500  68.256  1.00  0.00    -0.123 A  
HETATM   17  C   UNL     1      -9.787   8.927  71.232  1.00  0.00    -0.361 A  
HETATM   18  N   UNL     1      -7.324  10.717  69.249  1.00  0.00    -0.118 NA 
HETATM   19  C   UNL     1      -8.584   9.341  70.825  1.00  0.00    -0.203 A  
HETATM   20  N   UNL     1      -8.477  10.211  69.755  1.00  0.00    -0.164 NA 
BRANCH  15  21
HETATM   21  N   UNL     1     -12.204   9.029  70.942  1.00  0.00    -0.217 NA 
HETATM   22  C   UNL     1     -14.048   7.735  71.668  1.00  0.00    -0.533 C  
HETATM   23  C   UNL     1     -13.101   9.913  71.660  1.00  0.00    -0.437 C  
HETATM   24  C   UNL     1     -12.797   7.705  70.752  1.00  0.00     0.138 C  
HETATM   25  C   UNL     1     -13.855   8.956  72.563  1.00  0.00    -0.472 C  
BRANCH  24  26
HETATM   26  C   UNL     1     -11.778   6.616  71.017  1.00  0.00    -0.415 A  
HETATM   27  C   UNL     1     -11.075   5.930  70.020  1.00  0.00    -0.341 A  
HETATM   28  C   UNL     1     -10.221   4.867  70.326  1.00  0.00    -0.299 A  
HETATM   29  F   UNL     1     -11.215   6.260  68.729  1.00  0.00    -0.349 F  
HETATM   30  C   UNL     1     -10.062   4.460  71.649  1.00  0.00    -0.230 A  
HETATM   31  C   UNL     1     -10.746   5.135  72.651  1.00  0.00    -0.237 A  
HETATM   32  C   UNL     1     -11.589   6.199  72.350  1.00  0.00    -0.338 A  
HETATM   33  F   UNL     1     -10.602   4.744  73.924  1.00  0.00    -0.217 F  
ENDBRANCH  24  26
ENDBRANCH  15  21
ENDBRANCH  10  12
ENDBRANCH   8  10
ENDBRANCH   6   8
TORSDOF 5
ENDMDL
MODEL       70
REMARK 921   NORMALIZED FREE ENERGY PREDICTED BY IDOCK:   -6.35 KCAL/MOL
REMARK 922        TOTAL FREE ENERGY PREDICTED BY IDOCK:   -9.93 KCAL/MOL
REMARK 923 INTER-LIGAND FREE ENERGY PREDICTED BY IDOCK:   -8.45 KCAL/MOL
REMARK 924 INTRA-LIGAND FREE ENERGY PREDICTED BY IDOCK:   -1.48 KCAL/MOL
REMARK 927      BINDING AFFINITY PREDICTED BY RF-SCORE:    0.00 PKD
ROOT
HETATM    1  O   UNL     1      -8.764   7.508  74.514  1.00  0.00    -0.335 OA 
HETATM    2  H   UNL     1      -7.852   7.726  74.363  1.00  0.00     0.000 HD 
HETATM    3  C   UNL     1      -9.442   7.261  73.293  1.00  0.00    -0.195 C  
HETATM    4  C   UNL     1     -10.906   6.913  73.536  1.00  0.00    -0.265 C  
HETATM    5  C   UNL     1     -11.554   7.251  72.211  1.00  0.00    -0.277 C  
HETATM    6  N   UNL     1     -10.806   8.395  71.718  1.00  0.00    -0.262 N  
HETATM    7  C   UNL     1      -9.524   8.510  72.407  1.00  0.00    -0.280 C  
ENDROOT
BRANCH   6   8
HETATM    8  C   UNL     1     -11.341   9.165  70.699  1.00  0.00    -0.273 C  
HETATM    9  O   UNL     1     -11.831  10.259  70.956  1.00  0.00    -0.336 OA 
BRANCH   8  10
HETATM   10  N   UNL     1     -11.294   8.569  69.461  1.00  0.00    -0.416 N  
HETATM   11  H   UNL     1     -12.047   7.920  69.232  1.00  0.00     0.000 HD 
BRANCH  10  12
HETATM   12  C   UNL     1     -10.319   8.766  68.489  1.00  0.00    -0.199 A  
HETATM   13  C   UNL     1     -10.242   9.657  67.428  1.00  0.00    -0.227 A  
HETATM   14  N   UNL     1     -11.054  10.665  66.958  1.00  0.00    -0.240 NA 
HETATM   15  C   UNL     1     -10.716  11.267  65.844  1.00  0.00    -0.232 A  
HETATM   16  C   UNL     1      -9.115   8.028  68.423  1.00  0.00    -0.136 A  
HETATM   17  C   UNL     1      -9.428  10.981  65.123  1.00  0.00    -0.265 A  
HETATM   18  N   UNL     1      -8.341   8.364  67.398  1.00  0.00    -0.123 NA 
HETATM   19  C   UNL     1      -8.642  10.031  65.638  1.00  0.00    -0.155 A  
HETATM   20  N   UNL     1      -9.033   9.354  66.779  1.00  0.00    -0.130 NA 
BRANCH  15  21
HETATM   21  N   UNL     1     -11.520  12.221  65.265  1.00  0.00    -0.342 NA 
HETATM   22  C   UNL     1     -12.654  14.231  64.739  1.00  0.00    -0.310 C  
HETATM   23  C   UNL     1     -12.048  12.085  63.923  1.00  0.00    -0.457 C  
HETATM   24  C   UNL     1     -11.996  13.448  65.905  1.00  0.00    -0.409 C  
HETATM   25  C   UNL     1     -12.180  13.527  63.471  1.00  0.00    -0.410 C  
BRANCH  24  26
HETATM   26  C   UNL     1     -10.871  14.139  66.648  1.00  0.00    -0.299 A  
HETATM   27  C   UNL     1     -10.699  14.101  68.036  1.00  0.00    -0.242 A  
HETATM   28  C   UNL     1      -9.698  14.841  68.670  1.00  0.00    -0.225 A  
HETATM   29  F   UNL     1     -11.508  13.364  68.810  1.00  0.00    -0.260 F  
HETATM   30  C   UNL     1      -8.849  15.651  67.919  1.00  0.00    -0.171 A  
HETATM   31  C   UNL     1      -9.001  15.694  66.540  1.00  0.00    -0.308 A  
HETATM   32  C   UNL     1      -9.990  14.950  65.905  1.00  0.00    -0.357 A  
HETATM   33  F   UNL     1      -8.191  16.475  65.812  1.00  0.00    -0.317 F  
ENDBRANCH  24  26
ENDBRANCH  15  21
ENDBRANCH  10  12
ENDBRANCH   8  10
ENDBRANCH   6   8
TORSDOF 5
ENDMDL
MODEL       71
REMARK 921   NORMALIZED FREE ENERGY PREDICTED BY IDOCK:   -6.33 KCAL/MOL
REMARK 922        TOTAL FREE ENERGY PREDICTED BY IDOCK:   -9.91 KCAL/MOL
REMARK 923 INTER-LIGAND FREE ENERGY PREDICTED BY IDOCK:   -8.40 KCAL/MOL
REMARK 924 INTRA-LIGAND FREE ENERGY PREDICTED BY IDOCK:   -1.51 KCAL/MOL
REMARK 927      BINDING AFFINITY PREDICTED BY RF-SCORE:    0.00 PKD
ROOT
HETATM    1  O   UNL     1     -11.837  16.591  71.121  1.00  0.00    -0.602 OA 
HETATM    2  H   UNL     1     -10.937  16.727  70.848  1.00  0.00     0.000 HD 
HETATM    3  C   UNL     1     -11.986  15.353  71.796  1.00  0.00    -0.403 C  
HETATM    4  C   UNL     1     -13.429  15.133  72.234  1.00  0.00    -0.539 C  
HETATM    5  C   UNL     1     -13.509  13.629  72.381  1.00  0.00    -0.584 C  
HETATM    6  N   UNL     1     -12.625  13.112  71.349  1.00  0.00    -0.308 N  
HETATM    7  C   UNL     1     -11.712  14.152  70.882  1.00  0.00    -0.121 C  
ENDROOT
BRANCH   6   8
HETATM    8  C   UNL     1     -12.719  11.780  70.983  1.00  0.00    -0.275 C  
HETATM    9  O   UNL     1     -12.384  11.434  69.856  1.00  0.00    -0.273 OA 
BRANCH   8  10
HETATM   10  N   UNL     1     -13.238  10.964  71.961  1.00  0.00    -0.552 N  
HETATM   11  H   UNL     1     -13.686  11.423  72.754  1.00  0.00     0.000 HD 
BRANCH  10  12
HETATM   12  C   UNL     1     -13.210   9.573  71.974  1.00  0.00    -0.452 A  
HETATM   13  C   UNL     1     -12.154   8.673  71.933  1.00  0.00    -0.356 A  
HETATM   14  N   UNL     1     -10.784   8.799  71.889  1.00  0.00    -0.339 NA 
HETATM   15  C   UNL     1     -10.065   7.712  71.761  1.00  0.00    -0.173 A  
HETATM   16  C   UNL     1     -14.366   8.765  72.057  1.00  0.00    -0.377 A  
HETATM   17  C   UNL     1     -10.664   6.333  71.774  1.00  0.00    -0.279 A  
HETATM   18  N   UNL     1     -14.107   7.463  72.028  1.00  0.00    -0.245 NA 
HETATM   19  C   UNL     1     -11.994   6.250  71.870  1.00  0.00    -0.286 A  
HETATM   20  N   UNL     1     -12.754   7.403  71.941  1.00  0.00    -0.303 NA 
BRANCH  15  21
HETATM   21  N   UNL     1      -8.697   7.762  71.621  1.00  0.00    -0.115 NA 
HETATM   22  C   UNL     1      -6.500   7.948  70.759  1.00  0.00    -0.037 C  
HETATM   23  C   UNL     1      -7.806   7.984  72.742  1.00  0.00    -0.132 C  
HETATM   24  C   UNL     1      -7.951   7.555  70.379  1.00  0.00    -0.102 C  
HETATM   25  C   UNL     1      -6.624   8.678  72.094  1.00  0.00    -0.075 C  
BRANCH  24  26
HETATM   26  C   UNL     1      -8.590   8.312  69.233  1.00  0.00    -0.138 A  
HETATM   27  C   UNL     1      -8.598   9.706  69.113  1.00  0.00    -0.146 A  
HETATM   28  C   UNL     1      -9.291  10.348  68.083  1.00  0.00    -0.149 A  
HETATM   29  F   UNL     1      -7.953  10.477  70.000  1.00  0.00    -0.153 F  
HETATM   30  C   UNL     1     -10.006   9.599  67.152  1.00  0.00    -0.249 A  
HETATM   31  C   UNL     1     -10.002   8.214  67.252  1.00  0.00    -0.218 A  
HETATM   32  C   UNL     1      -9.305   7.572  68.270  1.00  0.00    -0.141 A  
HETATM   33  F   UNL     1     -10.692   7.487  66.363  1.00  0.00    -0.281 F  
ENDBRANCH  24  26
ENDBRANCH  15  21
ENDBRANCH  10  12
ENDBRANCH   8  10
ENDBRANCH   6   8
TORSDOF 5
ENDMDL
MODEL       72
REMARK 921   NORMALIZED FREE ENERGY PREDICTED BY IDOCK:   -6.33 KCAL/MOL
REMARK 922        TOTAL FREE ENERGY PREDICTED BY IDOCK:   -9.91 KCAL/MOL
REMARK 923 INTER-LIGAND FREE ENERGY PREDICTED BY IDOCK:   -8.38 KCAL/MOL
REMARK 924 INTRA-LIGAND FREE ENERGY PREDICTED BY IDOCK:   -1.53 KCAL/MOL
REMARK 927      BINDING AFFINITY PREDICTED BY RF-SCORE:    0.00 PKD
ROOT
HETATM    1  O   UNL     1     -11.596   4.464  65.062  1.00  0.00    -1.067 OA 
HETATM    2  H   UNL     1     -12.406   4.334  65.541  1.00  0.00     0.000 HD 
HETATM    3  C   UNL     1     -10.514   4.717  65.943  1.00  0.00    -0.274 C  
HETATM    4  C   UNL     1      -9.214   4.927  65.175  1.00  0.00    -0.128 C  
HETATM    5  C   UNL     1      -8.371   5.716  66.154  1.00  0.00    -0.120 C  
HETATM    6  N   UNL     1      -9.324   6.547  66.871  1.00  0.00    -0.141 N  
HETATM    7  C   UNL     1     -10.681   6.034  66.712  1.00  0.00    -0.302 C  
ENDROOT
BRANCH   6   8
HETATM    8  C   UNL     1      -8.861   7.630  67.601  1.00  0.00    -0.125 C  
HETATM    9  O   UNL     1      -9.425   7.947  68.642  1.00  0.00    -0.149 OA 
BRANCH   8  10
HETATM   10  N   UNL     1      -7.794   8.279  67.028  1.00  0.00    -0.096 N  
HETATM   11  H   UNL     1      -7.285   7.776  66.300  1.00  0.00     0.000 HD 
BRANCH  10  12
HETATM   12  C   UNL     1      -7.339   9.555  67.343  1.00  0.00    -0.087 A  
HETATM   13  C   UNL     1      -7.923  10.805  67.187  1.00  0.00    -0.124 A  
HETATM   14  N   UNL     1      -9.133  11.248  66.703  1.00  0.00    -0.174 NA 
HETATM   15  C   UNL     1      -9.329  12.540  66.610  1.00  0.00    -0.236 A  
HETATM   16  C   UNL     1      -6.091   9.817  67.951  1.00  0.00    -0.051 A  
HETATM   17  C   UNL     1      -8.338  13.552  67.112  1.00  0.00    -0.151 A  
HETATM   18  N   UNL     1      -5.851  11.110  68.137  1.00  0.00    -0.046 NA 
HETATM   19  C   UNL     1      -7.196  13.082  67.622  1.00  0.00    -0.151 A  
HETATM   20  N   UNL     1      -6.966  11.719  67.660  1.00  0.00    -0.094 NA 
BRANCH  15  21
HETATM   21  N   UNL     1     -10.476  13.058  66.054  1.00  0.00    -0.274 NA 
HETATM   22  C   UNL     1     -12.678  13.851  65.695  1.00  0.00    -0.534 C  
HETATM   23  C   UNL     1     -10.469  13.824  64.823  1.00  0.00    -0.428 C  
HETATM   24  C   UNL     1     -11.836  12.881  66.564  1.00  0.00    -0.407 C  
HETATM   25  C   UNL     1     -11.657  14.750  65.002  1.00  0.00    -0.378 C  
BRANCH  24  26
HETATM   26  C   UNL     1     -11.879  13.090  68.064  1.00  0.00    -0.391 A  
HETATM   27  C   UNL     1     -11.921  12.056  69.006  1.00  0.00    -0.264 A  
HETATM   28  C   UNL     1     -12.060  12.316  70.372  1.00  0.00    -0.385 A  
HETATM   29  F   UNL     1     -11.851  10.773  68.624  1.00  0.00    -0.347 F  
HETATM   30  C   UNL     1     -12.172  13.629  70.824  1.00  0.00    -0.424 A  
HETATM   31  C   UNL     1     -12.123  14.667  69.904  1.00  0.00    -0.335 A  
HETATM   32  C   UNL     1     -11.975  14.411  68.544  1.00  0.00    -0.333 A  
HETATM   33  F   UNL     1     -12.235  15.931  70.330  1.00  0.00    -0.367 F  
ENDBRANCH  24  26
ENDBRANCH  15  21
ENDBRANCH  10  12
ENDBRANCH   8  10
ENDBRANCH   6   8
TORSDOF 5
ENDMDL
MODEL       73
REMARK 921   NORMALIZED FREE ENERGY PREDICTED BY IDOCK:   -6.32 KCAL/MOL
REMARK 922        TOTAL FREE ENERGY PREDICTED BY IDOCK:   -9.90 KCAL/MOL
REMARK 923 INTER-LIGAND FREE ENERGY PREDICTED BY IDOCK:   -9.27 KCAL/MOL
REMARK 924 INTRA-LIGAND FREE ENERGY PREDICTED BY IDOCK:   -0.64 KCAL/MOL
REMARK 927      BINDING AFFINITY PREDICTED BY RF-SCORE:    0.00 PKD
ROOT
HETATM    1  O   UNL     1     -12.081  15.756  63.699  1.00  0.00    -1.126 OA 
HETATM    2  H   UNL     1     -12.519  16.481  64.131  1.00  0.00     0.000 HD 
HETATM    3  C   UNL     1     -12.070  14.601  64.520  1.00  0.00    -0.475 C  
HETATM    4  C   UNL     1     -11.368  13.439  63.827  1.00  0.00    -0.206 C  
HETATM    5  C   UNL     1     -10.953  12.559  64.986  1.00  0.00    -0.294 C  
HETATM    6  N   UNL     1     -10.651  13.489  66.062  1.00  0.00    -0.281 N  
HETATM    7  C   UNL     1     -11.241  14.798  65.796  1.00  0.00    -0.337 C  
ENDROOT
BRANCH   6   8
HETATM    8  C   UNL     1      -9.923  13.046  67.154  1.00  0.00    -0.235 C  
HETATM    9  O   UNL     1     -10.501  12.777  68.201  1.00  0.00    -0.222 OA 
BRANCH   8  10
HETATM   10  N   UNL     1      -8.566  12.992  66.940  1.00  0.00    -0.373 N  
HETATM   11  H   UNL     1      -8.231  12.283  66.288  1.00  0.00     0.000 HD 
BRANCH  10  12
HETATM   12  C   UNL     1      -7.606  13.809  67.528  1.00  0.00    -0.173 A  
HETATM   13  C   UNL     1      -7.624  15.156  67.862  1.00  0.00    -0.139 A  
HETATM   14  N   UNL     1      -8.563  16.158  67.768  1.00  0.00    -0.166 NA 
HETATM   15  C   UNL     1      -8.208  17.375  68.101  1.00  0.00    -0.238 A  
HETATM   16  C   UNL     1      -6.333  13.356  67.939  1.00  0.00    -0.151 A  
HETATM   17  C   UNL     1      -6.861  17.700  68.684  1.00  0.00    -0.229 A  
HETATM   18  N   UNL     1      -5.567  14.313  68.450  1.00  0.00    -0.099 NA 
HETATM   19  C   UNL     1      -5.994  16.691  68.806  1.00  0.00    -0.141 A  
HETATM   20  N   UNL     1      -6.351  15.419  68.395  1.00  0.00    -0.104 NA 
BRANCH  15  21
HETATM   21  N   UNL     1      -9.062  18.443  67.951  1.00  0.00    -0.278 NA 
HETATM   22  C   UNL     1      -9.978  20.592  67.564  1.00  0.00    -0.497 C  
HETATM   23  C   UNL     1     -10.487  18.279  67.745  1.00  0.00    -0.410 C  
HETATM   24  C   UNL     1      -8.693  19.857  68.026  1.00  0.00    -0.266 C  
HETATM   25  C   UNL     1     -10.849  19.508  66.933  1.00  0.00    -0.523 C  
BRANCH  24  26
HETATM   26  C   UNL     1      -7.427  20.126  67.239  1.00  0.00    -0.321 A  
HETATM   27  C   UNL     1      -6.289  20.751  67.759  1.00  0.00    -0.322 A  
HETATM   28  C   UNL     1      -5.190  21.059  66.953  1.00  0.00    -0.252 A  
HETATM   29  F   UNL     1      -6.224  21.096  69.053  1.00  0.00    -0.313 F  
HETATM   30  C   UNL     1      -5.215  20.753  65.594  1.00  0.00    -0.229 A  
HETATM   31  C   UNL     1      -6.334  20.126  65.063  1.00  0.00    -0.282 A  
HETATM   32  C   UNL     1      -7.425  19.810  65.865  1.00  0.00    -0.335 A  
HETATM   33  F   UNL     1      -6.367  19.835  63.756  1.00  0.00    -0.249 F  
ENDBRANCH  24  26
ENDBRANCH  15  21
ENDBRANCH  10  12
ENDBRANCH   8  10
ENDBRANCH   6   8
TORSDOF 5
ENDMDL
MODEL       74
REMARK 921   NORMALIZED FREE ENERGY PREDICTED BY IDOCK:   -6.32 KCAL/MOL
REMARK 922        TOTAL FREE ENERGY PREDICTED BY IDOCK:   -9.90 KCAL/MOL
REMARK 923 INTER-LIGAND FREE ENERGY PREDICTED BY IDOCK:   -8.37 KCAL/MOL
REMARK 924 INTRA-LIGAND FREE ENERGY PREDICTED BY IDOCK:   -1.53 KCAL/MOL
REMARK 927      BINDING AFFINITY PREDICTED BY RF-SCORE:    0.00 PKD
ROOT
HETATM    1  O   UNL     1     -13.972  14.951  73.135  1.00  0.00    -0.497 OA 
HETATM    2  H   UNL     1     -14.824  14.564  72.971  1.00  0.00     0.000 HD 
HETATM    3  C   UNL     1     -13.434  15.525  71.955  1.00  0.00    -0.482 C  
HETATM    4  C   UNL     1     -12.067  16.147  72.218  1.00  0.00    -0.616 C  
HETATM    5  C   UNL     1     -11.439  16.167  70.841  1.00  0.00    -0.386 C  
HETATM    6  N   UNL     1     -11.952  14.975  70.187  1.00  0.00    -0.299 N  
HETATM    7  C   UNL     1     -13.138  14.476  70.876  1.00  0.00    -0.345 C  
ENDROOT
BRANCH   6   8
HETATM    8  C   UNL     1     -11.324  14.508  69.044  1.00  0.00    -0.272 C  
HETATM    9  O   UNL     1     -10.116  14.665  68.907  1.00  0.00    -0.232 OA 
BRANCH   8  10
HETATM   10  N   UNL     1     -12.174  13.927  68.133  1.00  0.00    -0.494 N  
HETATM   11  H   UNL     1     -13.119  13.718  68.454  1.00  0.00     0.000 HD 
BRANCH  10  12
HETATM   12  C   UNL     1     -11.870  13.597  66.817  1.00  0.00    -0.413 A  
HETATM   13  C   UNL     1     -11.298  12.461  66.260  1.00  0.00    -0.340 A  
HETATM   14  N   UNL     1     -10.849  11.263  66.769  1.00  0.00    -0.276 NA 
HETATM   15  C   UNL     1     -10.261  10.424  65.952  1.00  0.00    -0.234 A  
HETATM   16  C   UNL     1     -12.136  14.440  65.714  1.00  0.00    -0.355 A  
HETATM   17  C   UNL     1     -10.160  10.664  64.472  1.00  0.00    -0.421 A  
HETATM   18  N   UNL     1     -11.738  13.935  64.552  1.00  0.00    -0.393 NA 
HETATM   19  C   UNL     1     -10.653  11.816  64.009  1.00  0.00    -0.375 A  
HETATM   20  N   UNL     1     -11.215  12.728  64.884  1.00  0.00    -0.289 NA 
BRANCH  15  21
HETATM   21  N   UNL     1      -9.708   9.247  66.401  1.00  0.00    -0.236 NA 
HETATM   22  C   UNL     1      -8.226   7.590  67.216  1.00  0.00    -0.115 C  
HETATM   23  C   UNL     1     -10.512   8.141  66.884  1.00  0.00    -0.309 C  
HETATM   24  C   UNL     1      -8.283   8.914  66.411  1.00  0.00    -0.115 C  
HETATM   25  C   UNL     1      -9.592   7.476  67.889  1.00  0.00    -0.161 C  
BRANCH  24  26
HETATM   26  C   UNL     1      -7.464  10.074  66.938  1.00  0.00    -0.095 A  
HETATM   27  C   UNL     1      -6.623  10.870  66.153  1.00  0.00    -0.108 A  
HETATM   28  C   UNL     1      -5.817  11.863  66.718  1.00  0.00    -0.059 A  
HETATM   29  F   UNL     1      -6.546  10.692  64.827  1.00  0.00    -0.112 F  
HETATM   30  C   UNL     1      -5.831  12.072  68.095  1.00  0.00    -0.053 A  
HETATM   31  C   UNL     1      -6.666  11.296  68.888  1.00  0.00    -0.081 A  
HETATM   32  C   UNL     1      -7.476  10.314  68.327  1.00  0.00    -0.086 A  
HETATM   33  F   UNL     1      -6.680  11.487  70.213  1.00  0.00    -0.121 F  
ENDBRANCH  24  26
ENDBRANCH  15  21
ENDBRANCH  10  12
ENDBRANCH   8  10
ENDBRANCH   6   8
TORSDOF 5
ENDMDL
MODEL       75
REMARK 921   NORMALIZED FREE ENERGY PREDICTED BY IDOCK:   -6.32 KCAL/MOL
REMARK 922        TOTAL FREE ENERGY PREDICTED BY IDOCK:   -9.90 KCAL/MOL
REMARK 923 INTER-LIGAND FREE ENERGY PREDICTED BY IDOCK:   -8.54 KCAL/MOL
REMARK 924 INTRA-LIGAND FREE ENERGY PREDICTED BY IDOCK:   -1.36 KCAL/MOL
REMARK 927      BINDING AFFINITY PREDICTED BY RF-SCORE:    0.00 PKD
ROOT
HETATM    1  O   UNL     1     -12.430  13.773  63.784  1.00  0.00    -0.713 OA 
HETATM    2  H   UNL     1     -13.189  14.341  63.713  1.00  0.00     0.000 HD 
HETATM    3  C   UNL     1     -12.480  12.997  64.969  1.00  0.00    -0.477 C  
HETATM    4  C   UNL     1     -11.262  12.087  65.084  1.00  0.00    -0.368 C  
HETATM    5  C   UNL     1     -11.191  11.810  66.570  1.00  0.00    -0.321 C  
HETATM    6  N   UNL     1     -11.658  13.036  67.194  1.00  0.00    -0.337 N  
HETATM    7  C   UNL     1     -12.392  13.858  66.236  1.00  0.00    -0.449 C  
ENDROOT
BRANCH   6   8
HETATM    8  C   UNL     1     -11.405  13.248  68.540  1.00  0.00    -0.284 C  
HETATM    9  O   UNL     1     -11.597  14.357  69.026  1.00  0.00    -0.261 OA 
BRANCH   8  10
HETATM   10  N   UNL     1     -10.909  12.149  69.199  1.00  0.00    -0.400 N  
HETATM   11  H   UNL     1      -9.970  11.845  68.945  1.00  0.00     0.000 HD 
BRANCH  10  12
HETATM   12  C   UNL     1     -11.565  11.410  70.178  1.00  0.00    -0.280 A  
HETATM   13  C   UNL     1     -11.204  10.253  70.855  1.00  0.00    -0.233 A  
HETATM   14  N   UNL     1     -10.098   9.434  70.838  1.00  0.00    -0.296 NA 
HETATM   15  C   UNL     1     -10.124   8.339  71.557  1.00  0.00    -0.208 A  
HETATM   16  C   UNL     1     -12.825  11.759  70.714  1.00  0.00    -0.077 A  
HETATM   17  C   UNL     1     -11.260   8.000  72.482  1.00  0.00    -0.452 A  
HETATM   18  N   UNL     1     -13.275  10.898  71.619  1.00  0.00    -0.401 NA 
HETATM   19  C   UNL     1     -12.294   8.846  72.508  1.00  0.00    -0.255 A  
HETATM   20  N   UNL     1     -12.290   9.968  71.700  1.00  0.00    -0.399 NA 
BRANCH  15  21
HETATM   21  N   UNL     1      -9.095   7.428  71.523  1.00  0.00    -0.139 NA 
HETATM   22  C   UNL     1      -7.581   5.722  70.888  1.00  0.00    -0.092 C  
HETATM   23  C   UNL     1      -7.938   7.525  72.391  1.00  0.00    -0.103 C  
HETATM   24  C   UNL     1      -9.030   6.233  70.681  1.00  0.00    -0.144 C  
HETATM   25  C   UNL     1      -6.845   6.878  71.562  1.00  0.00    -0.065 C  
BRANCH  24  26
HETATM   26  C   UNL     1      -9.449   6.552  69.260  1.00  0.00    -0.141 A  
HETATM   27  C   UNL     1     -10.727   6.319  68.741  1.00  0.00    -0.297 A  
HETATM   28  C   UNL     1     -11.022   6.544  67.394  1.00  0.00    -0.458 A  
HETATM   29  F   UNL     1     -11.711   5.848  69.520  1.00  0.00    -0.397 F  
HETATM   30  C   UNL     1     -10.030   7.003  66.531  1.00  0.00    -0.163 A  
HETATM   31  C   UNL     1      -8.758   7.248  67.031  1.00  0.00    -0.123 A  
HETATM   32  C   UNL     1      -8.465   7.033  68.374  1.00  0.00    -0.123 A  
HETATM   33  F   UNL     1      -7.798   7.683  66.206  1.00  0.00    -0.083 F  
ENDBRANCH  24  26
ENDBRANCH  15  21
ENDBRANCH  10  12
ENDBRANCH   8  10
ENDBRANCH   6   8
TORSDOF 5
ENDMDL
MODEL       76
REMARK 921   NORMALIZED FREE ENERGY PREDICTED BY IDOCK:   -6.30 KCAL/MOL
REMARK 922        TOTAL FREE ENERGY PREDICTED BY IDOCK:   -9.88 KCAL/MOL
REMARK 923 INTER-LIGAND FREE ENERGY PREDICTED BY IDOCK:   -8.54 KCAL/MOL
REMARK 924 INTRA-LIGAND FREE ENERGY PREDICTED BY IDOCK:   -1.33 KCAL/MOL
REMARK 927      BINDING AFFINITY PREDICTED BY RF-SCORE:    0.00 PKD
ROOT
HETATM    1  O   UNL     1     -11.921  15.753  63.792  1.00  0.00    -1.108 OA 
HETATM    2  H   UNL     1     -12.211  16.517  64.276  1.00  0.00     0.000 HD 
HETATM    3  C   UNL     1     -12.470  14.564  64.334  1.00  0.00    -0.309 C  
HETATM    4  C   UNL     1     -12.005  13.337  63.558  1.00  0.00    -0.537 C  
HETATM    5  C   UNL     1     -12.185  12.218  64.561  1.00  0.00    -0.388 C  
HETATM    6  N   UNL     1     -11.895  12.829  65.847  1.00  0.00    -0.416 N  
HETATM    7  C   UNL     1     -11.971  14.285  65.758  1.00  0.00    -0.393 C  
ENDROOT
BRANCH   6   8
HETATM    8  C   UNL     1     -11.638  12.017  66.939  1.00  0.00    -0.318 C  
HETATM    9  O   UNL     1     -12.129  12.289  68.029  1.00  0.00    -0.439 OA 
BRANCH   8  10
HETATM   10  N   UNL     1     -10.790  10.968  66.672  1.00  0.00    -0.252 N  
HETATM   11  H   UNL     1     -11.137  10.245  66.042  1.00  0.00     0.000 HD 
BRANCH  10  12
HETATM   12  C   UNL     1      -9.505  10.798  67.177  1.00  0.00    -0.160 A  
HETATM   13  C   UNL     1      -8.882   9.704  67.760  1.00  0.00    -0.125 A  
HETATM   14  N   UNL     1      -9.268   8.411  68.034  1.00  0.00    -0.137 NA 
HETATM   15  C   UNL     1      -8.439   7.643  68.697  1.00  0.00    -0.129 A  
HETATM   16  C   UNL     1      -8.516  11.807  67.162  1.00  0.00    -0.170 A  
HETATM   17  C   UNL     1      -7.048   8.077  69.070  1.00  0.00    -0.066 A  
HETATM   18  N   UNL     1      -7.369  11.435  67.720  1.00  0.00    -0.094 NA 
HETATM   19  C   UNL     1      -6.693   9.322  68.741  1.00  0.00    -0.053 A  
HETATM   20  N   UNL     1      -7.594  10.151  68.098  1.00  0.00    -0.087 NA 
BRANCH  15  21
HETATM   21  N   UNL     1      -8.787   6.370  69.086  1.00  0.00    -0.127 NA 
HETATM   22  C   UNL     1      -9.698   4.502  70.219  1.00  0.00    -0.287 C  
HETATM   23  C   UNL     1      -8.688   5.229  68.197  1.00  0.00    -0.102 C  
HETATM   24  C   UNL     1      -9.241   5.970  70.418  1.00  0.00    -0.156 C  
HETATM   25  C   UNL     1      -9.785   4.316  68.706  1.00  0.00    -0.184 C  
BRANCH  24  26
HETATM   26  C   UNL     1     -10.272   6.945  70.950  1.00  0.00    -0.214 A  
HETATM   27  C   UNL     1      -9.967   8.103  71.674  1.00  0.00    -0.192 A  
HETATM   28  C   UNL     1     -10.969   8.908  72.222  1.00  0.00    -0.245 A  
HETATM   29  F   UNL     1      -8.694   8.469  71.883  1.00  0.00    -0.186 F  
HETATM   30  C   UNL     1     -12.307   8.559  72.064  1.00  0.00    -0.423 A  
HETATM   31  C   UNL     1     -12.628   7.417  71.342  1.00  0.00    -0.370 A  
HETATM   32  C   UNL     1     -11.633   6.619  70.787  1.00  0.00    -0.432 A  
HETATM   33  F   UNL     1     -13.913   7.073  71.191  1.00  0.00    -0.446 F  
ENDBRANCH  24  26
ENDBRANCH  15  21
ENDBRANCH  10  12
ENDBRANCH   8  10
ENDBRANCH   6   8
TORSDOF 5
ENDMDL
MODEL       77
REMARK 921   NORMALIZED FREE ENERGY PREDICTED BY IDOCK:   -6.29 KCAL/MOL
REMARK 922        TOTAL FREE ENERGY PREDICTED BY IDOCK:   -9.85 KCAL/MOL
REMARK 923 INTER-LIGAND FREE ENERGY PREDICTED BY IDOCK:   -8.41 KCAL/MOL
REMARK 924 INTRA-LIGAND FREE ENERGY PREDICTED BY IDOCK:   -1.45 KCAL/MOL
REMARK 927      BINDING AFFINITY PREDICTED BY RF-SCORE:    0.00 PKD
ROOT
HETATM    1  O   UNL     1      -6.730  21.154  65.660  1.00  0.00    -0.498 OA 
HETATM    2  H   UNL     1      -7.429  21.794  65.608  1.00  0.00     0.000 HD 
HETATM    3  C   UNL     1      -7.241  19.832  65.636  1.00  0.00    -0.301 C  
HETATM    4  C   UNL     1      -6.118  18.804  65.721  1.00  0.00    -0.243 C  
HETATM    5  C   UNL     1      -6.828  17.577  66.251  1.00  0.00    -0.287 C  
HETATM    6  N   UNL     1      -7.854  18.100  67.137  1.00  0.00    -0.215 N  
HETATM    7  C   UNL     1      -8.099  19.514  66.868  1.00  0.00    -0.282 C  
ENDROOT
BRANCH   6   8
HETATM    8  C   UNL     1      -8.464  17.248  68.043  1.00  0.00    -0.229 C  
HETATM    9  O   UNL     1      -7.798  16.728  68.931  1.00  0.00    -0.241 OA 
BRANCH   8  10
HETATM   10  N   UNL     1      -9.803  17.043  67.809  1.00  0.00    -0.264 N  
HETATM   11  H   UNL     1     -10.455  17.443  68.484  1.00  0.00     0.000 HD 
BRANCH  10  12
HETATM   12  C   UNL     1     -10.355  16.345  66.740  1.00  0.00    -0.293 A  
HETATM   13  C   UNL     1     -10.818  15.041  66.633  1.00  0.00    -0.318 A  
HETATM   14  N   UNL     1     -10.928  13.985  67.509  1.00  0.00    -0.273 NA 
HETATM   15  C   UNL     1     -11.335  12.830  67.041  1.00  0.00    -0.314 A  
HETATM   16  C   UNL     1     -10.573  16.908  65.462  1.00  0.00    -0.202 A  
HETATM   17  C   UNL     1     -11.791  12.643  65.621  1.00  0.00    -0.488 A  
HETATM   18  N   UNL     1     -11.086  16.053  64.585  1.00  0.00    -0.587 NA 
HETATM   19  C   UNL     1     -11.717  13.705  64.814  1.00  0.00    -0.377 A  
HETATM   20  N   UNL     1     -11.227  14.905  65.296  1.00  0.00    -0.354 NA 
BRANCH  15  21
HETATM   21  N   UNL     1     -11.387  11.707  67.834  1.00  0.00    -0.276 NA 
HETATM   22  C   UNL     1     -10.972   9.601  68.831  1.00  0.00    -0.153 C  
HETATM   23  C   UNL     1     -12.085  11.681  69.104  1.00  0.00    -0.251 C  
HETATM   24  C   UNL     1     -10.817  10.399  67.511  1.00  0.00    -0.301 C  
HETATM   25  C   UNL     1     -11.301  10.649  69.891  1.00  0.00    -0.386 C  
BRANCH  24  26
HETATM   26  C   UNL     1      -9.414  10.544  66.956  1.00  0.00    -0.188 A  
HETATM   27  C   UNL     1      -9.045  10.225  65.645  1.00  0.00    -0.175 A  
HETATM   28  C   UNL     1      -7.713  10.288  65.225  1.00  0.00    -0.144 A  
HETATM   29  F   UNL     1      -9.958   9.824  64.750  1.00  0.00    -0.377 F  
HETATM   30  C   UNL     1      -6.717  10.667  66.121  1.00  0.00    -0.132 A  
HETATM   31  C   UNL     1      -7.068  10.995  67.423  1.00  0.00    -0.095 A  
HETATM   32  C   UNL     1      -8.393  10.942  67.842  1.00  0.00    -0.119 A  
HETATM   33  F   UNL     1      -6.114  11.354  68.292  1.00  0.00    -0.046 F  
ENDBRANCH  24  26
ENDBRANCH  15  21
ENDBRANCH  10  12
ENDBRANCH   8  10
ENDBRANCH   6   8
TORSDOF 5
ENDMDL
MODEL       78
REMARK 921   NORMALIZED FREE ENERGY PREDICTED BY IDOCK:   -6.26 KCAL/MOL
REMARK 922        TOTAL FREE ENERGY PREDICTED BY IDOCK:   -9.82 KCAL/MOL
REMARK 923 INTER-LIGAND FREE ENERGY PREDICTED BY IDOCK:   -8.85 KCAL/MOL
REMARK 924 INTRA-LIGAND FREE ENERGY PREDICTED BY IDOCK:   -0.97 KCAL/MOL
REMARK 927      BINDING AFFINITY PREDICTED BY RF-SCORE:    0.00 PKD
ROOT
HETATM    1  O   UNL     1     -12.310  14.155  63.222  1.00  0.00    -1.140 OA 
HETATM    2  H   UNL     1     -13.252  14.146  63.092  1.00  0.00     0.000 HD 
HETATM    3  C   UNL     1     -11.946  13.432  64.385  1.00  0.00    -0.411 C  
HETATM    4  C   UNL     1     -10.436  13.447  64.594  1.00  0.00    -0.428 C  
HETATM    5  C   UNL     1     -10.300  13.171  66.076  1.00  0.00    -0.287 C  
HETATM    6  N   UNL     1     -11.458  13.813  66.675  1.00  0.00    -0.331 N  
HETATM    7  C   UNL     1     -12.481  14.080  65.669  1.00  0.00    -0.504 C  
ENDROOT
BRANCH   6   8
HETATM    8  C   UNL     1     -11.471  14.044  68.041  1.00  0.00    -0.311 C  
HETATM    9  O   UNL     1     -11.875  15.118  68.472  1.00  0.00    -0.329 OA 
BRANCH   8  10
HETATM   10  N   UNL     1     -10.969  13.007  68.791  1.00  0.00    -0.255 N  
HETATM   11  H   UNL     1     -10.020  12.701  68.579  1.00  0.00     0.000 HD 
BRANCH  10  12
HETATM   12  C   UNL     1     -11.632  12.333  69.812  1.00  0.00    -0.243 A  
HETATM   13  C   UNL     1     -11.615  11.000  70.198  1.00  0.00    -0.334 A  
HETATM   14  N   UNL     1     -10.948   9.879  69.757  1.00  0.00    -0.255 NA 
HETATM   15  C   UNL     1     -11.244   8.726  70.303  1.00  0.00    -0.195 A  
HETATM   16  C   UNL     1     -12.507  12.959  70.728  1.00  0.00    -0.286 A  
HETATM   17  C   UNL     1     -12.192   8.593  71.462  1.00  0.00    -0.368 A  
HETATM   18  N   UNL     1     -13.050  12.120  71.603  1.00  0.00    -0.388 NA 
HETATM   19  C   UNL     1     -12.781   9.711  71.895  1.00  0.00    -0.411 A  
HETATM   20  N   UNL     1     -12.514  10.917  71.275  1.00  0.00    -0.387 NA 
BRANCH  15  21
HETATM   21  N   UNL     1     -10.686   7.550  69.856  1.00  0.00    -0.245 NA 
HETATM   22  C   UNL     1      -9.177   5.862  69.165  1.00  0.00    -0.131 C  
HETATM   23  C   UNL     1     -11.404   6.291  69.870  1.00  0.00    -0.434 C  
HETATM   24  C   UNL     1      -9.355   7.398  69.267  1.00  0.00    -0.154 C  
HETATM   25  C   UNL     1     -10.290   5.276  70.031  1.00  0.00    -0.365 C  
BRANCH  24  26
HETATM   26  C   UNL     1      -8.320   8.157  70.073  1.00  0.00    -0.122 A  
HETATM   27  C   UNL     1      -7.463   9.129  69.546  1.00  0.00    -0.077 A  
HETATM   28  C   UNL     1      -6.463   9.722  70.322  1.00  0.00    -0.093 A  
HETATM   29  F   UNL     1      -7.561   9.511  68.265  1.00  0.00    -0.077 F  
HETATM   30  C   UNL     1      -6.295   9.341  71.650  1.00  0.00     0.005 A  
HETATM   31  C   UNL     1      -7.142   8.383  72.192  1.00  0.00    -0.090 A  
HETATM   32  C   UNL     1      -8.144   7.799  71.425  1.00  0.00    -0.103 A  
HETATM   33  F   UNL     1      -6.981   8.007  73.467  1.00  0.00    -0.103 F  
ENDBRANCH  24  26
ENDBRANCH  15  21
ENDBRANCH  10  12
ENDBRANCH   8  10
ENDBRANCH   6   8
TORSDOF 5
ENDMDL
MODEL       79
REMARK 921   NORMALIZED FREE ENERGY PREDICTED BY IDOCK:   -6.25 KCAL/MOL
REMARK 922        TOTAL FREE ENERGY PREDICTED BY IDOCK:   -9.81 KCAL/MOL
REMARK 923 INTER-LIGAND FREE ENERGY PREDICTED BY IDOCK:   -8.26 KCAL/MOL
REMARK 924 INTRA-LIGAND FREE ENERGY PREDICTED BY IDOCK:   -1.55 KCAL/MOL
REMARK 927      BINDING AFFINITY PREDICTED BY RF-SCORE:    0.00 PKD
ROOT
HETATM    1  O   UNL     1     -13.300  16.047  70.116  1.00  0.00    -0.564 OA 
HETATM    2  H   UNL     1     -12.567  16.374  69.608  1.00  0.00     0.000 HD 
HETATM    3  C   UNL     1     -12.887  15.032  71.016  1.00  0.00    -0.387 C  
HETATM    4  C   UNL     1     -14.063  14.507  71.832  1.00  0.00    -0.595 C  
HETATM    5  C   UNL     1     -13.587  13.135  72.260  1.00  0.00    -0.581 C  
HETATM    6  N   UNL     1     -12.775  12.666  71.150  1.00  0.00    -0.323 N  
HETATM    7  C   UNL     1     -12.379  13.779  70.292  1.00  0.00    -0.337 C  
ENDROOT
BRANCH   6   8
HETATM    8  C   UNL     1     -12.462  11.319  71.063  1.00  0.00    -0.400 C  
HETATM    9  O   UNL     1     -11.542  10.955  70.340  1.00  0.00    -0.308 OA 
BRANCH   8  10
HETATM   10  N   UNL     1     -13.284  10.503  71.803  1.00  0.00    -0.431 N  
HETATM   11  H   UNL     1     -13.992  10.960  72.376  1.00  0.00     0.000 HD 
BRANCH  10  12
HETATM   12  C   UNL     1     -13.243   9.113  71.846  1.00  0.00    -0.416 A  
HETATM   13  C   UNL     1     -12.225   8.232  72.183  1.00  0.00    -0.364 A  
HETATM   14  N   UNL     1     -10.925   8.383  72.609  1.00  0.00    -0.322 NA 
HETATM   15  C   UNL     1     -10.190   7.307  72.752  1.00  0.00    -0.224 A  
HETATM   16  C   UNL     1     -14.346   8.285  71.539  1.00  0.00    -0.428 A  
HETATM   17  C   UNL     1     -10.737   5.918  72.579  1.00  0.00    -0.274 A  
HETATM   18  N   UNL     1     -14.074   6.987  71.620  1.00  0.00    -0.326 NA 
HETATM   19  C   UNL     1     -12.018   5.812  72.214  1.00  0.00    -0.085 A  
HETATM   20  N   UNL     1     -12.773   6.951  72.003  1.00  0.00    -0.250 NA 
BRANCH  15  21
HETATM   21  N   UNL     1      -8.858   7.382  73.088  1.00  0.00    -0.137 NA 
HETATM   22  C   UNL     1      -6.498   7.556  73.025  1.00  0.00    -0.061 C  
HETATM   23  C   UNL     1      -8.409   7.713  74.426  1.00  0.00    -0.223 C  
HETATM   24  C   UNL     1      -7.729   7.097  72.201  1.00  0.00    -0.090 C  
HETATM   25  C   UNL     1      -7.073   8.384  74.171  1.00  0.00    -0.183 C  
BRANCH  24  26
HETATM   26  C   UNL     1      -7.930   7.747  70.848  1.00  0.00    -0.097 A  
HETATM   27  C   UNL     1      -8.304   7.060  69.688  1.00  0.00    -0.133 A  
HETATM   28  C   UNL     1      -8.377   7.702  68.448  1.00  0.00    -0.125 A  
HETATM   29  F   UNL     1      -8.585   5.750  69.724  1.00  0.00    -0.118 F  
HETATM   30  C   UNL     1      -8.064   9.055  68.345  1.00  0.00    -0.108 A  
HETATM   31  C   UNL     1      -7.700   9.754  69.488  1.00  0.00    -0.120 A  
HETATM   32  C   UNL     1      -7.635   9.120  70.724  1.00  0.00    -0.149 A  
HETATM   33  F   UNL     1      -7.392  11.054  69.395  1.00  0.00    -0.104 F  
ENDBRANCH  24  26
ENDBRANCH  15  21
ENDBRANCH  10  12
ENDBRANCH   8  10
ENDBRANCH   6   8
TORSDOF 5
ENDMDL
MODEL       80
REMARK 921   NORMALIZED FREE ENERGY PREDICTED BY IDOCK:   -6.24 KCAL/MOL
REMARK 922        TOTAL FREE ENERGY PREDICTED BY IDOCK:   -9.79 KCAL/MOL
REMARK 923 INTER-LIGAND FREE ENERGY PREDICTED BY IDOCK:   -8.34 KCAL/MOL
REMARK 924 INTRA-LIGAND FREE ENERGY PREDICTED BY IDOCK:   -1.46 KCAL/MOL
REMARK 927      BINDING AFFINITY PREDICTED BY RF-SCORE:    0.00 PKD
ROOT
HETATM    1  O   UNL     1     -13.898   8.904  73.286  1.00  0.00    -1.163 OA 
HETATM    2  H   UNL     1     -14.321   8.077  73.487  1.00  0.00     0.000 HD 
HETATM    3  C   UNL     1     -13.451   8.938  71.941  1.00  0.00    -0.414 C  
HETATM    4  C   UNL     1     -12.772  10.264  71.619  1.00  0.00    -0.561 C  
HETATM    5  C   UNL     1     -11.900   9.913  70.433  1.00  0.00    -0.234 C  
HETATM    6  N   UNL     1     -11.484   8.542  70.676  1.00  0.00    -0.260 N  
HETATM    7  C   UNL     1     -12.351   7.906  71.664  1.00  0.00    -0.315 C  
ENDROOT
BRANCH   6   8
HETATM    8  C   UNL     1     -10.414   8.024  69.965  1.00  0.00    -0.228 C  
HETATM    9  O   UNL     1     -10.618   7.400  68.929  1.00  0.00    -0.207 OA 
BRANCH   8  10
HETATM   10  N   UNL     1      -9.190   8.246  70.550  1.00  0.00    -0.149 N  
HETATM   11  H   UNL     1      -8.983   7.720  71.398  1.00  0.00     0.000 HD 
BRANCH  10  12
HETATM   12  C   UNL     1      -8.207   9.119  70.096  1.00  0.00    -0.155 A  
HETATM   13  C   UNL     1      -8.032   9.754  68.875  1.00  0.00    -0.092 A  
HETATM   14  N   UNL     1      -8.743   9.786  67.696  1.00  0.00    -0.125 NA 
HETATM   15  C   UNL     1      -8.230  10.434  66.679  1.00  0.00    -0.128 A  
HETATM   16  C   UNL     1      -7.124   9.562  70.888  1.00  0.00    -0.056 A  
HETATM   17  C   UNL     1      -6.961  11.234  66.779  1.00  0.00    -0.141 A  
HETATM   18  N   UNL     1      -6.291  10.371  70.244  1.00  0.00    -0.118 NA 
HETATM   19  C   UNL     1      -6.327  11.220  67.955  1.00  0.00    -0.054 A  
HETATM   20  N   UNL     1      -6.838  10.483  69.008  1.00  0.00    -0.062 NA 
BRANCH  15  21
HETATM   21  N   UNL     1      -8.837  10.436  65.445  1.00  0.00    -0.171 NA 
HETATM   22  C   UNL     1     -10.281  10.854  63.616  1.00  0.00    -0.395 C  
HETATM   23  C   UNL     1      -8.164   9.980  64.244  1.00  0.00    -0.166 C  
HETATM   24  C   UNL     1     -10.218  10.831  65.165  1.00  0.00    -0.298 C  
HETATM   25  C   UNL     1      -8.824  10.807  63.159  1.00  0.00    -0.209 C  
BRANCH  24  26
HETATM   26  C   UNL     1     -10.566  12.118  65.886  1.00  0.00    -0.293 A  
HETATM   27  C   UNL     1     -11.365  12.191  67.031  1.00  0.00    -0.337 A  
HETATM   28  C   UNL     1     -11.731  13.419  67.591  1.00  0.00    -0.397 A  
HETATM   29  F   UNL     1     -11.827  11.080  67.621  1.00  0.00    -0.331 F  
HETATM   30  C   UNL     1     -11.307  14.607  67.002  1.00  0.00    -0.362 A  
HETATM   31  C   UNL     1     -10.506  14.552  65.869  1.00  0.00    -0.312 A  
HETATM   32  C   UNL     1     -10.133  13.332  65.315  1.00  0.00    -0.254 A  
HETATM   33  F   UNL     1     -10.099  15.691  65.294  1.00  0.00    -0.351 F  
ENDBRANCH  24  26
ENDBRANCH  15  21
ENDBRANCH  10  12
ENDBRANCH   8  10
ENDBRANCH   6   8
TORSDOF 5
ENDMDL
MODEL       81
REMARK 921   NORMALIZED FREE ENERGY PREDICTED BY IDOCK:   -6.23 KCAL/MOL
REMARK 922        TOTAL FREE ENERGY PREDICTED BY IDOCK:   -9.78 KCAL/MOL
REMARK 923 INTER-LIGAND FREE ENERGY PREDICTED BY IDOCK:   -9.00 KCAL/MOL
REMARK 924 INTRA-LIGAND FREE ENERGY PREDICTED BY IDOCK:   -0.78 KCAL/MOL
REMARK 927      BINDING AFFINITY PREDICTED BY RF-SCORE:    0.00 PKD
ROOT
HETATM    1  O   UNL     1     -12.465  14.007  63.106  1.00  0.00    -1.137 OA 
HETATM    2  H   UNL     1     -12.539  14.891  62.765  1.00  0.00     0.000 HD 
HETATM    3  C   UNL     1     -12.293  14.013  64.513  1.00  0.00    -0.378 C  
HETATM    4  C   UNL     1     -12.173  12.595  65.060  1.00  0.00    -0.535 C  
HETATM    5  C   UNL     1     -11.449  12.803  66.372  1.00  0.00    -0.357 C  
HETATM    6  N   UNL     1     -10.555  13.921  66.125  1.00  0.00    -0.287 N  
HETATM    7  C   UNL     1     -10.970  14.663  64.938  1.00  0.00    -0.407 C  
ENDROOT
BRANCH   6   8
HETATM    8  C   UNL     1      -9.510  14.159  67.003  1.00  0.00    -0.251 C  
HETATM    9  O   UNL     1      -9.565  15.114  67.769  1.00  0.00    -0.202 OA 
BRANCH   8  10
HETATM   10  N   UNL     1      -8.463  13.275  66.883  1.00  0.00    -0.405 N  
HETATM   11  H   UNL     1      -8.144  13.066  65.937  1.00  0.00     0.000 HD 
BRANCH  10  12
HETATM   12  C   UNL     1      -7.798  12.639  67.925  1.00  0.00    -0.154 A  
HETATM   13  C   UNL     1      -7.919  11.361  68.451  1.00  0.00    -0.142 A  
HETATM   14  N   UNL     1      -8.694  10.265  68.145  1.00  0.00    -0.122 NA 
HETATM   15  C   UNL     1      -8.621   9.215  68.927  1.00  0.00    -0.131 A  
HETATM   16  C   UNL     1      -6.773  13.244  68.688  1.00  0.00    -0.095 A  
HETATM   17  C   UNL     1      -7.649   9.117  70.070  1.00  0.00    -0.080 A  
HETATM   18  N   UNL     1      -6.296  12.463  69.651  1.00  0.00    -0.126 NA 
HETATM   19  C   UNL     1      -6.878  10.183  70.303  1.00  0.00    -0.148 A  
HETATM   20  N   UNL     1      -7.003  11.312  69.515  1.00  0.00    -0.115 NA 
BRANCH  15  21
HETATM   21  N   UNL     1      -9.428   8.117  68.738  1.00  0.00    -0.147 NA 
HETATM   22  C   UNL     1     -11.146   6.496  68.901  1.00  0.00    -0.371 C  
HETATM   23  C   UNL     1      -9.402   7.330  67.521  1.00  0.00    -0.129 C  
HETATM   24  C   UNL     1     -10.361   7.557  69.716  1.00  0.00    -0.221 C  
HETATM   25  C   UNL     1     -10.820   6.798  67.440  1.00  0.00    -0.417 C  
BRANCH  24  26
HETATM   26  C   UNL     1     -11.172   8.654  70.376  1.00  0.00    -0.236 A  
HETATM   27  C   UNL     1     -11.806   8.531  71.617  1.00  0.00    -0.311 A  
HETATM   28  C   UNL     1     -12.621   9.547  72.125  1.00  0.00    -0.411 A  
HETATM   29  F   UNL     1     -11.668   7.421  72.354  1.00  0.00    -0.286 F  
HETATM   30  C   UNL     1     -12.827  10.710  71.388  1.00  0.00    -0.556 A  
HETATM   31  C   UNL     1     -12.198  10.851  70.158  1.00  0.00    -0.343 A  
HETATM   32  C   UNL     1     -11.378   9.846  69.654  1.00  0.00    -0.212 A  
HETATM   33  F   UNL     1     -12.396  11.965  69.441  1.00  0.00    -0.293 F  
ENDBRANCH  24  26
ENDBRANCH  15  21
ENDBRANCH  10  12
ENDBRANCH   8  10
ENDBRANCH   6   8
TORSDOF 5
ENDMDL
MODEL       82
REMARK 921   NORMALIZED FREE ENERGY PREDICTED BY IDOCK:   -6.21 KCAL/MOL
REMARK 922        TOTAL FREE ENERGY PREDICTED BY IDOCK:   -9.76 KCAL/MOL
REMARK 923 INTER-LIGAND FREE ENERGY PREDICTED BY IDOCK:   -8.31 KCAL/MOL
REMARK 924 INTRA-LIGAND FREE ENERGY PREDICTED BY IDOCK:   -1.45 KCAL/MOL
REMARK 927      BINDING AFFINITY PREDICTED BY RF-SCORE:    0.00 PKD
ROOT
HETATM    1  O   UNL     1      -9.342   4.986  68.206  1.00  0.00    -0.116 OA 
HETATM    2  H   UNL     1      -9.776   5.022  67.361  1.00  0.00     0.000 HD 
HETATM    3  C   UNL     1     -10.283   4.913  69.263  1.00  0.00    -0.135 C  
HETATM    4  C   UNL     1      -9.587   4.855  70.618  1.00  0.00    -0.254 C  
HETATM    5  C   UNL     1     -10.658   5.353  71.565  1.00  0.00    -0.216 C  
HETATM    6  N   UNL     1     -11.398   6.339  70.797  1.00  0.00    -0.333 N  
HETATM    7  C   UNL     1     -11.145   6.178  69.368  1.00  0.00    -0.409 C  
ENDROOT
BRANCH   6   8
HETATM    8  C   UNL     1     -12.228   7.228  71.459  1.00  0.00    -0.352 C  
HETATM    9  O   UNL     1     -13.420   6.969  71.584  1.00  0.00    -0.365 OA 
BRANCH   8  10
HETATM   10  N   UNL     1     -11.598   8.372  71.887  1.00  0.00    -0.306 N  
HETATM   11  H   UNL     1     -12.086   8.933  72.586  1.00  0.00     0.000 HD 
BRANCH  10  12
HETATM   12  C   UNL     1     -10.359   8.839  71.461  1.00  0.00    -0.303 A  
HETATM   13  C   UNL     1      -9.987   9.574  70.343  1.00  0.00    -0.267 A  
HETATM   14  N   UNL     1     -10.670  10.121  69.281  1.00  0.00    -0.218 NA 
HETATM   15  C   UNL     1      -9.978  10.689  68.324  1.00  0.00    -0.158 A  
HETATM   16  C   UNL     1      -9.156   8.639  72.174  1.00  0.00    -0.231 A  
HETATM   17  C   UNL     1      -8.487  10.867  68.393  1.00  0.00    -0.141 A  
HETATM   18  N   UNL     1      -8.089   9.148  71.569  1.00  0.00    -0.336 NA 
HETATM   19  C   UNL     1      -7.865  10.367  69.465  1.00  0.00    -0.155 A  
HETATM   20  N   UNL     1      -8.592   9.712  70.442  1.00  0.00    -0.202 NA 
BRANCH  15  21
HETATM   21  N   UNL     1     -10.582  11.180  67.190  1.00  0.00    -0.231 NA 
HETATM   22  C   UNL     1     -11.788  12.502  65.640  1.00  0.00    -0.493 C  
HETATM   23  C   UNL     1     -10.230  10.723  65.860  1.00  0.00    -0.259 C  
HETATM   24  C   UNL     1     -11.668  12.160  67.147  1.00  0.00    -0.302 C  
HETATM   25  C   UNL     1     -10.518  11.941  65.004  1.00  0.00    -0.333 C  
BRANCH  24  26
HETATM   26  C   UNL     1     -11.392  13.311  68.093  1.00  0.00    -0.323 A  
HETATM   27  C   UNL     1     -10.321  14.202  67.963  1.00  0.00    -0.231 A  
HETATM   28  C   UNL     1     -10.065  15.183  68.925  1.00  0.00    -0.238 A  
HETATM   29  F   UNL     1      -9.489  14.131  66.915  1.00  0.00    -0.226 F  
HETATM   30  C   UNL     1     -10.877  15.282  70.052  1.00  0.00    -0.303 A  
HETATM   31  C   UNL     1     -11.948  14.411  70.193  1.00  0.00    -0.322 A  
HETATM   32  C   UNL     1     -12.212  13.440  69.232  1.00  0.00    -0.222 A  
HETATM   33  F   UNL     1     -12.730  14.497  71.277  1.00  0.00    -0.336 F  
ENDBRANCH  24  26
ENDBRANCH  15  21
ENDBRANCH  10  12
ENDBRANCH   8  10
ENDBRANCH   6   8
TORSDOF 5
ENDMDL
MODEL       83
REMARK 921   NORMALIZED FREE ENERGY PREDICTED BY IDOCK:   -6.20 KCAL/MOL
REMARK 922        TOTAL FREE ENERGY PREDICTED BY IDOCK:   -9.74 KCAL/MOL
REMARK 923 INTER-LIGAND FREE ENERGY PREDICTED BY IDOCK:   -8.36 KCAL/MOL
REMARK 924 INTRA-LIGAND FREE ENERGY PREDICTED BY IDOCK:   -1.38 KCAL/MOL
REMARK 927      BINDING AFFINITY PREDICTED BY RF-SCORE:    0.00 PKD
ROOT
HETATM    1  O   UNL     1     -10.331  19.946  69.732  1.00  0.00    -0.604 OA 
HETATM    2  H   UNL     1     -10.877  19.482  70.355  1.00  0.00     0.000 HD 
HETATM    3  C   UNL     1     -10.525  19.456  68.416  1.00  0.00    -0.251 C  
HETATM    4  C   UNL     1      -9.647  20.201  67.415  1.00  0.00    -0.551 C  
HETATM    5  C   UNL     1      -9.547  19.222  66.266  1.00  0.00    -0.362 C  
HETATM    6  N   UNL     1      -9.557  17.913  66.897  1.00  0.00    -0.289 N  
HETATM    7  C   UNL     1     -10.071  17.999  68.260  1.00  0.00    -0.385 C  
ENDROOT
BRANCH   6   8
HETATM    8  C   UNL     1      -9.143  16.809  66.170  1.00  0.00    -0.253 C  
HETATM    9  O   UNL     1      -9.930  16.246  65.417  1.00  0.00    -0.514 OA 
BRANCH   8  10
HETATM   10  N   UNL     1      -7.845  16.429  66.415  1.00  0.00    -0.295 N  
HETATM   11  H   UNL     1      -7.139  16.742  65.749  1.00  0.00     0.000 HD 
BRANCH  10  12
HETATM   12  C   UNL     1      -7.400  15.659  67.485  1.00  0.00    -0.185 A  
HETATM   13  C   UNL     1      -7.430  14.290  67.709  1.00  0.00    -0.164 A  
HETATM   14  N   UNL     1      -7.871  13.206  66.984  1.00  0.00    -0.034 NA 
HETATM   15  C   UNL     1      -7.833  12.024  67.549  1.00  0.00    -0.155 A  
HETATM   16  C   UNL     1      -6.764  16.194  68.628  1.00  0.00    -0.128 A  
HETATM   17  C   UNL     1      -7.227  11.788  68.904  1.00  0.00    -0.107 A  
HETATM   18  N   UNL     1      -6.447  15.280  69.537  1.00  0.00    -0.141 NA 
HETATM   19  C   UNL     1      -6.763  12.859  69.556  1.00  0.00     0.031 A  
HETATM   20  N   UNL     1      -6.863  14.113  68.983  1.00  0.00    -0.106 NA 
BRANCH  15  21
HETATM   21  N   UNL     1      -8.337  10.908  66.923  1.00  0.00    -0.129 NA 
HETATM   22  C   UNL     1      -9.748   9.339  65.848  1.00  0.00    -0.355 C  
HETATM   23  C   UNL     1      -7.488   9.914  66.296  1.00  0.00    -0.102 C  
HETATM   24  C   UNL     1      -9.749  10.531  66.840  1.00  0.00    -0.180 C  
HETATM   25  C   UNL     1      -8.371   9.373  65.189  1.00  0.00    -0.151 C  
BRANCH  24  26
HETATM   26  C   UNL     1     -10.605  11.727  66.475  1.00  0.00    -0.289 A  
HETATM   27  C   UNL     1     -11.258  12.544  67.404  1.00  0.00    -0.293 A  
HETATM   28  C   UNL     1     -12.113  13.573  66.998  1.00  0.00    -0.401 A  
HETATM   29  F   UNL     1     -11.100  12.353  68.721  1.00  0.00    -0.234 F  
HETATM   30  C   UNL     1     -12.341  13.797  65.643  1.00  0.00    -0.517 A  
HETATM   31  C   UNL     1     -11.694  13.000  64.708  1.00  0.00    -0.345 A  
HETATM   32  C   UNL     1     -10.834  11.982  65.108  1.00  0.00    -0.347 A  
HETATM   33  F   UNL     1     -11.912  13.206  63.403  1.00  0.00    -0.523 F  
ENDBRANCH  24  26
ENDBRANCH  15  21
ENDBRANCH  10  12
ENDBRANCH   8  10
ENDBRANCH   6   8
TORSDOF 5
ENDMDL
MODEL       84
REMARK 921   NORMALIZED FREE ENERGY PREDICTED BY IDOCK:   -6.19 KCAL/MOL
REMARK 922        TOTAL FREE ENERGY PREDICTED BY IDOCK:   -9.73 KCAL/MOL
REMARK 923 INTER-LIGAND FREE ENERGY PREDICTED BY IDOCK:   -8.35 KCAL/MOL
REMARK 924 INTRA-LIGAND FREE ENERGY PREDICTED BY IDOCK:   -1.38 KCAL/MOL
REMARK 927      BINDING AFFINITY PREDICTED BY RF-SCORE:    0.00 PKD
ROOT
HETATM    1  O   UNL     1      -5.833  21.167  68.482  1.00  0.00    -0.337 OA 
HETATM    2  H   UNL     1      -5.782  21.162  69.430  1.00  0.00     0.000 HD 
HETATM    3  C   UNL     1      -6.989  20.486  68.025  1.00  0.00    -0.268 C  
HETATM    4  C   UNL     1      -7.070  20.495  66.503  1.00  0.00    -0.293 C  
HETATM    5  C   UNL     1      -7.959  19.306  66.208  1.00  0.00    -0.308 C  
HETATM    6  N   UNL     1      -7.637  18.341  67.246  1.00  0.00    -0.216 N  
HETATM    7  C   UNL     1      -6.958  18.990  68.363  1.00  0.00    -0.261 C  
ENDROOT
BRANCH   6   8
HETATM    8  C   UNL     1      -8.019  17.019  67.082  1.00  0.00    -0.188 C  
HETATM    9  O   UNL     1      -7.178  16.175  66.792  1.00  0.00    -0.214 OA 
BRANCH   8  10
HETATM   10  N   UNL     1      -9.367  16.801  67.233  1.00  0.00    -0.228 N  
HETATM   11  H   UNL     1      -9.796  17.145  68.092  1.00  0.00     0.000 HD 
BRANCH  10  12
HETATM   12  C   UNL     1     -10.204  16.157  66.328  1.00  0.00    -0.320 A  
HETATM   13  C   UNL     1     -10.833  14.920  66.374  1.00  0.00    -0.325 A  
HETATM   14  N   UNL     1     -10.889  13.905  67.302  1.00  0.00    -0.284 NA 
HETATM   15  C   UNL     1     -11.518  12.802  66.978  1.00  0.00    -0.341 A  
HETATM   16  C   UNL     1     -10.608  16.717  65.095  1.00  0.00    -0.161 A  
HETATM   17  C   UNL     1     -12.272  12.644  65.686  1.00  0.00    -0.474 A  
HETATM   18  N   UNL     1     -11.387  15.916  64.377  1.00  0.00    -0.423 NA 
HETATM   19  C   UNL     1     -12.235  13.672  64.834  1.00  0.00    -0.414 A  
HETATM   20  N   UNL     1     -11.518  14.810  65.153  1.00  0.00    -0.361 NA 
BRANCH  15  21
HETATM   21  N   UNL     1     -11.542  11.711  67.815  1.00  0.00    -0.484 NA 
HETATM   22  C   UNL     1     -11.165   9.601  68.821  1.00  0.00    -0.011 C  
HETATM   23  C   UNL     1     -12.021  11.786  69.181  1.00  0.00    -0.293 C  
HETATM   24  C   UNL     1     -11.156  10.344  67.460  1.00  0.00    -0.267 C  
HETATM   25  C   UNL     1     -11.217  10.704  69.875  1.00  0.00    -0.378 C  
BRANCH  24  26
HETATM   26  C   UNL     1      -9.856  10.337  66.682  1.00  0.00    -0.256 A  
HETATM   27  C   UNL     1      -8.661  10.907  67.132  1.00  0.00    -0.130 A  
HETATM   28  C   UNL     1      -7.522  10.954  66.324  1.00  0.00    -0.129 A  
HETATM   29  F   UNL     1      -8.575  11.449  68.355  1.00  0.00    -0.131 F  
HETATM   30  C   UNL     1      -7.563  10.436  65.032  1.00  0.00    -0.086 A  
HETATM   31  C   UNL     1      -8.739   9.859  64.572  1.00  0.00    -0.198 A  
HETATM   32  C   UNL     1      -9.871   9.802  65.378  1.00  0.00    -0.365 A  
HETATM   33  F   UNL     1      -8.787   9.364  63.328  1.00  0.00    -0.204 F  
ENDBRANCH  24  26
ENDBRANCH  15  21
ENDBRANCH  10  12
ENDBRANCH   8  10
ENDBRANCH   6   8
TORSDOF 5
ENDMDL
MODEL       85
REMARK 921   NORMALIZED FREE ENERGY PREDICTED BY IDOCK:   -6.18 KCAL/MOL
REMARK 922        TOTAL FREE ENERGY PREDICTED BY IDOCK:   -9.72 KCAL/MOL
REMARK 923 INTER-LIGAND FREE ENERGY PREDICTED BY IDOCK:   -8.42 KCAL/MOL
REMARK 924 INTRA-LIGAND FREE ENERGY PREDICTED BY IDOCK:   -1.30 KCAL/MOL
REMARK 927      BINDING AFFINITY PREDICTED BY RF-SCORE:    0.00 PKD
ROOT
HETATM    1  O   UNL     1      -7.409  21.282  67.117  1.00  0.00    -0.726 OA 
HETATM    2  H   UNL     1      -6.501  21.354  67.387  1.00  0.00     0.000 HD 
HETATM    3  C   UNL     1      -8.114  20.360  67.931  1.00  0.00    -0.114 C  
HETATM    4  C   UNL     1      -9.571  20.243  67.497  1.00  0.00    -0.562 C  
HETATM    5  C   UNL     1      -9.974  18.888  68.038  1.00  0.00    -0.358 C  
HETATM    6  N   UNL     1      -8.770  18.080  67.935  1.00  0.00    -0.252 N  
HETATM    7  C   UNL     1      -7.590  18.926  67.781  1.00  0.00    -0.233 C  
ENDROOT
BRANCH   6   8
HETATM    8  C   UNL     1      -8.872  16.702  68.028  1.00  0.00    -0.206 C  
HETATM    9  O   UNL     1      -8.997  16.174  69.127  1.00  0.00    -0.242 OA 
BRANCH   8  10
HETATM   10  N   UNL     1      -8.777  16.050  66.821  1.00  0.00    -0.226 N  
HETATM   11  H   UNL     1      -7.838  15.872  66.466  1.00  0.00     0.000 HD 
BRANCH  10  12
HETATM   12  C   UNL     1      -9.838  15.609  66.038  1.00  0.00    -0.333 A  
HETATM   13  C   UNL     1     -10.460  14.372  65.941  1.00  0.00    -0.308 A  
HETATM   14  N   UNL     1     -10.292  13.159  66.571  1.00  0.00    -0.278 NA 
HETATM   15  C   UNL     1     -11.010  12.142  66.162  1.00  0.00    -0.298 A  
HETATM   16  C   UNL     1     -10.541  16.434  65.131  1.00  0.00    -0.264 A  
HETATM   17  C   UNL     1     -12.082  12.271  65.116  1.00  0.00    -0.379 A  
HETATM   18  N   UNL     1     -11.500  15.798  64.468  1.00  0.00    -0.370 NA 
HETATM   19  C   UNL     1     -12.249  13.476  64.564  1.00  0.00    -0.398 A  
HETATM   20  N   UNL     1     -11.447  14.532  64.954  1.00  0.00    -0.377 NA 
BRANCH  15  21
HETATM   21  N   UNL     1     -10.837  10.880  66.681  1.00  0.00    -0.233 NA 
HETATM   22  C   UNL     1     -10.162   8.641  67.051  1.00  0.00    -0.360 C  
HETATM   23  C   UNL     1     -11.139  10.556  68.061  1.00  0.00    -0.300 C  
HETATM   24  C   UNL     1     -10.391   9.699  65.941  1.00  0.00    -0.033 C  
HETATM   25  C   UNL     1     -10.167   9.431  68.358  1.00  0.00    -0.224 C  
BRANCH  24  26
HETATM   26  C   UNL     1      -9.207  10.033  65.057  1.00  0.00    -0.277 A  
HETATM   27  C   UNL     1      -9.305  10.420  63.716  1.00  0.00    -0.288 A  
HETATM   28  C   UNL     1      -8.169  10.619  62.926  1.00  0.00    -0.129 A  
HETATM   29  F   UNL     1     -10.500  10.594  63.135  1.00  0.00    -0.327 F  
HETATM   30  C   UNL     1      -6.901  10.421  63.468  1.00  0.00    -0.018 A  
HETATM   31  C   UNL     1      -6.785  10.045  64.799  1.00  0.00    -0.127 A  
HETATM   32  C   UNL     1      -7.914   9.856  65.590  1.00  0.00    -0.130 A  
HETATM   33  F   UNL     1      -5.569   9.847  65.325  1.00  0.00    -0.049 F  
ENDBRANCH  24  26
ENDBRANCH  15  21
ENDBRANCH  10  12
ENDBRANCH   8  10
ENDBRANCH   6   8
TORSDOF 5
ENDMDL
MODEL       86
REMARK 921   NORMALIZED FREE ENERGY PREDICTED BY IDOCK:   -6.17 KCAL/MOL
REMARK 922        TOTAL FREE ENERGY PREDICTED BY IDOCK:   -9.71 KCAL/MOL
REMARK 923 INTER-LIGAND FREE ENERGY PREDICTED BY IDOCK:   -8.43 KCAL/MOL
REMARK 924 INTRA-LIGAND FREE ENERGY PREDICTED BY IDOCK:   -1.27 KCAL/MOL
REMARK 927      BINDING AFFINITY PREDICTED BY RF-SCORE:    0.00 PKD
ROOT
HETATM    1  O   UNL     1     -11.034  19.179  65.152  1.00  0.00    -0.464 OA 
HETATM    2  H   UNL     1     -10.757  18.921  64.280  1.00  0.00     0.000 HD 
HETATM    3  C   UNL     1     -10.174  18.642  66.143  1.00  0.00    -0.416 C  
HETATM    4  C   UNL     1     -10.618  19.056  67.542  1.00  0.00    -0.546 C  
HETATM    5  C   UNL     1     -10.000  17.988  68.418  1.00  0.00    -0.378 C  
HETATM    6  N   UNL     1     -10.037  16.782  67.608  1.00  0.00    -0.267 N  
HETATM    7  C   UNL     1     -10.229  17.110  66.199  1.00  0.00    -0.334 C  
ENDROOT
BRANCH   6   8
HETATM    8  C   UNL     1      -9.862  15.551  68.220  1.00  0.00    -0.213 C  
HETATM    9  O   UNL     1      -8.741  15.204  68.575  1.00  0.00    -0.158 OA 
BRANCH   8  10
HETATM   10  N   UNL     1     -11.013  14.809  68.329  1.00  0.00    -0.250 N  
HETATM   11  H   UNL     1     -11.753  15.190  68.917  1.00  0.00     0.000 HD 
BRANCH  10  12
HETATM   12  C   UNL     1     -11.267  13.587  67.715  1.00  0.00    -0.282 A  
HETATM   13  C   UNL     1     -10.833  12.301  68.007  1.00  0.00    -0.220 A  
HETATM   14  N   UNL     1     -10.037  11.755  68.988  1.00  0.00    -0.060 NA 
HETATM   15  C   UNL     1      -9.746  10.480  68.913  1.00  0.00    -0.199 A  
HETATM   16  C   UNL     1     -12.106  13.433  66.588  1.00  0.00    -0.373 A  
HETATM   17  C   UNL     1     -10.335   9.570  67.870  1.00  0.00    -0.276 A  
HETATM   18  N   UNL     1     -12.185  12.182  66.151  1.00  0.00    -0.514 NA 
HETATM   19  C   UNL     1     -11.143  10.129  66.966  1.00  0.00     0.009 A  
HETATM   20  N   UNL     1     -11.397  11.487  67.011  1.00  0.00    -0.420 NA 
BRANCH  15  21
HETATM   21  N   UNL     1      -8.886   9.881  69.805  1.00  0.00    -0.210 NA 
HETATM   22  C   UNL     1      -7.962   8.660  71.610  1.00  0.00    -0.166 C  
HETATM   23  C   UNL     1      -7.489   9.642  69.500  1.00  0.00    -0.096 C  
HETATM   24  C   UNL     1      -9.215   9.457  71.166  1.00  0.00    -0.030 C  
HETATM   25  C   UNL     1      -7.176   8.409  70.325  1.00  0.00    -0.044 C  
BRANCH  24  26
HETATM   26  C   UNL     1     -10.541   8.725  71.196  1.00  0.00    -0.310 A  
HETATM   27  C   UNL     1     -10.758   7.457  70.646  1.00  0.00    -0.229 A  
HETATM   28  C   UNL     1     -12.030   6.878  70.618  1.00  0.00    -0.400 A  
HETATM   29  F   UNL     1      -9.749   6.760  70.104  1.00  0.00    -0.165 F  
HETATM   30  C   UNL     1     -13.121   7.570  71.138  1.00  0.00    -0.240 A  
HETATM   31  C   UNL     1     -12.923   8.826  71.695  1.00  0.00    -0.349 A  
HETATM   32  C   UNL     1     -11.656   9.400  71.732  1.00  0.00    -0.433 A  
HETATM   33  F   UNL     1     -13.969   9.500  72.191  1.00  0.00    -0.401 F  
ENDBRANCH  24  26
ENDBRANCH  15  21
ENDBRANCH  10  12
ENDBRANCH   8  10
ENDBRANCH   6   8
TORSDOF 5
ENDMDL
MODEL       87
REMARK 921   NORMALIZED FREE ENERGY PREDICTED BY IDOCK:   -6.17 KCAL/MOL
REMARK 922        TOTAL FREE ENERGY PREDICTED BY IDOCK:   -9.70 KCAL/MOL
REMARK 923 INTER-LIGAND FREE ENERGY PREDICTED BY IDOCK:   -8.10 KCAL/MOL
REMARK 924 INTRA-LIGAND FREE ENERGY PREDICTED BY IDOCK:   -1.60 KCAL/MOL
REMARK 927      BINDING AFFINITY PREDICTED BY RF-SCORE:    0.00 PKD
ROOT
HETATM    1  O   UNL     1     -12.473  16.219  71.797  1.00  0.00    -0.575 OA 
HETATM    2  H   UNL     1     -11.992  17.025  71.942  1.00  0.00     0.000 HD 
HETATM    3  C   UNL     1     -11.785  15.364  70.900  1.00  0.00    -0.354 C  
HETATM    4  C   UNL     1     -12.558  14.071  70.667  1.00  0.00    -0.414 C  
HETATM    5  C   UNL     1     -12.019  13.595  69.335  1.00  0.00    -0.342 C  
HETATM    6  N   UNL     1     -11.747  14.813  68.592  1.00  0.00    -0.323 N  
HETATM    7  C   UNL     1     -11.674  15.962  69.491  1.00  0.00    -0.326 C  
ENDROOT
BRANCH   6   8
HETATM    8  C   UNL     1     -11.563  14.743  67.221  1.00  0.00    -0.369 C  
HETATM    9  O   UNL     1     -10.784  15.514  66.672  1.00  0.00    -0.306 OA 
BRANCH   8  10
HETATM   10  N   UNL     1     -12.342  13.796  66.598  1.00  0.00    -0.400 N  
HETATM   11  H   UNL     1     -13.328  13.768  66.856  1.00  0.00     0.000 HD 
BRANCH  10  12
HETATM   12  C   UNL     1     -11.914  12.873  65.650  1.00  0.00    -0.440 A  
HETATM   13  C   UNL     1     -10.799  12.049  65.604  1.00  0.00    -0.282 A  
HETATM   14  N   UNL     1      -9.739  11.817  66.452  1.00  0.00    -0.209 NA 
HETATM   15  C   UNL     1      -8.783  11.018  66.047  1.00  0.00    -0.188 A  
HETATM   16  C   UNL     1     -12.625  12.578  64.465  1.00  0.00    -0.421 A  
HETATM   17  C   UNL     1      -8.850  10.260  64.750  1.00  0.00    -0.217 A  
HETATM   18  N   UNL     1     -12.020  11.684  63.691  1.00  0.00    -0.364 NA 
HETATM   19  C   UNL     1      -9.919  10.473  63.978  1.00  0.00    -0.297 A  
HETATM   20  N   UNL     1     -10.896  11.366  64.381  1.00  0.00    -0.342 NA 
BRANCH  15  21
HETATM   21  N   UNL     1      -7.651  10.807  66.799  1.00  0.00    -0.122 NA 
HETATM   22  C   UNL     1      -6.132  10.203  68.512  1.00  0.00    -0.044 C  
HETATM   23  C   UNL     1      -6.321  10.802  66.222  1.00  0.00    -0.129 C  
HETATM   24  C   UNL     1      -7.603  10.616  68.249  1.00  0.00    -0.097 C  
HETATM   25  C   UNL     1      -5.565   9.858  67.137  1.00  0.00    -0.046 C  
BRANCH  24  26
HETATM   26  C   UNL     1      -8.679   9.650  68.700  1.00  0.00    -0.124 A  
HETATM   27  C   UNL     1      -8.898   8.389  68.134  1.00  0.00    -0.142 A  
HETATM   28  C   UNL     1      -9.972   7.586  68.529  1.00  0.00    -0.177 A  
HETATM   29  F   UNL     1      -8.093   7.917  67.172  1.00  0.00    -0.109 F  
HETATM   30  C   UNL     1     -10.860   8.039  69.501  1.00  0.00    -0.135 A  
HETATM   31  C   UNL     1     -10.653   9.284  70.079  1.00  0.00    -0.228 A  
HETATM   32  C   UNL     1      -9.580  10.082  69.694  1.00  0.00    -0.251 A  
HETATM   33  F   UNL     1     -11.507   9.729  71.010  1.00  0.00    -0.332 F  
ENDBRANCH  24  26
ENDBRANCH  15  21
ENDBRANCH  10  12
ENDBRANCH   8  10
ENDBRANCH   6   8
TORSDOF 5
ENDMDL
MODEL       88
REMARK 921   NORMALIZED FREE ENERGY PREDICTED BY IDOCK:   -6.17 KCAL/MOL
REMARK 922        TOTAL FREE ENERGY PREDICTED BY IDOCK:   -9.70 KCAL/MOL
REMARK 923 INTER-LIGAND FREE ENERGY PREDICTED BY IDOCK:   -8.03 KCAL/MOL
REMARK 924 INTRA-LIGAND FREE ENERGY PREDICTED BY IDOCK:   -1.68 KCAL/MOL
REMARK 927      BINDING AFFINITY PREDICTED BY RF-SCORE:    0.00 PKD
ROOT
HETATM    1  O   UNL     1     -11.635   6.484  67.591  1.00  0.00    -0.670 OA 
HETATM    2  H   UNL     1     -12.484   6.909  67.633  1.00  0.00     0.000 HD 
HETATM    3  C   UNL     1     -10.999   6.481  68.858  1.00  0.00    -0.314 C  
HETATM    4  C   UNL     1      -9.638   5.799  68.790  1.00  0.00    -0.156 C  
HETATM    5  C   UNL     1      -8.913   6.380  69.984  1.00  0.00    -0.146 C  
HETATM    6  N   UNL     1      -9.411   7.741  70.089  1.00  0.00    -0.161 N  
HETATM    7  C   UNL     1     -10.657   7.895  69.344  1.00  0.00    -0.205 C  
ENDROOT
BRANCH   6   8
HETATM    8  C   UNL     1      -8.717   8.658  70.861  1.00  0.00    -0.181 C  
HETATM    9  O   UNL     1      -9.216   9.083  71.897  1.00  0.00    -0.353 OA 
BRANCH   8  10
HETATM   10  N   UNL     1      -7.504   9.034  70.332  1.00  0.00    -0.076 N  
HETATM   11  H   UNL     1      -6.805   8.300  70.218  1.00  0.00     0.000 HD 
BRANCH  10  12
HETATM   12  C   UNL     1      -7.139  10.316  69.938  1.00  0.00    -0.152 A  
HETATM   13  C   UNL     1      -7.717  11.204  69.040  1.00  0.00    -0.114 A  
HETATM   14  N   UNL     1      -8.838  11.171  68.243  1.00  0.00    -0.149 NA 
HETATM   15  C   UNL     1      -9.046  12.171  67.422  1.00  0.00    -0.181 A  
HETATM   16  C   UNL     1      -6.017  11.006  70.450  1.00  0.00    -0.141 A  
HETATM   17  C   UNL     1      -8.176  13.397  67.397  1.00  0.00    -0.188 A  
HETATM   18  N   UNL     1      -5.841  12.208  69.913  1.00  0.00    -0.125 NA 
HETATM   19  C   UNL     1      -7.126  13.413  68.222  1.00  0.00    -0.109 A  
HETATM   20  N   UNL     1      -6.874  12.328  69.041  1.00  0.00    -0.101 NA 
BRANCH  15  21
HETATM   21  N   UNL     1     -10.095  12.169  66.532  1.00  0.00    -0.206 NA 
HETATM   22  C   UNL     1     -12.195  12.480  65.484  1.00  0.00    -0.442 C  
HETATM   23  C   UNL     1      -9.914  11.934  65.114  1.00  0.00    -0.247 C  
HETATM   24  C   UNL     1     -11.509  12.343  66.868  1.00  0.00    -0.360 C  
HETATM   25  C   UNL     1     -11.054  12.721  64.498  1.00  0.00    -0.365 C  
BRANCH  24  26
HETATM   26  C   UNL     1     -11.694  13.488  67.843  1.00  0.00    -0.392 A  
HETATM   27  C   UNL     1     -11.469  14.834  67.534  1.00  0.00    -0.354 A  
HETATM   28  C   UNL     1     -11.562  15.833  68.507  1.00  0.00    -0.367 A  
HETATM   29  F   UNL     1     -11.134  15.209  66.292  1.00  0.00    -0.328 F  
HETATM   30  C   UNL     1     -11.875  15.497  69.822  1.00  0.00    -0.376 A  
HETATM   31  C   UNL     1     -12.110  14.167  70.144  1.00  0.00    -0.346 A  
HETATM   32  C   UNL     1     -12.027  13.172  69.175  1.00  0.00    -0.329 A  
HETATM   33  F   UNL     1     -12.405  13.837  71.408  1.00  0.00    -0.393 F  
ENDBRANCH  24  26
ENDBRANCH  15  21
ENDBRANCH  10  12
ENDBRANCH   8  10
ENDBRANCH   6   8
TORSDOF 5
ENDMDL
MODEL       89
REMARK 921   NORMALIZED FREE ENERGY PREDICTED BY IDOCK:   -6.16 KCAL/MOL
REMARK 922        TOTAL FREE ENERGY PREDICTED BY IDOCK:   -9.69 KCAL/MOL
REMARK 923 INTER-LIGAND FREE ENERGY PREDICTED BY IDOCK:   -8.87 KCAL/MOL
REMARK 924 INTRA-LIGAND FREE ENERGY PREDICTED BY IDOCK:   -0.81 KCAL/MOL
REMARK 927      BINDING AFFINITY PREDICTED BY RF-SCORE:    0.00 PKD
ROOT
HETATM    1  O   UNL     1      -5.421  18.628  68.367  1.00  0.00    -0.186 OA 
HETATM    2  H   UNL     1      -5.120  18.055  69.063  1.00  0.00     0.000 HD 
HETATM    3  C   UNL     1      -6.753  19.056  68.596  1.00  0.00    -0.278 C  
HETATM    4  C   UNL     1      -7.236  19.976  67.480  1.00  0.00    -0.313 C  
HETATM    5  C   UNL     1      -8.741  19.851  67.572  1.00  0.00    -0.338 C  
HETATM    6  N   UNL     1      -8.971  18.477  67.986  1.00  0.00    -0.294 N  
HETATM    7  C   UNL     1      -7.756  17.897  68.550  1.00  0.00    -0.297 C  
ENDROOT
BRANCH   6   8
HETATM    8  C   UNL     1     -10.235  17.930  67.841  1.00  0.00    -0.371 C  
HETATM    9  O   UNL     1     -10.725  17.818  66.723  1.00  0.00    -0.269 OA 
BRANCH   8  10
HETATM   10  N   UNL     1     -10.840  17.593  69.029  1.00  0.00    -0.241 N  
HETATM   11  H   UNL     1     -11.057  18.358  69.668  1.00  0.00     0.000 HD 
BRANCH  10  12
HETATM   12  C   UNL     1     -11.185  16.311  69.443  1.00  0.00    -0.311 A  
HETATM   13  C   UNL     1     -11.328  15.123  68.740  1.00  0.00    -0.300 A  
HETATM   14  N   UNL     1     -11.170  14.761  67.422  1.00  0.00    -0.328 NA 
HETATM   15  C   UNL     1     -11.487  13.539  67.071  1.00  0.00    -0.340 A  
HETATM   16  C   UNL     1     -11.457  15.966  70.787  1.00  0.00    -0.407 A  
HETATM   17  C   UNL     1     -11.905  12.490  68.063  1.00  0.00    -0.382 A  
HETATM   18  N   UNL     1     -11.791  14.692  70.951  1.00  0.00    -0.311 NA 
HETATM   19  C   UNL     1     -11.998  12.867  69.341  1.00  0.00    -0.269 A  
HETATM   20  N   UNL     1     -11.724  14.175  69.698  1.00  0.00    -0.297 NA 
BRANCH  15  21
HETATM   21  N   UNL     1     -11.440  13.129  65.759  1.00  0.00    -0.315 NA 
HETATM   22  C   UNL     1     -10.811  12.146  63.699  1.00  0.00    -0.523 C  
HETATM   23  C   UNL     1     -12.607  13.131  64.899  1.00  0.00    -0.407 C  
HETATM   24  C   UNL     1     -10.245  12.696  65.034  1.00  0.00    -0.273 C  
HETATM   25  C   UNL     1     -12.312  11.998  63.936  1.00  0.00    -0.553 C  
BRANCH  24  26
HETATM   26  C   UNL     1      -9.421  11.742  65.876  1.00  0.00    -0.239 A  
HETATM   27  C   UNL     1      -9.611  10.357  65.916  1.00  0.00    -0.206 A  
HETATM   28  C   UNL     1      -8.883   9.543  66.789  1.00  0.00    -0.145 A  
HETATM   29  F   UNL     1     -10.518   9.763  65.128  1.00  0.00    -0.280 F  
HETATM   30  C   UNL     1      -7.950  10.110  67.654  1.00  0.00    -0.102 A  
HETATM   31  C   UNL     1      -7.743  11.483  67.621  1.00  0.00    -0.123 A  
HETATM   32  C   UNL     1      -8.460  12.293  66.746  1.00  0.00    -0.119 A  
HETATM   33  F   UNL     1      -6.852  12.035  68.454  1.00  0.00    -0.057 F  
ENDBRANCH  24  26
ENDBRANCH  15  21
ENDBRANCH  10  12
ENDBRANCH   8  10
ENDBRANCH   6   8
TORSDOF 5
ENDMDL
MODEL       90
REMARK 921   NORMALIZED FREE ENERGY PREDICTED BY IDOCK:   -6.11 KCAL/MOL
REMARK 922        TOTAL FREE ENERGY PREDICTED BY IDOCK:   -9.62 KCAL/MOL
REMARK 923 INTER-LIGAND FREE ENERGY PREDICTED BY IDOCK:   -8.22 KCAL/MOL
REMARK 924 INTRA-LIGAND FREE ENERGY PREDICTED BY IDOCK:   -1.40 KCAL/MOL
REMARK 927      BINDING AFFINITY PREDICTED BY RF-SCORE:    0.00 PKD
ROOT
HETATM    1  O   UNL     1     -10.610  18.760  65.459  1.00  0.00    -0.596 OA 
HETATM    2  H   UNL     1     -10.301  18.602  64.575  1.00  0.00     0.000 HD 
HETATM    3  C   UNL     1     -10.126  17.775  66.356  1.00  0.00    -0.357 C  
HETATM    4  C   UNL     1     -10.623  18.029  67.775  1.00  0.00    -0.409 C  
HETATM    5  C   UNL     1     -10.518  16.662  68.416  1.00  0.00    -0.323 C  
HETATM    6  N   UNL     1     -10.814  15.729  67.342  1.00  0.00    -0.317 N  
HETATM    7  C   UNL     1     -10.674  16.377  66.040  1.00  0.00    -0.191 C  
ENDROOT
BRANCH   6   8
HETATM    8  C   UNL     1     -11.134  14.418  67.654  1.00  0.00    -0.300 C  
HETATM    9  O   UNL     1     -10.594  13.872  68.609  1.00  0.00    -0.248 OA 
BRANCH   8  10
HETATM   10  N   UNL     1     -12.036  13.840  66.792  1.00  0.00    -0.422 N  
HETATM   11  H   UNL     1     -13.025  14.001  66.985  1.00  0.00     0.000 HD 
BRANCH  10  12
HETATM   12  C   UNL     1     -11.731  13.058  65.684  1.00  0.00    -0.375 A  
HETATM   13  C   UNL     1     -10.751  12.097  65.475  1.00  0.00    -0.283 A  
HETATM   14  N   UNL     1      -9.757  11.553  66.257  1.00  0.00    -0.208 NA 
HETATM   15  C   UNL     1      -8.923  10.709  65.702  1.00  0.00    -0.185 A  
HETATM   16  C   UNL     1     -12.452  13.102  64.469  1.00  0.00    -0.342 A  
HETATM   17  C   UNL     1      -9.075  10.227  64.285  1.00  0.00    -0.278 A  
HETATM   18  N   UNL     1     -11.971  12.288  63.536  1.00  0.00    -0.513 NA 
HETATM   19  C   UNL     1     -10.082  10.741  63.575  1.00  0.00    -0.302 A  
HETATM   20  N   UNL     1     -10.922  11.679  64.145  1.00  0.00    -0.357 NA 
BRANCH  15  21
HETATM   21  N   UNL     1      -7.852  10.191  66.392  1.00  0.00    -0.110 NA 
HETATM   22  C   UNL     1      -6.432   8.824  67.704  1.00  0.00    -0.061 C  
HETATM   23  C   UNL     1      -6.491  10.635  66.168  1.00  0.00    -0.131 C  
HETATM   24  C   UNL     1      -7.918   9.191  67.459  1.00  0.00    -0.100 C  
HETATM   25  C   UNL     1      -5.679   9.399  66.506  1.00  0.00    -0.054 C  
BRANCH  24  26
HETATM   26  C   UNL     1      -8.851   8.059  67.078  1.00  0.00    -0.143 A  
HETATM   27  C   UNL     1     -10.201   7.990  67.440  1.00  0.00    -0.261 A  
HETATM   28  C   UNL     1     -10.982   6.871  67.141  1.00  0.00    -0.427 A  
HETATM   29  F   UNL     1     -10.786   8.994  68.107  1.00  0.00    -0.255 F  
HETATM   30  C   UNL     1     -10.418   5.784  66.478  1.00  0.00    -0.280 A  
HETATM   31  C   UNL     1      -9.082   5.839  66.105  1.00  0.00    -0.153 A  
HETATM   32  C   UNL     1      -8.304   6.956  66.392  1.00  0.00    -0.125 A  
HETATM   33  F   UNL     1      -8.531   4.795  65.472  1.00  0.00    -0.114 F  
ENDBRANCH  24  26
ENDBRANCH  15  21
ENDBRANCH  10  12
ENDBRANCH   8  10
ENDBRANCH   6   8
TORSDOF 5
ENDMDL
MODEL       91
REMARK 921   NORMALIZED FREE ENERGY PREDICTED BY IDOCK:   -6.11 KCAL/MOL
REMARK 922        TOTAL FREE ENERGY PREDICTED BY IDOCK:   -9.62 KCAL/MOL
REMARK 923 INTER-LIGAND FREE ENERGY PREDICTED BY IDOCK:   -7.83 KCAL/MOL
REMARK 924 INTRA-LIGAND FREE ENERGY PREDICTED BY IDOCK:   -1.79 KCAL/MOL
REMARK 927      BINDING AFFINITY PREDICTED BY RF-SCORE:    0.00 PKD
ROOT
HETATM    1  O   UNL     1     -13.817  15.401  70.770  1.00  0.00    -0.801 OA 
HETATM    2  H   UNL     1     -13.250  16.031  70.340  1.00  0.00     0.000 HD 
HETATM    3  C   UNL     1     -13.071  14.324  71.309  1.00  0.00    -0.355 C  
HETATM    4  C   UNL     1     -13.981  13.313  71.998  1.00  0.00    -0.353 C  
HETATM    5  C   UNL     1     -13.150  12.048  71.979  1.00  0.00    -0.351 C  
HETATM    6  N   UNL     1     -12.398  12.122  70.738  1.00  0.00    -0.358 N  
HETATM    7  C   UNL     1     -12.381  13.488  70.223  1.00  0.00    -0.300 C  
ENDROOT
BRANCH   6   8
HETATM    8  C   UNL     1     -11.796  10.976  70.244  1.00  0.00    -0.367 C  
HETATM    9  O   UNL     1     -11.163  10.248  70.999  1.00  0.00    -0.315 OA 
BRANCH   8  10
HETATM   10  N   UNL     1     -11.952  10.800  68.889  1.00  0.00    -0.497 N  
HETATM   11  H   UNL     1     -12.905  10.829  68.528  1.00  0.00     0.000 HD 
BRANCH  10  12
HETATM   12  C   UNL     1     -10.936  10.586  67.964  1.00  0.00    -0.290 A  
HETATM   13  C   UNL     1      -9.679  11.159  67.827  1.00  0.00    -0.171 A  
HETATM   14  N   UNL     1      -8.970  12.103  68.535  1.00  0.00    -0.132 NA 
HETATM   15  C   UNL     1      -7.812  12.493  68.063  1.00  0.00    -0.147 A  
HETATM   16  C   UNL     1     -11.015   9.643  66.915  1.00  0.00     0.098 A  
HETATM   17  C   UNL     1      -7.177  11.872  66.849  1.00  0.00    -0.074 A  
HETATM   18  N   UNL     1      -9.940   9.624  66.134  1.00  0.00    -0.274 NA 
HETATM   19  C   UNL     1      -7.874  10.923  66.219  1.00  0.00    -0.158 A  
HETATM   20  N   UNL     1      -9.124  10.559  66.684  1.00  0.00    -0.154 NA 
BRANCH  15  21
HETATM   21  N   UNL     1      -7.086  13.495  68.664  1.00  0.00    -0.102 NA 
HETATM   22  C   UNL     1      -6.322  15.585  69.472  1.00  0.00    -0.155 C  
HETATM   23  C   UNL     1      -6.078  13.231  69.671  1.00  0.00    -0.118 C  
HETATM   24  C   UNL     1      -7.173  14.923  68.358  1.00  0.00    -0.116 C  
HETATM   25  C   UNL     1      -6.115  14.490  70.516  1.00  0.00    -0.183 C  
BRANCH  24  26
HETATM   26  C   UNL     1      -8.619  15.363  68.246  1.00  0.00    -0.158 A  
HETATM   27  C   UNL     1      -9.339  15.417  67.048  1.00  0.00    -0.224 A  
HETATM   28  C   UNL     1     -10.640  15.926  66.998  1.00  0.00    -0.306 A  
HETATM   29  F   UNL     1      -8.793  14.999  65.897  1.00  0.00    -0.268 F  
HETATM   30  C   UNL     1     -11.245  16.405  68.158  1.00  0.00    -0.273 A  
HETATM   31  C   UNL     1     -10.548  16.351  69.357  1.00  0.00    -0.317 A  
HETATM   32  C   UNL     1      -9.257  15.836  69.411  1.00  0.00    -0.263 A  
HETATM   33  F   UNL     1     -11.122  16.815  70.474  1.00  0.00    -0.351 F  
ENDBRANCH  24  26
ENDBRANCH  15  21
ENDBRANCH  10  12
ENDBRANCH   8  10
ENDBRANCH   6   8
TORSDOF 5
ENDMDL
MODEL       92
REMARK 921   NORMALIZED FREE ENERGY PREDICTED BY IDOCK:   -6.10 KCAL/MOL
REMARK 922        TOTAL FREE ENERGY PREDICTED BY IDOCK:   -9.61 KCAL/MOL
REMARK 923 INTER-LIGAND FREE ENERGY PREDICTED BY IDOCK:   -8.27 KCAL/MOL
REMARK 924 INTRA-LIGAND FREE ENERGY PREDICTED BY IDOCK:   -1.34 KCAL/MOL
REMARK 927      BINDING AFFINITY PREDICTED BY RF-SCORE:    0.00 PKD
ROOT
HETATM    1  O   UNL     1      -6.053  21.188  67.680  1.00  0.00    -0.306 OA 
HETATM    2  H   UNL     1      -5.543  21.488  66.938  1.00  0.00     0.000 HD 
HETATM    3  C   UNL     1      -5.669  19.881  68.072  1.00  0.00    -0.207 C  
HETATM    4  C   UNL     1      -6.489  19.398  69.263  1.00  0.00    -0.347 C  
HETATM    5  C   UNL     1      -6.372  17.893  69.162  1.00  0.00    -0.236 C  
HETATM    6  N   UNL     1      -6.318  17.624  67.735  1.00  0.00    -0.167 N  
HETATM    7  C   UNL     1      -5.972  18.833  66.993  1.00  0.00    -0.162 C  
ENDROOT
BRANCH   6   8
HETATM    8  C   UNL     1      -6.548  16.336  67.280  1.00  0.00    -0.193 C  
HETATM    9  O   UNL     1      -5.672  15.486  67.393  1.00  0.00    -0.313 OA 
BRANCH   8  10
HETATM   10  N   UNL     1      -7.777  16.159  66.692  1.00  0.00    -0.246 N  
HETATM   11  H   UNL     1      -7.791  16.041  65.679  1.00  0.00     0.000 HD 
BRANCH  10  12
HETATM   12  C   UNL     1      -9.006  16.125  67.344  1.00  0.00    -0.191 A  
HETATM   13  C   UNL     1      -9.764  15.066  67.825  1.00  0.00    -0.215 A  
HETATM   14  N   UNL     1      -9.593  13.701  67.864  1.00  0.00    -0.215 NA 
HETATM   15  C   UNL     1     -10.577  12.965  68.320  1.00  0.00    -0.246 A  
HETATM   16  C   UNL     1      -9.753  17.278  67.673  1.00  0.00    -0.272 A  
HETATM   17  C   UNL     1     -11.830  13.554  68.905  1.00  0.00    -0.384 A  
HETATM   18  N   UNL     1     -10.908  17.010  68.270  1.00  0.00    -0.370 NA 
HETATM   19  C   UNL     1     -11.937  14.885  68.896  1.00  0.00    -0.260 A  
HETATM   20  N   UNL     1     -10.924  15.656  68.355  1.00  0.00    -0.292 NA 
BRANCH  15  21
HETATM   21  N   UNL     1     -10.517  11.591  68.308  1.00  0.00    -0.190 NA 
HETATM   22  C   UNL     1     -10.550   9.314  67.661  1.00  0.00    -0.324 C  
HETATM   23  C   UNL     1      -9.870  10.829  69.358  1.00  0.00    -0.085 C  
HETATM   24  C   UNL     1     -11.119  10.711  67.305  1.00  0.00    -0.243 C  
HETATM   25  C   UNL     1      -9.399   9.588  68.626  1.00  0.00    -0.142 C  
BRANCH  24  26
HETATM   26  C   UNL     1     -10.848  11.227  65.906  1.00  0.00    -0.264 A  
HETATM   27  C   UNL     1     -11.667  12.134  65.225  1.00  0.00    -0.308 A  
HETATM   28  C   UNL     1     -11.415  12.494  63.898  1.00  0.00    -0.507 A  
HETATM   29  F   UNL     1     -12.739  12.675  65.820  1.00  0.00    -0.427 F  
HETATM   30  C   UNL     1     -10.333  11.939  63.219  1.00  0.00    -0.432 A  
HETATM   31  C   UNL     1      -9.506  11.043  63.883  1.00  0.00    -0.251 A  
HETATM   32  C   UNL     1      -9.749  10.690  65.206  1.00  0.00    -0.315 A  
HETATM   33  F   UNL     1      -8.467  10.500  63.234  1.00  0.00    -0.160 F  
ENDBRANCH  24  26
ENDBRANCH  15  21
ENDBRANCH  10  12
ENDBRANCH   8  10
ENDBRANCH   6   8
TORSDOF 5
ENDMDL
MODEL       93
REMARK 921   NORMALIZED FREE ENERGY PREDICTED BY IDOCK:   -6.09 KCAL/MOL
REMARK 922        TOTAL FREE ENERGY PREDICTED BY IDOCK:   -9.60 KCAL/MOL
REMARK 923 INTER-LIGAND FREE ENERGY PREDICTED BY IDOCK:   -8.28 KCAL/MOL
REMARK 924 INTRA-LIGAND FREE ENERGY PREDICTED BY IDOCK:   -1.32 KCAL/MOL
REMARK 927      BINDING AFFINITY PREDICTED BY RF-SCORE:    0.00 PKD
ROOT
HETATM    1  O   UNL     1      -8.075   7.590  73.753  1.00  0.00    -0.119 OA 
HETATM    2  H   UNL     1      -7.250   7.822  73.343  1.00  0.00     0.000 HD 
HETATM    3  C   UNL     1      -9.108   7.464  72.790  1.00  0.00    -0.143 C  
HETATM    4  C   UNL     1     -10.433   7.093  73.447  1.00  0.00    -0.410 C  
HETATM    5  C   UNL     1     -11.452   7.559  72.431  1.00  0.00    -0.315 C  
HETATM    6  N   UNL     1     -10.861   8.745  71.836  1.00  0.00    -0.339 N  
HETATM    7  C   UNL     1      -9.425   8.793  72.094  1.00  0.00    -0.239 C  
ENDROOT
BRANCH   6   8
HETATM    8  C   UNL     1     -11.665   9.611  71.113  1.00  0.00    -0.372 C  
HETATM    9  O   UNL     1     -12.329  10.458  71.700  1.00  0.00    -0.370 OA 
BRANCH   8  10
HETATM   10  N   UNL     1     -11.656   9.386  69.757  1.00  0.00    -0.442 N  
HETATM   11  H   UNL     1     -12.558   9.227  69.310  1.00  0.00     0.000 HD 
BRANCH  10  12
HETATM   12  C   UNL     1     -10.534   9.354  68.935  1.00  0.00    -0.216 A  
HETATM   13  C   UNL     1      -9.749  10.370  68.408  1.00  0.00    -0.158 A  
HETATM   14  N   UNL     1      -9.760  11.743  68.507  1.00  0.00    -0.198 NA 
HETATM   15  C   UNL     1      -8.906  12.425  67.783  1.00  0.00    -0.176 A  
HETATM   16  C   UNL     1      -9.937   8.162  68.467  1.00  0.00    -0.190 A  
HETATM   17  C   UNL     1      -7.847  11.769  66.941  1.00  0.00    -0.141 A  
HETATM   18  N   UNL     1      -8.892   8.367  67.673  1.00  0.00    -0.136 NA 
HETATM   19  C   UNL     1      -7.837  10.434  66.911  1.00  0.00    -0.114 A  
HETATM   20  N   UNL     1      -8.780   9.719  67.626  1.00  0.00    -0.125 NA 
BRANCH  15  21
HETATM   21  N   UNL     1      -8.915  13.800  67.761  1.00  0.00    -0.183 NA 
HETATM   22  C   UNL     1      -9.311  16.068  67.209  1.00  0.00    -0.218 C  
HETATM   23  C   UNL     1      -8.532  14.602  68.906  1.00  0.00    -0.136 C  
HETATM   24  C   UNL     1      -9.244  14.640  66.608  1.00  0.00    -0.267 C  
HETATM   25  C   UNL     1      -9.356  15.860  68.721  1.00  0.00    -0.220 C  
BRANCH  24  26
HETATM   26  C   UNL     1     -10.487  14.130  65.908  1.00  0.00    -0.313 A  
HETATM   27  C   UNL     1     -11.778  14.189  66.445  1.00  0.00    -0.390 A  
HETATM   28  C   UNL     1     -12.869  13.611  65.791  1.00  0.00    -0.390 A  
HETATM   29  F   UNL     1     -12.007  14.787  67.622  1.00  0.00    -0.367 F  
HETATM   30  C   UNL     1     -12.684  12.947  64.581  1.00  0.00    -0.403 A  
HETATM   31  C   UNL     1     -11.412  12.887  64.030  1.00  0.00    -0.422 A  
HETATM   32  C   UNL     1     -10.325  13.470  64.674  1.00  0.00    -0.406 A  
HETATM   33  F   UNL     1     -11.226  12.246  62.869  1.00  0.00    -0.361 F  
ENDBRANCH  24  26
ENDBRANCH  15  21
ENDBRANCH  10  12
ENDBRANCH   8  10
ENDBRANCH   6   8
TORSDOF 5
ENDMDL
MODEL       94
REMARK 921   NORMALIZED FREE ENERGY PREDICTED BY IDOCK:   -6.08 KCAL/MOL
REMARK 922        TOTAL FREE ENERGY PREDICTED BY IDOCK:   -9.59 KCAL/MOL
REMARK 923 INTER-LIGAND FREE ENERGY PREDICTED BY IDOCK:   -8.86 KCAL/MOL
REMARK 924 INTRA-LIGAND FREE ENERGY PREDICTED BY IDOCK:   -0.73 KCAL/MOL
REMARK 927      BINDING AFFINITY PREDICTED BY RF-SCORE:    0.00 PKD
ROOT
HETATM    1  O   UNL     1      -7.260  19.741  68.484  1.00  0.00    -0.311 OA 
HETATM    2  H   UNL     1      -6.757  19.344  69.186  1.00  0.00     0.000 HD 
HETATM    3  C   UNL     1      -8.609  19.307  68.510  1.00  0.00    -0.365 C  
HETATM    4  C   UNL     1      -9.415  19.944  67.384  1.00  0.00    -0.484 C  
HETATM    5  C   UNL     1     -10.571  18.982  67.215  1.00  0.00    -0.470 C  
HETATM    6  N   UNL     1     -10.005  17.675  67.504  1.00  0.00    -0.310 N  
HETATM    7  C   UNL     1      -8.745  17.805  68.230  1.00  0.00    -0.277 C  
ENDROOT
BRANCH   6   8
HETATM    8  C   UNL     1     -10.697  16.538  67.118  1.00  0.00    -0.220 C  
HETATM    9  O   UNL     1     -11.242  15.841  67.966  1.00  0.00    -0.342 OA 
BRANCH   8  10
HETATM   10  N   UNL     1     -10.659  16.290  65.766  1.00  0.00    -0.343 N  
HETATM   11  H   UNL     1     -10.229  17.004  65.178  1.00  0.00     0.000 HD 
BRANCH  10  12
HETATM   12  C   UNL     1     -11.151  15.159  65.122  1.00  0.00    -0.403 A  
HETATM   13  C   UNL     1     -10.774  13.825  65.188  1.00  0.00    -0.358 A  
HETATM   14  N   UNL     1      -9.825  13.128  65.902  1.00  0.00    -0.263 NA 
HETATM   15  C   UNL     1      -9.670  11.852  65.647  1.00  0.00    -0.227 A  
HETATM   16  C   UNL     1     -12.235  15.180  64.216  1.00  0.00    -0.240 A  
HETATM   17  C   UNL     1     -10.557  11.098  64.696  1.00  0.00    -0.386 A  
HETATM   18  N   UNL     1     -12.518  13.990  63.699  1.00  0.00    -0.809 NA 
HETATM   19  C   UNL     1     -11.500  11.800  64.060  1.00  0.00    -0.359 A  
HETATM   20  N   UNL     1     -11.619  13.159  64.285  1.00  0.00    -0.372 NA 
BRANCH  15  21
HETATM   21  N   UNL     1      -8.685  11.108  66.254  1.00  0.00    -0.179 NA 
HETATM   22  C   UNL     1      -7.361   9.925  67.820  1.00  0.00    -0.089 C  
HETATM   23  C   UNL     1      -7.760  10.281  65.506  1.00  0.00    -0.149 C  
HETATM   24  C   UNL     1      -8.389  11.078  67.687  1.00  0.00    -0.117 C  
HETATM   25  C   UNL     1      -7.432   9.176  66.491  1.00  0.00    -0.093 C  
BRANCH  24  26
HETATM   26  C   UNL     1      -9.663  10.958  68.498  1.00  0.00    -0.183 A  
HETATM   27  C   UNL     1     -10.259   9.746  68.862  1.00  0.00    -0.200 A  
HETATM   28  C   UNL     1     -11.488   9.705  69.525  1.00  0.00     0.002 A  
HETATM   29  F   UNL     1      -9.676   8.576  68.565  1.00  0.00    -0.153 F  
HETATM   30  C   UNL     1     -12.155  10.889  69.830  1.00  0.00    -0.409 A  
HETATM   31  C   UNL     1     -11.574  12.101  69.483  1.00  0.00    -0.315 A  
HETATM   32  C   UNL     1     -10.346  12.145  68.832  1.00  0.00    -0.098 A  
HETATM   33  F   UNL     1     -12.213  13.243  69.768  1.00  0.00    -0.340 F  
ENDBRANCH  24  26
ENDBRANCH  15  21
ENDBRANCH  10  12
ENDBRANCH   8  10
ENDBRANCH   6   8
TORSDOF 5
ENDMDL
MODEL       95
REMARK 921   NORMALIZED FREE ENERGY PREDICTED BY IDOCK:   -6.08 KCAL/MOL
REMARK 922        TOTAL FREE ENERGY PREDICTED BY IDOCK:   -9.58 KCAL/MOL
REMARK 923 INTER-LIGAND FREE ENERGY PREDICTED BY IDOCK:   -8.22 KCAL/MOL
REMARK 924 INTRA-LIGAND FREE ENERGY PREDICTED BY IDOCK:   -1.36 KCAL/MOL
REMARK 927      BINDING AFFINITY PREDICTED BY RF-SCORE:    0.00 PKD
ROOT
HETATM    1  O   UNL     1      -7.592  19.817  68.707  1.00  0.00    -0.330 OA 
HETATM    2  H   UNL     1      -7.318  19.570  69.583  1.00  0.00     0.000 HD 
HETATM    3  C   UNL     1      -8.918  19.387  68.445  1.00  0.00    -0.354 C  
HETATM    4  C   UNL     1      -9.358  19.781  67.040  1.00  0.00    -0.460 C  
HETATM    5  C   UNL     1     -10.470  18.797  66.749  1.00  0.00    -0.420 C  
HETATM    6  N   UNL     1     -10.067  17.578  67.429  1.00  0.00    -0.313 N  
HETATM    7  C   UNL     1      -9.046  17.858  68.434  1.00  0.00    -0.289 C  
ENDROOT
BRANCH   6   8
HETATM    8  C   UNL     1     -10.683  16.382  67.095  1.00  0.00    -0.233 C  
HETATM    9  O   UNL     1     -11.459  15.857  67.885  1.00  0.00    -0.299 OA 
BRANCH   8  10
HETATM   10  N   UNL     1     -10.306  15.878  65.873  1.00  0.00    -0.344 N  
HETATM   11  H   UNL     1      -9.462  16.269  65.454  1.00  0.00     0.000 HD 
BRANCH  10  12
HETATM   12  C   UNL     1     -10.964  14.887  65.153  1.00  0.00    -0.399 A  
HETATM   13  C   UNL     1     -10.623  13.570  64.876  1.00  0.00    -0.397 A  
HETATM   14  N   UNL     1      -9.561  12.761  65.211  1.00  0.00     0.012 NA 
HETATM   15  C   UNL     1      -9.507  11.560  64.689  1.00  0.00    -0.100 A  
HETATM   16  C   UNL     1     -12.221  15.068  64.535  1.00  0.00    -0.331 A  
HETATM   17  C   UNL     1     -10.607  10.993  63.835  1.00  0.00    -0.382 A  
HETATM   18  N   UNL     1     -12.650  13.997  63.877  1.00  0.00    -0.746 NA 
HETATM   19  C   UNL     1     -11.645  11.792  63.574  1.00  0.00    -0.387 A  
HETATM   20  N   UNL     1     -11.668  13.081  64.075  1.00  0.00    -0.406 NA 
BRANCH  15  21
HETATM   21  N   UNL     1      -8.434  10.727  64.904  1.00  0.00    -0.111 NA 
HETATM   22  C   UNL     1      -6.840   9.268  65.872  1.00  0.00    -0.088 C  
HETATM   23  C   UNL     1      -7.708  10.094  63.821  1.00  0.00    -0.141 C  
HETATM   24  C   UNL     1      -7.844  10.402  66.204  1.00  0.00    -0.135 C  
HETATM   25  C   UNL     1      -7.207   8.814  64.461  1.00  0.00    -0.096 C  
BRANCH  24  26
HETATM   26  C   UNL     1      -8.922  10.088  67.221  1.00  0.00    -0.144 A  
HETATM   27  C   UNL     1      -9.247  10.907  68.308  1.00  0.00    -0.161 A  
HETATM   28  C   UNL     1     -10.184  10.514  69.267  1.00  0.00    -0.245 A  
HETATM   29  F   UNL     1      -8.650  12.096  68.477  1.00  0.00    -0.158 F  
HETATM   30  C   UNL     1     -10.811   9.275  69.160  1.00  0.00    -0.154 A  
HETATM   31  C   UNL     1     -10.507   8.453  68.083  1.00  0.00    -0.174 A  
HETATM   32  C   UNL     1      -9.582   8.847  67.122  1.00  0.00    -0.225 A  
HETATM   33  F   UNL     1     -11.102   7.258  67.977  1.00  0.00    -0.210 F  
ENDBRANCH  24  26
ENDBRANCH  15  21
ENDBRANCH  10  12
ENDBRANCH   8  10
ENDBRANCH   6   8
TORSDOF 5
ENDMDL
MODEL       96
REMARK 921   NORMALIZED FREE ENERGY PREDICTED BY IDOCK:   -6.05 KCAL/MOL
REMARK 922        TOTAL FREE ENERGY PREDICTED BY IDOCK:   -9.55 KCAL/MOL
REMARK 923 INTER-LIGAND FREE ENERGY PREDICTED BY IDOCK:   -8.00 KCAL/MOL
REMARK 924 INTRA-LIGAND FREE ENERGY PREDICTED BY IDOCK:   -1.55 KCAL/MOL
REMARK 927      BINDING AFFINITY PREDICTED BY RF-SCORE:    0.00 PKD
ROOT
HETATM    1  O   UNL     1      -6.278  20.558  70.923  1.00  0.00    -0.572 OA 
HETATM    2  H   UNL     1      -6.559  21.345  70.472  1.00  0.00     0.000 HD 
HETATM    3  C   UNL     1      -5.757  19.604  70.013  1.00  0.00    -0.261 C  
HETATM    4  C   UNL     1      -5.306  18.340  70.737  1.00  0.00    -0.254 C  
HETATM    5  C   UNL     1      -5.343  17.296  69.641  1.00  0.00    -0.178 C  
HETATM    6  N   UNL     1      -6.456  17.692  68.795  1.00  0.00    -0.203 N  
HETATM    7  C   UNL     1      -6.819  19.086  69.036  1.00  0.00    -0.318 C  
ENDROOT
BRANCH   6   8
HETATM    8  C   UNL     1      -6.980  16.778  67.896  1.00  0.00    -0.144 C  
HETATM    9  O   UNL     1      -8.123  16.924  67.477  1.00  0.00    -0.170 OA 
BRANCH   8  10
HETATM   10  N   UNL     1      -6.131  15.741  67.590  1.00  0.00    -0.151 N  
HETATM   11  H   UNL     1      -5.275  15.979  67.089  1.00  0.00     0.000 HD 
BRANCH  10  12
HETATM   12  C   UNL     1      -6.327  14.399  67.897  1.00  0.00    -0.162 A  
HETATM   13  C   UNL     1      -7.315  13.501  67.517  1.00  0.00    -0.164 A  
HETATM   14  N   UNL     1      -8.425  13.580  66.707  1.00  0.00    -0.050 NA 
HETATM   15  C   UNL     1      -9.219  12.539  66.639  1.00  0.00    -0.223 A  
HETATM   16  C   UNL     1      -5.455  13.645  68.715  1.00  0.00    -0.073 A  
HETATM   17  C   UNL     1      -8.909  11.233  67.316  1.00  0.00    -0.150 A  
HETATM   18  N   UNL     1      -5.849  12.390  68.896  1.00  0.00    -0.063 NA 
HETATM   19  C   UNL     1      -7.796  11.181  68.053  1.00  0.00    -0.114 A  
HETATM   20  N   UNL     1      -6.994  12.301  68.173  1.00  0.00    -0.079 NA 
BRANCH  15  21
HETATM   21  N   UNL     1     -10.392  12.572  65.921  1.00  0.00    -0.257 NA 
HETATM   22  C   UNL     1     -12.642  12.863  65.243  1.00  0.00    -0.502 C  
HETATM   23  C   UNL     1     -10.423  12.513  64.473  1.00  0.00    -0.341 C  
HETATM   24  C   UNL     1     -11.743  12.613  66.482  1.00  0.00    -0.400 C  
HETATM   25  C   UNL     1     -11.681  13.290  64.136  1.00  0.00    -0.470 C  
BRANCH  24  26
HETATM   26  C   UNL     1     -11.828  13.624  67.608  1.00  0.00    -0.404 A  
HETATM   27  C   UNL     1     -11.584  14.993  67.461  1.00  0.00    -0.301 A  
HETATM   28  C   UNL     1     -11.581  15.858  68.559  1.00  0.00    -0.351 A  
HETATM   29  F   UNL     1     -11.321  15.521  66.257  1.00  0.00    -0.289 F  
HETATM   30  C   UNL     1     -11.815  15.359  69.839  1.00  0.00    -0.373 A  
HETATM   31  C   UNL     1     -12.068  14.004  70.001  1.00  0.00    -0.348 A  
HETATM   32  C   UNL     1     -12.080  13.143  68.908  1.00  0.00    -0.232 A  
HETATM   33  F   UNL     1     -12.288  13.517  71.229  1.00  0.00    -0.406 F  
ENDBRANCH  24  26
ENDBRANCH  15  21
ENDBRANCH  10  12
ENDBRANCH   8  10
ENDBRANCH   6   8
TORSDOF 5
ENDMDL
MODEL       97
REMARK 921   NORMALIZED FREE ENERGY PREDICTED BY IDOCK:   -6.02 KCAL/MOL
REMARK 922        TOTAL FREE ENERGY PREDICTED BY IDOCK:   -9.51 KCAL/MOL
REMARK 923 INTER-LIGAND FREE ENERGY PREDICTED BY IDOCK:   -8.09 KCAL/MOL
REMARK 924 INTRA-LIGAND FREE ENERGY PREDICTED BY IDOCK:   -1.42 KCAL/MOL
REMARK 927      BINDING AFFINITY PREDICTED BY RF-SCORE:    0.00 PKD
ROOT
HETATM    1  O   UNL     1      -5.810  11.082  68.362  1.00  0.00    -0.043 OA 
HETATM    2  H   UNL     1      -5.615  11.415  67.493  1.00  0.00     0.000 HD 
HETATM    3  C   UNL     1      -6.672   9.958  68.299  1.00  0.00    -0.060 C  
HETATM    4  C   UNL     1      -6.985   9.424  69.692  1.00  0.00    -0.058 C  
HETATM    5  C   UNL     1      -8.283   8.676  69.479  1.00  0.00    -0.115 C  
HETATM    6  N   UNL     1      -8.980   9.435  68.455  1.00  0.00    -0.128 N  
HETATM    7  C   UNL     1      -8.056  10.313  67.742  1.00  0.00    -0.103 C  
ENDROOT
BRANCH   6   8
HETATM    8  C   UNL     1     -10.336   9.225  68.262  1.00  0.00    -0.217 C  
HETATM    9  O   UNL     1     -10.780   9.128  67.124  1.00  0.00    -0.255 OA 
BRANCH   8  10
HETATM   10  N   UNL     1     -11.069   9.183  69.424  1.00  0.00    -0.428 N  
HETATM   11  H   UNL     1     -11.138   8.281  69.893  1.00  0.00     0.000 HD 
BRANCH  10  12
HETATM   12  C   UNL     1     -11.725  10.254  70.023  1.00  0.00    -0.254 A  
HETATM   13  C   UNL     1     -11.607  11.625  69.841  1.00  0.00    -0.288 A  
HETATM   14  N   UNL     1     -10.845  12.423  69.018  1.00  0.00    -0.190 NA 
HETATM   15  C   UNL     1     -10.916  13.722  69.175  1.00  0.00    -0.208 A  
HETATM   16  C   UNL     1     -12.734  10.109  71.001  1.00  0.00    -0.386 A  
HETATM   17  C   UNL     1     -11.873  14.376  70.133  1.00  0.00    -0.380 A  
HETATM   18  N   UNL     1     -13.205  11.265  71.455  1.00  0.00    -0.333 NA 
HETATM   19  C   UNL     1     -12.632  13.567  70.878  1.00  0.00    -0.337 A  
HETATM   20  N   UNL     1     -12.509  12.196  70.755  1.00  0.00    -0.325 NA 
BRANCH  15  21
HETATM   21  N   UNL     1     -10.121  14.582  68.453  1.00  0.00    -0.234 NA 
HETATM   22  C   UNL     1      -8.933  15.675  66.722  1.00  0.00    -0.291 C  
HETATM   23  C   UNL     1      -9.740  15.891  68.944  1.00  0.00    -0.230 C  
HETATM   24  C   UNL     1      -9.513  14.303  67.151  1.00  0.00    -0.227 C  
HETATM   25  C   UNL     1      -9.573  16.689  67.666  1.00  0.00    -0.239 C  
BRANCH  24  26
HETATM   26  C   UNL     1     -10.515  13.658  66.216  1.00  0.00    -0.291 A  
HETATM   27  C   UNL     1     -11.832  14.097  66.041  1.00  0.00    -0.398 A  
HETATM   28  C   UNL     1     -12.736  13.398  65.238  1.00  0.00    -0.481 A  
HETATM   29  F   UNL     1     -12.277  15.199  66.660  1.00  0.00    -0.125 F  
HETATM   30  C   UNL     1     -12.338  12.228  64.596  1.00  0.00    -0.449 A  
HETATM   31  C   UNL     1     -11.032  11.782  64.752  1.00  0.00    -0.303 A  
HETATM   32  C   UNL     1     -10.127  12.481  65.543  1.00  0.00    -0.282 A  
HETATM   33  F   UNL     1     -10.644  10.654  64.142  1.00  0.00    -0.434 F  
ENDBRANCH  24  26
ENDBRANCH  15  21
ENDBRANCH  10  12
ENDBRANCH   8  10
ENDBRANCH   6   8
TORSDOF 5
ENDMDL
MODEL       98
REMARK 921   NORMALIZED FREE ENERGY PREDICTED BY IDOCK:   -6.02 KCAL/MOL
REMARK 922        TOTAL FREE ENERGY PREDICTED BY IDOCK:   -9.50 KCAL/MOL
REMARK 923 INTER-LIGAND FREE ENERGY PREDICTED BY IDOCK:   -8.58 KCAL/MOL
REMARK 924 INTRA-LIGAND FREE ENERGY PREDICTED BY IDOCK:   -0.92 KCAL/MOL
REMARK 927      BINDING AFFINITY PREDICTED BY RF-SCORE:    0.00 PKD
ROOT
HETATM    1  O   UNL     1      -8.083  20.388  65.388  1.00  0.00    -0.424 OA 
HETATM    2  H   UNL     1      -7.146  20.308  65.258  1.00  0.00     0.000 HD 
HETATM    3  C   UNL     1      -8.435  20.149  66.741  1.00  0.00    -0.302 C  
HETATM    4  C   UNL     1      -9.940  20.278  66.950  1.00  0.00    -0.592 C  
HETATM    5  C   UNL     1     -10.173  19.464  68.205  1.00  0.00    -0.431 C  
HETATM    6  N   UNL     1      -9.203  18.385  68.127  1.00  0.00    -0.303 N  
HETATM    7  C   UNL     1      -8.145  18.707  67.175  1.00  0.00    -0.247 C  
ENDROOT
BRANCH   6   8
HETATM    8  C   UNL     1      -9.364  17.272  68.937  1.00  0.00    -0.191 C  
HETATM    9  O   UNL     1      -8.412  16.527  69.142  1.00  0.00    -0.232 OA 
BRANCH   8  10
HETATM   10  N   UNL     1     -10.643  17.101  69.409  1.00  0.00    -0.349 N  
HETATM   11  H   UNL     1     -11.227  17.935  69.469  1.00  0.00     0.000 HD 
BRANCH  10  12
HETATM   12  C   UNL     1     -11.218  15.901  69.814  1.00  0.00    -0.339 A  
HETATM   13  C   UNL     1     -11.238  14.644  69.225  1.00  0.00    -0.282 A  
HETATM   14  N   UNL     1     -10.700  14.113  68.074  1.00  0.00    -0.239 NA 
HETATM   15  C   UNL     1     -10.999  12.876  67.763  1.00  0.00    -0.243 A  
HETATM   16  C   UNL     1     -11.936  15.741  71.021  1.00  0.00    -0.419 A  
HETATM   17  C   UNL     1     -11.808  11.983  68.663  1.00  0.00    -0.366 A  
HETATM   18  N   UNL     1     -12.421  14.517  71.193  1.00  0.00    -0.318 NA 
HETATM   19  C   UNL     1     -12.269  12.520  69.795  1.00  0.00    -0.132 A  
HETATM   20  N   UNL     1     -12.005  13.845  70.090  1.00  0.00    -0.317 NA 
BRANCH  15  21
HETATM   21  N   UNL     1     -10.573  12.304  66.587  1.00  0.00    -0.225 NA 
HETATM   22  C   UNL     1      -9.564  10.899  64.970  1.00  0.00    -0.299 C  
HETATM   23  C   UNL     1     -11.197  12.590  65.310  1.00  0.00    -0.304 C  
HETATM   24  C   UNL     1      -9.436  11.395  66.433  1.00  0.00    -0.204 C  
HETATM   25  C   UNL     1     -10.970  11.307  64.535  1.00  0.00    -0.301 C  
BRANCH  24  26
HETATM   26  C   UNL     1      -9.441  10.339  67.520  1.00  0.00    -0.171 A  
HETATM   27  C   UNL     1      -8.657  10.391  68.677  1.00  0.00    -0.133 A  
HETATM   28  C   UNL     1      -8.634   9.336  69.594  1.00  0.00    -0.151 A  
HETATM   29  F   UNL     1      -7.882  11.453  68.936  1.00  0.00    -0.126 F  
HETATM   30  C   UNL     1      -9.395   8.193  69.359  1.00  0.00    -0.155 A  
HETATM   31  C   UNL     1     -10.185   8.129  68.219  1.00  0.00    -0.206 A  
HETATM   32  C   UNL     1     -10.217   9.181  67.311  1.00  0.00    -0.319 A  
HETATM   33  F   UNL     1     -10.915   7.030  67.985  1.00  0.00    -0.256 F  
ENDBRANCH  24  26
ENDBRANCH  15  21
ENDBRANCH  10  12
ENDBRANCH   8  10
ENDBRANCH   6   8
TORSDOF 5
ENDMDL
MODEL       99
REMARK 921   NORMALIZED FREE ENERGY PREDICTED BY IDOCK:   -6.01 KCAL/MOL
REMARK 922        TOTAL FREE ENERGY PREDICTED BY IDOCK:   -9.49 KCAL/MOL
REMARK 923 INTER-LIGAND FREE ENERGY PREDICTED BY IDOCK:   -7.84 KCAL/MOL
REMARK 924 INTRA-LIGAND FREE ENERGY PREDICTED BY IDOCK:   -1.65 KCAL/MOL
REMARK 927      BINDING AFFINITY PREDICTED BY RF-SCORE:    0.00 PKD
ROOT
HETATM    1  O   UNL     1     -10.999   5.788  67.170  1.00  0.00    -0.435 OA 
HETATM    2  H   UNL     1     -11.478   6.311  66.538  1.00  0.00     0.000 HD 
HETATM    3  C   UNL     1     -11.200   6.268  68.489  1.00  0.00    -0.209 C  
HETATM    4  C   UNL     1     -10.432   5.430  69.504  1.00  0.00    -0.343 C  
HETATM    5  C   UNL     1     -10.290   6.374  70.679  1.00  0.00    -0.198 C  
HETATM    6  N   UNL     1     -10.160   7.690  70.077  1.00  0.00    -0.201 N  
HETATM    7  C   UNL     1     -10.626   7.676  68.694  1.00  0.00    -0.130 C  
ENDROOT
BRANCH   6   8
HETATM    8  C   UNL     1      -9.679   8.739  70.843  1.00  0.00    -0.222 C  
HETATM    9  O   UNL     1     -10.462   9.441  71.472  1.00  0.00    -0.337 OA 
BRANCH   8  10
HETATM   10  N   UNL     1      -8.315   8.904  70.777  1.00  0.00    -0.157 N  
HETATM   11  H   UNL     1      -7.742   8.176  71.204  1.00  0.00     0.000 HD 
BRANCH  10  12
HETATM   12  C   UNL     1      -7.642   9.967  70.186  1.00  0.00    -0.155 A  
HETATM   13  C   UNL     1      -8.027  10.870  69.204  1.00  0.00    -0.112 A  
HETATM   14  N   UNL     1      -9.182  11.071  68.483  1.00  0.00    -0.171 NA 
HETATM   15  C   UNL     1      -9.175  11.982  67.541  1.00  0.00    -0.180 A  
HETATM   16  C   UNL     1      -6.328  10.355  70.532  1.00  0.00    -0.101 A  
HETATM   17  C   UNL     1      -8.002  12.889  67.294  1.00  0.00    -0.151 A  
HETATM   18  N   UNL     1      -5.872  11.380  69.821  1.00  0.00    -0.085 NA 
HETATM   19  C   UNL     1      -6.917  12.696  68.050  1.00  0.00    -0.099 A  
HETATM   20  N   UNL     1      -6.906  11.691  69.000  1.00  0.00    -0.098 NA 
BRANCH  15  21
HETATM   21  N   UNL     1     -10.261  12.180  66.719  1.00  0.00    -0.202 NA 
HETATM   22  C   UNL     1     -12.339  12.861  65.814  1.00  0.00    -0.437 C  
HETATM   23  C   UNL     1     -10.204  11.967  65.287  1.00  0.00    -0.271 C  
HETATM   24  C   UNL     1     -11.606  12.568  67.148  1.00  0.00    -0.368 C  
HETATM   25  C   UNL     1     -11.234  12.949  64.764  1.00  0.00    -0.336 C  
BRANCH  24  26
HETATM   26  C   UNL     1     -11.544  13.693  68.160  1.00  0.00    -0.367 A  
HETATM   27  C   UNL     1     -11.835  13.550  69.521  1.00  0.00    -0.334 A  
HETATM   28  C   UNL     1     -11.856  14.649  70.384  1.00  0.00    -0.365 A  
HETATM   29  F   UNL     1     -12.126  12.349  70.040  1.00  0.00    -0.351 F  
HETATM   30  C   UNL     1     -11.594  15.925  69.894  1.00  0.00    -0.337 A  
HETATM   31  C   UNL     1     -11.295  16.084  68.547  1.00  0.00    -0.382 A  
HETATM   32  C   UNL     1     -11.264  14.991  67.688  1.00  0.00    -0.331 A  
HETATM   33  F   UNL     1     -11.048  17.310  68.067  1.00  0.00    -0.373 F  
ENDBRANCH  24  26
ENDBRANCH  15  21
ENDBRANCH  10  12
ENDBRANCH   8  10
ENDBRANCH   6   8
TORSDOF 5
ENDMDL
MODEL      100
REMARK 921   NORMALIZED FREE ENERGY PREDICTED BY IDOCK:   -6.00 KCAL/MOL
REMARK 922        TOTAL FREE ENERGY PREDICTED BY IDOCK:   -9.48 KCAL/MOL
REMARK 923 INTER-LIGAND FREE ENERGY PREDICTED BY IDOCK:   -8.10 KCAL/MOL
REMARK 924 INTRA-LIGAND FREE ENERGY PREDICTED BY IDOCK:   -1.38 KCAL/MOL
REMARK 927      BINDING AFFINITY PREDICTED BY RF-SCORE:    0.00 PKD
ROOT
HETATM    1  O   UNL     1      -8.602   5.765  73.054  1.00  0.00    -0.121 OA 
HETATM    2  H   UNL     1      -8.206   5.106  72.496  1.00  0.00     0.000 HD 
HETATM    3  C   UNL     1      -9.844   6.203  72.531  1.00  0.00    -0.167 C  
HETATM    4  C   UNL     1     -10.478   7.261  73.427  1.00  0.00    -0.423 C  
HETATM    5  C   UNL     1     -11.413   7.984  72.481  1.00  0.00    -0.409 C  
HETATM    6  N   UNL     1     -10.732   7.953  71.197  1.00  0.00    -0.225 N  
HETATM    7  C   UNL     1      -9.690   6.930  71.189  1.00  0.00    -0.173 C  
ENDROOT
BRANCH   6   8
HETATM    8  C   UNL     1     -11.146   8.810  70.191  1.00  0.00    -0.202 C  
HETATM    9  O   UNL     1     -10.459   8.943  69.185  1.00  0.00    -0.224 OA 
BRANCH   8  10
HETATM   10  N   UNL     1     -12.318   9.474  70.466  1.00  0.00    -0.484 N  
HETATM   11  H   UNL     1     -13.160   8.906  70.552  1.00  0.00     0.000 HD 
BRANCH  10  12
HETATM   12  C   UNL     1     -12.466  10.846  70.638  1.00  0.00    -0.369 A  
HETATM   13  C   UNL     1     -12.331  11.906  69.752  1.00  0.00    -0.071 A  
HETATM   14  N   UNL     1     -12.033  12.006  68.412  1.00  0.00    -0.423 NA 
HETATM   15  C   UNL     1     -11.890  13.202  67.895  1.00  0.00    -0.348 A  
HETATM   16  C   UNL     1     -12.833  11.449  71.862  1.00  0.00    -0.275 A  
HETATM   17  C   UNL     1     -12.147  14.461  68.675  1.00  0.00    -0.274 A  
HETATM   18  N   UNL     1     -12.890  12.775  71.806  1.00  0.00    -0.280 NA 
HETATM   19  C   UNL     1     -12.484  14.321  69.960  1.00  0.00    -0.300 A  
HETATM   20  N   UNL     1     -12.572  13.059  70.517  1.00  0.00    -0.204 NA 
BRANCH  15  21
HETATM   21  N   UNL     1     -11.506  13.382  66.587  1.00  0.00    -0.330 NA 
HETATM   22  C   UNL     1     -10.292  13.880  64.616  1.00  0.00    -0.366 C  
HETATM   23  C   UNL     1     -12.204  12.766  65.477  1.00  0.00    -0.463 C  
HETATM   24  C   UNL     1     -10.411  14.234  66.121  1.00  0.00    -0.299 C  
HETATM   25  C   UNL     1     -11.106  12.600  64.444  1.00  0.00    -0.385 C  
BRANCH  24  26
HETATM   26  C   UNL     1      -9.173  14.034  66.973  1.00  0.00    -0.262 A  
HETATM   27  C   UNL     1      -8.608  12.789  67.266  1.00  0.00    -0.197 A  
HETATM   28  C   UNL     1      -7.524  12.665  68.140  1.00  0.00    -0.122 A  
HETATM   29  F   UNL     1      -9.104  11.664  66.732  1.00  0.00    -0.164 F  
HETATM   30  C   UNL     1      -6.988  13.797  68.750  1.00  0.00    -0.109 A  
HETATM   31  C   UNL     1      -7.532  15.041  68.463  1.00  0.00    -0.119 A  
HETATM   32  C   UNL     1      -8.605  15.168  67.586  1.00  0.00    -0.180 A  
HETATM   33  F   UNL     1      -7.026  16.133  69.051  1.00  0.00    -0.134 F  
ENDBRANCH  24  26
ENDBRANCH  15  21
ENDBRANCH  10  12
ENDBRANCH   8  10
ENDBRANCH   6   8
TORSDOF 5
ENDMDL
MODEL      101
REMARK 921   NORMALIZED FREE ENERGY PREDICTED BY IDOCK:   -5.99 KCAL/MOL
REMARK 922        TOTAL FREE ENERGY PREDICTED BY IDOCK:   -9.47 KCAL/MOL
REMARK 923 INTER-LIGAND FREE ENERGY PREDICTED BY IDOCK:   -7.69 KCAL/MOL
REMARK 924 INTRA-LIGAND FREE ENERGY PREDICTED BY IDOCK:   -1.78 KCAL/MOL
REMARK 927      BINDING AFFINITY PREDICTED BY RF-SCORE:    0.00 PKD
ROOT
HETATM    1  O   UNL     1      -6.336  11.011  65.509  1.00  0.00    -0.357 OA 
HETATM    2  H   UNL     1      -5.765  11.508  64.934  1.00  0.00     0.000 HD 
HETATM    3  C   UNL     1      -6.922  11.843  66.495  1.00  0.00     0.200 C  
HETATM    4  C   UNL     1      -7.838  11.045  67.417  1.00  0.00    -0.118 C  
HETATM    5  C   UNL     1      -7.889  11.904  68.662  1.00  0.00    -0.104 C  
HETATM    6  N   UNL     1      -6.570  12.509  68.745  1.00  0.00    -0.083 N  
HETATM    7  C   UNL     1      -5.883  12.429  67.459  1.00  0.00    -0.142 C  
ENDROOT
BRANCH   6   8
HETATM    8  C   UNL     1      -6.163  13.083  69.938  1.00  0.00    -0.089 C  
HETATM    9  O   UNL     1      -5.843  12.367  70.880  1.00  0.00    -0.321 OA 
BRANCH   8  10
HETATM   10  N   UNL     1      -6.202  14.458  69.941  1.00  0.00    -0.138 N  
HETATM   11  H   UNL     1      -5.602  14.934  70.614  1.00  0.00     0.000 HD 
BRANCH  10  12
HETATM   12  C   UNL     1      -6.981  15.262  69.116  1.00  0.00    -0.148 A  
HETATM   13  C   UNL     1      -8.316  15.636  69.187  1.00  0.00    -0.251 A  
HETATM   14  N   UNL     1      -9.337  15.387  70.076  1.00  0.00    -0.023 NA 
HETATM   15  C   UNL     1     -10.535  15.832  69.785  1.00  0.00    -0.317 A  
HETATM   16  C   UNL     1      -6.490  15.910  67.960  1.00  0.00    -0.133 A  
HETATM   17  C   UNL     1     -10.814  16.694  68.585  1.00  0.00    -0.344 A  
HETATM   18  N   UNL     1      -7.414  16.605  67.307  1.00  0.00    -0.153 NA 
HETATM   19  C   UNL     1      -9.786  16.955  67.773  1.00  0.00    -0.250 A  
HETATM   20  N   UNL     1      -8.536  16.431  68.050  1.00  0.00    -0.182 NA 
BRANCH  15  21
HETATM   21  N   UNL     1     -11.623  15.549  70.577  1.00  0.00    -0.312 NA 
HETATM   22  C   UNL     1     -13.528  14.541  71.558  1.00  0.00    -0.449 C  
HETATM   23  C   UNL     1     -11.831  16.173  71.869  1.00  0.00    -0.525 C  
HETATM   24  C   UNL     1     -12.728  14.652  70.235  1.00  0.00    -0.273 C  
HETATM   25  C   UNL     1     -12.602  15.112  72.630  1.00  0.00    -0.466 C  
BRANCH  24  26
HETATM   26  C   UNL     1     -12.207  13.361  69.636  1.00  0.00    -0.279 A  
HETATM   27  C   UNL     1     -12.024  13.141  68.267  1.00  0.00    -0.291 A  
HETATM   28  C   UNL     1     -11.634  11.894  67.772  1.00  0.00    -0.393 A  
HETATM   29  F   UNL     1     -12.238  14.121  67.377  1.00  0.00    -0.412 F  
HETATM   30  C   UNL     1     -11.428  10.830  68.647  1.00  0.00    -0.365 A  
HETATM   31  C   UNL     1     -11.598  11.033  70.010  1.00  0.00    -0.344 A  
HETATM   32  C   UNL     1     -11.977  12.277  70.506  1.00  0.00    -0.296 A  
HETATM   33  F   UNL     1     -11.408  10.013  70.857  1.00  0.00    -0.333 F  
ENDBRANCH  24  26
ENDBRANCH  15  21
ENDBRANCH  10  12
ENDBRANCH   8  10
ENDBRANCH   6   8
TORSDOF 5
ENDMDL
MODEL      102
REMARK 921   NORMALIZED FREE ENERGY PREDICTED BY IDOCK:   -5.98 KCAL/MOL
REMARK 922        TOTAL FREE ENERGY PREDICTED BY IDOCK:   -9.46 KCAL/MOL
REMARK 923 INTER-LIGAND FREE ENERGY PREDICTED BY IDOCK:   -8.72 KCAL/MOL
REMARK 924 INTRA-LIGAND FREE ENERGY PREDICTED BY IDOCK:   -0.74 KCAL/MOL
REMARK 927      BINDING AFFINITY PREDICTED BY RF-SCORE:    0.00 PKD
ROOT
HETATM    1  O   UNL     1     -12.624  16.779  74.271  1.00  0.00    -0.638 OA 
HETATM    2  H   UNL     1     -11.853  16.675  74.816  1.00  0.00     0.000 HD 
HETATM    3  C   UNL     1     -12.873  15.611  73.506  1.00  0.00    -0.572 C  
HETATM    4  C   UNL     1     -14.110  15.778  72.632  1.00  0.00    -0.482 C  
HETATM    5  C   UNL     1     -13.886  14.757  71.537  1.00  0.00    -0.450 C  
HETATM    6  N   UNL     1     -12.446  14.739  71.342  1.00  0.00    -0.315 N  
HETATM    7  C   UNL     1     -11.761  15.331  72.487  1.00  0.00    -0.434 C  
ENDROOT
BRANCH   6   8
HETATM    8  C   UNL     1     -11.927  14.167  70.192  1.00  0.00    -0.332 C  
HETATM    9  O   UNL     1     -11.032  14.739  69.580  1.00  0.00    -0.257 OA 
BRANCH   8  10
HETATM   10  N   UNL     1     -12.529  12.986  69.830  1.00  0.00    -0.080 N  
HETATM   11  H   UNL     1     -13.325  13.050  69.196  1.00  0.00     0.000 HD 
BRANCH  10  12
HETATM   12  C   UNL     1     -12.158  11.711  70.245  1.00  0.00    -0.358 A  
HETATM   13  C   UNL     1     -11.466  10.697  69.598  1.00  0.00    -0.291 A  
HETATM   14  N   UNL     1     -10.883  10.571  68.357  1.00  0.00    -0.222 NA 
HETATM   15  C   UNL     1     -10.378   9.408  68.024  1.00  0.00    -0.220 A  
HETATM   16  C   UNL     1     -12.436  11.191  71.529  1.00  0.00    -0.250 A  
HETATM   17  C   UNL     1     -10.308   8.248  68.977  1.00  0.00    -0.233 A  
HETATM   18  N   UNL     1     -12.014   9.943  71.700  1.00  0.00    -0.388 NA 
HETATM   19  C   UNL     1     -10.839   8.426  70.190  1.00  0.00    -0.236 A  
HETATM   20  N   UNL     1     -11.428   9.634  70.516  1.00  0.00    -0.272 NA 
BRANCH  15  21
HETATM   21  N   UNL     1      -9.859   9.179  66.771  1.00  0.00    -0.205 NA 
HETATM   22  C   UNL     1      -8.888   9.426  64.626  1.00  0.00    -0.238 C  
HETATM   23  C   UNL     1      -9.418   7.868  66.338  1.00  0.00    -0.192 C  
HETATM   24  C   UNL     1      -9.725  10.167  65.700  1.00  0.00    -0.259 C  
HETATM   25  C   UNL     1      -8.326   8.198  65.339  1.00  0.00    -0.163 C  
BRANCH  24  26
HETATM   26  C   UNL     1      -9.159  11.467  66.236  1.00  0.00    -0.211 A  
HETATM   27  C   UNL     1      -7.987  11.567  66.993  1.00  0.00    -0.161 A  
HETATM   28  C   UNL     1      -7.571  12.784  67.541  1.00  0.00    -0.162 A  
HETATM   29  F   UNL     1      -7.230  10.488  67.236  1.00  0.00    -0.084 F  
HETATM   30  C   UNL     1      -8.336  13.932  67.348  1.00  0.00    -0.208 A  
HETATM   31  C   UNL     1      -9.498  13.852  66.593  1.00  0.00    -0.285 A  
HETATM   32  C   UNL     1      -9.908  12.644  66.038  1.00  0.00    -0.260 A  
HETATM   33  F   UNL     1     -10.241  14.950  66.408  1.00  0.00    -0.257 F  
ENDBRANCH  24  26
ENDBRANCH  15  21
ENDBRANCH  10  12
ENDBRANCH   8  10
ENDBRANCH   6   8
TORSDOF 5
ENDMDL
MODEL      103
REMARK 921   NORMALIZED FREE ENERGY PREDICTED BY IDOCK:   -5.97 KCAL/MOL
REMARK 922        TOTAL FREE ENERGY PREDICTED BY IDOCK:   -9.45 KCAL/MOL
REMARK 923 INTER-LIGAND FREE ENERGY PREDICTED BY IDOCK:   -8.00 KCAL/MOL
REMARK 924 INTRA-LIGAND FREE ENERGY PREDICTED BY IDOCK:   -1.45 KCAL/MOL
REMARK 927      BINDING AFFINITY PREDICTED BY RF-SCORE:    0.00 PKD
ROOT
HETATM    1  O   UNL     1     -10.381  20.089  65.966  1.00  0.00    -0.471 OA 
HETATM    2  H   UNL     1     -10.944  19.755  65.278  1.00  0.00     0.000 HD 
HETATM    3  C   UNL     1      -9.433  19.115  66.370  1.00  0.00    -0.354 C  
HETATM    4  C   UNL     1      -8.530  19.650  67.476  1.00  0.00    -0.346 C  
HETATM    5  C   UNL     1      -8.031  18.385  68.141  1.00  0.00    -0.288 C  
HETATM    6  N   UNL     1      -9.142  17.454  68.039  1.00  0.00    -0.253 N  
HETATM    7  C   UNL     1     -10.092  17.891  67.020  1.00  0.00    -0.340 C  
ENDROOT
BRANCH   6   8
HETATM    8  C   UNL     1      -9.150  16.322  68.837  1.00  0.00    -0.250 C  
HETATM    9  O   UNL     1     -10.218  15.813  69.158  1.00  0.00    -0.203 OA 
BRANCH   8  10
HETATM   10  N   UNL     1      -7.901  15.900  69.226  1.00  0.00    -0.226 N  
HETATM   11  H   UNL     1      -7.532  16.292  70.093  1.00  0.00     0.000 HD 
BRANCH  10  12
HETATM   12  C   UNL     1      -7.092  14.991  68.554  1.00  0.00    -0.110 A  
HETATM   13  C   UNL     1      -7.303  13.671  68.179  1.00  0.00    -0.121 A  
HETATM   14  N   UNL     1      -8.357  12.794  68.301  1.00  0.00    -0.167 NA 
HETATM   15  C   UNL     1      -8.183  11.556  67.909  1.00  0.00    -0.134 A  
HETATM   16  C   UNL     1      -5.796  15.295  68.077  1.00  0.00    -0.141 A  
HETATM   17  C   UNL     1      -6.925  11.086  67.231  1.00  0.00    -0.096 A  
HETATM   18  N   UNL     1      -5.193  14.269  67.488  1.00  0.00    -0.329 NA 
HETATM   19  C   UNL     1      -5.944  11.980  67.086  1.00  0.00    -0.153 A  
HETATM   20  N   UNL     1      -6.108  13.270  67.559  1.00  0.00    -0.295 NA 
BRANCH  15  21
HETATM   21  N   UNL     1      -9.157  10.600  68.079  1.00  0.00    -0.144 NA 
HETATM   22  C   UNL     1     -11.141   9.317  67.933  1.00  0.00     0.068 C  
HETATM   23  C   UNL     1      -8.885   9.306  68.672  1.00  0.00    -0.132 C  
HETATM   24  C   UNL     1     -10.576  10.750  67.754  1.00  0.00    -0.228 C  
HETATM   25  C   UNL     1      -9.914   8.413  68.006  1.00  0.00    -0.221 C  
BRANCH  24  26
HETATM   26  C   UNL     1     -10.752  11.393  66.394  1.00  0.00    -0.325 A  
HETATM   27  C   UNL     1     -11.489  12.559  66.159  1.00  0.00    -0.377 A  
HETATM   28  C   UNL     1     -11.694  13.046  64.865  1.00  0.00    -0.381 A  
HETATM   29  F   UNL     1     -12.042  13.239  67.172  1.00  0.00    -0.391 F  
HETATM   30  C   UNL     1     -11.170  12.362  63.771  1.00  0.00    -0.520 A  
HETATM   31  C   UNL     1     -10.429  11.208  63.987  1.00  0.00    -0.383 A  
HETATM   32  C   UNL     1     -10.214  10.726  65.275  1.00  0.00    -0.351 A  
HETATM   33  F   UNL     1      -9.926  10.542  62.940  1.00  0.00    -0.337 F  
ENDBRANCH  24  26
ENDBRANCH  15  21
ENDBRANCH  10  12
ENDBRANCH   8  10
ENDBRANCH   6   8
TORSDOF 5
ENDMDL
MODEL      104
REMARK 921   NORMALIZED FREE ENERGY PREDICTED BY IDOCK:   -5.95 KCAL/MOL
REMARK 922        TOTAL FREE ENERGY PREDICTED BY IDOCK:   -9.42 KCAL/MOL
REMARK 923 INTER-LIGAND FREE ENERGY PREDICTED BY IDOCK:   -7.97 KCAL/MOL
REMARK 924 INTRA-LIGAND FREE ENERGY PREDICTED BY IDOCK:   -1.45 KCAL/MOL
REMARK 927      BINDING AFFINITY PREDICTED BY RF-SCORE:    0.00 PKD
ROOT
HETATM    1  O   UNL     1      -7.532  21.324  67.052  1.00  0.00    -0.743 OA 
HETATM    2  H   UNL     1      -7.167  21.788  67.796  1.00  0.00     0.000 HD 
HETATM    3  C   UNL     1      -8.667  20.563  67.429  1.00  0.00    -0.272 C  
HETATM    4  C   UNL     1      -9.254  19.819  66.235  1.00  0.00    -0.461 C  
HETATM    5  C   UNL     1     -10.016  18.686  66.888  1.00  0.00    -0.345 C  
HETATM    6  N   UNL     1      -9.233  18.349  68.065  1.00  0.00    -0.286 N  
HETATM    7  C   UNL     1      -8.316  19.433  68.405  1.00  0.00    -0.350 C  
ENDROOT
BRANCH   6   8
HETATM    8  C   UNL     1      -9.459  17.141  68.704  1.00  0.00    -0.275 C  
HETATM    9  O   UNL     1      -8.509  16.438  69.029  1.00  0.00    -0.239 OA 
BRANCH   8  10
HETATM   10  N   UNL     1     -10.789  16.836  68.876  1.00  0.00    -0.320 N  
HETATM   11  H   UNL     1     -11.465  17.526  68.549  1.00  0.00     0.000 HD 
BRANCH  10  12
HETATM   12  C   UNL     1     -11.301  15.680  69.454  1.00  0.00    -0.330 A  
HETATM   13  C   UNL     1     -11.176  14.342  69.104  1.00  0.00    -0.272 A  
HETATM   14  N   UNL     1     -10.507  13.667  68.108  1.00  0.00    -0.240 NA 
HETATM   15  C   UNL     1     -10.683  12.373  68.009  1.00  0.00    -0.223 A  
HETATM   16  C   UNL     1     -12.100  15.671  70.619  1.00  0.00    -0.405 A  
HETATM   17  C   UNL     1     -11.491  11.583  69.001  1.00  0.00    -0.355 A  
HETATM   18  N   UNL     1     -12.502  14.457  70.979  1.00  0.00    -0.330 NA 
HETATM   19  C   UNL     1     -12.083  12.267  69.983  1.00  0.00    -0.273 A  
HETATM   20  N   UNL     1     -11.946  13.642  70.047  1.00  0.00    -0.331 NA 
BRANCH  15  21
HETATM   21  N   UNL     1     -10.120  11.643  66.987  1.00  0.00    -0.207 NA 
HETATM   22  C   UNL     1      -8.603  10.578  65.515  1.00  0.00    -0.187 C  
HETATM   23  C   UNL     1     -10.866  10.659  66.229  1.00  0.00    -0.027 C  
HETATM   24  C   UNL     1      -8.752  11.777  66.486  1.00  0.00    -0.173 C  
HETATM   25  C   UNL     1      -9.792   9.670  65.822  1.00  0.00    -0.373 C  
BRANCH  24  26
HETATM   26  C   UNL     1      -7.765  11.859  67.633  1.00  0.00    -0.141 A  
HETATM   27  C   UNL     1      -7.618  10.881  68.622  1.00  0.00    -0.114 A  
HETATM   28  C   UNL     1      -6.758  11.063  69.709  1.00  0.00    -0.136 A  
HETATM   29  F   UNL     1      -8.317   9.739  68.570  1.00  0.00    -0.104 F  
HETATM   30  C   UNL     1      -6.031  12.244  69.832  1.00  0.00    -0.148 A  
HETATM   31  C   UNL     1      -6.159  13.222  68.855  1.00  0.00    -0.083 A  
HETATM   32  C   UNL     1      -7.006  13.040  67.767  1.00  0.00    -0.143 A  
HETATM   33  F   UNL     1      -5.467  14.363  68.970  1.00  0.00    -0.083 F  
ENDBRANCH  24  26
ENDBRANCH  15  21
ENDBRANCH  10  12
ENDBRANCH   8  10
ENDBRANCH   6   8
TORSDOF 5
ENDMDL
MODEL      105
REMARK 921   NORMALIZED FREE ENERGY PREDICTED BY IDOCK:   -5.95 KCAL/MOL
REMARK 922        TOTAL FREE ENERGY PREDICTED BY IDOCK:   -9.42 KCAL/MOL
REMARK 923 INTER-LIGAND FREE ENERGY PREDICTED BY IDOCK:   -8.07 KCAL/MOL
REMARK 924 INTRA-LIGAND FREE ENERGY PREDICTED BY IDOCK:   -1.34 KCAL/MOL
REMARK 927      BINDING AFFINITY PREDICTED BY RF-SCORE:    0.00 PKD
ROOT
HETATM    1  O   UNL     1      -7.472  10.894  62.936  1.00  0.00    -0.358 OA 
HETATM    2  H   UNL     1      -7.340  10.945  61.996  1.00  0.00     0.000 HD 
HETATM    3  C   UNL     1      -8.814  10.557  63.248  1.00  0.00    -0.210 C  
HETATM    4  C   UNL     1      -9.025  10.475  64.755  1.00  0.00    -0.227 C  
HETATM    5  C   UNL     1     -10.517  10.688  64.895  1.00  0.00    -0.212 C  
HETATM    6  N   UNL     1     -10.858  11.612  63.827  1.00  0.00    -0.391 N  
HETATM    7  C   UNL     1      -9.806  11.644  62.815  1.00  0.00    -0.017 C  
ENDROOT
BRANCH   6   8
HETATM    8  C   UNL     1     -12.071  12.279  63.871  1.00  0.00    -0.506 C  
HETATM    9  O   UNL     1     -13.073  11.748  63.405  1.00  0.00    -0.622 OA 
BRANCH   8  10
HETATM   10  N   UNL     1     -12.002  13.536  64.424  1.00  0.00    -0.403 N  
HETATM   11  H   UNL     1     -12.686  14.220  64.100  1.00  0.00     0.000 HD 
BRANCH  10  12
HETATM   12  C   UNL     1     -11.090  13.965  65.382  1.00  0.00    -0.310 A  
HETATM   13  C   UNL     1     -11.019  13.743  66.750  1.00  0.00    -0.304 A  
HETATM   14  N   UNL     1     -11.775  13.024  67.648  1.00  0.00    -0.354 NA 
HETATM   15  C   UNL     1     -11.473  13.107  68.921  1.00  0.00    -0.298 A  
HETATM   16  C   UNL     1      -9.962  14.765  65.091  1.00  0.00    -0.244 A  
HETATM   17  C   UNL     1     -10.272  13.858  69.425  1.00  0.00     0.235 A  
HETATM   18  N   UNL     1      -9.243  15.079  66.162  1.00  0.00    -0.286 NA 
HETATM   19  C   UNL     1      -9.534  14.501  68.516  1.00  0.00    -0.211 A  
HETATM   20  N   UNL     1      -9.893  14.464  67.182  1.00  0.00    -0.249 NA 
BRANCH  15  21
HETATM   21  N   UNL     1     -12.235  12.490  69.886  1.00  0.00    -0.215 NA 
HETATM   22  C   UNL     1     -13.210  10.909  71.354  1.00  0.00    -0.355 C  
HETATM   23  C   UNL     1     -12.918  13.228  70.930  1.00  0.00    -0.098 C  
HETATM   24  C   UNL     1     -12.512  11.056  69.978  1.00  0.00    -0.250 C  
HETATM   25  C   UNL     1     -12.951  12.232  72.073  1.00  0.00    -0.375 C  
BRANCH  24  26
HETATM   26  C   UNL     1     -11.248  10.249  69.760  1.00  0.00    -0.339 A  
HETATM   27  C   UNL     1     -10.832   9.749  68.521  1.00  0.00    -0.188 A  
HETATM   28  C   UNL     1      -9.707   8.927  68.403  1.00  0.00    -0.175 A  
HETATM   29  F   UNL     1     -11.516  10.027  67.402  1.00  0.00    -0.292 F  
HETATM   30  C   UNL     1      -8.978   8.579  69.537  1.00  0.00    -0.149 A  
HETATM   31  C   UNL     1      -9.371   9.073  70.773  1.00  0.00    -0.249 A  
HETATM   32  C   UNL     1     -10.485   9.899  70.892  1.00  0.00    -0.192 A  
HETATM   33  F   UNL     1      -8.677   8.738  71.868  1.00  0.00    -0.232 F  
ENDBRANCH  24  26
ENDBRANCH  15  21
ENDBRANCH  10  12
ENDBRANCH   8  10
ENDBRANCH   6   8
TORSDOF 5
ENDMDL
MODEL      106
REMARK 921   NORMALIZED FREE ENERGY PREDICTED BY IDOCK:   -5.95 KCAL/MOL
REMARK 922        TOTAL FREE ENERGY PREDICTED BY IDOCK:   -9.41 KCAL/MOL
REMARK 923 INTER-LIGAND FREE ENERGY PREDICTED BY IDOCK:   -8.62 KCAL/MOL
REMARK 924 INTRA-LIGAND FREE ENERGY PREDICTED BY IDOCK:   -0.79 KCAL/MOL
REMARK 927      BINDING AFFINITY PREDICTED BY RF-SCORE:    0.00 PKD
ROOT
HETATM    1  O   UNL     1     -11.574   4.559  65.076  1.00  0.00    -1.101 OA 
HETATM    2  H   UNL     1     -12.345   4.291  65.562  1.00  0.00     0.000 HD 
HETATM    3  C   UNL     1     -10.410   4.487  65.881  1.00  0.00    -0.258 C  
HETATM    4  C   UNL     1      -9.173   4.917  65.101  1.00  0.00    -0.128 C  
HETATM    5  C   UNL     1      -8.211   5.323  66.197  1.00  0.00    -0.110 C  
HETATM    6  N   UNL     1      -9.056   5.886  67.237  1.00  0.00    -0.112 N  
HETATM    7  C   UNL     1     -10.446   5.477  67.052  1.00  0.00    -0.274 C  
ENDROOT
BRANCH   6   8
HETATM    8  C   UNL     1      -8.480   6.657  68.233  1.00  0.00    -0.120 C  
HETATM    9  O   UNL     1      -7.815   6.119  69.111  1.00  0.00    -0.100 OA 
BRANCH   8  10
HETATM   10  N   UNL     1      -8.766   7.999  68.140  1.00  0.00    -0.126 N  
HETATM   11  H   UNL     1      -8.262   8.528  67.429  1.00  0.00     0.000 HD 
BRANCH  10  12
HETATM   12  C   UNL     1      -9.674   8.704  68.923  1.00  0.00    -0.170 A  
HETATM   13  C   UNL     1     -10.490   9.789  68.634  1.00  0.00    -0.208 A  
HETATM   14  N   UNL     1     -10.725  10.542  67.507  1.00  0.00    -0.256 NA 
HETATM   15  C   UNL     1     -11.513  11.585  67.609  1.00  0.00    -0.285 A  
HETATM   16  C   UNL     1      -9.959   8.390  70.271  1.00  0.00    -0.186 A  
HETATM   17  C   UNL     1     -12.255  11.923  68.873  1.00  0.00    -0.065 A  
HETATM   18  N   UNL     1     -10.839   9.211  70.833  1.00  0.00    -0.253 NA 
HETATM   19  C   UNL     1     -12.039  11.138  69.931  1.00  0.00    -0.344 A  
HETATM   20  N   UNL     1     -11.158  10.076  69.836  1.00  0.00    -0.270 NA 
BRANCH  15  21
HETATM   21  N   UNL     1     -11.726  12.436  66.550  1.00  0.00    -0.487 NA 
HETATM   22  C   UNL     1     -11.937  14.348  65.170  1.00  0.00    -0.391 C  
HETATM   23  C   UNL     1     -11.736  11.982  65.174  1.00  0.00    -0.255 C  
HETATM   24  C   UNL     1     -12.019  13.867  66.642  1.00  0.00    -0.442 C  
HETATM   25  C   UNL     1     -11.259  13.206  64.417  1.00  0.00    -0.403 C  
BRANCH  24  26
HETATM   26  C   UNL     1     -11.098  14.543  67.638  1.00  0.00    -0.314 A  
HETATM   27  C   UNL     1      -9.702  14.467  67.602  1.00  0.00    -0.219 A  
HETATM   28  C   UNL     1      -8.912  15.030  68.608  1.00  0.00    -0.186 A  
HETATM   29  F   UNL     1      -9.072  13.828  66.606  1.00  0.00    -0.237 F  
HETATM   30  C   UNL     1      -9.513  15.678  69.685  1.00  0.00    -0.243 A  
HETATM   31  C   UNL     1     -10.898  15.770  69.732  1.00  0.00    -0.314 A  
HETATM   32  C   UNL     1     -11.685  15.218  68.727  1.00  0.00    -0.374 A  
HETATM   33  F   UNL     1     -11.482  16.386  70.767  1.00  0.00    -0.389 F  
ENDBRANCH  24  26
ENDBRANCH  15  21
ENDBRANCH  10  12
ENDBRANCH   8  10
ENDBRANCH   6   8
TORSDOF 5
ENDMDL
MODEL      107
REMARK 921   NORMALIZED FREE ENERGY PREDICTED BY IDOCK:   -5.94 KCAL/MOL
REMARK 922        TOTAL FREE ENERGY PREDICTED BY IDOCK:   -9.41 KCAL/MOL
REMARK 923 INTER-LIGAND FREE ENERGY PREDICTED BY IDOCK:   -7.54 KCAL/MOL
REMARK 924 INTRA-LIGAND FREE ENERGY PREDICTED BY IDOCK:   -1.87 KCAL/MOL
REMARK 927      BINDING AFFINITY PREDICTED BY RF-SCORE:    0.00 PKD
ROOT
HETATM    1  O   UNL     1      -6.413  11.208  67.527  1.00  0.00    -0.062 OA 
HETATM    2  H   UNL     1      -6.912  11.203  66.719  1.00  0.00     0.000 HD 
HETATM    3  C   UNL     1      -6.708  12.357  68.304  1.00  0.00    -0.070 C  
HETATM    4  C   UNL     1      -5.906  12.365  69.601  1.00  0.00    -0.111 C  
HETATM    5  C   UNL     1      -5.897  13.831  69.978  1.00  0.00    -0.137 C  
HETATM    6  N   UNL     1      -5.863  14.536  68.708  1.00  0.00    -0.083 N  
HETATM    7  C   UNL     1      -6.272  13.657  67.617  1.00  0.00    -0.119 C  
ENDROOT
BRANCH   6   8
HETATM    8  C   UNL     1      -5.510  15.876  68.687  1.00  0.00    -0.102 C  
HETATM    9  O   UNL     1      -5.238  16.449  69.736  1.00  0.00    -0.124 OA 
BRANCH   8  10
HETATM   10  N   UNL     1      -5.542  16.446  67.437  1.00  0.00    -0.148 N  
HETATM   11  H   UNL     1      -4.730  16.293  66.839  1.00  0.00     0.000 HD 
BRANCH  10  12
HETATM   12  C   UNL     1      -6.576  17.211  66.907  1.00  0.00    -0.205 A  
HETATM   13  C   UNL     1      -7.938  17.232  67.176  1.00  0.00    -0.205 A  
HETATM   14  N   UNL     1      -8.756  16.550  68.047  1.00  0.00    -0.186 NA 
HETATM   15  C   UNL     1     -10.049  16.754  67.973  1.00  0.00    -0.284 A  
HETATM   16  C   UNL     1      -6.391  18.207  65.922  1.00  0.00    -0.257 A  
HETATM   17  C   UNL     1     -10.660  17.779  67.059  1.00  0.00    -0.266 A  
HETATM   18  N   UNL     1      -7.519  18.796  65.543  1.00  0.00    -0.467 NA 
HETATM   19  C   UNL     1      -9.827  18.457  66.264  1.00  0.00    -0.331 A  
HETATM   20  N   UNL     1      -8.470  18.194  66.301  1.00  0.00    -0.441 NA 
BRANCH  15  21
HETATM   21  N   UNL     1     -10.937  16.046  68.748  1.00  0.00    -0.299 NA 
HETATM   22  C   UNL     1     -12.534  14.486  69.536  1.00  0.00    -0.162 C  
HETATM   23  C   UNL     1     -10.933  16.111  70.196  1.00  0.00    -0.358 C  
HETATM   24  C   UNL     1     -12.019  15.192  68.256  1.00  0.00    -0.159 C  
HETATM   25  C   UNL     1     -11.462  14.745  70.591  1.00  0.00    -0.283 C  
BRANCH  24  26
HETATM   26  C   UNL     1     -11.532  14.303  67.130  1.00  0.00    -0.377 A  
HETATM   27  C   UNL     1     -10.431  13.444  67.219  1.00  0.00    -0.248 A  
HETATM   28  C   UNL     1      -9.974  12.724  66.112  1.00  0.00    -0.272 A  
HETATM   29  F   UNL     1      -9.762  13.300  68.371  1.00  0.00    -0.212 F  
HETATM   30  C   UNL     1     -10.610  12.860  64.881  1.00  0.00    -0.342 A  
HETATM   31  C   UNL     1     -11.709  13.701  64.777  1.00  0.00    -0.377 A  
HETATM   32  C   UNL     1     -12.173  14.412  65.879  1.00  0.00    -0.354 A  
HETATM   33  F   UNL     1     -12.323  13.841  63.594  1.00  0.00    -0.505 F  
ENDBRANCH  24  26
ENDBRANCH  15  21
ENDBRANCH  10  12
ENDBRANCH   8  10
ENDBRANCH   6   8
TORSDOF 5
ENDMDL
MODEL      108
REMARK 921   NORMALIZED FREE ENERGY PREDICTED BY IDOCK:   -5.93 KCAL/MOL
REMARK 922        TOTAL FREE ENERGY PREDICTED BY IDOCK:   -9.39 KCAL/MOL
REMARK 923 INTER-LIGAND FREE ENERGY PREDICTED BY IDOCK:   -7.92 KCAL/MOL
REMARK 924 INTRA-LIGAND FREE ENERGY PREDICTED BY IDOCK:   -1.48 KCAL/MOL
REMARK 927      BINDING AFFINITY PREDICTED BY RF-SCORE:    0.00 PKD
ROOT
HETATM    1  O   UNL     1     -13.770   8.373  71.150  1.00  0.00    -0.555 OA 
HETATM    2  H   UNL     1     -13.883   9.312  71.066  1.00  0.00     0.000 HD 
HETATM    3  C   UNL     1     -12.444   8.048  71.532  1.00  0.00    -0.310 C  
HETATM    4  C   UNL     1     -12.263   6.540  71.666  1.00  0.00    -0.353 C  
HETATM    5  C   UNL     1     -10.769   6.366  71.498  1.00  0.00    -0.238 C  
HETATM    6  N   UNL     1     -10.384   7.398  70.550  1.00  0.00    -0.212 N  
HETATM    7  C   UNL     1     -11.416   8.427  70.458  1.00  0.00    -0.179 C  
ENDROOT
BRANCH   6   8
HETATM    8  C   UNL     1      -9.155   7.312  69.917  1.00  0.00    -0.141 C  
HETATM    9  O   UNL     1      -8.294   6.562  70.363  1.00  0.00    -0.123 OA 
BRANCH   8  10
HETATM   10  N   UNL     1      -9.022   8.145  68.832  1.00  0.00    -0.141 N  
HETATM   11  H   UNL     1      -9.528   7.884  67.986  1.00  0.00     0.000 HD 
BRANCH  10  12
HETATM   12  C   UNL     1      -8.263   9.310  68.776  1.00  0.00    -0.112 A  
HETATM   13  C   UNL     1      -8.543  10.567  68.260  1.00  0.00    -0.127 A  
HETATM   14  N   UNL     1      -9.640  11.135  67.652  1.00  0.00    -0.168 NA 
HETATM   15  C   UNL     1      -9.531  12.356  67.190  1.00  0.00    -0.198 A  
HETATM   16  C   UNL     1      -6.956   9.422  69.302  1.00  0.00    -0.053 A  
HETATM   17  C   UNL     1      -8.303  13.198  67.397  1.00  0.00    -0.188 A  
HETATM   18  N   UNL     1      -6.409  10.617  69.114  1.00  0.00    -0.049 NA 
HETATM   19  C   UNL     1      -7.278  12.629  68.037  1.00  0.00    -0.112 A  
HETATM   20  N   UNL     1      -7.374  11.318  68.467  1.00  0.00    -0.099 NA 
BRANCH  15  21
HETATM   21  N   UNL     1     -10.552  12.958  66.493  1.00  0.00    -0.257 NA 
HETATM   22  C   UNL     1     -12.493  14.171  65.887  1.00  0.00    -0.479 C  
HETATM   23  C   UNL     1     -10.473  13.228  65.071  1.00  0.00    -0.353 C  
HETATM   24  C   UNL     1     -11.851  13.356  67.039  1.00  0.00    -0.394 C  
HETATM   25  C   UNL     1     -11.350  14.455  64.916  1.00  0.00    -0.380 C  
BRANCH  24  26
HETATM   26  C   UNL     1     -11.681  14.063  68.369  1.00  0.00    -0.389 A  
HETATM   27  C   UNL     1     -12.011  13.505  69.609  1.00  0.00    -0.337 A  
HETATM   28  C   UNL     1     -11.923  14.245  70.791  1.00  0.00    -0.390 A  
HETATM   29  F   UNL     1     -12.444  12.240  69.701  1.00  0.00    -0.215 F  
HETATM   30  C   UNL     1     -11.510  15.575  70.751  1.00  0.00    -0.396 A  
HETATM   31  C   UNL     1     -11.171  16.141  69.530  1.00  0.00    -0.337 A  
HETATM   32  C   UNL     1     -11.248  15.404  68.353  1.00  0.00    -0.318 A  
HETATM   33  F   UNL     1     -10.778  17.421  69.483  1.00  0.00    -0.311 F  
ENDBRANCH  24  26
ENDBRANCH  15  21
ENDBRANCH  10  12
ENDBRANCH   8  10
ENDBRANCH   6   8
TORSDOF 5
ENDMDL
MODEL      109
REMARK 921   NORMALIZED FREE ENERGY PREDICTED BY IDOCK:   -5.93 KCAL/MOL
REMARK 922        TOTAL FREE ENERGY PREDICTED BY IDOCK:   -9.39 KCAL/MOL
REMARK 923 INTER-LIGAND FREE ENERGY PREDICTED BY IDOCK:   -8.68 KCAL/MOL
REMARK 924 INTRA-LIGAND FREE ENERGY PREDICTED BY IDOCK:   -0.72 KCAL/MOL
REMARK 927      BINDING AFFINITY PREDICTED BY RF-SCORE:    0.00 PKD
ROOT
HETATM    1  O   UNL     1     -10.120  10.425  62.381  1.00  0.00    -0.743 OA 
HETATM    2  H   UNL     1      -9.342   9.880  62.419  1.00  0.00     0.000 HD 
HETATM    3  C   UNL     1     -10.114  11.397  63.413  1.00  0.00    -0.405 C  
HETATM    4  C   UNL     1     -11.361  12.272  63.353  1.00  0.00    -0.508 C  
HETATM    5  C   UNL     1     -11.466  12.802  64.767  1.00  0.00    -0.317 C  
HETATM    6  N   UNL     1     -10.970  11.721  65.601  1.00  0.00    -0.300 N  
HETATM    7  C   UNL     1     -10.196  10.769  64.810  1.00  0.00    -0.334 C  
ENDROOT
BRANCH   6   8
HETATM    8  C   UNL     1     -11.239  11.738  66.960  1.00  0.00    -0.322 C  
HETATM    9  O   UNL     1     -10.861  10.809  67.666  1.00  0.00    -0.236 OA 
BRANCH   8  10
HETATM   10  N   UNL     1     -11.966  12.828  67.376  1.00  0.00    -0.335 N  
HETATM   11  H   UNL     1     -12.662  13.192  66.725  1.00  0.00     0.000 HD 
BRANCH  10  12
HETATM   12  C   UNL     1     -11.845  13.482  68.597  1.00  0.00    -0.369 A  
HETATM   13  C   UNL     1     -11.462  14.778  68.913  1.00  0.00    -0.297 A  
HETATM   14  N   UNL     1     -11.092  15.879  68.174  1.00  0.00    -0.331 NA 
HETATM   15  C   UNL     1     -10.691  16.950  68.813  1.00  0.00    -0.333 A  
HETATM   16  C   UNL     1     -12.136  12.882  69.842  1.00  0.00    -0.265 A  
HETATM   17  C   UNL     1     -10.726  17.064  70.312  1.00  0.00     0.380 A  
HETATM   18  N   UNL     1     -11.925  13.682  70.881  1.00  0.00    -0.239 NA 
HETATM   19  C   UNL     1     -11.139  15.992  70.993  1.00  0.00    -0.192 A  
HETATM   20  N   UNL     1     -11.501  14.841  70.316  1.00  0.00    -0.264 NA 
BRANCH  15  21
HETATM   21  N   UNL     1     -10.223  18.058  68.145  1.00  0.00    -0.365 NA 
HETATM   22  C   UNL     1      -8.850  19.755  67.229  1.00  0.00    -0.394 C  
HETATM   23  C   UNL     1     -10.985  18.723  67.107  1.00  0.00    -0.161 C  
HETATM   24  C   UNL     1      -8.957  18.747  68.402  1.00  0.00    -0.335 C  
HETATM   25  C   UNL     1      -9.901  19.302  66.219  1.00  0.00    -0.456 C  
BRANCH  24  26
HETATM   26  C   UNL     1      -7.825  17.752  68.558  1.00  0.00    -0.290 A  
HETATM   27  C   UNL     1      -6.673  17.977  69.319  1.00  0.00    -0.209 A  
HETATM   28  C   UNL     1      -5.620  17.058  69.342  1.00  0.00    -0.170 A  
HETATM   29  F   UNL     1      -6.532  19.098  70.039  1.00  0.00    -0.279 F  
HETATM   30  C   UNL     1      -5.698  15.890  68.587  1.00  0.00    -0.101 A  
HETATM   31  C   UNL     1      -6.838  15.647  67.833  1.00  0.00    -0.143 A  
HETATM   32  C   UNL     1      -7.891  16.555  67.816  1.00  0.00    -0.164 A  
HETATM   33  F   UNL     1      -6.917  14.529  67.100  1.00  0.00    -0.200 F  
ENDBRANCH  24  26
ENDBRANCH  15  21
ENDBRANCH  10  12
ENDBRANCH   8  10
ENDBRANCH   6   8
TORSDOF 5
ENDMDL
MODEL      110
REMARK 921   NORMALIZED FREE ENERGY PREDICTED BY IDOCK:   -5.91 KCAL/MOL
REMARK 922        TOTAL FREE ENERGY PREDICTED BY IDOCK:   -9.37 KCAL/MOL
REMARK 923 INTER-LIGAND FREE ENERGY PREDICTED BY IDOCK:   -8.21 KCAL/MOL
REMARK 924 INTRA-LIGAND FREE ENERGY PREDICTED BY IDOCK:   -1.16 KCAL/MOL
REMARK 927      BINDING AFFINITY PREDICTED BY RF-SCORE:    0.00 PKD
ROOT
HETATM    1  O   UNL     1     -13.670  15.709  70.817  1.00  0.00    -0.843 OA 
HETATM    2  H   UNL     1     -13.112  16.247  70.267  1.00  0.00     0.000 HD 
HETATM    3  C   UNL     1     -12.963  14.594  71.332  1.00  0.00    -0.334 C  
HETATM    4  C   UNL     1     -13.859  13.732  72.214  1.00  0.00    -0.679 C  
HETATM    5  C   UNL     1     -13.166  12.386  72.180  1.00  0.00    -0.385 C  
HETATM    6  N   UNL     1     -12.595  12.301  70.846  1.00  0.00    -0.304 N  
HETATM    7  C   UNL     1     -12.520  13.623  70.230  1.00  0.00    -0.265 C  
ENDROOT
BRANCH   6   8
HETATM    8  C   UNL     1     -12.184  11.069  70.364  1.00  0.00    -0.373 C  
HETATM    9  O   UNL     1     -11.777  10.217  71.145  1.00  0.00    -0.352 OA 
BRANCH   8  10
HETATM   10  N   UNL     1     -12.247  10.952  68.996  1.00  0.00    -0.463 N  
HETATM   11  H   UNL     1     -13.176  10.882  68.582  1.00  0.00     0.000 HD 
BRANCH  10  12
HETATM   12  C   UNL     1     -11.165  10.920  68.121  1.00  0.00    -0.301 A  
HETATM   13  C   UNL     1     -10.381   9.871  67.665  1.00  0.00    -0.225 A  
HETATM   14  N   UNL     1     -10.380   8.510  67.872  1.00  0.00    -0.222 NA 
HETATM   15  C   UNL     1      -9.412   7.801  67.344  1.00  0.00    -0.144 A  
HETATM   16  C   UNL     1     -10.645  12.063  67.474  1.00  0.00    -0.221 A  
HETATM   17  C   UNL     1      -8.373   8.394  66.434  1.00  0.00    -0.116 A  
HETATM   18  N   UNL     1      -9.594  11.805  66.704  1.00  0.00    -0.200 NA 
HETATM   19  C   UNL     1      -8.437   9.711  66.217  1.00  0.00    -0.119 A  
HETATM   20  N   UNL     1      -9.423  10.465  66.827  1.00  0.00    -0.163 NA 
BRANCH  15  21
HETATM   21  N   UNL     1      -9.294   6.451  67.580  1.00  0.00    -0.118 NA 
HETATM   22  C   UNL     1      -9.098   4.324  68.601  1.00  0.00    -0.178 C  
HETATM   23  C   UNL     1      -9.605   5.454  66.575  1.00  0.00    -0.156 C  
HETATM   24  C   UNL     1      -8.802   5.832  68.811  1.00  0.00    -0.110 C  
HETATM   25  C   UNL     1     -10.051   4.270  67.410  1.00  0.00    -0.027 C  
BRANCH  24  26
HETATM   26  C   UNL     1      -9.419   6.490  70.028  1.00  0.00    -0.163 A  
HETATM   27  C   UNL     1      -8.757   7.404  70.855  1.00  0.00    -0.144 A  
HETATM   28  C   UNL     1      -9.349   7.900  72.019  1.00  0.00    -0.217 A  
HETATM   29  F   UNL     1      -7.516   7.821  70.565  1.00  0.00    -0.068 F  
HETATM   30  C   UNL     1     -10.624   7.477  72.387  1.00  0.00    -0.299 A  
HETATM   31  C   UNL     1     -11.299   6.576  71.574  1.00  0.00    -0.291 A  
HETATM   32  C   UNL     1     -10.715   6.089  70.409  1.00  0.00    -0.358 A  
HETATM   33  F   UNL     1     -12.523   6.161  71.924  1.00  0.00    -0.373 F  
ENDBRANCH  24  26
ENDBRANCH  15  21
ENDBRANCH  10  12
ENDBRANCH   8  10
ENDBRANCH   6   8
TORSDOF 5
ENDMDL
MODEL      111
REMARK 921   NORMALIZED FREE ENERGY PREDICTED BY IDOCK:   -5.90 KCAL/MOL
REMARK 922        TOTAL FREE ENERGY PREDICTED BY IDOCK:   -9.35 KCAL/MOL
REMARK 923 INTER-LIGAND FREE ENERGY PREDICTED BY IDOCK:   -7.63 KCAL/MOL
REMARK 924 INTRA-LIGAND FREE ENERGY PREDICTED BY IDOCK:   -1.73 KCAL/MOL
REMARK 927      BINDING AFFINITY PREDICTED BY RF-SCORE:    0.00 PKD
ROOT
HETATM    1  O   UNL     1     -12.223  14.364  67.744  1.00  0.00    -0.599 OA 
HETATM    2  H   UNL     1     -12.859  14.176  68.424  1.00  0.00     0.000 HD 
HETATM    3  C   UNL     1     -11.571  13.183  67.310  1.00  0.00    -0.355 C  
HETATM    4  C   UNL     1     -10.550  13.485  66.219  1.00  0.00    -0.288 C  
HETATM    5  C   UNL     1      -9.610  12.303  66.305  1.00  0.00    -0.242 C  
HETATM    6  N   UNL     1      -9.580  11.959  67.716  1.00  0.00    -0.185 N  
HETATM    7  C   UNL     1     -10.721  12.543  68.415  1.00  0.00    -0.240 C  
ENDROOT
BRANCH   6   8
HETATM    8  C   UNL     1      -8.567  11.143  68.193  1.00  0.00    -0.140 C  
HETATM    9  O   UNL     1      -8.009  11.420  69.249  1.00  0.00    -0.014 OA 
BRANCH   8  10
HETATM   10  N   UNL     1      -8.263  10.086  67.369  1.00  0.00    -0.117 N  
HETATM   11  H   UNL     1      -7.451  10.194  66.761  1.00  0.00     0.000 HD 
BRANCH  10  12
HETATM   12  C   UNL     1      -8.955   8.882  67.283  1.00  0.00    -0.128 A  
HETATM   13  C   UNL     1      -9.382   7.994  68.260  1.00  0.00    -0.140 A  
HETATM   14  N   UNL     1      -9.311   7.969  69.635  1.00  0.00    -0.156 NA 
HETATM   15  C   UNL     1      -9.746   6.903  70.260  1.00  0.00    -0.172 A  
HETATM   16  C   UNL     1      -9.397   8.315  66.067  1.00  0.00    -0.149 A  
HETATM   17  C   UNL     1     -10.419   5.761  69.550  1.00  0.00    -0.364 A  
HETATM   18  N   UNL     1     -10.014   7.149  66.217  1.00  0.00     0.008 NA 
HETATM   19  C   UNL     1     -10.514   5.845  68.220  1.00  0.00    -0.236 A  
HETATM   20  N   UNL     1      -9.997   6.943  67.558  1.00  0.00    -0.139 NA 
BRANCH  15  21
HETATM   21  N   UNL     1      -9.628   6.767  71.623  1.00  0.00    -0.162 NA 
HETATM   22  C   UNL     1      -9.952   6.908  73.965  1.00  0.00    -0.371 C  
HETATM   23  C   UNL     1      -8.843   5.714  72.237  1.00  0.00    -0.132 C  
HETATM   24  C   UNL     1     -10.206   7.657  72.631  1.00  0.00    -0.265 C  
HETATM   25  C   UNL     1      -9.560   5.491  73.555  1.00  0.00    -0.140 C  
BRANCH  24  26
HETATM   26  C   UNL     1     -11.646   7.989  72.293  1.00  0.00    -0.424 A  
HETATM   27  C   UNL     1     -12.658   7.039  72.125  1.00  0.00    -0.123 A  
HETATM   28  C   UNL     1     -13.944   7.404  71.716  1.00  0.00    -0.469 A  
HETATM   29  F   UNL     1     -12.421   5.736  72.331  1.00  0.00    -0.337 F  
HETATM   30  C   UNL     1     -14.239   8.740  71.456  1.00  0.00    -0.364 A  
HETATM   31  C   UNL     1     -13.248   9.697  71.626  1.00  0.00    -0.411 A  
HETATM   32  C   UNL     1     -11.970   9.337  72.042  1.00  0.00    -0.391 A  
HETATM   33  F   UNL     1     -13.523  10.983  71.372  1.00  0.00    -0.380 F  
ENDBRANCH  24  26
ENDBRANCH  15  21
ENDBRANCH  10  12
ENDBRANCH   8  10
ENDBRANCH   6   8
TORSDOF 5
ENDMDL
MODEL      112
REMARK 921   NORMALIZED FREE ENERGY PREDICTED BY IDOCK:   -5.90 KCAL/MOL
REMARK 922        TOTAL FREE ENERGY PREDICTED BY IDOCK:   -9.35 KCAL/MOL
REMARK 923 INTER-LIGAND FREE ENERGY PREDICTED BY IDOCK:   -7.77 KCAL/MOL
REMARK 924 INTRA-LIGAND FREE ENERGY PREDICTED BY IDOCK:   -1.58 KCAL/MOL
REMARK 927      BINDING AFFINITY PREDICTED BY RF-SCORE:    0.00 PKD
ROOT
HETATM    1  O   UNL     1      -9.491   5.597  74.555  1.00  0.00    -0.134 OA 
HETATM    2  H   UNL     1     -10.135   5.010  74.934  1.00  0.00     0.000 HD 
HETATM    3  C   UNL     1     -10.107   6.749  74.006  1.00  0.00    -0.359 C  
HETATM    4  C   UNL     1      -9.074   7.690  73.398  1.00  0.00    -0.296 C  
HETATM    5  C   UNL     1      -9.894   8.494  72.412  1.00  0.00    -0.288 C  
HETATM    6  N   UNL     1     -10.895   7.562  71.922  1.00  0.00    -0.223 N  
HETATM    7  C   UNL     1     -11.018   6.415  72.818  1.00  0.00    -0.257 C  
ENDROOT
BRANCH   6   8
HETATM    8  C   UNL     1     -11.594   7.866  70.765  1.00  0.00    -0.247 C  
HETATM    9  O   UNL     1     -11.191   7.453  69.684  1.00  0.00    -0.171 OA 
BRANCH   8  10
HETATM   10  N   UNL     1     -12.693   8.667  70.968  1.00  0.00    -0.493 N  
HETATM   11  H   UNL     1     -13.579   8.197  71.153  1.00  0.00     0.000 HD 
BRANCH  10  12
HETATM   12  C   UNL     1     -12.715  10.058  70.944  1.00  0.00    -0.325 A  
HETATM   13  C   UNL     1     -12.340  10.969  69.966  1.00  0.00    -0.305 A  
HETATM   14  N   UNL     1     -11.844  10.856  68.687  1.00  0.00    -0.468 NA 
HETATM   15  C   UNL     1     -11.500  11.951  68.056  1.00  0.00    -0.323 A  
HETATM   16  C   UNL     1     -13.185  10.854  72.013  1.00  0.00    -0.351 A  
HETATM   17  C   UNL     1     -11.728  13.324  68.624  1.00  0.00    -0.376 A  
HETATM   18  N   UNL     1     -13.089  12.159  71.785  1.00  0.00    -0.420 NA 
HETATM   19  C   UNL     1     -12.258  13.393  69.848  1.00  0.00    -0.271 A  
HETATM   20  N   UNL     1     -12.561  12.233  70.537  1.00  0.00    -0.156 NA 
BRANCH  15  21
HETATM   21  N   UNL     1     -10.915  11.914  66.811  1.00  0.00    -0.277 NA 
HETATM   22  C   UNL     1      -9.442  11.546  64.995  1.00  0.00    -0.174 C  
HETATM   23  C   UNL     1     -11.669  12.115  65.589  1.00  0.00    -0.323 C  
HETATM   24  C   UNL     1      -9.490  11.730  66.534  1.00  0.00    -0.214 C  
HETATM   25  C   UNL     1     -10.889  11.296  64.580  1.00  0.00    -0.354 C  
BRANCH  24  26
HETATM   26  C   UNL     1      -8.919  10.608  67.378  1.00  0.00    -0.138 A  
HETATM   27  C   UNL     1      -8.139  10.799  68.523  1.00  0.00    -0.133 A  
HETATM   28  C   UNL     1      -7.560   9.722  69.201  1.00  0.00    -0.085 A  
HETATM   29  F   UNL     1      -7.903  12.029  68.999  1.00  0.00    -0.101 F  
HETATM   30  C   UNL     1      -7.744   8.424  68.733  1.00  0.00    -0.102 A  
HETATM   31  C   UNL     1      -8.522   8.216  67.602  1.00  0.00    -0.131 A  
HETATM   32  C   UNL     1      -9.108   9.285  66.931  1.00  0.00    -0.158 A  
HETATM   33  F   UNL     1      -8.698   6.971  67.143  1.00  0.00    -0.117 F  
ENDBRANCH  24  26
ENDBRANCH  15  21
ENDBRANCH  10  12
ENDBRANCH   8  10
ENDBRANCH   6   8
TORSDOF 5
ENDMDL
MODEL      113
REMARK 921   NORMALIZED FREE ENERGY PREDICTED BY IDOCK:   -5.89 KCAL/MOL
REMARK 922        TOTAL FREE ENERGY PREDICTED BY IDOCK:   -9.35 KCAL/MOL
REMARK 923 INTER-LIGAND FREE ENERGY PREDICTED BY IDOCK:   -7.84 KCAL/MOL
REMARK 924 INTRA-LIGAND FREE ENERGY PREDICTED BY IDOCK:   -1.51 KCAL/MOL
REMARK 927      BINDING AFFINITY PREDICTED BY RF-SCORE:    0.00 PKD
ROOT
HETATM    1  O   UNL     1     -11.655  16.476  63.831  1.00  0.00    -1.598 OA 
HETATM    2  H   UNL     1     -11.575  16.154  62.940  1.00  0.00     0.000 HD 
HETATM    3  C   UNL     1     -10.689  15.881  64.680  1.00  0.00    -0.078 C  
HETATM    4  C   UNL     1     -10.818  16.397  66.109  1.00  0.00    -0.075 C  
HETATM    5  C   UNL     1     -10.166  15.299  66.921  1.00  0.00    -0.268 C  
HETATM    6  N   UNL     1     -10.483  14.075  66.205  1.00  0.00    -0.290 N  
HETATM    7  C   UNL     1     -10.897  14.369  64.836  1.00  0.00    -0.416 C  
ENDROOT
BRANCH   6   8
HETATM    8  C   UNL     1     -10.330  12.857  66.846  1.00  0.00    -0.243 C  
HETATM    9  O   UNL     1      -9.229  12.320  66.876  1.00  0.00    -0.197 OA 
BRANCH   8  10
HETATM   10  N   UNL     1     -11.495  12.347  67.368  1.00  0.00    -0.329 N  
HETATM   11  H   UNL     1     -12.287  12.264  66.732  1.00  0.00     0.000 HD 
BRANCH  10  12
HETATM   12  C   UNL     1     -11.698  11.934  68.681  1.00  0.00    -0.323 A  
HETATM   13  C   UNL     1     -11.429  10.732  69.320  1.00  0.00    -0.298 A  
HETATM   14  N   UNL     1     -10.861   9.541  68.928  1.00  0.00    -0.190 NA 
HETATM   15  C   UNL     1     -10.844   8.550  69.785  1.00  0.00    -0.175 A  
HETATM   16  C   UNL     1     -12.251  12.758  69.687  1.00  0.00    -0.126 A  
HETATM   17  C   UNL     1     -11.314   8.694  71.206  1.00  0.00    -0.341 A  
HETATM   18  N   UNL     1     -12.379  12.150  70.861  1.00  0.00    -0.347 NA 
HETATM   19  C   UNL     1     -11.812   9.881  71.563  1.00  0.00    -0.365 A  
HETATM   20  N   UNL     1     -11.886  10.906  70.637  1.00  0.00    -0.347 NA 
BRANCH  15  21
HETATM   21  N   UNL     1     -10.375   7.304  69.440  1.00  0.00    -0.202 NA 
HETATM   22  C   UNL     1      -8.998   5.432  68.985  1.00  0.00    -0.121 C  
HETATM   23  C   UNL     1     -11.230   6.134  69.393  1.00  0.00    -0.396 C  
HETATM   24  C   UNL     1      -9.008   6.982  69.027  1.00  0.00    -0.133 C  
HETATM   25  C   UNL     1     -10.268   5.007  69.718  1.00  0.00    -0.336 C  
BRANCH  24  26
HETATM   26  C   UNL     1      -8.000   7.651  69.939  1.00  0.00    -0.115 A  
HETATM   27  C   UNL     1      -7.904   7.422  71.316  1.00  0.00    -0.095 A  
HETATM   28  C   UNL     1      -7.017   8.146  72.118  1.00  0.00    -0.090 A  
HETATM   29  F   UNL     1      -8.680   6.510  71.918  1.00  0.00    -0.128 F  
HETATM   30  C   UNL     1      -6.209   9.129  71.551  1.00  0.00    -0.069 A  
HETATM   31  C   UNL     1      -6.286   9.363  70.185  1.00  0.00    -0.055 A  
HETATM   32  C   UNL     1      -7.161   8.638  69.383  1.00  0.00    -0.053 A  
HETATM   33  F   UNL     1      -5.516  10.311  69.635  1.00  0.00    -0.037 F  
ENDBRANCH  24  26
ENDBRANCH  15  21
ENDBRANCH  10  12
ENDBRANCH   8  10
ENDBRANCH   6   8
TORSDOF 5
ENDMDL
MODEL      114
REMARK 921   NORMALIZED FREE ENERGY PREDICTED BY IDOCK:   -5.89 KCAL/MOL
REMARK 922        TOTAL FREE ENERGY PREDICTED BY IDOCK:   -9.35 KCAL/MOL
REMARK 923 INTER-LIGAND FREE ENERGY PREDICTED BY IDOCK:   -8.08 KCAL/MOL
REMARK 924 INTRA-LIGAND FREE ENERGY PREDICTED BY IDOCK:   -1.27 KCAL/MOL
REMARK 927      BINDING AFFINITY PREDICTED BY RF-SCORE:    0.00 PKD
ROOT
HETATM    1  O   UNL     1     -10.542  19.785  68.125  1.00  0.00    -0.413 OA 
HETATM    2  H   UNL     1     -11.334  19.849  67.604  1.00  0.00     0.000 HD 
HETATM    3  C   UNL     1      -9.702  18.744  67.655  1.00  0.00    -0.310 C  
HETATM    4  C   UNL     1      -8.431  18.641  68.491  1.00  0.00    -0.367 C  
HETATM    5  C   UNL     1      -7.985  17.216  68.247  1.00  0.00    -0.236 C  
HETATM    6  N   UNL     1      -9.221  16.465  68.102  1.00  0.00    -0.198 N  
HETATM    7  C   UNL     1     -10.340  17.359  67.819  1.00  0.00    -0.358 C  
ENDROOT
BRANCH   6   8
HETATM    8  C   UNL     1      -9.188  15.084  68.204  1.00  0.00    -0.183 C  
HETATM    9  O   UNL     1      -8.111  14.506  68.295  1.00  0.00    -0.125 OA 
BRANCH   8  10
HETATM   10  N   UNL     1     -10.426  14.488  68.151  1.00  0.00    -0.235 N  
HETATM   11  H   UNL     1     -11.192  14.974  68.617  1.00  0.00     0.000 HD 
BRANCH  10  12
HETATM   12  C   UNL     1     -10.735  13.285  67.524  1.00  0.00    -0.250 A  
HETATM   13  C   UNL     1     -10.561  11.967  67.923  1.00  0.00    -0.202 A  
HETATM   14  N   UNL     1     -10.058  11.363  69.052  1.00  0.00    -0.145 NA 
HETATM   15  C   UNL     1      -9.950  10.057  69.063  1.00  0.00    -0.196 A  
HETATM   16  C   UNL     1     -11.356  13.197  66.258  1.00  0.00    -0.315 A  
HETATM   17  C   UNL     1     -10.456   9.190  67.943  1.00  0.00    -0.293 A  
HETATM   18  N   UNL     1     -11.533  11.949  65.839  1.00  0.00    -0.333 NA 
HETATM   19  C   UNL     1     -10.984   9.812  66.885  1.00  0.00     0.060 A  
HETATM   20  N   UNL     1     -11.037  11.193  66.851  1.00  0.00    -0.280 NA 
BRANCH  15  21
HETATM   21  N   UNL     1      -9.376   9.387  70.118  1.00  0.00    -0.223 NA 
HETATM   22  C   UNL     1      -8.989   8.271  72.170  1.00  0.00    -0.274 C  
HETATM   23  C   UNL     1      -8.112   8.687  70.002  1.00  0.00    -0.112 C  
HETATM   24  C   UNL     1      -9.898   9.324  71.484  1.00  0.00    -0.175 C  
HETATM   25  C   UNL     1      -8.253   7.577  71.026  1.00  0.00    -0.108 C  
BRANCH  24  26
HETATM   26  C   UNL     1     -11.387   9.046  71.478  1.00  0.00    -0.416 A  
HETATM   27  C   UNL     1     -12.376  10.034  71.423  1.00  0.00    -0.415 A  
HETATM   28  C   UNL     1     -13.734   9.716  71.521  1.00  0.00    -0.307 A  
HETATM   29  F   UNL     1     -12.051  11.328  71.295  1.00  0.00    -0.398 F  
HETATM   30  C   UNL     1     -14.129   8.392  71.688  1.00  0.00    -0.487 A  
HETATM   31  C   UNL     1     -13.161   7.398  71.736  1.00  0.00    -0.318 A  
HETATM   32  C   UNL     1     -11.810   7.710  71.629  1.00  0.00    -0.323 A  
HETATM   33  F   UNL     1     -13.534   6.122  71.902  1.00  0.00    -0.140 F  
ENDBRANCH  24  26
ENDBRANCH  15  21
ENDBRANCH  10  12
ENDBRANCH   8  10
ENDBRANCH   6   8
TORSDOF 5
ENDMDL
MODEL      115
REMARK 921   NORMALIZED FREE ENERGY PREDICTED BY IDOCK:   -5.88 KCAL/MOL
REMARK 922        TOTAL FREE ENERGY PREDICTED BY IDOCK:   -9.33 KCAL/MOL
REMARK 923 INTER-LIGAND FREE ENERGY PREDICTED BY IDOCK:   -8.02 KCAL/MOL
REMARK 924 INTRA-LIGAND FREE ENERGY PREDICTED BY IDOCK:   -1.31 KCAL/MOL
REMARK 927      BINDING AFFINITY PREDICTED BY RF-SCORE:    0.00 PKD
ROOT
HETATM    1  O   UNL     1     -12.398  13.748  63.193  1.00  0.00    -1.099 OA 
HETATM    2  H   UNL     1     -11.788  13.442  62.532  1.00  0.00     0.000 HD 
HETATM    3  C   UNL     1     -11.806  13.737  64.481  1.00  0.00    -0.417 C  
HETATM    4  C   UNL     1     -12.785  14.228  65.542  1.00  0.00    -0.399 C  
HETATM    5  C   UNL     1     -12.230  13.624  66.814  1.00  0.00    -0.369 C  
HETATM    6  N   UNL     1     -11.669  12.349  66.400  1.00  0.00    -0.400 N  
HETATM    7  C   UNL     1     -11.461  12.320  64.955  1.00  0.00    -0.336 C  
ENDROOT
BRANCH   6   8
HETATM    8  C   UNL     1     -11.382  11.392  67.360  1.00  0.00    -0.288 C  
HETATM    9  O   UNL     1     -10.856  10.336  67.028  1.00  0.00    -0.248 OA 
BRANCH   8  10
HETATM   10  N   UNL     1     -11.774  11.738  68.632  1.00  0.00    -0.311 N  
HETATM   11  H   UNL     1     -12.117  12.689  68.766  1.00  0.00     0.000 HD 
BRANCH  10  12
HETATM   12  C   UNL     1     -11.747  10.917  69.754  1.00  0.00    -0.338 A  
HETATM   13  C   UNL     1     -10.734  10.145  70.306  1.00  0.00    -0.293 A  
HETATM   14  N   UNL     1      -9.414   9.920  69.988  1.00  0.00    -0.230 NA 
HETATM   15  C   UNL     1      -8.749   9.034  70.687  1.00  0.00    -0.213 A  
HETATM   16  C   UNL     1     -12.852  10.725  70.614  1.00  0.00    -0.293 A  
HETATM   17  C   UNL     1      -9.331   8.341  71.888  1.00  0.00    -0.282 A  
HETATM   18  N   UNL     1     -12.611   9.878  71.608  1.00  0.00    -0.394 NA 
HETATM   19  C   UNL     1     -10.599   8.624  72.196  1.00  0.00    -0.341 A  
HETATM   20  N   UNL     1     -11.318   9.512  71.417  1.00  0.00    -0.376 NA 
BRANCH  15  21
HETATM   21  N   UNL     1      -7.455   8.689  70.374  1.00  0.00    -0.063 NA 
HETATM   22  C   UNL     1      -5.520   7.578  69.581  1.00  0.00    -0.023 C  
HETATM   23  C   UNL     1      -6.373   9.654  70.355  1.00  0.00    -0.081 C  
HETATM   24  C   UNL     1      -6.971   7.341  70.075  1.00  0.00    -0.060 C  
HETATM   25  C   UNL     1      -5.432   9.079  69.315  1.00  0.00    -0.036 C  
BRANCH  24  26
HETATM   26  C   UNL     1      -7.912   6.630  69.124  1.00  0.00    -0.112 A  
HETATM   27  C   UNL     1      -8.389   7.175  67.927  1.00  0.00    -0.118 A  
HETATM   28  C   UNL     1      -9.333   6.506  67.143  1.00  0.00    -0.138 A  
HETATM   29  F   UNL     1      -7.967   8.374  67.501  1.00  0.00    -0.101 F  
HETATM   30  C   UNL     1      -9.831   5.272  67.554  1.00  0.00    -0.183 A  
HETATM   31  C   UNL     1      -9.363   4.713  68.735  1.00  0.00    -0.140 A  
HETATM   32  C   UNL     1      -8.416   5.372  69.512  1.00  0.00    -0.100 A  
HETATM   33  F   UNL     1      -9.842   3.529  69.139  1.00  0.00    -0.242 F  
ENDBRANCH  24  26
ENDBRANCH  15  21
ENDBRANCH  10  12
ENDBRANCH   8  10
ENDBRANCH   6   8
TORSDOF 5
ENDMDL
MODEL      116
REMARK 921   NORMALIZED FREE ENERGY PREDICTED BY IDOCK:   -5.86 KCAL/MOL
REMARK 922        TOTAL FREE ENERGY PREDICTED BY IDOCK:   -9.31 KCAL/MOL
REMARK 923 INTER-LIGAND FREE ENERGY PREDICTED BY IDOCK:   -8.18 KCAL/MOL
REMARK 924 INTRA-LIGAND FREE ENERGY PREDICTED BY IDOCK:   -1.13 KCAL/MOL
REMARK 927      BINDING AFFINITY PREDICTED BY RF-SCORE:    0.00 PKD
ROOT
HETATM    1  O   UNL     1     -10.233  12.947  63.520  1.00  0.00    -0.601 OA 
HETATM    2  H   UNL     1     -10.924  13.362  64.022  1.00  0.00     0.000 HD 
HETATM    3  C   UNL     1     -10.286  11.535  63.641  1.00  0.00    -0.417 C  
HETATM    4  C   UNL     1      -9.177  10.870  62.834  1.00  0.00    -0.348 C  
HETATM    5  C   UNL     1      -9.032   9.524  63.512  1.00  0.00    -0.173 C  
HETATM    6  N   UNL     1      -9.310   9.788  64.914  1.00  0.00    -0.257 N  
HETATM    7  C   UNL     1     -10.010  11.060  65.073  1.00  0.00    -0.285 C  
ENDROOT
BRANCH   6   8
HETATM    8  C   UNL     1      -8.939   8.852  65.865  1.00  0.00    -0.200 C  
HETATM    9  O   UNL     1      -7.929   9.034  66.536  1.00  0.00    -0.102 OA 
BRANCH   8  10
HETATM   10  N   UNL     1      -9.764   7.754  65.924  1.00  0.00    -0.412 N  
HETATM   11  H   UNL     1     -10.523   7.711  65.244  1.00  0.00     0.000 HD 
BRANCH  10  12
HETATM   12  C   UNL     1      -9.665   6.697  66.822  1.00  0.00    -0.169 A  
HETATM   13  C   UNL     1     -10.202   6.511  68.089  1.00  0.00    -0.168 A  
HETATM   14  N   UNL     1     -11.023   7.257  68.904  1.00  0.00    -0.085 NA 
HETATM   15  C   UNL     1     -11.267   6.813  70.113  1.00  0.00    -0.335 A  
HETATM   16  C   UNL     1      -8.945   5.509  66.562  1.00  0.00    -0.123 A  
HETATM   17  C   UNL     1     -10.783   5.476  70.602  1.00  0.00    -0.303 A  
HETATM   18  N   UNL     1      -8.963   4.645  67.570  1.00  0.00    -0.109 NA 
HETATM   19  C   UNL     1     -10.031   4.759  69.763  1.00  0.00    -0.238 A  
HETATM   20  N   UNL     1      -9.723   5.259  68.511  1.00  0.00    -0.135 NA 
BRANCH  15  21
HETATM   21  N   UNL     1     -12.004   7.543  71.016  1.00  0.00    -0.303 NA 
HETATM   22  C   UNL     1     -12.884   9.276  72.367  1.00  0.00    -0.418 C  
HETATM   23  C   UNL     1     -13.290   7.097  71.515  1.00  0.00    -0.344 C  
HETATM   24  C   UNL     1     -11.601   8.807  71.634  1.00  0.00    -0.320 C  
HETATM   25  C   UNL     1     -14.003   8.403  71.805  1.00  0.00    -0.482 C  
BRANCH  24  26
HETATM   26  C   UNL     1     -11.016   9.749  70.601  1.00  0.00    -0.398 A  
HETATM   27  C   UNL     1      -9.650   9.879  70.332  1.00  0.00    -0.056 A  
HETATM   28  C   UNL     1      -9.168  10.837  69.436  1.00  0.00    -0.003 A  
HETATM   29  F   UNL     1      -8.750   9.096  70.945  1.00  0.00    -0.196 F  
HETATM   30  C   UNL     1     -10.054  11.700  68.795  1.00  0.00    -0.169 A  
HETATM   31  C   UNL     1     -11.415  11.579  69.045  1.00  0.00    -0.291 A  
HETATM   32  C   UNL     1     -11.898  10.619  69.928  1.00  0.00    -0.392 A  
HETATM   33  F   UNL     1     -12.272  12.408  68.436  1.00  0.00    -0.350 F  
ENDBRANCH  24  26
ENDBRANCH  15  21
ENDBRANCH  10  12
ENDBRANCH   8  10
ENDBRANCH   6   8
TORSDOF 5
ENDMDL
MODEL      117
REMARK 921   NORMALIZED FREE ENERGY PREDICTED BY IDOCK:   -5.85 KCAL/MOL
REMARK 922        TOTAL FREE ENERGY PREDICTED BY IDOCK:   -9.28 KCAL/MOL
REMARK 923 INTER-LIGAND FREE ENERGY PREDICTED BY IDOCK:   -8.40 KCAL/MOL
REMARK 924 INTRA-LIGAND FREE ENERGY PREDICTED BY IDOCK:   -0.88 KCAL/MOL
REMARK 927      BINDING AFFINITY PREDICTED BY RF-SCORE:    0.00 PKD
ROOT
HETATM    1  O   UNL     1      -9.840  20.559  65.610  1.00  0.00    -0.597 OA 
HETATM    2  H   UNL     1      -9.386  20.303  64.816  1.00  0.00     0.000 HD 
HETATM    3  C   UNL     1      -9.393  19.802  66.723  1.00  0.00    -0.374 C  
HETATM    4  C   UNL     1     -10.122  20.212  67.997  1.00  0.00    -0.519 C  
HETATM    5  C   UNL     1      -9.967  18.992  68.878  1.00  0.00    -0.398 C  
HETATM    6  N   UNL     1      -9.996  17.868  67.957  1.00  0.00    -0.315 N  
HETATM    7  C   UNL     1      -9.733  18.312  66.591  1.00  0.00    -0.339 C  
ENDROOT
BRANCH   6   8
HETATM    8  C   UNL     1     -10.217  16.593  68.452  1.00  0.00    -0.284 C  
HETATM    9  O   UNL     1      -9.491  16.150  69.334  1.00  0.00    -0.250 OA 
BRANCH   8  10
HETATM   10  N   UNL     1     -11.250  15.925  67.840  1.00  0.00    -0.329 N  
HETATM   11  H   UNL     1     -12.196  16.220  68.081  1.00  0.00     0.000 HD 
BRANCH  10  12
HETATM   12  C   UNL     1     -11.132  14.883  66.926  1.00  0.00    -0.337 A  
HETATM   13  C   UNL     1     -11.170  13.505  67.089  1.00  0.00    -0.305 A  
HETATM   14  N   UNL     1     -11.356  12.670  68.168  1.00  0.00    -0.268 NA 
HETATM   15  C   UNL     1     -11.238  11.378  67.980  1.00  0.00    -0.281 A  
HETATM   16  C   UNL     1     -10.951  15.073  65.538  1.00  0.00    -0.358 A  
HETATM   17  C   UNL     1     -11.021  10.770  66.622  1.00  0.00    -0.173 A  
HETATM   18  N   UNL     1     -10.835  13.939  64.856  1.00  0.00    -0.381 NA 
HETATM   19  C   UNL     1     -10.896  11.612  65.593  1.00  0.00    -0.276 A  
HETATM   20  N   UNL     1     -10.959  12.977  65.805  1.00  0.00    -0.275 NA 
BRANCH  15  21
HETATM   21  N   UNL     1     -11.321  10.486  69.023  1.00  0.00    -0.260 NA 
HETATM   22  C   UNL     1     -10.911   8.735  70.563  1.00  0.00    -0.272 C  
HETATM   23  C   UNL     1     -12.166  10.714  70.179  1.00  0.00    -0.320 C  
HETATM   24  C   UNL     1     -10.642   9.192  69.106  1.00  0.00    -0.208 C  
HETATM   25  C   UNL     1     -11.427   9.980  71.280  1.00  0.00    -0.390 C  
BRANCH  24  26
HETATM   26  C   UNL     1      -9.193   9.317  68.682  1.00  0.00    -0.135 A  
HETATM   27  C   UNL     1      -8.629   8.650  67.589  1.00  0.00    -0.136 A  
HETATM   28  C   UNL     1      -7.262   8.731  67.309  1.00  0.00    -0.080 A  
HETATM   29  F   UNL     1      -9.382   7.891  66.781  1.00  0.00    -0.166 F  
HETATM   30  C   UNL     1      -6.425   9.479  68.133  1.00  0.00    -0.057 A  
HETATM   31  C   UNL     1      -6.970  10.153  69.217  1.00  0.00    -0.068 A  
HETATM   32  C   UNL     1      -8.332  10.083  69.492  1.00  0.00    -0.180 A  
HETATM   33  F   UNL     1      -6.170  10.870  70.018  1.00  0.00    -0.071 F  
ENDBRANCH  24  26
ENDBRANCH  15  21
ENDBRANCH  10  12
ENDBRANCH   8  10
ENDBRANCH   6   8
TORSDOF 5
ENDMDL
MODEL      118
REMARK 921   NORMALIZED FREE ENERGY PREDICTED BY IDOCK:   -5.82 KCAL/MOL
REMARK 922        TOTAL FREE ENERGY PREDICTED BY IDOCK:   -9.25 KCAL/MOL
REMARK 923 INTER-LIGAND FREE ENERGY PREDICTED BY IDOCK:   -7.67 KCAL/MOL
REMARK 924 INTRA-LIGAND FREE ENERGY PREDICTED BY IDOCK:   -1.57 KCAL/MOL
REMARK 927      BINDING AFFINITY PREDICTED BY RF-SCORE:    0.00 PKD
ROOT
HETATM    1  O   UNL     1     -11.641  16.358  70.796  1.00  0.00    -0.552 OA 
HETATM    2  H   UNL     1     -12.566  16.568  70.845  1.00  0.00     0.000 HD 
HETATM    3  C   UNL     1     -11.312  15.783  69.542  1.00  0.00    -0.328 C  
HETATM    4  C   UNL     1      -9.827  15.445  69.464  1.00  0.00    -0.262 C  
HETATM    5  C   UNL     1      -9.783  14.380  68.389  1.00  0.00    -0.226 C  
HETATM    6  N   UNL     1     -11.029  13.649  68.547  1.00  0.00    -0.257 N  
HETATM    7  C   UNL     1     -11.990  14.425  69.324  1.00  0.00    -0.324 C  
ENDROOT
BRANCH   6   8
HETATM    8  C   UNL     1     -11.163  12.406  67.950  1.00  0.00    -0.266 C  
HETATM    9  O   UNL     1     -12.261  11.861  67.921  1.00  0.00    -0.508 OA 
BRANCH   8  10
HETATM   10  N   UNL     1      -9.986  11.883  67.470  1.00  0.00    -0.186 N  
HETATM   11  H   UNL     1      -9.248  12.548  67.239  1.00  0.00     0.000 HD 
BRANCH  10  12
HETATM   12  C   UNL     1      -9.704  10.536  67.267  1.00  0.00    -0.169 A  
HETATM   13  C   UNL     1      -9.343   9.528  68.150  1.00  0.00    -0.133 A  
HETATM   14  N   UNL     1      -9.153   9.465  69.512  1.00  0.00    -0.154 NA 
HETATM   15  C   UNL     1      -8.710   8.344  70.026  1.00  0.00    -0.133 A  
HETATM   16  C   UNL     1      -9.762   9.903  66.005  1.00  0.00    -0.247 A  
HETATM   17  C   UNL     1      -8.510   7.098  69.210  1.00  0.00    -0.133 A  
HETATM   18  N   UNL     1      -9.428   8.618  66.040  1.00  0.00    -0.226 NA 
HETATM   19  C   UNL     1      -8.754   7.185  67.899  1.00  0.00    -0.126 A  
HETATM   20  N   UNL     1      -9.160   8.388  67.351  1.00  0.00    -0.136 NA 
BRANCH  15  21
HETATM   21  N   UNL     1      -8.412   8.231  71.364  1.00  0.00    -0.125 NA 
HETATM   22  C   UNL     1      -8.542   8.079  73.723  1.00  0.00    -0.328 C  
HETATM   23  C   UNL     1      -7.140   7.723  71.839  1.00  0.00    -0.067 C  
HETATM   24  C   UNL     1      -9.272   8.640  72.476  1.00  0.00    -0.133 C  
HETATM   25  C   UNL     1      -7.509   7.099  73.171  1.00  0.00    -0.079 C  
BRANCH  24  26
HETATM   26  C   UNL     1     -10.698   8.180  72.250  1.00  0.00    -0.381 A  
HETATM   27  C   UNL     1     -11.076   6.849  72.043  1.00  0.00    -0.245 A  
HETATM   28  C   UNL     1     -12.396   6.502  71.742  1.00  0.00    -0.340 A  
HETATM   29  F   UNL     1     -10.175   5.859  72.108  1.00  0.00    -0.202 F  
HETATM   30  C   UNL     1     -13.369   7.493  71.630  1.00  0.00    -0.414 A  
HETATM   31  C   UNL     1     -13.012   8.818  71.840  1.00  0.00    -0.376 A  
HETATM   32  C   UNL     1     -11.701   9.165  72.149  1.00  0.00    -0.305 A  
HETATM   33  F   UNL     1     -13.940   9.776  71.728  1.00  0.00    -0.314 F  
ENDBRANCH  24  26
ENDBRANCH  15  21
ENDBRANCH  10  12
ENDBRANCH   8  10
ENDBRANCH   6   8
TORSDOF 5
ENDMDL
MODEL      119
REMARK 921   NORMALIZED FREE ENERGY PREDICTED BY IDOCK:   -5.76 KCAL/MOL
REMARK 922        TOTAL FREE ENERGY PREDICTED BY IDOCK:   -9.17 KCAL/MOL
REMARK 923 INTER-LIGAND FREE ENERGY PREDICTED BY IDOCK:   -8.04 KCAL/MOL
REMARK 924 INTRA-LIGAND FREE ENERGY PREDICTED BY IDOCK:   -1.13 KCAL/MOL
REMARK 927      BINDING AFFINITY PREDICTED BY RF-SCORE:    0.00 PKD
ROOT
HETATM    1  O   UNL     1     -11.867  16.336  63.711  1.00  0.00    -1.445 OA 
HETATM    2  H   UNL     1     -12.304  17.170  63.836  1.00  0.00     0.000 HD 
HETATM    3  C   UNL     1     -11.395  15.816  64.943  1.00  0.00    -0.280 C  
HETATM    4  C   UNL     1     -10.693  14.477  64.743  1.00  0.00    -0.414 C  
HETATM    5  C   UNL     1      -9.803  14.381  65.963  1.00  0.00    -0.319 C  
HETATM    6  N   UNL     1      -9.409  15.753  66.239  1.00  0.00    -0.296 N  
HETATM    7  C   UNL     1     -10.302  16.693  65.567  1.00  0.00    -0.247 C  
ENDROOT
BRANCH   6   8
HETATM    8  C   UNL     1      -8.332  15.992  67.077  1.00  0.00    -0.219 C  
HETATM    9  O   UNL     1      -7.339  16.563  66.643  1.00  0.00    -0.222 OA 
BRANCH   8  10
HETATM   10  N   UNL     1      -8.494  15.504  68.352  1.00  0.00    -0.158 N  
HETATM   11  H   UNL     1      -9.287  15.861  68.885  1.00  0.00     0.000 HD 
BRANCH  10  12
HETATM   12  C   UNL     1      -7.682  14.570  68.987  1.00  0.00    -0.113 A  
HETATM   13  C   UNL     1      -7.620  13.187  68.891  1.00  0.00     0.040 A  
HETATM   14  N   UNL     1      -8.294  12.243  68.148  1.00  0.00    -0.168 NA 
HETATM   15  C   UNL     1      -8.044  10.978  68.379  1.00  0.00    -0.134 A  
HETATM   16  C   UNL     1      -6.671  14.910  69.913  1.00  0.00    -0.178 A  
HETATM   17  C   UNL     1      -6.978  10.519  69.335  1.00  0.00    -0.099 A  
HETATM   18  N   UNL     1      -6.035  13.857  70.416  1.00  0.00    -0.157 NA 
HETATM   19  C   UNL     1      -6.311  11.467  70.000  1.00  0.00    -0.132 A  
HETATM   20  N   UNL     1      -6.621  12.800  69.800  1.00  0.00    -0.001 NA 
BRANCH  15  21
HETATM   21  N   UNL     1      -8.739   9.976  67.741  1.00  0.00    -0.125 NA 
HETATM   22  C   UNL     1     -10.299   8.287  67.178  1.00  0.00    -0.387 C  
HETATM   23  C   UNL     1      -8.615   9.724  66.319  1.00  0.00    -0.127 C  
HETATM   24  C   UNL     1      -9.635   9.010  68.378  1.00  0.00    -0.152 C  
HETATM   25  C   UNL     1      -9.974   9.154  65.964  1.00  0.00    -0.293 C  
BRANCH  24  26
HETATM   26  C   UNL     1     -10.558   9.699  69.361  1.00  0.00    -0.243 A  
HETATM   27  C   UNL     1     -10.950   9.160  70.592  1.00  0.00    -0.263 A  
HETATM   28  C   UNL     1     -11.883   9.803  71.409  1.00  0.00    -0.488 A  
HETATM   29  F   UNL     1     -10.454   7.990  71.019  1.00  0.00    -0.201 F  
HETATM   30  C   UNL     1     -12.456  11.005  71.001  1.00  0.00    -0.512 A  
HETATM   31  C   UNL     1     -12.072  11.558  69.787  1.00  0.00    -0.306 A  
HETATM   32  C   UNL     1     -11.136  10.925  68.975  1.00  0.00    -0.302 A  
HETATM   33  F   UNL     1     -12.623  12.711  69.385  1.00  0.00    -0.098 F  
ENDBRANCH  24  26
ENDBRANCH  15  21
ENDBRANCH  10  12
ENDBRANCH   8  10
ENDBRANCH   6   8
TORSDOF 5
ENDMDL
MODEL      120
REMARK 921   NORMALIZED FREE ENERGY PREDICTED BY IDOCK:   -5.75 KCAL/MOL
REMARK 922        TOTAL FREE ENERGY PREDICTED BY IDOCK:   -9.16 KCAL/MOL
REMARK 923 INTER-LIGAND FREE ENERGY PREDICTED BY IDOCK:   -7.67 KCAL/MOL
REMARK 924 INTRA-LIGAND FREE ENERGY PREDICTED BY IDOCK:   -1.48 KCAL/MOL
REMARK 927      BINDING AFFINITY PREDICTED BY RF-SCORE:    0.00 PKD
ROOT
HETATM    1  O   UNL     1      -6.305  20.569  70.696  1.00  0.00    -0.510 OA 
HETATM    2  H   UNL     1      -6.555  21.257  70.090  1.00  0.00     0.000 HD 
HETATM    3  C   UNL     1      -5.679  19.492  70.019  1.00  0.00    -0.259 C  
HETATM    4  C   UNL     1      -5.278  18.388  70.991  1.00  0.00    -0.279 C  
HETATM    5  C   UNL     1      -5.189  17.171  70.095  1.00  0.00    -0.208 C  
HETATM    6  N   UNL     1      -6.221  17.376  69.094  1.00  0.00    -0.215 N  
HETATM    7  C   UNL     1      -6.632  18.777  69.053  1.00  0.00    -0.283 C  
ENDROOT
BRANCH   6   8
HETATM    8  C   UNL     1      -6.638  16.303  68.323  1.00  0.00    -0.127 C  
HETATM    9  O   UNL     1      -7.712  16.359  67.734  1.00  0.00    -0.143 OA 
BRANCH   8  10
HETATM   10  N   UNL     1      -5.776  15.233  68.337  1.00  0.00    -0.100 N  
HETATM   11  H   UNL     1      -4.811  15.415  68.061  1.00  0.00     0.000 HD 
BRANCH  10  12
HETATM   12  C   UNL     1      -6.091  13.925  68.692  1.00  0.00    -0.088 A  
HETATM   13  C   UNL     1      -7.100  13.073  68.266  1.00  0.00    -0.103 A  
HETATM   14  N   UNL     1      -8.123  13.177  67.350  1.00  0.00    -0.180 NA 
HETATM   15  C   UNL     1      -8.977  12.188  67.259  1.00  0.00    -0.184 A  
HETATM   16  C   UNL     1      -5.353  13.165  69.627  1.00  0.00    -0.086 A  
HETATM   17  C   UNL     1      -8.823  10.905  68.028  1.00  0.00    -0.135 A  
HETATM   18  N   UNL     1      -5.848  11.950  69.833  1.00  0.00    -0.121 NA 
HETATM   19  C   UNL     1      -7.789  10.823  68.870  1.00  0.00    -0.136 A  
HETATM   20  N   UNL     1      -6.925  11.895  69.009  1.00  0.00    -0.104 NA 
BRANCH  15  21
HETATM   21  N   UNL     1     -10.074  12.254  66.432  1.00  0.00    -0.222 NA 
HETATM   22  C   UNL     1     -12.237  12.616  65.540  1.00  0.00    -0.501 C  
HETATM   23  C   UNL     1      -9.968  12.188  64.988  1.00  0.00    -0.220 C  
HETATM   24  C   UNL     1     -11.471  12.343  66.860  1.00  0.00    -0.360 C  
HETATM   25  C   UNL     1     -11.161  13.003  64.529  1.00  0.00    -0.378 C  
BRANCH  24  26
HETATM   26  C   UNL     1     -11.630  13.363  67.969  1.00  0.00    -0.369 A  
HETATM   27  C   UNL     1     -12.050  13.060  69.269  1.00  0.00    -0.200 A  
HETATM   28  C   UNL     1     -12.271  14.061  70.218  1.00  0.00    -0.430 A  
HETATM   29  F   UNL     1     -12.276  11.792  69.641  1.00  0.00    -0.334 F  
HETATM   30  C   UNL     1     -12.084  15.398  69.877  1.00  0.00    -0.382 A  
HETATM   31  C   UNL     1     -11.659  15.716  68.595  1.00  0.00    -0.382 A  
HETATM   32  C   UNL     1     -11.429  14.721  67.650  1.00  0.00    -0.363 A  
HETATM   33  F   UNL     1     -11.483  17.001  68.258  1.00  0.00    -0.269 F  
ENDBRANCH  24  26
ENDBRANCH  15  21
ENDBRANCH  10  12
ENDBRANCH   8  10
ENDBRANCH   6   8
TORSDOF 5
ENDMDL
MODEL      121
REMARK 921   NORMALIZED FREE ENERGY PREDICTED BY IDOCK:   -5.74 KCAL/MOL
REMARK 922        TOTAL FREE ENERGY PREDICTED BY IDOCK:   -9.15 KCAL/MOL
REMARK 923 INTER-LIGAND FREE ENERGY PREDICTED BY IDOCK:   -8.00 KCAL/MOL
REMARK 924 INTRA-LIGAND FREE ENERGY PREDICTED BY IDOCK:   -1.14 KCAL/MOL
REMARK 927      BINDING AFFINITY PREDICTED BY RF-SCORE:    0.00 PKD
ROOT
HETATM    1  O   UNL     1     -10.389   6.715  74.411  1.00  0.00    -0.357 OA 
HETATM    2  H   UNL     1     -10.192   7.202  75.203  1.00  0.00     0.000 HD 
HETATM    3  C   UNL     1      -9.373   6.885  73.437  1.00  0.00    -0.152 C  
HETATM    4  C   UNL     1      -9.691   6.103  72.167  1.00  0.00    -0.168 C  
HETATM    5  C   UNL     1      -8.876   6.828  71.117  1.00  0.00    -0.137 C  
HETATM    6  N   UNL     1      -8.892   8.219  71.536  1.00  0.00    -0.152 N  
HETATM    7  C   UNL     1      -9.275   8.333  72.940  1.00  0.00    -0.259 C  
ENDROOT
BRANCH   6   8
HETATM    8  C   UNL     1      -8.530   9.202  70.630  1.00  0.00    -0.209 C  
HETATM    9  O   UNL     1      -7.424   9.724  70.709  1.00  0.00    -0.295 OA 
BRANCH   8  10
HETATM   10  N   UNL     1      -9.515   9.522  69.726  1.00  0.00    -0.195 N  
HETATM   11  H   UNL     1      -9.471   9.065  68.815  1.00  0.00     0.000 HD 
BRANCH  10  12
HETATM   12  C   UNL     1     -10.565  10.411  69.931  1.00  0.00    -0.251 A  
HETATM   13  C   UNL     1     -10.762  11.718  69.510  1.00  0.00     0.100 A  
HETATM   14  N   UNL     1     -10.037  12.599  68.739  1.00  0.00    -0.113 NA 
HETATM   15  C   UNL     1     -10.483  13.824  68.611  1.00  0.00    -0.239 A  
HETATM   16  C   UNL     1     -11.732  10.092  70.663  1.00  0.00    -0.337 A  
HETATM   17  C   UNL     1     -11.803  14.273  69.174  1.00  0.00    -0.368 A  
HETATM   18  N   UNL     1     -12.592  11.099  70.756  1.00  0.00    -0.357 NA 
HETATM   19  C   UNL     1     -12.501  13.374  69.874  1.00  0.00    -0.093 A  
HETATM   20  N   UNL     1     -11.997  12.100  70.060  1.00  0.00    -0.338 NA 
BRANCH  15  21
HETATM   21  N   UNL     1      -9.772  14.785  67.931  1.00  0.00    -0.209 NA 
HETATM   22  C   UNL     1      -8.724  16.083  66.251  1.00  0.00    -0.372 C  
HETATM   23  C   UNL     1      -9.445  16.072  68.513  1.00  0.00    -0.216 C  
HETATM   24  C   UNL     1      -9.205  14.648  66.588  1.00  0.00    -0.267 C  
HETATM   25  C   UNL     1      -9.380  16.978  67.299  1.00  0.00    -0.238 C  
BRANCH  24  26
HETATM   26  C   UNL     1     -10.209  14.020  65.643  1.00  0.00    -0.351 A  
HETATM   27  C   UNL     1     -11.335  14.675  65.135  1.00  0.00    -0.375 A  
HETATM   28  C   UNL     1     -12.276  14.008  64.345  1.00  0.00    -0.457 A  
HETATM   29  F   UNL     1     -11.561  15.968  65.408  1.00  0.00    -0.068 F  
HETATM   30  C   UNL     1     -12.109  12.656  64.056  1.00  0.00    -0.542 A  
HETATM   31  C   UNL     1     -10.993  11.992  64.546  1.00  0.00    -0.318 A  
HETATM   32  C   UNL     1     -10.050  12.656  65.324  1.00  0.00    -0.271 A  
HETATM   33  F   UNL     1     -10.829  10.690  64.277  1.00  0.00    -0.399 F  
ENDBRANCH  24  26
ENDBRANCH  15  21
ENDBRANCH  10  12
ENDBRANCH   8  10
ENDBRANCH   6   8
TORSDOF 5
ENDMDL
MODEL      122
REMARK 921   NORMALIZED FREE ENERGY PREDICTED BY IDOCK:   -5.74 KCAL/MOL
REMARK 922        TOTAL FREE ENERGY PREDICTED BY IDOCK:   -9.14 KCAL/MOL
REMARK 923 INTER-LIGAND FREE ENERGY PREDICTED BY IDOCK:   -7.21 KCAL/MOL
REMARK 924 INTRA-LIGAND FREE ENERGY PREDICTED BY IDOCK:   -1.93 KCAL/MOL
REMARK 927      BINDING AFFINITY PREDICTED BY RF-SCORE:    0.00 PKD
ROOT
HETATM    1  O   UNL     1      -6.808  11.110  66.782  1.00  0.00    -0.116 OA 
HETATM    2  H   UNL     1      -6.520  10.248  67.060  1.00  0.00     0.000 HD 
HETATM    3  C   UNL     1      -7.681  11.691  67.736  1.00  0.00    -0.126 C  
HETATM    4  C   UNL     1      -8.143  13.074  67.290  1.00  0.00    -0.164 C  
HETATM    5  C   UNL     1      -9.428  13.264  68.067  1.00  0.00    -0.219 C  
HETATM    6  N   UNL     1     -10.004  11.932  68.154  1.00  0.00    -0.192 N  
HETATM    7  C   UNL     1      -8.996  10.913  67.876  1.00  0.00    -0.141 C  
ENDROOT
BRANCH   6   8
HETATM    8  C   UNL     1     -11.337  11.794  68.503  1.00  0.00    -0.273 C  
HETATM    9  O   UNL     1     -12.177  11.601  67.631  1.00  0.00    -0.544 OA 
BRANCH   8  10
HETATM   10  N   UNL     1     -11.583  11.932  69.848  1.00  0.00    -0.465 N  
HETATM   11  H   UNL     1     -11.471  12.866  70.243  1.00  0.00     0.000 HD 
BRANCH  10  12
HETATM   12  C   UNL     1     -11.969  10.923  70.724  1.00  0.00    -0.346 A  
HETATM   13  C   UNL     1     -11.295   9.805  71.196  1.00  0.00    -0.389 A  
HETATM   14  N   UNL     1     -10.031   9.294  71.008  1.00  0.00    -0.292 NA 
HETATM   15  C   UNL     1      -9.743   8.135  71.546  1.00  0.00    -0.176 A  
HETATM   16  C   UNL     1     -13.232  10.872  71.355  1.00  0.00    -0.258 A  
HETATM   17  C   UNL     1     -10.694   7.398  72.449  1.00  0.00    -0.295 A  
HETATM   18  N   UNL     1     -13.396   9.805  72.130  1.00  0.00    -0.451 NA 
HETATM   19  C   UNL     1     -11.893   7.952  72.647  1.00  0.00    -0.297 A  
HETATM   20  N   UNL     1     -12.216   9.144  72.026  1.00  0.00    -0.377 NA 
BRANCH  15  21
HETATM   21  N   UNL     1      -8.533   7.518  71.331  1.00  0.00    -0.111 NA 
HETATM   22  C   UNL     1      -6.757   6.232  70.437  1.00  0.00    -0.053 C  
HETATM   23  C   UNL     1      -7.311   7.951  71.980  1.00  0.00    -0.081 C  
HETATM   24  C   UNL     1      -8.303   6.342  70.490  1.00  0.00    -0.129 C  
HETATM   25  C   UNL     1      -6.246   7.568  70.970  1.00  0.00    -0.035 C  
BRANCH  24  26
HETATM   26  C   UNL     1      -9.028   6.477  69.167  1.00  0.00    -0.130 A  
HETATM   27  C   UNL     1     -10.287   5.930  68.895  1.00  0.00    -0.228 A  
HETATM   28  C   UNL     1     -10.858   6.006  67.621  1.00  0.00    -0.386 A  
HETATM   29  F   UNL     1     -10.981   5.293  69.848  1.00  0.00    -0.372 F  
HETATM   30  C   UNL     1     -10.167   6.628  66.584  1.00  0.00    -0.208 A  
HETATM   31  C   UNL     1      -8.921   7.184  66.839  1.00  0.00    -0.134 A  
HETATM   32  C   UNL     1      -8.354   7.118  68.108  1.00  0.00    -0.124 A  
HETATM   33  F   UNL     1      -8.249   7.778  65.845  1.00  0.00    -0.101 F  
ENDBRANCH  24  26
ENDBRANCH  15  21
ENDBRANCH  10  12
ENDBRANCH   8  10
ENDBRANCH   6   8
TORSDOF 5
ENDMDL
MODEL      123
REMARK 921   NORMALIZED FREE ENERGY PREDICTED BY IDOCK:   -5.73 KCAL/MOL
REMARK 922        TOTAL FREE ENERGY PREDICTED BY IDOCK:   -9.14 KCAL/MOL
REMARK 923 INTER-LIGAND FREE ENERGY PREDICTED BY IDOCK:   -7.76 KCAL/MOL
REMARK 924 INTRA-LIGAND FREE ENERGY PREDICTED BY IDOCK:   -1.38 KCAL/MOL
REMARK 927      BINDING AFFINITY PREDICTED BY RF-SCORE:    0.00 PKD
ROOT
HETATM    1  O   UNL     1     -10.504  19.998  69.090  1.00  0.00    -0.609 OA 
HETATM    2  H   UNL     1     -11.452  20.062  69.115  1.00  0.00     0.000 HD 
HETATM    3  C   UNL     1     -10.072  19.197  68.003  1.00  0.00    -0.397 C  
HETATM    4  C   UNL     1      -8.552  19.095  67.963  1.00  0.00    -0.345 C  
HETATM    5  C   UNL     1      -8.323  17.822  67.177  1.00  0.00    -0.223 C  
HETATM    6  N   UNL     1      -9.432  16.959  67.545  1.00  0.00    -0.239 N  
HETATM    7  C   UNL     1     -10.516  17.735  68.141  1.00  0.00    -0.377 C  
ENDROOT
BRANCH   6   8
HETATM    8  C   UNL     1      -9.354  15.603  67.272  1.00  0.00    -0.215 C  
HETATM    9  O   UNL     1      -8.270  15.098  67.005  1.00  0.00    -0.205 OA 
BRANCH   8  10
HETATM   10  N   UNL     1     -10.566  14.954  67.296  1.00  0.00    -0.268 N  
HETATM   11  H   UNL     1     -11.153  15.105  68.117  1.00  0.00     0.000 HD 
BRANCH  10  12
HETATM   12  C   UNL     1     -11.070  14.112  66.311  1.00  0.00    -0.318 A  
HETATM   13  C   UNL     1     -10.572  12.940  65.758  1.00  0.00    -0.275 A  
HETATM   14  N   UNL     1      -9.448  12.176  65.976  1.00  0.00    -0.233 NA 
HETATM   15  C   UNL     1      -9.233  11.150  65.191  1.00  0.00    -0.189 A  
HETATM   16  C   UNL     1     -12.303  14.321  65.654  1.00  0.00    -0.405 A  
HETATM   17  C   UNL     1     -10.215  10.709  64.141  1.00  0.00    -0.365 A  
HETATM   18  N   UNL     1     -12.574  13.408  64.729  1.00  0.00    -0.637 NA 
HETATM   19  C   UNL     1     -11.318  11.447  63.994  1.00  0.00    -0.208 A  
HETATM   20  N   UNL     1     -11.511  12.566  64.782  1.00  0.00    -0.312 NA 
BRANCH  15  21
HETATM   21  N   UNL     1      -8.089  10.392  65.289  1.00  0.00    -0.155 NA 
HETATM   22  C   UNL     1      -6.399   8.899  66.010  1.00  0.00    -0.057 C  
HETATM   23  C   UNL     1      -7.243  10.106  64.147  1.00  0.00    -0.106 C  
HETATM   24  C   UNL     1      -7.536   9.823  66.518  1.00  0.00    -0.098 C  
HETATM   25  C   UNL     1      -6.641   8.762  64.509  1.00  0.00    -0.070 C  
BRANCH  24  26
HETATM   26  C   UNL     1      -8.626   9.177  67.350  1.00  0.00    -0.115 A  
HETATM   27  C   UNL     1      -9.475   8.163  66.892  1.00  0.00    -0.191 A  
HETATM   28  C   UNL     1     -10.525   7.678  67.676  1.00  0.00    -0.313 A  
HETATM   29  F   UNL     1      -9.320   7.635  65.669  1.00  0.00    -0.121 F  
HETATM   30  C   UNL     1     -10.754   8.213  68.941  1.00  0.00    -0.090 A  
HETATM   31  C   UNL     1      -9.916   9.213  69.414  1.00  0.00    -0.191 A  
HETATM   32  C   UNL     1      -8.864   9.691  68.640  1.00  0.00    -0.128 A  
HETATM   33  F   UNL     1     -10.134   9.736  70.628  1.00  0.00    -0.303 F  
ENDBRANCH  24  26
ENDBRANCH  15  21
ENDBRANCH  10  12
ENDBRANCH   8  10
ENDBRANCH   6   8
TORSDOF 5
ENDMDL
MODEL      124
REMARK 921   NORMALIZED FREE ENERGY PREDICTED BY IDOCK:   -5.73 KCAL/MOL
REMARK 922        TOTAL FREE ENERGY PREDICTED BY IDOCK:   -9.13 KCAL/MOL
REMARK 923 INTER-LIGAND FREE ENERGY PREDICTED BY IDOCK:   -8.92 KCAL/MOL
REMARK 924 INTRA-LIGAND FREE ENERGY PREDICTED BY IDOCK:   -0.21 KCAL/MOL
REMARK 927      BINDING AFFINITY PREDICTED BY RF-SCORE:    0.00 PKD
ROOT
HETATM    1  O   UNL     1     -12.357  13.852  63.090  1.00  0.00    -1.122 OA 
HETATM    2  H   UNL     1     -11.790  13.444  62.447  1.00  0.00     0.000 HD 
HETATM    3  C   UNL     1     -11.753  13.864  64.373  1.00  0.00    -0.404 C  
HETATM    4  C   UNL     1     -12.663  14.519  65.406  1.00  0.00    -0.190 C  
HETATM    5  C   UNL     1     -12.155  13.944  66.710  1.00  0.00    -0.439 C  
HETATM    6  N   UNL     1     -11.731  12.595  66.377  1.00  0.00    -0.389 N  
HETATM    7  C   UNL     1     -11.545  12.452  64.935  1.00  0.00    -0.343 C  
ENDROOT
BRANCH   6   8
HETATM    8  C   UNL     1     -11.528  11.678  67.395  1.00  0.00    -0.285 C  
HETATM    9  O   UNL     1     -11.535  10.479  67.143  1.00  0.00    -0.311 OA 
BRANCH   8  10
HETATM   10  N   UNL     1     -11.373  12.245  68.638  1.00  0.00    -0.266 N  
HETATM   11  H   UNL     1     -10.801  13.087  68.692  1.00  0.00     0.000 HD 
BRANCH  10  12
HETATM   12  C   UNL     1     -11.920  11.780  69.829  1.00  0.00    -0.322 A  
HETATM   13  C   UNL     1     -11.897  10.527  70.427  1.00  0.00    -0.340 A  
HETATM   14  N   UNL     1     -11.330   9.316  70.099  1.00  0.00    -0.210 NA 
HETATM   15  C   UNL     1     -11.591   8.283  70.861  1.00  0.00    -0.262 A  
HETATM   16  C   UNL     1     -12.649  12.591  70.728  1.00  0.00    -0.212 A  
HETATM   17  C   UNL     1     -12.385   8.389  72.133  1.00  0.00    -0.426 A  
HETATM   18  N   UNL     1     -13.102  11.934  71.790  1.00  0.00    -0.432 NA 
HETATM   19  C   UNL     1     -12.876   9.592  72.443  1.00  0.00    -0.285 A  
HETATM   20  N   UNL     1     -12.652  10.667  71.603  1.00  0.00    -0.400 NA 
BRANCH  15  21
HETATM   21  N   UNL     1     -11.134   7.023  70.551  1.00  0.00    -0.267 NA 
HETATM   22  C   UNL     1      -9.992   5.185  69.589  1.00  0.00    -0.313 C  
HETATM   23  C   UNL     1     -11.296   5.893  71.444  1.00  0.00    -0.178 C  
HETATM   24  C   UNL     1     -10.488   6.625  69.299  1.00  0.00    -0.214 C  
HETATM   25  C   UNL     1     -10.098   5.027  71.104  1.00  0.00    -0.293 C  
BRANCH  24  26
HETATM   26  C   UNL     1      -9.443   7.642  68.887  1.00  0.00    -0.149 A  
HETATM   27  C   UNL     1      -9.319   8.171  67.597  1.00  0.00    -0.140 A  
HETATM   28  C   UNL     1      -8.271   9.030  67.257  1.00  0.00    -0.103 A  
HETATM   29  F   UNL     1     -10.195   7.850  66.635  1.00  0.00    -0.311 F  
HETATM   30  C   UNL     1      -7.313   9.372  68.208  1.00  0.00    -0.078 A  
HETATM   31  C   UNL     1      -7.426   8.863  69.494  1.00  0.00    -0.075 A  
HETATM   32  C   UNL     1      -8.473   8.014  69.839  1.00  0.00    -0.126 A  
HETATM   33  F   UNL     1      -6.504   9.182  70.412  1.00  0.00    -0.036 F  
ENDBRANCH  24  26
ENDBRANCH  15  21
ENDBRANCH  10  12
ENDBRANCH   8  10
ENDBRANCH   6   8
TORSDOF 5
ENDMDL
MODEL      125
REMARK 921   NORMALIZED FREE ENERGY PREDICTED BY IDOCK:   -5.71 KCAL/MOL
REMARK 922        TOTAL FREE ENERGY PREDICTED BY IDOCK:   -9.11 KCAL/MOL
REMARK 923 INTER-LIGAND FREE ENERGY PREDICTED BY IDOCK:   -8.36 KCAL/MOL
REMARK 924 INTRA-LIGAND FREE ENERGY PREDICTED BY IDOCK:   -0.76 KCAL/MOL
REMARK 927      BINDING AFFINITY PREDICTED BY RF-SCORE:    0.00 PKD
ROOT
HETATM    1  O   UNL     1      -9.756   3.000  70.723  1.00  0.00    -0.162 OA 
HETATM    2  H   UNL     1      -9.573   3.354  71.586  1.00  0.00     0.000 HD 
HETATM    3  C   UNL     1      -9.296   3.869  69.703  1.00  0.00    -0.176 C  
HETATM    4  C   UNL     1      -9.590   3.301  68.319  1.00  0.00    -0.141 C  
HETATM    5  C   UNL     1      -9.578   4.535  67.442  1.00  0.00    -0.176 C  
HETATM    6  N   UNL     1     -10.108   5.591  68.287  1.00  0.00    -0.162 N  
HETATM    7  C   UNL     1     -10.042   5.210  69.695  1.00  0.00    -0.261 C  
ENDROOT
BRANCH   6   8
HETATM    8  C   UNL     1     -10.547   6.768  67.704  1.00  0.00    -0.259 C  
HETATM    9  O   UNL     1     -11.407   6.730  66.830  1.00  0.00    -0.318 OA 
BRANCH   8  10
HETATM   10  N   UNL     1      -9.912   7.896  68.166  1.00  0.00    -0.173 N  
HETATM   11  H   UNL     1      -8.933   8.012  67.906  1.00  0.00     0.000 HD 
BRANCH  10  12
HETATM   12  C   UNL     1     -10.474   8.893  68.956  1.00  0.00    -0.214 A  
HETATM   13  C   UNL     1     -11.019  10.127  68.630  1.00  0.00    -0.230 A  
HETATM   14  N   UNL     1     -11.228  10.805  67.450  1.00  0.00    -0.388 NA 
HETATM   15  C   UNL     1     -11.695  12.028  67.511  1.00  0.00    -0.280 A  
HETATM   16  C   UNL     1     -10.614   8.800  70.359  1.00  0.00    -0.221 A  
HETATM   17  C   UNL     1     -12.117  12.675  68.801  1.00  0.00    -0.155 A  
HETATM   18  N   UNL     1     -11.154   9.880  70.912  1.00  0.00    -0.340 NA 
HETATM   19  C   UNL     1     -11.946  11.965  69.920  1.00  0.00    -0.325 A  
HETATM   20  N   UNL     1     -11.393  10.699  69.858  1.00  0.00    -0.290 NA 
BRANCH  15  21
HETATM   21  N   UNL     1     -11.847  12.801  66.383  1.00  0.00    -0.402 NA 
HETATM   22  C   UNL     1     -11.829  14.577  64.818  1.00  0.00    -0.446 C  
HETATM   23  C   UNL     1     -12.075  12.229  65.071  1.00  0.00    -0.327 C  
HETATM   24  C   UNL     1     -11.857  14.263  66.336  1.00  0.00    -0.411 C  
HETATM   25  C   UNL     1     -11.453  13.258  64.148  1.00  0.00    -0.438 C  
BRANCH  24  26
HETATM   26  C   UNL     1     -10.733  14.836  67.177  1.00  0.00    -0.299 A  
HETATM   27  C   UNL     1     -10.912  15.756  68.216  1.00  0.00    -0.325 A  
HETATM   28  C   UNL     1      -9.825  16.321  68.888  1.00  0.00    -0.246 A  
HETATM   29  F   UNL     1     -12.140  16.143  68.589  1.00  0.00    -0.354 F  
HETATM   30  C   UNL     1      -8.526  15.981  68.521  1.00  0.00    -0.189 A  
HETATM   31  C   UNL     1      -8.330  15.064  67.497  1.00  0.00    -0.176 A  
HETATM   32  C   UNL     1      -9.411  14.492  66.833  1.00  0.00    -0.258 A  
HETATM   33  F   UNL     1      -7.083  14.736  67.135  1.00  0.00    -0.212 F  
ENDBRANCH  24  26
ENDBRANCH  15  21
ENDBRANCH  10  12
ENDBRANCH   8  10
ENDBRANCH   6   8
TORSDOF 5
ENDMDL
MODEL      126
REMARK 921   NORMALIZED FREE ENERGY PREDICTED BY IDOCK:   -5.70 KCAL/MOL
REMARK 922        TOTAL FREE ENERGY PREDICTED BY IDOCK:   -9.10 KCAL/MOL
REMARK 923 INTER-LIGAND FREE ENERGY PREDICTED BY IDOCK:   -7.82 KCAL/MOL
REMARK 924 INTRA-LIGAND FREE ENERGY PREDICTED BY IDOCK:   -1.28 KCAL/MOL
REMARK 927      BINDING AFFINITY PREDICTED BY RF-SCORE:    0.00 PKD
ROOT
HETATM    1  O   UNL     1     -12.616  16.688  74.287  1.00  0.00    -0.683 OA 
HETATM    2  H   UNL     1     -11.838  16.641  74.831  1.00  0.00     0.000 HD 
HETATM    3  C   UNL     1     -12.852  15.457  73.624  1.00  0.00    -0.548 C  
HETATM    4  C   UNL     1     -14.100  15.531  72.752  1.00  0.00    -0.432 C  
HETATM    5  C   UNL     1     -13.869  14.427  71.743  1.00  0.00    -0.443 C  
HETATM    6  N   UNL     1     -12.431  14.415  71.535  1.00  0.00    -0.340 N  
HETATM    7  C   UNL     1     -11.745  15.111  72.620  1.00  0.00    -0.362 C  
ENDROOT
BRANCH   6   8
HETATM    8  C   UNL     1     -11.913  13.759  70.430  1.00  0.00    -0.315 C  
HETATM    9  O   UNL     1     -11.017  14.283  69.778  1.00  0.00    -0.188 OA 
BRANCH   8  10
HETATM   10  N   UNL     1     -12.518  12.556  70.157  1.00  0.00    -0.095 N  
HETATM   11  H   UNL     1     -13.436  12.591  69.716  1.00  0.00     0.000 HD 
BRANCH  10  12
HETATM   12  C   UNL     1     -11.998  11.293  70.424  1.00  0.00    -0.380 A  
HETATM   13  C   UNL     1     -10.815  10.682  70.033  1.00  0.00    -0.217 A  
HETATM   14  N   UNL     1      -9.732  11.078  69.282  1.00  0.00    -0.083 NA 
HETATM   15  C   UNL     1      -8.800  10.194  69.023  1.00  0.00    -0.166 A  
HETATM   16  C   UNL     1     -12.646  10.332  71.233  1.00  0.00    -0.418 A  
HETATM   17  C   UNL     1      -8.809   8.807  69.603  1.00  0.00    -0.141 A  
HETATM   18  N   UNL     1     -11.983   9.186  71.331  1.00  0.00    -0.317 NA 
HETATM   19  C   UNL     1      -9.853   8.478  70.370  1.00  0.00    -0.179 A  
HETATM   20  N   UNL     1     -10.866   9.393  70.589  1.00  0.00    -0.258 NA 
BRANCH  15  21
HETATM   21  N   UNL     1      -7.732  10.487  68.206  1.00  0.00    -0.098 NA 
HETATM   22  C   UNL     1      -6.367  11.087  66.368  1.00  0.00    -0.133 C  
HETATM   23  C   UNL     1      -6.420  10.816  68.726  1.00  0.00    -0.048 C  
HETATM   24  C   UNL     1      -7.735  10.462  66.743  1.00  0.00    -0.114 C  
HETATM   25  C   UNL     1      -5.858  11.730  67.655  1.00  0.00    -0.068 C  
BRANCH  24  26
HETATM   26  C   UNL     1      -8.974  11.142  66.196  1.00  0.00    -0.205 A  
HETATM   27  C   UNL     1     -10.075  10.467  65.658  1.00  0.00    -0.269 A  
HETATM   28  C   UNL     1     -11.144  11.156  65.079  1.00  0.00    -0.100 A  
HETATM   29  F   UNL     1     -10.131   9.128  65.662  1.00  0.00    -0.368 F  
HETATM   30  C   UNL     1     -11.125  12.547  65.017  1.00  0.00    -0.335 A  
HETATM   31  C   UNL     1     -10.044  13.233  65.553  1.00  0.00    -0.263 A  
HETATM   32  C   UNL     1      -8.983  12.550  66.139  1.00  0.00     0.069 A  
HETATM   33  F   UNL     1     -10.016  14.571  65.492  1.00  0.00    -0.322 F  
ENDBRANCH  24  26
ENDBRANCH  15  21
ENDBRANCH  10  12
ENDBRANCH   8  10
ENDBRANCH   6   8
TORSDOF 5
ENDMDL
MODEL      127
REMARK 921   NORMALIZED FREE ENERGY PREDICTED BY IDOCK:   -5.68 KCAL/MOL
REMARK 922        TOTAL FREE ENERGY PREDICTED BY IDOCK:   -9.07 KCAL/MOL
REMARK 923 INTER-LIGAND FREE ENERGY PREDICTED BY IDOCK:   -7.47 KCAL/MOL
REMARK 924 INTRA-LIGAND FREE ENERGY PREDICTED BY IDOCK:   -1.59 KCAL/MOL
REMARK 927      BINDING AFFINITY PREDICTED BY RF-SCORE:    0.00 PKD
ROOT
HETATM    1  O   UNL     1     -10.253   7.708  66.303  1.00  0.00    -0.476 OA 
HETATM    2  H   UNL     1      -9.989   7.824  65.398  1.00  0.00     0.000 HD 
HETATM    3  C   UNL     1      -9.905   8.837  67.087  1.00  0.00    -0.207 C  
HETATM    4  C   UNL     1     -10.328   8.651  68.540  1.00  0.00    -0.228 C  
HETATM    5  C   UNL     1      -9.413   9.603  69.279  1.00  0.00    -0.179 C  
HETATM    6  N   UNL     1      -8.171   9.577  68.527  1.00  0.00    -0.111 N  
HETATM    7  C   UNL     1      -8.387   9.033  67.189  1.00  0.00    -0.110 C  
ENDROOT
BRANCH   6   8
HETATM    8  C   UNL     1      -7.016  10.070  69.111  1.00  0.00    -0.059 C  
HETATM    9  O   UNL     1      -6.786   9.838  70.293  1.00  0.00    -0.080 OA 
BRANCH   8  10
HETATM   10  N   UNL     1      -6.241  10.831  68.269  1.00  0.00    -0.053 N  
HETATM   11  H   UNL     1      -5.551  10.336  67.703  1.00  0.00     0.000 HD 
BRANCH  10  12
HETATM   12  C   UNL     1      -6.306  12.212  68.112  1.00  0.00    -0.055 A  
HETATM   13  C   UNL     1      -7.306  13.037  67.618  1.00  0.00    -0.147 A  
HETATM   14  N   UNL     1      -8.577  12.823  67.133  1.00  0.00    -0.198 NA 
HETATM   15  C   UNL     1      -9.236  13.845  66.647  1.00  0.00    -0.236 A  
HETATM   16  C   UNL     1      -5.266  13.094  68.484  1.00  0.00    -0.070 A  
HETATM   17  C   UNL     1      -8.711  15.253  66.702  1.00  0.00    -0.327 A  
HETATM   18  N   UNL     1      -5.531  14.369  68.220  1.00  0.00    -0.106 NA 
HETATM   19  C   UNL     1      -7.495  15.427  67.226  1.00  0.00    -0.207 A  
HETATM   20  N   UNL     1      -6.776  14.336  67.680  1.00  0.00    -0.178 NA 
BRANCH  15  21
HETATM   21  N   UNL     1     -10.473  13.696  66.064  1.00  0.00    -0.294 NA 
HETATM   22  C   UNL     1     -12.779  13.325  65.673  1.00  0.00    -0.373 C  
HETATM   23  C   UNL     1     -10.780  14.209  64.744  1.00  0.00    -0.419 C  
HETATM   24  C   UNL     1     -11.614  12.979  66.636  1.00  0.00    -0.359 C  
HETATM   25  C   UNL     1     -12.267  14.494  64.836  1.00  0.00    -0.409 C  
BRANCH  24  26
HETATM   26  C   UNL     1     -11.799  13.339  68.096  1.00  0.00    -0.388 A  
HETATM   27  C   UNL     1     -12.107  12.420  69.105  1.00  0.00    -0.146 A  
HETATM   28  C   UNL     1     -12.363  12.831  70.416  1.00  0.00    -0.324 A  
HETATM   29  F   UNL     1     -12.189  11.108  68.840  1.00  0.00    -0.397 F  
HETATM   30  C   UNL     1     -12.324  14.184  70.742  1.00  0.00    -0.439 A  
HETATM   31  C   UNL     1     -12.011  15.109  69.755  1.00  0.00    -0.334 A  
HETATM   32  C   UNL     1     -11.747  14.702  68.451  1.00  0.00    -0.352 A  
HETATM   33  F   UNL     1     -11.978  16.412  70.060  1.00  0.00    -0.214 F  
ENDBRANCH  24  26
ENDBRANCH  15  21
ENDBRANCH  10  12
ENDBRANCH   8  10
ENDBRANCH   6   8
TORSDOF 5
ENDMDL
MODEL      128
REMARK 921   NORMALIZED FREE ENERGY PREDICTED BY IDOCK:   -5.67 KCAL/MOL
REMARK 922        TOTAL FREE ENERGY PREDICTED BY IDOCK:   -9.06 KCAL/MOL
REMARK 923 INTER-LIGAND FREE ENERGY PREDICTED BY IDOCK:   -7.83 KCAL/MOL
REMARK 924 INTRA-LIGAND FREE ENERGY PREDICTED BY IDOCK:   -1.23 KCAL/MOL
REMARK 927      BINDING AFFINITY PREDICTED BY RF-SCORE:    0.00 PKD
ROOT
HETATM    1  O   UNL     1      -5.985  12.662  66.810  1.00  0.00    -0.476 OA 
HETATM    2  H   UNL     1      -6.219  13.112  66.007  1.00  0.00     0.000 HD 
HETATM    3  C   UNL     1      -6.011  11.255  66.637  1.00  0.00    -0.145 C  
HETATM    4  C   UNL     1      -5.636  10.533  67.926  1.00  0.00    -0.040 C  
HETATM    5  C   UNL     1      -6.257   9.166  67.736  1.00  0.00    -0.051 C  
HETATM    6  N   UNL     1      -7.470   9.416  66.978  1.00  0.00    -0.091 N  
HETATM    7  C   UNL     1      -7.421  10.729  66.341  1.00  0.00    -0.142 C  
ENDROOT
BRANCH   6   8
HETATM    8  C   UNL     1      -8.446   8.434  66.920  1.00  0.00    -0.117 C  
HETATM    9  O   UNL     1      -8.815   8.007  65.832  1.00  0.00    -0.160 OA 
BRANCH   8  10
HETATM   10  N   UNL     1      -8.939   8.060  68.147  1.00  0.00    -0.135 N  
HETATM   11  H   UNL     1      -8.684   7.132  68.483  1.00  0.00     0.000 HD 
BRANCH  10  12
HETATM   12  C   UNL     1      -9.754   8.825  68.975  1.00  0.00    -0.172 A  
HETATM   13  C   UNL     1     -10.564   9.921  68.713  1.00  0.00    -0.222 A  
HETATM   14  N   UNL     1     -10.881  10.633  67.578  1.00  0.00    -0.276 NA 
HETATM   15  C   UNL     1     -11.628  11.702  67.705  1.00  0.00    -0.279 A  
HETATM   16  C   UNL     1      -9.923   8.577  70.356  1.00  0.00    -0.183 A  
HETATM   17  C   UNL     1     -12.243  12.116  69.013  1.00  0.00    -0.056 A  
HETATM   18  N   UNL     1     -10.726   9.448  70.958  1.00  0.00    -0.311 NA 
HETATM   19  C   UNL     1     -11.953  11.370  70.082  1.00  0.00    -0.377 A  
HETATM   20  N   UNL     1     -11.112  10.278  69.956  1.00  0.00    -0.289 NA 
BRANCH  15  21
HETATM   21  N   UNL     1     -11.914  12.514  66.632  1.00  0.00    -0.574 NA 
HETATM   22  C   UNL     1     -12.213  14.373  65.197  1.00  0.00    -0.393 C  
HETATM   23  C   UNL     1     -12.035  12.006  65.280  1.00  0.00    -0.139 C  
HETATM   24  C   UNL     1     -12.186  13.951  66.688  1.00  0.00    -0.424 C  
HETATM   25  C   UNL     1     -11.607  13.194  64.440  1.00  0.00    -0.422 C  
BRANCH  24  26
HETATM   26  C   UNL     1     -11.184  14.653  67.582  1.00  0.00    -0.332 A  
HETATM   27  C   UNL     1      -9.796  14.600  67.411  1.00  0.00    -0.222 A  
HETATM   28  C   UNL     1      -8.922  15.188  68.329  1.00  0.00    -0.175 A  
HETATM   29  F   UNL     1      -9.256  13.960  66.364  1.00  0.00    -0.269 F  
HETATM   30  C   UNL     1      -9.427  15.838  69.453  1.00  0.00    -0.275 A  
HETATM   31  C   UNL     1     -10.801  15.908  69.634  1.00  0.00    -0.314 A  
HETATM   32  C   UNL     1     -11.674  15.331  68.717  1.00  0.00    -0.374 A  
HETATM   33  F   UNL     1     -11.293  16.526  70.715  1.00  0.00    -0.393 F  
ENDBRANCH  24  26
ENDBRANCH  15  21
ENDBRANCH  10  12
ENDBRANCH   8  10
ENDBRANCH   6   8
TORSDOF 5
ENDMDL
MODEL      129
REMARK 921   NORMALIZED FREE ENERGY PREDICTED BY IDOCK:   -5.65 KCAL/MOL
REMARK 922        TOTAL FREE ENERGY PREDICTED BY IDOCK:   -9.03 KCAL/MOL
REMARK 923 INTER-LIGAND FREE ENERGY PREDICTED BY IDOCK:   -7.72 KCAL/MOL
REMARK 924 INTRA-LIGAND FREE ENERGY PREDICTED BY IDOCK:   -1.30 KCAL/MOL
REMARK 927      BINDING AFFINITY PREDICTED BY RF-SCORE:    0.00 PKD
ROOT
HETATM    1  O   UNL     1     -14.408   6.542  72.268  1.00  0.00    -0.622 OA 
HETATM    2  H   UNL     1     -14.316   5.685  71.868  1.00  0.00     0.000 HD 
HETATM    3  C   UNL     1     -13.601   7.504  71.611  1.00  0.00    -0.368 C  
HETATM    4  C   UNL     1     -13.749   8.879  72.252  1.00  0.00    -0.527 C  
HETATM    5  C   UNL     1     -12.470   9.578  71.844  1.00  0.00    -0.384 C  
HETATM    6  N   UNL     1     -11.469   8.524  71.817  1.00  0.00    -0.288 N  
HETATM    7  C   UNL     1     -12.103   7.210  71.759  1.00  0.00    -0.328 C  
ENDROOT
BRANCH   6   8
HETATM    8  C   UNL     1     -10.127   8.867  71.811  1.00  0.00    -0.337 C  
HETATM    9  O   UNL     1      -9.371   8.377  72.643  1.00  0.00    -0.262 OA 
BRANCH   8  10
HETATM   10  N   UNL     1      -9.787   9.789  70.850  1.00  0.00    -0.301 N  
HETATM   11  H   UNL     1     -10.002  10.765  71.052  1.00  0.00     0.000 HD 
BRANCH  10  12
HETATM   12  C   UNL     1      -9.178   9.521  69.629  1.00  0.00    -0.200 A  
HETATM   13  C   UNL     1      -8.486  10.337  68.745  1.00  0.00    -0.130 A  
HETATM   14  N   UNL     1      -8.128  11.666  68.744  1.00  0.00    -0.115 NA 
HETATM   15  C   UNL     1      -7.540  12.150  67.678  1.00  0.00    -0.140 A  
HETATM   16  C   UNL     1      -9.145   8.240  69.032  1.00  0.00    -0.147 A  
HETATM   17  C   UNL     1      -7.142  11.293  66.508  1.00  0.00    -0.097 A  
HETATM   18  N   UNL     1      -8.534   8.219  67.853  1.00  0.00    -0.131 NA 
HETATM   19  C   UNL     1      -7.462   9.997  66.569  1.00  0.00    -0.105 A  
HETATM   20  N   UNL     1      -8.138   9.504  67.669  1.00  0.00    -0.109 NA 
BRANCH  15  21
HETATM   21  N   UNL     1      -7.232  13.486  67.565  1.00  0.00    -0.169 NA 
HETATM   22  C   UNL     1      -7.346  15.845  67.407  1.00  0.00    -0.224 C  
HETATM   23  C   UNL     1      -5.906  14.006  67.832  1.00  0.00    -0.122 C  
HETATM   24  C   UNL     1      -8.141  14.545  67.124  1.00  0.00    -0.168 C  
HETATM   25  C   UNL     1      -6.192  15.416  68.310  1.00  0.00    -0.121 C  
BRANCH  24  26
HETATM   26  C   UNL     1      -9.493  14.407  67.794  1.00  0.00    -0.211 A  
HETATM   27  C   UNL     1     -10.612  13.811  67.202  1.00  0.00    -0.277 A  
HETATM   28  C   UNL     1     -11.858  13.804  67.835  1.00  0.00    -0.413 A  
HETATM   29  F   UNL     1     -10.529  13.241  65.992  1.00  0.00    -0.267 F  
HETATM   30  C   UNL     1     -12.010  14.410  69.080  1.00  0.00    -0.357 A  
HETATM   31  C   UNL     1     -10.908  14.999  69.685  1.00  0.00    -0.271 A  
HETATM   32  C   UNL     1      -9.665  14.999  69.061  1.00  0.00    -0.229 A  
HETATM   33  F   UNL     1     -11.049  15.588  70.879  1.00  0.00    -0.301 F  
ENDBRANCH  24  26
ENDBRANCH  15  21
ENDBRANCH  10  12
ENDBRANCH   8  10
ENDBRANCH   6   8
TORSDOF 5
ENDMDL
MODEL      130
REMARK 921   NORMALIZED FREE ENERGY PREDICTED BY IDOCK:   -5.65 KCAL/MOL
REMARK 922        TOTAL FREE ENERGY PREDICTED BY IDOCK:   -9.03 KCAL/MOL
REMARK 923 INTER-LIGAND FREE ENERGY PREDICTED BY IDOCK:   -7.71 KCAL/MOL
REMARK 924 INTRA-LIGAND FREE ENERGY PREDICTED BY IDOCK:   -1.31 KCAL/MOL
REMARK 927      BINDING AFFINITY PREDICTED BY RF-SCORE:    0.00 PKD
ROOT
HETATM    1  O   UNL     1      -9.081   8.737  67.053  1.00  0.00    -0.128 OA 
HETATM    2  H   UNL     1      -9.010   9.027  67.955  1.00  0.00     0.000 HD 
HETATM    3  C   UNL     1      -8.753   9.781  66.151  1.00  0.00    -0.136 C  
HETATM    4  C   UNL     1      -8.868   9.316  64.704  1.00  0.00    -0.218 C  
HETATM    5  C   UNL     1      -9.057  10.615  63.950  1.00  0.00    -0.224 C  
HETATM    6  N   UNL     1      -9.820  11.457  64.855  1.00  0.00    -0.249 N  
HETATM    7  C   UNL     1      -9.745  10.949  66.222  1.00  0.00    -0.204 C  
ENDROOT
BRANCH   6   8
HETATM    8  C   UNL     1     -10.453  12.585  64.358  1.00  0.00    -0.359 C  
HETATM    9  O   UNL     1     -11.274  12.472  63.455  1.00  0.00    -0.469 OA 
BRANCH   8  10
HETATM   10  N   UNL     1     -10.042  13.761  64.938  1.00  0.00    -0.607 N  
HETATM   11  H   UNL     1      -9.225  14.215  64.529  1.00  0.00     0.000 HD 
BRANCH  10  12
HETATM   12  C   UNL     1     -10.631  14.393  66.028  1.00  0.00    -0.302 A  
HETATM   13  C   UNL     1     -10.358  15.604  66.649  1.00  0.00    -0.289 A  
HETATM   14  N   UNL     1      -9.454  16.617  66.424  1.00  0.00    -0.264 NA 
HETATM   15  C   UNL     1      -9.403  17.606  67.283  1.00  0.00    -0.249 A  
HETATM   16  C   UNL     1     -11.727  13.862  66.746  1.00  0.00    -0.399 A  
HETATM   17  C   UNL     1     -10.363  17.735  68.433  1.00  0.00    -0.378 A  
HETATM   18  N   UNL     1     -12.111  14.621  67.766  1.00  0.00    -0.263 NA 
HETATM   19  C   UNL     1     -11.260  16.757  68.588  1.00  0.00    -0.170 A  
HETATM   20  N   UNL     1     -11.268  15.683  67.716  1.00  0.00    -0.322 NA 
BRANCH  15  21
HETATM   21  N   UNL     1      -8.468  18.609  67.176  1.00  0.00    -0.261 NA 
HETATM   22  C   UNL     1      -6.492  19.906  67.309  1.00  0.00    -0.222 C  
HETATM   23  C   UNL     1      -8.591  19.692  66.220  1.00  0.00    -0.366 C  
HETATM   24  C   UNL     1      -7.277  18.768  68.011  1.00  0.00    -0.243 C  
HETATM   25  C   UNL     1      -7.145  20.050  65.937  1.00  0.00    -0.317 C  
BRANCH  24  26
HETATM   26  C   UNL     1      -6.560  17.444  68.184  1.00  0.00    -0.166 A  
HETATM   27  C   UNL     1      -5.872  16.778  67.164  1.00  0.00    -0.171 A  
HETATM   28  C   UNL     1      -5.316  15.511  67.362  1.00  0.00     0.101 A  
HETATM   29  F   UNL     1      -5.740  17.328  65.949  1.00  0.00    -0.220 F  
HETATM   30  C   UNL     1      -5.449  14.877  68.595  1.00  0.00    -0.093 A  
HETATM   31  C   UNL     1      -6.122  15.528  69.621  1.00  0.00    -0.150 A  
HETATM   32  C   UNL     1      -6.668  16.792  69.429  1.00  0.00    -0.226 A  
HETATM   33  F   UNL     1      -6.260  14.921  70.807  1.00  0.00    -0.150 F  
ENDBRANCH  24  26
ENDBRANCH  15  21
ENDBRANCH  10  12
ENDBRANCH   8  10
ENDBRANCH   6   8
TORSDOF 5
ENDMDL
MODEL      131
REMARK 921   NORMALIZED FREE ENERGY PREDICTED BY IDOCK:   -5.61 KCAL/MOL
REMARK 922        TOTAL FREE ENERGY PREDICTED BY IDOCK:   -8.98 KCAL/MOL
REMARK 923 INTER-LIGAND FREE ENERGY PREDICTED BY IDOCK:   -8.57 KCAL/MOL
REMARK 924 INTRA-LIGAND FREE ENERGY PREDICTED BY IDOCK:   -0.41 KCAL/MOL
REMARK 927      BINDING AFFINITY PREDICTED BY RF-SCORE:    0.00 PKD
ROOT
HETATM    1  O   UNL     1      -7.299  20.109  67.424  1.00  0.00    -0.261 OA 
HETATM    2  H   UNL     1      -6.744  20.161  68.193  1.00  0.00     0.000 HD 
HETATM    3  C   UNL     1      -8.657  19.918  67.783  1.00  0.00    -0.317 C  
HETATM    4  C   UNL     1      -9.548  19.835  66.549  1.00  0.00    -0.509 C  
HETATM    5  C   UNL     1     -10.760  19.088  67.062  1.00  0.00    -0.432 C  
HETATM    6  N   UNL     1     -10.230  18.162  68.049  1.00  0.00    -0.362 N  
HETATM    7  C   UNL     1      -8.895  18.570  68.476  1.00  0.00    -0.326 C  
ENDROOT
BRANCH   6   8
HETATM    8  C   UNL     1     -11.013  17.099  68.468  1.00  0.00    -0.204 C  
HETATM    9  O   UNL     1     -11.783  16.563  67.679  1.00  0.00     0.201 OA 
BRANCH   8  10
HETATM   10  N   UNL     1     -10.857  16.776  69.795  1.00  0.00    -0.375 N  
HETATM   11  H   UNL     1     -10.257  17.386  70.350  1.00  0.00     0.000 HD 
BRANCH  10  12
HETATM   12  C   UNL     1     -11.438  15.698  70.454  1.00  0.00    -0.354 A  
HETATM   13  C   UNL     1     -11.529  14.354  70.119  1.00  0.00    -0.220 A  
HETATM   14  N   UNL     1     -11.081  13.594  69.062  1.00  0.00    -0.257 NA 
HETATM   15  C   UNL     1     -11.433  12.333  69.011  1.00  0.00    -0.297 A  
HETATM   16  C   UNL     1     -12.081  15.797  71.708  1.00  0.00    -0.464 A  
HETATM   17  C   UNL     1     -12.206  11.658  70.110  1.00  0.00    -0.367 A  
HETATM   18  N   UNL     1     -12.588  14.648  72.139  1.00  0.00    -0.325 NA 
HETATM   19  C   UNL     1     -12.580  12.418  71.143  1.00  0.00    -0.251 A  
HETATM   20  N   UNL     1     -12.261  13.763  71.163  1.00  0.00    -0.333 NA 
BRANCH  15  21
HETATM   21  N   UNL     1     -11.099  11.533  67.943  1.00  0.00    -0.237 NA 
HETATM   22  C   UNL     1     -10.203  10.686  65.922  1.00  0.00    -0.314 C  
HETATM   23  C   UNL     1     -11.220  10.089  67.983  1.00  0.00    -0.122 C  
HETATM   24  C   UNL     1     -10.639  11.993  66.632  1.00  0.00    -0.232 C  
HETATM   25  C   UNL     1     -10.131   9.638  67.030  1.00  0.00    -0.275 C  
BRANCH  24  26
HETATM   26  C   UNL     1      -9.591  13.077  66.780  1.00  0.00    -0.248 A  
HETATM   27  C   UNL     1      -8.445  12.966  67.575  1.00  0.00    -0.186 A  
HETATM   28  C   UNL     1      -7.567  14.040  67.746  1.00  0.00    -0.177 A  
HETATM   29  F   UNL     1      -8.160  11.825  68.218  1.00  0.00    -0.123 F  
HETATM   30  C   UNL     1      -7.829  15.260  67.128  1.00  0.00    -0.249 A  
HETATM   31  C   UNL     1      -8.958  15.385  66.330  1.00  0.00    -0.306 A  
HETATM   32  C   UNL     1      -9.828  14.315  66.149  1.00  0.00    -0.335 A  
HETATM   33  F   UNL     1      -9.220  16.557  65.737  1.00  0.00    -0.318 F  
ENDBRANCH  24  26
ENDBRANCH  15  21
ENDBRANCH  10  12
ENDBRANCH   8  10
ENDBRANCH   6   8
TORSDOF 5
ENDMDL
MODEL      132
REMARK 921   NORMALIZED FREE ENERGY PREDICTED BY IDOCK:   -5.56 KCAL/MOL
REMARK 922        TOTAL FREE ENERGY PREDICTED BY IDOCK:   -8.92 KCAL/MOL
REMARK 923 INTER-LIGAND FREE ENERGY PREDICTED BY IDOCK:   -8.53 KCAL/MOL
REMARK 924 INTRA-LIGAND FREE ENERGY PREDICTED BY IDOCK:   -0.39 KCAL/MOL
REMARK 927      BINDING AFFINITY PREDICTED BY RF-SCORE:    0.00 PKD
ROOT
HETATM    1  O   UNL     1      -9.656  20.987  66.943  1.00  0.00    -0.671 OA 
HETATM    2  H   UNL     1     -10.059  21.198  66.109  1.00  0.00     0.000 HD 
HETATM    3  C   UNL     1      -9.315  19.613  67.015  1.00  0.00    -0.346 C  
HETATM    4  C   UNL     1      -8.668  19.274  68.354  1.00  0.00    -0.395 C  
HETATM    5  C   UNL     1      -8.909  17.785  68.474  1.00  0.00    -0.283 C  
HETATM    6  N   UNL     1     -10.197  17.569  67.836  1.00  0.00    -0.332 N  
HETATM    7  C   UNL     1     -10.549  18.702  66.984  1.00  0.00    -0.397 C  
ENDROOT
BRANCH   6   8
HETATM    8  C   UNL     1     -10.874  16.382  68.063  1.00  0.00    -0.342 C  
HETATM    9  O   UNL     1     -11.389  15.787  67.124  1.00  0.00    -0.190 OA 
BRANCH   8  10
HETATM   10  N   UNL     1     -10.925  16.010  69.386  1.00  0.00    -0.296 N  
HETATM   11  H   UNL     1     -10.453  16.618  70.054  1.00  0.00     0.000 HD 
BRANCH  10  12
HETATM   12  C   UNL     1     -11.558  14.883  69.900  1.00  0.00    -0.289 A  
HETATM   13  C   UNL     1     -11.423  13.534  69.603  1.00  0.00    -0.217 A  
HETATM   14  N   UNL     1     -10.629  12.815  68.738  1.00  0.00    -0.223 NA 
HETATM   15  C   UNL     1     -10.830  11.524  68.640  1.00  0.00    -0.212 A  
HETATM   16  C   UNL     1     -12.530  14.927  70.926  1.00  0.00    -0.330 A  
HETATM   17  C   UNL     1     -11.808  10.783  69.509  1.00  0.00    -0.380 A  
HETATM   18  N   UNL     1     -13.022  13.735  71.243  1.00  0.00    -0.343 NA 
HETATM   19  C   UNL     1     -12.523  11.509  70.371  1.00  0.00    -0.240 A  
HETATM   20  N   UNL     1     -12.354  12.881  70.428  1.00  0.00    -0.299 NA 
BRANCH  15  21
HETATM   21  N   UNL     1     -10.138  10.752  67.735  1.00  0.00    -0.170 NA 
HETATM   22  C   UNL     1      -8.834   9.066  66.705  1.00  0.00    -0.152 C  
HETATM   23  C   UNL     1     -10.349  10.850  66.304  1.00  0.00    -0.250 C  
HETATM   24  C   UNL     1      -9.083   9.789  68.053  1.00  0.00    -0.125 C  
HETATM   25  C   UNL     1     -10.020   9.451  65.823  1.00  0.00    -0.278 C  
BRANCH  24  26
HETATM   26  C   UNL     1      -9.483   8.924  69.232  1.00  0.00    -0.161 A  
HETATM   27  C   UNL     1     -10.466   7.930  69.187  1.00  0.00    -0.209 A  
HETATM   28  C   UNL     1     -10.857   7.235  70.335  1.00  0.00    -0.265 A  
HETATM   29  F   UNL     1     -11.084   7.625  68.037  1.00  0.00    -0.156 F  
HETATM   30  C   UNL     1     -10.272   7.534  71.563  1.00  0.00    -0.208 A  
HETATM   31  C   UNL     1      -9.289   8.512  71.624  1.00  0.00    -0.241 A  
HETATM   32  C   UNL     1      -8.891   9.198  70.481  1.00  0.00    -0.263 A  
HETATM   33  F   UNL     1      -8.727   8.808  72.803  1.00  0.00    -0.268 F  
ENDBRANCH  24  26
ENDBRANCH  15  21
ENDBRANCH  10  12
ENDBRANCH   8  10
ENDBRANCH   6   8
TORSDOF 5
ENDMDL
MODEL      133
REMARK 921   NORMALIZED FREE ENERGY PREDICTED BY IDOCK:   -5.54 KCAL/MOL
REMARK 922        TOTAL FREE ENERGY PREDICTED BY IDOCK:   -8.89 KCAL/MOL
REMARK 923 INTER-LIGAND FREE ENERGY PREDICTED BY IDOCK:   -7.46 KCAL/MOL
REMARK 924 INTRA-LIGAND FREE ENERGY PREDICTED BY IDOCK:   -1.43 KCAL/MOL
REMARK 927      BINDING AFFINITY PREDICTED BY RF-SCORE:    0.00 PKD
ROOT
HETATM    1  O   UNL     1     -10.310  19.934  69.194  1.00  0.00    -0.631 OA 
HETATM    2  H   UNL     1     -11.138  20.397  69.227  1.00  0.00     0.000 HD 
HETATM    3  C   UNL     1      -9.960  19.600  67.862  1.00  0.00    -0.411 C  
HETATM    4  C   UNL     1      -8.631  18.855  67.810  1.00  0.00    -0.318 C  
HETATM    5  C   UNL     1      -8.715  18.113  66.493  1.00  0.00    -0.268 C  
HETATM    6  N   UNL     1     -10.121  17.779  66.349  1.00  0.00    -0.344 N  
HETATM    7  C   UNL     1     -10.942  18.604  67.231  1.00  0.00    -0.159 C  
ENDROOT
BRANCH   6   8
HETATM    8  C   UNL     1     -10.496  16.814  65.430  1.00  0.00    -0.193 C  
HETATM    9  O   UNL     1     -11.264  17.106  64.520  1.00  0.00    -1.104 OA 
BRANCH   8  10
HETATM   10  N   UNL     1      -9.969  15.568  65.676  1.00  0.00    -0.351 N  
HETATM   11  H   UNL     1      -9.036  15.383  65.310  1.00  0.00     0.000 HD 
BRANCH  10  12
HETATM   12  C   UNL     1     -10.585  14.537  66.377  1.00  0.00    -0.302 A  
HETATM   13  C   UNL     1     -10.290  13.184  66.474  1.00  0.00    -0.283 A  
HETATM   14  N   UNL     1      -9.303  12.376  65.956  1.00  0.00    -0.170 NA 
HETATM   15  C   UNL     1      -9.375  11.087  66.179  1.00  0.00    -0.191 A  
HETATM   16  C   UNL     1     -11.717  14.716  67.204  1.00  0.00    -0.373 A  
HETATM   17  C   UNL     1     -10.422  10.472  67.066  1.00  0.00    -0.304 A  
HETATM   18  N   UNL     1     -12.155  13.590  67.756  1.00  0.00    -0.327 NA 
HETATM   19  C   UNL     1     -11.333  11.296  67.591  1.00  0.00    -0.282 A  
HETATM   20  N   UNL     1     -11.290  12.648  67.302  1.00  0.00    -0.299 NA 
BRANCH  15  21
HETATM   21  N   UNL     1      -8.478  10.206  65.622  1.00  0.00    -0.147 NA 
HETATM   22  C   UNL     1      -6.580   8.862  65.178  1.00  0.00    -0.065 C  
HETATM   23  C   UNL     1      -8.868   9.211  64.643  1.00  0.00    -0.142 C  
HETATM   24  C   UNL     1      -7.037  10.168  65.876  1.00  0.00    -0.121 C  
HETATM   25  C   UNL     1      -7.869   8.096  64.887  1.00  0.00    -0.128 C  
BRANCH  24  26
HETATM   26  C   UNL     1      -6.749  10.291  67.359  1.00  0.00    -0.072 A  
HETATM   27  C   UNL     1      -6.250  11.444  67.975  1.00  0.00    -0.049 A  
HETATM   28  C   UNL     1      -5.912  11.461  69.331  1.00  0.00    -0.066 A  
HETATM   29  F   UNL     1      -6.059  12.571  67.275  1.00  0.00    -0.128 F  
HETATM   30  C   UNL     1      -6.059  10.309  70.100  1.00  0.00    -0.088 A  
HETATM   31  C   UNL     1      -6.561   9.159  69.506  1.00  0.00    -0.043 A  
HETATM   32  C   UNL     1      -6.907   9.142  68.159  1.00  0.00    -0.068 A  
HETATM   33  F   UNL     1      -6.699   8.046  70.239  1.00  0.00    -0.037 F  
ENDBRANCH  24  26
ENDBRANCH  15  21
ENDBRANCH  10  12
ENDBRANCH   8  10
ENDBRANCH   6   8
TORSDOF 5
ENDMDL
MODEL      134
REMARK 921   NORMALIZED FREE ENERGY PREDICTED BY IDOCK:   -5.53 KCAL/MOL
REMARK 922        TOTAL FREE ENERGY PREDICTED BY IDOCK:   -8.88 KCAL/MOL
REMARK 923 INTER-LIGAND FREE ENERGY PREDICTED BY IDOCK:   -8.47 KCAL/MOL
REMARK 924 INTRA-LIGAND FREE ENERGY PREDICTED BY IDOCK:   -0.41 KCAL/MOL
REMARK 927      BINDING AFFINITY PREDICTED BY RF-SCORE:    0.00 PKD
ROOT
HETATM    1  O   UNL     1      -8.811  17.755  65.851  1.00  0.00    -0.512 OA 
HETATM    2  H   UNL     1      -8.725  18.640  66.185  1.00  0.00     0.000 HD 
HETATM    3  C   UNL     1      -9.968  17.122  66.371  1.00  0.00    -0.306 C  
HETATM    4  C   UNL     1     -10.107  15.701  65.837  1.00  0.00    -0.378 C  
HETATM    5  C   UNL     1     -10.980  15.036  66.879  1.00  0.00    -0.324 C  
HETATM    6  N   UNL     1     -10.598  15.663  68.133  1.00  0.00    -0.266 N  
HETATM    7  C   UNL     1      -9.891  16.917  67.890  1.00  0.00    -0.263 C  
ENDROOT
BRANCH   6   8
HETATM    8  C   UNL     1     -10.956  15.060  69.327  1.00  0.00    -0.264 C  
HETATM    9  O   UNL     1     -10.529  15.507  70.386  1.00  0.00    -0.313 OA 
BRANCH   8  10
HETATM   10  N   UNL     1     -11.757  13.953  69.180  1.00  0.00    -0.313 N  
HETATM   11  H   UNL     1     -12.003  13.686  68.227  1.00  0.00     0.000 HD 
BRANCH  10  12
HETATM   12  C   UNL     1     -12.265  13.161  70.204  1.00  0.00    -0.290 A  
HETATM   13  C   UNL     1     -12.095  11.815  70.499  1.00  0.00    -0.347 A  
HETATM   14  N   UNL     1     -11.371  10.791  69.931  1.00  0.00    -0.288 NA 
HETATM   15  C   UNL     1     -11.513   9.584  70.422  1.00  0.00    -0.242 A  
HETATM   16  C   UNL     1     -13.109  13.647  71.228  1.00  0.00    -0.282 A  
HETATM   17  C   UNL     1     -12.341   9.295  71.643  1.00  0.00    -0.450 A  
HETATM   18  N   UNL     1     -13.497  12.710  72.086  1.00  0.00    -0.531 NA 
HETATM   19  C   UNL     1     -12.988  10.324  72.196  1.00  0.00    -0.311 A  
HETATM   20  N   UNL     1     -12.886  11.585  71.637  1.00  0.00    -0.399 NA 
BRANCH  15  21
HETATM   21  N   UNL     1     -10.893   8.495  69.855  1.00  0.00    -0.230 NA 
HETATM   22  C   UNL     1      -9.715   7.045  68.401  1.00  0.00    -0.139 C  
HETATM   23  C   UNL     1     -10.488   7.338  70.627  1.00  0.00    -0.214 C  
HETATM   24  C   UNL     1     -10.606   8.314  68.431  1.00  0.00    -0.099 C  
HETATM   25  C   UNL     1      -9.291   6.824  69.851  1.00  0.00    -0.157 C  
BRANCH  24  26
HETATM   26  C   UNL     1     -10.021   9.578  67.835  1.00  0.00    -0.209 A  
HETATM   27  C   UNL     1      -8.832  10.178  68.262  1.00  0.00    -0.124 A  
HETATM   28  C   UNL     1      -8.398  11.399  67.737  1.00  0.00    -0.127 A  
HETATM   29  F   UNL     1      -8.076   9.609  69.211  1.00  0.00    -0.083 F  
HETATM   30  C   UNL     1      -9.160  12.052  66.772  1.00  0.00    -0.197 A  
HETATM   31  C   UNL     1     -10.339  11.466  66.331  1.00  0.00    -0.242 A  
HETATM   32  C   UNL     1     -10.768  10.247  66.845  1.00  0.00    -0.252 A  
HETATM   33  F   UNL     1     -11.080  12.092  65.407  1.00  0.00    -0.317 F  
ENDBRANCH  24  26
ENDBRANCH  15  21
ENDBRANCH  10  12
ENDBRANCH   8  10
ENDBRANCH   6   8
TORSDOF 5
ENDMDL
MODEL      135
REMARK 921   NORMALIZED FREE ENERGY PREDICTED BY IDOCK:   -5.52 KCAL/MOL
REMARK 922        TOTAL FREE ENERGY PREDICTED BY IDOCK:   -8.86 KCAL/MOL
REMARK 923 INTER-LIGAND FREE ENERGY PREDICTED BY IDOCK:   -7.45 KCAL/MOL
REMARK 924 INTRA-LIGAND FREE ENERGY PREDICTED BY IDOCK:   -1.42 KCAL/MOL
REMARK 927      BINDING AFFINITY PREDICTED BY RF-SCORE:    0.00 PKD
ROOT
HETATM    1  O   UNL     1     -13.490  15.781  70.943  1.00  0.00    -0.716 OA 
HETATM    2  H   UNL     1     -12.887  16.362  70.496  1.00  0.00     0.000 HD 
HETATM    3  C   UNL     1     -12.854  14.571  71.319  1.00  0.00    -0.332 C  
HETATM    4  C   UNL     1     -13.823  13.638  72.038  1.00  0.00    -0.565 C  
HETATM    5  C   UNL     1     -13.188  12.279  71.837  1.00  0.00    -0.376 C  
HETATM    6  N   UNL     1     -12.566  12.354  70.526  1.00  0.00    -0.154 N  
HETATM    7  C   UNL     1     -12.408  13.744  70.107  1.00  0.00    -0.323 C  
ENDROOT
BRANCH   6   8
HETATM    8  C   UNL     1     -12.188  11.184  69.889  1.00  0.00    -0.314 C  
HETATM    9  O   UNL     1     -12.428  11.036  68.696  1.00  0.00    -0.462 OA 
BRANCH   8  10
HETATM   10  N   UNL     1     -11.592  10.261  70.716  1.00  0.00    -0.335 N  
HETATM   11  H   UNL     1     -11.544  10.495  71.707  1.00  0.00     0.000 HD 
BRANCH  10  12
HETATM   12  C   UNL     1     -11.048   9.040  70.331  1.00  0.00    -0.244 A  
HETATM   13  C   UNL     1      -9.901   8.727  69.616  1.00  0.00    -0.183 A  
HETATM   14  N   UNL     1      -8.887   9.469  69.052  1.00  0.00    -0.138 NA 
HETATM   15  C   UNL     1      -7.979   8.842  68.346  1.00  0.00    -0.105 A  
HETATM   16  C   UNL     1     -11.621   7.789  70.652  1.00  0.00    -0.218 A  
HETATM   17  C   UNL     1      -7.935   7.345  68.221  1.00  0.00    -0.124 A  
HETATM   18  N   UNL     1     -10.949   6.755  70.161  1.00  0.00    -0.271 NA 
HETATM   19  C   UNL     1      -8.908   6.657  68.825  1.00  0.00    -0.126 A  
HETATM   20  N   UNL     1      -9.901   7.326  69.516  1.00  0.00    -0.162 NA 
BRANCH  15  21
HETATM   21  N   UNL     1      -6.986   9.522  67.679  1.00  0.00    -0.079 NA 
HETATM   22  C   UNL     1      -5.785  10.955  66.227  1.00  0.00    -0.128 C  
HETATM   23  C   UNL     1      -5.635   9.631  68.192  1.00  0.00    -0.040 C  
HETATM   24  C   UNL     1      -7.114  10.171  66.373  1.00  0.00    -0.107 C  
HETATM   25  C   UNL     1      -5.170  10.958  67.624  1.00  0.00    -0.040 C  
BRANCH  24  26
HETATM   26  C   UNL     1      -8.397  10.973  66.295  1.00  0.00    -0.166 A  
HETATM   27  C   UNL     1      -9.552  10.555  65.624  1.00  0.00    -0.226 A  
HETATM   28  C   UNL     1     -10.670  11.385  65.505  1.00  0.00    -0.313 A  
HETATM   29  F   UNL     1      -9.616   9.344  65.053  1.00  0.00    -0.324 F  
HETATM   30  C   UNL     1     -10.648  12.666  66.051  1.00  0.00    -0.294 A  
HETATM   31  C   UNL     1      -9.513  13.094  66.727  1.00  0.00    -0.252 A  
HETATM   32  C   UNL     1      -8.402  12.266  66.855  1.00  0.00    -0.137 A  
HETATM   33  F   UNL     1      -9.482  14.327  67.249  1.00  0.00    -0.198 F  
ENDBRANCH  24  26
ENDBRANCH  15  21
ENDBRANCH  10  12
ENDBRANCH   8  10
ENDBRANCH   6   8
TORSDOF 5
ENDMDL
MODEL      136
REMARK 921   NORMALIZED FREE ENERGY PREDICTED BY IDOCK:   -5.52 KCAL/MOL
REMARK 922        TOTAL FREE ENERGY PREDICTED BY IDOCK:   -8.86 KCAL/MOL
REMARK 923 INTER-LIGAND FREE ENERGY PREDICTED BY IDOCK:   -7.55 KCAL/MOL
REMARK 924 INTRA-LIGAND FREE ENERGY PREDICTED BY IDOCK:   -1.31 KCAL/MOL
REMARK 927      BINDING AFFINITY PREDICTED BY RF-SCORE:    0.00 PKD
ROOT
HETATM    1  O   UNL     1      -6.057   5.522  68.231  1.00  0.00    -0.023 OA 
HETATM    2  H   UNL     1      -6.200   4.635  67.920  1.00  0.00     0.000 HD 
HETATM    3  C   UNL     1      -7.168   5.990  68.976  1.00  0.00    -0.083 C  
HETATM    4  C   UNL     1      -6.938   7.413  69.474  1.00  0.00    -0.057 C  
HETATM    5  C   UNL     1      -8.346   7.918  69.705  1.00  0.00    -0.127 C  
HETATM    6  N   UNL     1      -9.141   7.272  68.674  1.00  0.00    -0.134 N  
HETATM    7  C   UNL     1      -8.434   6.121  68.120  1.00  0.00    -0.116 C  
ENDROOT
BRANCH   6   8
HETATM    8  C   UNL     1     -10.402   7.766  68.385  1.00  0.00    -0.196 C  
HETATM    9  O   UNL     1     -10.789   7.802  67.222  1.00  0.00    -0.284 OA 
BRANCH   8  10
HETATM   10  N   UNL     1     -11.095   8.216  69.484  1.00  0.00    -0.439 N  
HETATM   11  H   UNL     1     -11.405   7.512  70.153  1.00  0.00     0.000 HD 
BRANCH  10  12
HETATM   12  C   UNL     1     -11.413   9.539  69.772  1.00  0.00    -0.010 A  
HETATM   13  C   UNL     1     -11.563  10.649  68.953  1.00  0.00    -0.249 A  
HETATM   14  N   UNL     1     -11.482  10.861  67.595  1.00  0.00    -0.518 NA 
HETATM   15  C   UNL     1     -11.590  12.089  67.151  1.00  0.00    -0.316 A  
HETATM   16  C   UNL     1     -11.681  10.017  71.075  1.00  0.00    -0.392 A  
HETATM   17  C   UNL     1     -11.911  13.253  68.046  1.00  0.00    -0.392 A  
HETATM   18  N   UNL     1     -11.936  11.319  71.121  1.00  0.00    -0.133 NA 
HETATM   19  C   UNL     1     -12.033  12.999  69.352  1.00  0.00    -0.281 A  
HETATM   20  N   UNL     1     -11.855  11.712  69.825  1.00  0.00    -0.334 NA 
BRANCH  15  21
HETATM   21  N   UNL     1     -11.432  12.391  65.818  1.00  0.00    -0.352 NA 
HETATM   22  C   UNL     1     -10.602  12.593  63.610  1.00  0.00    -0.378 C  
HETATM   23  C   UNL     1     -12.541  12.777  64.969  1.00  0.00    -0.468 C  
HETATM   24  C   UNL     1     -10.164  12.424  65.088  1.00  0.00    -0.281 C  
HETATM   25  C   UNL     1     -12.098  12.289  63.603  1.00  0.00    -0.648 C  
BRANCH  24  26
HETATM   26  C   UNL     1      -9.320  11.210  65.420  1.00  0.00    -0.243 A  
HETATM   27  C   UNL     1      -8.436  11.133  66.502  1.00  0.00    -0.165 A  
HETATM   28  C   UNL     1      -7.613  10.020  66.696  1.00  0.00    -0.104 A  
HETATM   29  F   UNL     1      -8.335  12.139  67.381  1.00  0.00    -0.141 F  
HETATM   30  C   UNL     1      -7.652   8.959  65.794  1.00  0.00    -0.090 A  
HETATM   31  C   UNL     1      -8.529   9.016  64.720  1.00  0.00    -0.180 A  
HETATM   32  C   UNL     1      -9.357  10.118  64.530  1.00  0.00    -0.345 A  
HETATM   33  F   UNL     1      -8.567   8.002  63.846  1.00  0.00    -0.071 F  
ENDBRANCH  24  26
ENDBRANCH  15  21
ENDBRANCH  10  12
ENDBRANCH   8  10
ENDBRANCH   6   8
TORSDOF 5
ENDMDL
MODEL      137
REMARK 921   NORMALIZED FREE ENERGY PREDICTED BY IDOCK:   -5.50 KCAL/MOL
REMARK 922        TOTAL FREE ENERGY PREDICTED BY IDOCK:   -8.83 KCAL/MOL
REMARK 923 INTER-LIGAND FREE ENERGY PREDICTED BY IDOCK:   -8.60 KCAL/MOL
REMARK 924 INTRA-LIGAND FREE ENERGY PREDICTED BY IDOCK:   -0.23 KCAL/MOL
REMARK 927      BINDING AFFINITY PREDICTED BY RF-SCORE:    0.00 PKD
ROOT
HETATM    1  O   UNL     1      -8.161  17.404  65.813  1.00  0.00    -0.543 OA 
HETATM    2  H   UNL     1      -7.912  18.311  65.944  1.00  0.00     0.000 HD 
HETATM    3  C   UNL     1      -9.482  17.163  66.267  1.00  0.00    -0.243 C  
HETATM    4  C   UNL     1      -9.880  15.706  66.057  1.00  0.00    -0.362 C  
HETATM    5  C   UNL     1     -10.991  15.515  67.067  1.00  0.00    -0.283 C  
HETATM    6  N   UNL     1     -10.617  16.359  68.189  1.00  0.00    -0.304 N  
HETATM    7  C   UNL     1      -9.622  17.347  67.784  1.00  0.00    -0.264 C  
ENDROOT
BRANCH   6   8
HETATM    8  C   UNL     1     -11.233  16.167  69.414  1.00  0.00    -0.335 C  
HETATM    9  O   UNL     1     -10.754  16.674  70.422  1.00  0.00    -0.135 OA 
BRANCH   8  10
HETATM   10  N   UNL     1     -12.345  15.359  69.364  1.00  0.00    -0.592 N  
HETATM   11  H   UNL     1     -13.037  15.572  68.646  1.00  0.00     0.000 HD 
BRANCH  10  12
HETATM   12  C   UNL     1     -12.618  14.280  70.198  1.00  0.00    -0.282 A  
HETATM   13  C   UNL     1     -12.239  12.947  70.132  1.00  0.00    -0.266 A  
HETATM   14  N   UNL     1     -11.462  12.209  69.268  1.00  0.00    -0.287 NA 
HETATM   15  C   UNL     1     -11.385  10.914  69.453  1.00  0.00    -0.280 A  
HETATM   16  C   UNL     1     -13.388  14.375  71.379  1.00  0.00    -0.349 A  
HETATM   17  C   UNL     1     -12.015  10.221  70.629  1.00  0.00    -0.436 A  
HETATM   18  N   UNL     1     -13.544  13.215  72.006  1.00  0.00    -0.487 NA 
HETATM   19  C   UNL     1     -12.719  10.979  71.474  1.00  0.00    -0.415 A  
HETATM   20  N   UNL     1     -12.850  12.336  71.240  1.00  0.00    -0.312 NA 
BRANCH  15  21
HETATM   21  N   UNL     1     -10.702  10.099  68.581  1.00  0.00    -0.211 NA 
HETATM   22  C   UNL     1      -9.283   8.459  67.631  1.00  0.00    -0.147 C  
HETATM   23  C   UNL     1     -11.116   9.907  67.205  1.00  0.00     0.064 C  
HETATM   24  C   UNL     1      -9.467   9.369  68.872  1.00  0.00    -0.154 C  
HETATM   25  C   UNL     1     -10.625   8.505  66.903  1.00  0.00    -0.279 C  
BRANCH  24  26
HETATM   26  C   UNL     1      -9.554   8.683  70.220  1.00  0.00    -0.186 A  
HETATM   27  C   UNL     1      -8.664   8.899  71.277  1.00  0.00    -0.215 A  
HETATM   28  C   UNL     1      -8.740   8.161  72.461  1.00  0.00    -0.266 A  
HETATM   29  F   UNL     1      -7.689   9.814  71.180  1.00  0.00    -0.064 F  
HETATM   30  C   UNL     1      -9.713   7.174  72.606  1.00  0.00    -0.186 A  
HETATM   31  C   UNL     1     -10.610   6.952  71.570  1.00  0.00    -0.217 A  
HETATM   32  C   UNL     1     -10.542   7.693  70.394  1.00  0.00    -0.233 A  
HETATM   33  F   UNL     1     -11.544   6.001  71.700  1.00  0.00    -0.331 F  
ENDBRANCH  24  26
ENDBRANCH  15  21
ENDBRANCH  10  12
ENDBRANCH   8  10
ENDBRANCH   6   8
TORSDOF 5
ENDMDL
MODEL      138
REMARK 921   NORMALIZED FREE ENERGY PREDICTED BY IDOCK:   -5.48 KCAL/MOL
REMARK 922        TOTAL FREE ENERGY PREDICTED BY IDOCK:   -8.81 KCAL/MOL
REMARK 923 INTER-LIGAND FREE ENERGY PREDICTED BY IDOCK:   -7.84 KCAL/MOL
REMARK 924 INTRA-LIGAND FREE ENERGY PREDICTED BY IDOCK:   -0.97 KCAL/MOL
REMARK 927      BINDING AFFINITY PREDICTED BY RF-SCORE:    0.00 PKD
ROOT
HETATM    1  O   UNL     1      -9.444  20.205  66.034  1.00  0.00    -0.566 OA 
HETATM    2  H   UNL     1      -9.499  20.185  65.086  1.00  0.00     0.000 HD 
HETATM    3  C   UNL     1      -9.257  18.904  66.565  1.00  0.00    -0.331 C  
HETATM    4  C   UNL     1      -9.169  18.936  68.086  1.00  0.00    -0.361 C  
HETATM    5  C   UNL     1      -9.549  17.523  68.473  1.00  0.00    -0.305 C  
HETATM    6  N   UNL     1     -10.528  17.120  67.478  1.00  0.00    -0.348 N  
HETATM    7  C   UNL     1     -10.460  17.987  66.305  1.00  0.00    -0.335 C  
ENDROOT
BRANCH   6   8
HETATM    8  C   UNL     1     -11.328  16.017  67.723  1.00  0.00    -0.167 C  
HETATM    9  O   UNL     1     -11.539  15.207  66.828  1.00  0.00    -0.270 OA 
BRANCH   8  10
HETATM   10  N   UNL     1     -11.850  15.973  68.994  1.00  0.00    -0.374 N  
HETATM   11  H   UNL     1     -12.033  16.868  69.448  1.00  0.00     0.000 HD 
BRANCH  10  12
HETATM   12  C   UNL     1     -12.152  14.827  69.722  1.00  0.00    -0.319 A  
HETATM   13  C   UNL     1     -11.743  13.509  69.577  1.00  0.00    -0.322 A  
HETATM   14  N   UNL     1     -10.898  12.855  68.709  1.00  0.00    -0.253 NA 
HETATM   15  C   UNL     1     -10.807  11.551  68.796  1.00  0.00    -0.216 A  
HETATM   16  C   UNL     1     -12.997  14.816  70.855  1.00  0.00    -0.364 A  
HETATM   17  C   UNL     1     -11.494  10.757  69.872  1.00  0.00    -0.398 A  
HETATM   18  N   UNL     1     -13.168  13.608  71.379  1.00  0.00    -0.313 NA 
HETATM   19  C   UNL     1     -12.266  11.434  70.727  1.00  0.00    -0.376 A  
HETATM   20  N   UNL     1     -12.410  12.803  70.592  1.00  0.00    -0.345 NA 
BRANCH  15  21
HETATM   21  N   UNL     1     -10.053  10.818  67.909  1.00  0.00    -0.169 NA 
HETATM   22  C   UNL     1      -8.290   9.957  66.584  1.00  0.00    -0.125 C  
HETATM   23  C   UNL     1     -10.469   9.519  67.419  1.00  0.00    -0.272 C  
HETATM   24  C   UNL     1      -8.791  11.239  67.298  1.00  0.00    -0.150 C  
HETATM   25  C   UNL     1      -9.147   8.827  67.149  1.00  0.00    -0.155 C  
BRANCH  24  26
HETATM   26  C   UNL     1      -7.871  11.852  68.334  1.00  0.00    -0.141 A  
HETATM   27  C   UNL     1      -7.551  13.213  68.402  1.00  0.00    -0.133 A  
HETATM   28  C   UNL     1      -6.618  13.700  69.321  1.00  0.00    -0.110 A  
HETATM   29  F   UNL     1      -8.119  14.095  67.568  1.00  0.00    -0.136 F  
HETATM   30  C   UNL     1      -5.973  12.824  70.190  1.00  0.00    -0.135 A  
HETATM   31  C   UNL     1      -6.285  11.472  70.142  1.00  0.00    -0.132 A  
HETATM   32  C   UNL     1      -7.220  10.985  69.235  1.00  0.00    -0.124 A  
HETATM   33  F   UNL     1      -5.664  10.623  70.971  1.00  0.00    -0.094 F  
ENDBRANCH  24  26
ENDBRANCH  15  21
ENDBRANCH  10  12
ENDBRANCH   8  10
ENDBRANCH   6   8
TORSDOF 5
ENDMDL
MODEL      139
REMARK 921   NORMALIZED FREE ENERGY PREDICTED BY IDOCK:   -5.47 KCAL/MOL
REMARK 922        TOTAL FREE ENERGY PREDICTED BY IDOCK:   -8.80 KCAL/MOL
REMARK 923 INTER-LIGAND FREE ENERGY PREDICTED BY IDOCK:   -7.24 KCAL/MOL
REMARK 924 INTRA-LIGAND FREE ENERGY PREDICTED BY IDOCK:   -1.57 KCAL/MOL
REMARK 927      BINDING AFFINITY PREDICTED BY RF-SCORE:    0.00 PKD
ROOT
HETATM    1  O   UNL     1     -10.929  15.090  71.249  1.00  0.00    -0.558 OA 
HETATM    2  H   UNL     1     -11.686  14.914  71.795  1.00  0.00     0.000 HD 
HETATM    3  C   UNL     1     -11.316  15.442  69.932  1.00  0.00    -0.304 C  
HETATM    4  C   UNL     1     -10.100  15.723  69.056  1.00  0.00    -0.225 C  
HETATM    5  C   UNL     1     -10.638  15.506  67.658  1.00  0.00    -0.291 C  
HETATM    6  N   UNL     1     -11.615  14.440  67.803  1.00  0.00    -0.338 N  
HETATM    7  C   UNL     1     -12.014  14.290  69.199  1.00  0.00    -0.335 C  
ENDROOT
BRANCH   6   8
HETATM    8  C   UNL     1     -12.051  13.765  66.675  1.00  0.00    -0.429 C  
HETATM    9  O   UNL     1     -12.504  14.395  65.726  1.00  0.00    -0.396 OA 
BRANCH   8  10
HETATM   10  N   UNL     1     -11.958  12.396  66.768  1.00  0.00    -0.305 N  
HETATM   11  H   UNL     1     -12.708  11.916  67.264  1.00  0.00     0.000 HD 
BRANCH  10  12
HETATM   12  C   UNL     1     -10.939  11.603  66.250  1.00  0.00    -0.289 A  
HETATM   13  C   UNL     1      -9.938  10.868  66.871  1.00  0.00    -0.194 A  
HETATM   14  N   UNL     1      -9.594  10.630  68.182  1.00  0.00    -0.153 NA 
HETATM   15  C   UNL     1      -8.503   9.944  68.423  1.00  0.00    -0.111 A  
HETATM   16  C   UNL     1     -10.743  11.377  64.869  1.00  0.00    -0.286 A  
HETATM   17  C   UNL     1      -7.681   9.315  67.333  1.00  0.00    -0.095 A  
HETATM   18  N   UNL     1      -9.694  10.609  64.600  1.00  0.00    -0.273 NA 
HETATM   19  C   UNL     1      -8.076   9.527  66.075  1.00  0.00    -0.111 A  
HETATM   20  N   UNL     1      -9.192  10.305  65.823  1.00  0.00    -0.166 NA 
BRANCH  15  21
HETATM   21  N   UNL     1      -8.046   9.740  69.704  1.00  0.00    -0.137 NA 
HETATM   22  C   UNL     1      -7.723   8.939  71.908  1.00  0.00     0.026 C  
HETATM   23  C   UNL     1      -6.747  10.204  70.151  1.00  0.00    -0.138 C  
HETATM   24  C   UNL     1      -8.786   9.097  70.791  1.00  0.00    -0.239 C  
HETATM   25  C   UNL     1      -6.384   9.192  71.220  1.00  0.00    -0.078 C  
BRANCH  24  26
HETATM   26  C   UNL     1      -9.466   7.834  70.305  1.00  0.00    -0.160 A  
HETATM   27  C   UNL     1     -10.850   7.687  70.156  1.00  0.00    -0.248 A  
HETATM   28  C   UNL     1     -11.421   6.462  69.798  1.00  0.00    -0.468 A  
HETATM   29  F   UNL     1     -11.679   8.717  70.373  1.00  0.00    -0.257 F  
HETATM   30  C   UNL     1     -10.610   5.349  69.591  1.00  0.00    -0.328 A  
HETATM   31  C   UNL     1      -9.235   5.480  69.727  1.00  0.00    -0.137 A  
HETATM   32  C   UNL     1      -8.663   6.699  70.073  1.00  0.00    -0.141 A  
HETATM   33  F   UNL     1      -8.450   4.412  69.535  1.00  0.00    -0.073 F  
ENDBRANCH  24  26
ENDBRANCH  15  21
ENDBRANCH  10  12
ENDBRANCH   8  10
ENDBRANCH   6   8
TORSDOF 5
ENDMDL
MODEL      140
REMARK 921   NORMALIZED FREE ENERGY PREDICTED BY IDOCK:   -5.46 KCAL/MOL
REMARK 922        TOTAL FREE ENERGY PREDICTED BY IDOCK:   -8.79 KCAL/MOL
REMARK 923 INTER-LIGAND FREE ENERGY PREDICTED BY IDOCK:   -7.24 KCAL/MOL
REMARK 924 INTRA-LIGAND FREE ENERGY PREDICTED BY IDOCK:   -1.56 KCAL/MOL
REMARK 927      BINDING AFFINITY PREDICTED BY RF-SCORE:    0.00 PKD
ROOT
HETATM    1  O   UNL     1      -6.948  14.621  70.016  1.00  0.00    -0.306 OA 
HETATM    2  H   UNL     1      -6.836  15.563  69.964  1.00  0.00     0.000 HD 
HETATM    3  C   UNL     1      -7.258  14.071  68.746  1.00  0.00    -0.113 C  
HETATM    4  C   UNL     1      -7.440  12.560  68.829  1.00  0.00    -0.049 C  
HETATM    5  C   UNL     1      -8.288  12.258  67.612  1.00  0.00    -0.166 C  
HETATM    6  N   UNL     1      -9.147  13.421  67.466  1.00  0.00    -0.204 N  
HETATM    7  C   UNL     1      -8.613  14.556  68.213  1.00  0.00    -0.171 C  
ENDROOT
BRANCH   6   8
HETATM    8  C   UNL     1     -10.271  13.335  66.662  1.00  0.00    -0.265 C  
HETATM    9  O   UNL     1     -10.277  13.880  65.564  1.00  0.00    -0.311 OA 
BRANCH   8  10
HETATM   10  N   UNL     1     -11.316  12.645  67.230  1.00  0.00    -0.299 N  
HETATM   11  H   UNL     1     -11.805  11.976  66.634  1.00  0.00     0.000 HD 
BRANCH  10  12
HETATM   12  C   UNL     1     -11.773  12.772  68.537  1.00  0.00    -0.333 A  
HETATM   13  C   UNL     1     -11.983  11.829  69.534  1.00  0.00    -0.300 A  
HETATM   14  N   UNL     1     -11.808  10.467  69.622  1.00  0.00    -0.217 NA 
HETATM   15  C   UNL     1     -12.206   9.858  70.712  1.00  0.00    -0.291 A  
HETATM   16  C   UNL     1     -12.116  14.006  69.134  1.00  0.00    -0.337 A  
HETATM   17  C   UNL     1     -12.738  10.597  71.909  1.00  0.00    -0.410 A  
HETATM   18  N   UNL     1     -12.554  13.889  70.382  1.00  0.00    -0.312 NA 
HETATM   19  C   UNL     1     -12.845  11.925  71.803  1.00  0.00    -0.284 A  
HETATM   20  N   UNL     1     -12.483  12.556  70.628  1.00  0.00    -0.288 NA 
BRANCH  15  21
HETATM   21  N   UNL     1     -12.147   8.490  70.839  1.00  0.00    -0.204 NA 
HETATM   22  C   UNL     1     -11.429   6.234  70.880  1.00  0.00    -0.377 C  
HETATM   23  C   UNL     1     -13.134   7.732  71.582  1.00  0.00    -0.345 C  
HETATM   24  C   UNL     1     -11.151   7.611  70.224  1.00  0.00    -0.244 C  
HETATM   25  C   UNL     1     -12.336   6.538  72.070  1.00  0.00    -0.308 C  
BRANCH  24  26
HETATM   26  C   UNL     1      -9.756   8.180  70.388  1.00  0.00    -0.179 A  
HETATM   27  C   UNL     1      -8.926   8.557  69.327  1.00  0.00    -0.146 A  
HETATM   28  C   UNL     1      -7.612   8.983  69.542  1.00  0.00    -0.077 A  
HETATM   29  F   UNL     1      -9.359   8.501  68.060  1.00  0.00    -0.135 F  
HETATM   30  C   UNL     1      -7.097   9.030  70.835  1.00  0.00    -0.098 A  
HETATM   31  C   UNL     1      -7.911   8.668  71.900  1.00  0.00    -0.070 A  
HETATM   32  C   UNL     1      -9.222   8.252  71.690  1.00  0.00    -0.245 A  
HETATM   33  F   UNL     1      -7.421   8.705  73.146  1.00  0.00    -0.151 F  
ENDBRANCH  24  26
ENDBRANCH  15  21
ENDBRANCH  10  12
ENDBRANCH   8  10
ENDBRANCH   6   8
TORSDOF 5
ENDMDL
MODEL      141
REMARK 921   NORMALIZED FREE ENERGY PREDICTED BY IDOCK:   -5.46 KCAL/MOL
REMARK 922        TOTAL FREE ENERGY PREDICTED BY IDOCK:   -8.78 KCAL/MOL
REMARK 923 INTER-LIGAND FREE ENERGY PREDICTED BY IDOCK:   -8.03 KCAL/MOL
REMARK 924 INTRA-LIGAND FREE ENERGY PREDICTED BY IDOCK:   -0.75 KCAL/MOL
REMARK 927      BINDING AFFINITY PREDICTED BY RF-SCORE:    0.00 PKD
ROOT
HETATM    1  O   UNL     1      -8.206   6.185  74.300  1.00  0.00    -0.111 OA 
HETATM    2  H   UNL     1      -8.661   5.726  74.997  1.00  0.00     0.000 HD 
HETATM    3  C   UNL     1      -8.940   7.319  73.870  1.00  0.00    -0.219 C  
HETATM    4  C   UNL     1      -8.211   8.056  72.751  1.00  0.00    -0.212 C  
HETATM    5  C   UNL     1      -9.328   8.813  72.067  1.00  0.00    -0.252 C  
HETATM    6  N   UNL     1     -10.486   7.943  72.182  1.00  0.00    -0.231 N  
HETATM    7  C   UNL     1     -10.278   6.940  73.223  1.00  0.00    -0.258 C  
ENDROOT
BRANCH   6   8
HETATM    8  C   UNL     1     -11.588   8.174  71.376  1.00  0.00    -0.278 C  
HETATM    9  O   UNL     1     -11.726   7.537  70.337  1.00  0.00    -0.212 OA 
BRANCH   8  10
HETATM   10  N   UNL     1     -12.423   9.165  71.835  1.00  0.00    -0.362 N  
HETATM   11  H   UNL     1     -13.092   8.905  72.559  1.00  0.00     0.000 HD 
BRANCH  10  12
HETATM   12  C   UNL     1     -12.443  10.489  71.408  1.00  0.00    -0.411 A  
HETATM   13  C   UNL     1     -11.717  11.151  70.428  1.00  0.00    -0.320 A  
HETATM   14  N   UNL     1     -10.755  10.769  69.521  1.00  0.00    -0.235 NA 
HETATM   15  C   UNL     1     -10.196  11.695  68.781  1.00  0.00    -0.177 A  
HETATM   16  C   UNL     1     -13.303  11.474  71.943  1.00  0.00    -0.303 A  
HETATM   17  C   UNL     1     -10.640  13.132  68.802  1.00  0.00    -0.225 A  
HETATM   18  N   UNL     1     -13.133  12.676  71.405  1.00  0.00    -0.286 NA 
HETATM   19  C   UNL     1     -11.612  13.453  69.660  1.00  0.00    -0.268 A  
HETATM   20  N   UNL     1     -12.155  12.485  70.484  1.00  0.00    -0.345 NA 
BRANCH  15  21
HETATM   21  N   UNL     1      -9.167  11.406  67.916  1.00  0.00    -0.159 NA 
HETATM   22  C   UNL     1      -7.822  11.116  65.989  1.00  0.00    -0.020 C  
HETATM   23  C   UNL     1      -7.795  11.254  68.359  1.00  0.00    -0.136 C  
HETATM   24  C   UNL     1      -9.293  11.161  66.479  1.00  0.00    -0.180 C  
HETATM   25  C   UNL     1      -7.003  11.689  67.142  1.00  0.00    -0.144 C  
BRANCH  24  26
HETATM   26  C   UNL     1     -10.200  12.190  65.835  1.00  0.00    -0.272 A  
HETATM   27  C   UNL     1      -9.943  13.565  65.808  1.00  0.00    -0.252 A  
HETATM   28  C   UNL     1     -10.869  14.472  65.286  1.00  0.00    -0.377 A  
HETATM   29  F   UNL     1      -8.802  14.062  66.305  1.00  0.00    -0.176 F  
HETATM   30  C   UNL     1     -12.086  14.015  64.785  1.00  0.00    -0.455 A  
HETATM   31  C   UNL     1     -12.353  12.653  64.797  1.00  0.00    -0.489 A  
HETATM   32  C   UNL     1     -11.429  11.747  65.307  1.00  0.00    -0.250 A  
HETATM   33  F   UNL     1     -13.524  12.207  64.322  1.00  0.00    -0.412 F  
ENDBRANCH  24  26
ENDBRANCH  15  21
ENDBRANCH  10  12
ENDBRANCH   8  10
ENDBRANCH   6   8
TORSDOF 5
ENDMDL
MODEL      142
REMARK 921   NORMALIZED FREE ENERGY PREDICTED BY IDOCK:   -5.45 KCAL/MOL
REMARK 922        TOTAL FREE ENERGY PREDICTED BY IDOCK:   -8.78 KCAL/MOL
REMARK 923 INTER-LIGAND FREE ENERGY PREDICTED BY IDOCK:   -6.94 KCAL/MOL
REMARK 924 INTRA-LIGAND FREE ENERGY PREDICTED BY IDOCK:   -1.84 KCAL/MOL
REMARK 927      BINDING AFFINITY PREDICTED BY RF-SCORE:    0.00 PKD
ROOT
HETATM    1  O   UNL     1      -8.424   5.199  71.633  1.00  0.00    -0.121 OA 
HETATM    2  H   UNL     1      -7.792   5.639  72.188  1.00  0.00     0.000 HD 
HETATM    3  C   UNL     1      -9.292   6.129  71.007  1.00  0.00    -0.164 C  
HETATM    4  C   UNL     1     -10.308   5.423  70.116  1.00  0.00    -0.361 C  
HETATM    5  C   UNL     1     -11.431   6.434  70.023  1.00  0.00    -0.428 C  
HETATM    6  N   UNL     1     -11.437   7.096  71.317  1.00  0.00    -0.270 N  
HETATM    7  C   UNL     1     -10.174   6.876  72.016  1.00  0.00    -0.187 C  
ENDROOT
BRANCH   6   8
HETATM    8  C   UNL     1     -12.545   7.837  71.692  1.00  0.00    -0.332 C  
HETATM    9  O   UNL     1     -13.668   7.367  71.548  1.00  0.00    -0.385 OA 
BRANCH   8  10
HETATM   10  N   UNL     1     -12.247   9.090  72.171  1.00  0.00    -0.369 N  
HETATM   11  H   UNL     1     -11.954   9.153  73.146  1.00  0.00     0.000 HD 
BRANCH  10  12
HETATM   12  C   UNL     1     -12.305  10.281  71.455  1.00  0.00    -0.390 A  
HETATM   13  C   UNL     1     -11.804  10.633  70.209  1.00  0.00    -0.342 A  
HETATM   14  N   UNL     1     -11.106   9.963  69.230  1.00  0.00    -0.213 NA 
HETATM   15  C   UNL     1     -10.697  10.640  68.186  1.00  0.00    -0.225 A  
HETATM   16  C   UNL     1     -12.965  11.443  71.916  1.00  0.00    -0.361 A  
HETATM   17  C   UNL     1     -11.054  12.083  67.961  1.00  0.00    -0.292 A  
HETATM   18  N   UNL     1     -12.872  12.473  71.082  1.00  0.00    -0.281 NA 
HETATM   19  C   UNL     1     -11.776  12.685  68.910  1.00  0.00    -0.325 A  
HETATM   20  N   UNL     1     -12.152  11.983  70.041  1.00  0.00    -0.303 NA 
BRANCH  15  21
HETATM   21  N   UNL     1      -9.919  10.063  67.210  1.00  0.00    -0.188 NA 
HETATM   22  C   UNL     1      -8.104   9.348  65.868  1.00  0.00    -0.114 C  
HETATM   23  C   UNL     1     -10.396   8.982  66.369  1.00  0.00    -0.149 C  
HETATM   24  C   UNL     1      -8.561  10.466  66.840  1.00  0.00    -0.127 C  
HETATM   25  C   UNL     1      -9.123   8.225  66.048  1.00  0.00    -0.228 C  
BRANCH  24  26
HETATM   26  C   UNL     1      -7.712  10.692  68.075  1.00  0.00    -0.100 A  
HETATM   27  C   UNL     1      -7.563   9.766  69.113  1.00  0.00    -0.085 A  
HETATM   28  C   UNL     1      -6.845  10.075  70.271  1.00  0.00    -0.147 A  
HETATM   29  F   UNL     1      -8.126   8.552  69.038  1.00  0.00    -0.106 F  
HETATM   30  C   UNL     1      -6.267  11.334  70.417  1.00  0.00    -0.067 A  
HETATM   31  C   UNL     1      -6.398  12.261  69.393  1.00  0.00    -0.118 A  
HETATM   32  C   UNL     1      -7.104  11.953  68.235  1.00  0.00    -0.081 A  
HETATM   33  F   UNL     1      -5.849  13.476  69.529  1.00  0.00    -0.084 F  
ENDBRANCH  24  26
ENDBRANCH  15  21
ENDBRANCH  10  12
ENDBRANCH   8  10
ENDBRANCH   6   8
TORSDOF 5
ENDMDL
MODEL      143
REMARK 921   NORMALIZED FREE ENERGY PREDICTED BY IDOCK:   -5.44 KCAL/MOL
REMARK 922        TOTAL FREE ENERGY PREDICTED BY IDOCK:   -8.76 KCAL/MOL
REMARK 923 INTER-LIGAND FREE ENERGY PREDICTED BY IDOCK:   -7.57 KCAL/MOL
REMARK 924 INTRA-LIGAND FREE ENERGY PREDICTED BY IDOCK:   -1.20 KCAL/MOL
REMARK 927      BINDING AFFINITY PREDICTED BY RF-SCORE:    0.00 PKD
ROOT
HETATM    1  O   UNL     1      -8.481   8.513  70.673  1.00  0.00    -0.126 OA 
HETATM    2  H   UNL     1      -7.976   8.783  71.431  1.00  0.00     0.000 HD 
HETATM    3  C   UNL     1      -7.927   9.034  69.476  1.00  0.00    -0.099 C  
HETATM    4  C   UNL     1      -8.736   8.602  68.259  1.00  0.00    -0.142 C  
HETATM    5  C   UNL     1      -8.385   9.656  67.232  1.00  0.00    -0.114 C  
HETATM    6  N   UNL     1      -8.203  10.874  68.004  1.00  0.00    -0.117 N  
HETATM    7  C   UNL     1      -7.999  10.566  69.416  1.00  0.00    -0.140 C  
ENDROOT
BRANCH   6   8
HETATM    8  C   UNL     1      -8.204  12.095  67.350  1.00  0.00    -0.175 C  
HETATM    9  O   UNL     1      -8.766  12.204  66.267  1.00  0.00    -0.117 OA 
BRANCH   8  10
HETATM   10  N   UNL     1      -7.510  13.084  68.006  1.00  0.00    -0.118 N  
HETATM   11  H   UNL     1      -6.702  12.793  68.555  1.00  0.00     0.000 HD 
BRANCH  10  12
HETATM   12  C   UNL     1      -7.803  14.444  67.994  1.00  0.00    -0.140 A  
HETATM   13  C   UNL     1      -8.772  15.183  68.658  1.00  0.00    -0.174 A  
HETATM   14  N   UNL     1      -9.762  14.877  69.565  1.00  0.00    -0.097 NA 
HETATM   15  C   UNL     1     -10.585  15.828  69.930  1.00  0.00    -0.328 A  
HETATM   16  C   UNL     1      -7.081  15.396  67.241  1.00  0.00    -0.171 A  
HETATM   17  C   UNL     1     -10.425  17.257  69.490  1.00  0.00    -0.054 A  
HETATM   18  N   UNL     1      -7.550  16.633  67.357  1.00  0.00    -0.156 NA 
HETATM   19  C   UNL     1      -9.422  17.524  68.649  1.00  0.00    -0.278 A  
HETATM   20  N   UNL     1      -8.593  16.504  68.216  1.00  0.00    -0.194 NA 
BRANCH  15  21
HETATM   21  N   UNL     1     -11.652  15.581  70.763  1.00  0.00    -0.330 NA 
HETATM   22  C   UNL     1     -13.549  14.634  71.816  1.00  0.00    -0.481 C  
HETATM   23  C   UNL     1     -11.793  16.214  72.059  1.00  0.00    -0.530 C  
HETATM   24  C   UNL     1     -12.795  14.717  70.464  1.00  0.00    -0.322 C  
HETATM   25  C   UNL     1     -12.568  15.179  72.851  1.00  0.00    -0.512 C  
BRANCH  24  26
HETATM   26  C   UNL     1     -12.336  13.409  69.851  1.00  0.00    -0.259 A  
HETATM   27  C   UNL     1     -12.103  13.214  68.486  1.00  0.00    -0.182 A  
HETATM   28  C   UNL     1     -11.776  11.956  67.972  1.00  0.00    -0.382 A  
HETATM   29  F   UNL     1     -12.206  14.230  67.617  1.00  0.00    -0.397 F  
HETATM   30  C   UNL     1     -11.687  10.857  68.824  1.00  0.00    -0.355 A  
HETATM   31  C   UNL     1     -11.907  11.036  70.183  1.00  0.00    -0.357 A  
HETATM   32  C   UNL     1     -12.223  12.289  70.698  1.00  0.00    -0.378 A  
HETATM   33  F   UNL     1     -11.828   9.982  71.007  1.00  0.00    -0.341 F  
ENDBRANCH  24  26
ENDBRANCH  15  21
ENDBRANCH  10  12
ENDBRANCH   8  10
ENDBRANCH   6   8
TORSDOF 5
ENDMDL
MODEL      144
REMARK 921   NORMALIZED FREE ENERGY PREDICTED BY IDOCK:   -5.42 KCAL/MOL
REMARK 922        TOTAL FREE ENERGY PREDICTED BY IDOCK:   -8.74 KCAL/MOL
REMARK 923 INTER-LIGAND FREE ENERGY PREDICTED BY IDOCK:   -7.35 KCAL/MOL
REMARK 924 INTRA-LIGAND FREE ENERGY PREDICTED BY IDOCK:   -1.39 KCAL/MOL
REMARK 927      BINDING AFFINITY PREDICTED BY RF-SCORE:    0.00 PKD
ROOT
HETATM    1  O   UNL     1      -8.914  19.082  65.975  1.00  0.00    -0.456 OA 
HETATM    2  H   UNL     1      -8.001  19.343  65.972  1.00  0.00     0.000 HD 
HETATM    3  C   UNL     1      -9.302  18.586  67.245  1.00  0.00    -0.280 C  
HETATM    4  C   UNL     1     -10.767  18.166  67.249  1.00  0.00    -0.336 C  
HETATM    5  C   UNL     1     -10.831  17.185  68.400  1.00  0.00    -0.309 C  
HETATM    6  N   UNL     1      -9.539  16.520  68.387  1.00  0.00    -0.226 N  
HETATM    7  C   UNL     1      -8.568  17.291  67.617  1.00  0.00    -0.217 C  
ENDROOT
BRANCH   6   8
HETATM    8  C   UNL     1      -9.381  15.336  69.088  1.00  0.00    -0.236 C  
HETATM    9  O   UNL     1      -8.288  15.053  69.565  1.00  0.00    -0.184 OA 
BRANCH   8  10
HETATM   10  N   UNL     1     -10.513  14.558  69.139  1.00  0.00    -0.306 N  
HETATM   11  H   UNL     1     -11.160  14.735  69.908  1.00  0.00     0.000 HD 
BRANCH  10  12
HETATM   12  C   UNL     1     -10.863  13.552  68.244  1.00  0.00    -0.259 A  
HETATM   13  C   UNL     1     -10.343  12.283  68.036  1.00  0.00    -0.214 A  
HETATM   14  N   UNL     1      -9.338  11.547  68.623  1.00  0.00    -0.172 NA 
HETATM   15  C   UNL     1      -9.037  10.382  68.104  1.00  0.00    -0.142 A  
HETATM   16  C   UNL     1     -11.924  13.660  67.316  1.00  0.00    -0.381 A  
HETATM   17  C   UNL     1      -9.815   9.769  66.973  1.00  0.00    -0.245 A  
HETATM   18  N   UNL     1     -12.063  12.591  66.541  1.00  0.00    -0.585 NA 
HETATM   19  C   UNL     1     -10.816  10.493  66.464  1.00  0.00    -0.058 A  
HETATM   20  N   UNL     1     -11.089  11.749  66.972  1.00  0.00    -0.288 NA 
BRANCH  15  21
HETATM   21  N   UNL     1      -7.989   9.629  68.579  1.00  0.00    -0.088 NA 
HETATM   22  C   UNL     1      -6.658   8.041  69.724  1.00  0.00    -0.037 C  
HETATM   23  C   UNL     1      -6.704   9.572  67.909  1.00  0.00    -0.066 C  
HETATM   24  C   UNL     1      -7.982   8.842  69.813  1.00  0.00    -0.095 C  
HETATM   25  C   UNL     1      -6.201   8.189  68.275  1.00  0.00    -0.050 C  
BRANCH  24  26
HETATM   26  C   UNL     1      -9.262   8.041  69.946  1.00  0.00    -0.152 A  
HETATM   27  C   UNL     1     -10.432   8.514  70.551  1.00  0.00    -0.204 A  
HETATM   28  C   UNL     1     -11.546   7.690  70.731  1.00  0.00    -0.284 A  
HETATM   29  F   UNL     1     -10.514   9.774  71.000  1.00  0.00    -0.350 F  
HETATM   30  C   UNL     1     -11.506   6.362  70.313  1.00  0.00    -0.468 A  
HETATM   31  C   UNL     1     -10.356   5.880  69.703  1.00  0.00    -0.247 A  
HETATM   32  C   UNL     1      -9.249   6.700  69.514  1.00  0.00    -0.143 A  
HETATM   33  F   UNL     1     -10.309   4.602  69.304  1.00  0.00    -0.265 F  
ENDBRANCH  24  26
ENDBRANCH  15  21
ENDBRANCH  10  12
ENDBRANCH   8  10
ENDBRANCH   6   8
TORSDOF 5
ENDMDL
MODEL      145
REMARK 921   NORMALIZED FREE ENERGY PREDICTED BY IDOCK:   -5.41 KCAL/MOL
REMARK 922        TOTAL FREE ENERGY PREDICTED BY IDOCK:   -8.72 KCAL/MOL
REMARK 923 INTER-LIGAND FREE ENERGY PREDICTED BY IDOCK:   -7.41 KCAL/MOL
REMARK 924 INTRA-LIGAND FREE ENERGY PREDICTED BY IDOCK:   -1.31 KCAL/MOL
REMARK 927      BINDING AFFINITY PREDICTED BY RF-SCORE:    0.00 PKD
ROOT
HETATM    1  O   UNL     1     -13.606  15.629  71.733  1.00  0.00    -0.481 OA 
HETATM    2  H   UNL     1     -12.975  16.307  71.523  1.00  0.00     0.000 HD 
HETATM    3  C   UNL     1     -12.969  14.376  71.921  1.00  0.00    -0.349 C  
HETATM    4  C   UNL     1     -13.981  13.287  72.258  1.00  0.00    -0.559 C  
HETATM    5  C   UNL     1     -13.255  12.021  71.858  1.00  0.00    -0.364 C  
HETATM    6  N   UNL     1     -12.457  12.404  70.706  1.00  0.00    -0.324 N  
HETATM    7  C   UNL     1     -12.311  13.856  70.637  1.00  0.00    -0.381 C  
ENDROOT
BRANCH   6   8
HETATM    8  C   UNL     1     -11.932  11.417  69.888  1.00  0.00    -0.359 C  
HETATM    9  O   UNL     1     -12.387  11.255  68.762  1.00  0.00    -0.518 OA 
BRANCH   8  10
HETATM   10  N   UNL     1     -10.937  10.672  70.475  1.00  0.00    -0.425 N  
HETATM   11  H   UNL     1     -10.050  11.143  70.650  1.00  0.00     0.000 HD 
BRANCH  10  12
HETATM   12  C   UNL     1     -11.024   9.336  70.854  1.00  0.00    -0.299 A  
HETATM   13  C   UNL     1     -10.737   8.164  70.168  1.00  0.00    -0.243 A  
HETATM   14  N   UNL     1     -10.255   7.879  68.911  1.00  0.00    -0.202 NA 
HETATM   15  C   UNL     1     -10.190   6.624  68.541  1.00  0.00    -0.171 A  
HETATM   16  C   UNL     1     -11.443   8.908  72.134  1.00  0.00    -0.317 A  
HETATM   17  C   UNL     1     -10.510   5.484  69.468  1.00  0.00    -0.368 A  
HETATM   18  N   UNL     1     -11.476   7.587  72.268  1.00  0.00    -0.287 NA 
HETATM   19  C   UNL     1     -10.926   5.800  70.697  1.00  0.00    -0.249 A  
HETATM   20  N   UNL     1     -11.054   7.128  71.063  1.00  0.00    -0.253 NA 
BRANCH  15  21
HETATM   21  N   UNL     1      -9.804   6.264  67.270  1.00  0.00    -0.129 NA 
HETATM   22  C   UNL     1      -8.579   5.909  65.275  1.00  0.00    -0.119 C  
HETATM   23  C   UNL     1     -10.527   5.286  66.483  1.00  0.00    -0.298 C  
HETATM   24  C   UNL     1      -8.680   6.827  66.520  1.00  0.00    -0.136 C  
HETATM   25  C   UNL     1      -9.439   4.692  65.610  1.00  0.00    -0.178 C  
BRANCH  24  26
HETATM   26  C   UNL     1      -7.448   6.935  67.396  1.00  0.00    -0.097 A  
HETATM   27  C   UNL     1      -6.861   5.860  68.070  1.00  0.00    -0.067 A  
HETATM   28  C   UNL     1      -5.784   6.043  68.942  1.00  0.00    -0.012 A  
HETATM   29  F   UNL     1      -7.328   4.613  67.918  1.00  0.00    -0.063 F  
HETATM   30  C   UNL     1      -5.278   7.322  69.165  1.00  0.00    -0.015 A  
HETATM   31  C   UNL     1      -5.844   8.399  68.497  1.00  0.00    -0.041 A  
HETATM   32  C   UNL     1      -6.909   8.218  67.621  1.00  0.00    -0.070 A  
HETATM   33  F   UNL     1      -5.366   9.632  68.710  1.00  0.00    -0.037 F  
ENDBRANCH  24  26
ENDBRANCH  15  21
ENDBRANCH  10  12
ENDBRANCH   8  10
ENDBRANCH   6   8
TORSDOF 5
ENDMDL
MODEL      146
REMARK 921   NORMALIZED FREE ENERGY PREDICTED BY IDOCK:   -5.37 KCAL/MOL
REMARK 922        TOTAL FREE ENERGY PREDICTED BY IDOCK:   -8.67 KCAL/MOL
REMARK 923 INTER-LIGAND FREE ENERGY PREDICTED BY IDOCK:   -7.16 KCAL/MOL
REMARK 924 INTRA-LIGAND FREE ENERGY PREDICTED BY IDOCK:   -1.51 KCAL/MOL
REMARK 927      BINDING AFFINITY PREDICTED BY RF-SCORE:    0.00 PKD
ROOT
HETATM    1  O   UNL     1      -6.946  11.151  66.312  1.00  0.00    -0.246 OA 
HETATM    2  H   UNL     1      -6.741  10.235  66.461  1.00  0.00     0.000 HD 
HETATM    3  C   UNL     1      -7.678  11.696  67.397  1.00  0.00    -0.147 C  
HETATM    4  C   UNL     1      -8.008  13.165  67.157  1.00  0.00    -0.083 C  
HETATM    5  C   UNL     1      -9.205  13.390  68.055  1.00  0.00    -0.209 C  
HETATM    6  N   UNL     1      -9.922  12.126  68.034  1.00  0.00    -0.197 N  
HETATM    7  C   UNL     1      -9.060  11.050  67.554  1.00  0.00    -0.137 C  
ENDROOT
BRANCH   6   8
HETATM    8  C   UNL     1     -11.234  12.086  68.475  1.00  0.00    -0.256 C  
HETATM    9  O   UNL     1     -12.151  12.159  67.665  1.00  0.00    -0.522 OA 
BRANCH   8  10
HETATM   10  N   UNL     1     -11.365  12.003  69.841  1.00  0.00    -0.510 N  
HETATM   11  H   UNL     1     -10.996  12.781  70.388  1.00  0.00     0.000 HD 
BRANCH  10  12
HETATM   12  C   UNL     1     -11.952  10.960  70.551  1.00  0.00    -0.371 A  
HETATM   13  C   UNL     1     -11.713   9.593  70.545  1.00  0.00    -0.242 A  
HETATM   14  N   UNL     1     -10.827   8.775  69.881  1.00  0.00    -0.226 NA 
HETATM   15  C   UNL     1     -10.937   7.479  70.044  1.00  0.00    -0.240 A  
HETATM   16  C   UNL     1     -12.980  11.139  71.504  1.00  0.00    -0.437 A  
HETATM   17  C   UNL     1     -11.912   6.859  71.006  1.00  0.00    -0.422 A  
HETATM   18  N   UNL     1     -13.410  10.003  72.040  1.00  0.00    -0.439 NA 
HETATM   19  C   UNL     1     -12.721   7.690  71.669  1.00  0.00    -0.343 A  
HETATM   20  N   UNL     1     -12.644   9.053  71.447  1.00  0.00    -0.315 NA 
BRANCH  15  21
HETATM   21  N   UNL     1     -10.147   6.594  69.347  1.00  0.00    -0.169 NA 
HETATM   22  C   UNL     1      -8.458   5.064  68.706  1.00  0.00    -0.087 C  
HETATM   23  C   UNL     1     -10.604   5.917  68.150  1.00  0.00    -0.244 C  
HETATM   24  C   UNL     1      -8.759   6.249  69.659  1.00  0.00    -0.136 C  
HETATM   25  C   UNL     1      -9.822   4.618  68.185  1.00  0.00    -0.170 C  
BRANCH  24  26
HETATM   26  C   UNL     1      -8.587   5.999  71.143  1.00  0.00    -0.129 A  
HETATM   27  C   UNL     1      -9.179   4.940  71.841  1.00  0.00    -0.140 A  
HETATM   28  C   UNL     1      -9.061   4.822  73.228  1.00  0.00    -0.117 A  
HETATM   29  F   UNL     1      -9.901   4.011  71.199  1.00  0.00    -0.227 F  
HETATM   30  C   UNL     1      -8.350   5.776  73.951  1.00  0.00    -0.112 A  
HETATM   31  C   UNL     1      -7.749   6.829  73.273  1.00  0.00    -0.089 A  
HETATM   32  C   UNL     1      -7.857   6.944  71.891  1.00  0.00    -0.095 A  
HETATM   33  F   UNL     1      -7.069   7.754  73.963  1.00  0.00    -0.103 F  
ENDBRANCH  24  26
ENDBRANCH  15  21
ENDBRANCH  10  12
ENDBRANCH   8  10
ENDBRANCH   6   8
TORSDOF 5
ENDMDL
MODEL      147
REMARK 921   NORMALIZED FREE ENERGY PREDICTED BY IDOCK:   -5.33 KCAL/MOL
REMARK 922        TOTAL FREE ENERGY PREDICTED BY IDOCK:   -8.62 KCAL/MOL
REMARK 923 INTER-LIGAND FREE ENERGY PREDICTED BY IDOCK:   -7.62 KCAL/MOL
REMARK 924 INTRA-LIGAND FREE ENERGY PREDICTED BY IDOCK:   -1.01 KCAL/MOL
REMARK 927      BINDING AFFINITY PREDICTED BY RF-SCORE:    0.00 PKD
ROOT
HETATM    1  O   UNL     1      -6.066  15.342  69.068  1.00  0.00    -0.096 OA 
HETATM    2  H   UNL     1      -5.859  16.250  68.884  1.00  0.00     0.000 HD 
HETATM    3  C   UNL     1      -6.630  14.704  67.934  1.00  0.00    -0.164 C  
HETATM    4  C   UNL     1      -6.963  13.246  68.230  1.00  0.00    -0.107 C  
HETATM    5  C   UNL     1      -8.020  12.928  67.195  1.00  0.00    -0.099 C  
HETATM    6  N   UNL     1      -8.756  14.170  67.028  1.00  0.00    -0.218 N  
HETATM    7  C   UNL     1      -7.989  15.300  67.544  1.00  0.00    -0.176 C  
ENDROOT
BRANCH   6   8
HETATM    8  C   UNL     1      -9.996  14.143  66.410  1.00  0.00    -0.293 C  
HETATM    9  O   UNL     1     -10.158  14.734  65.348  1.00  0.00    -0.350 OA 
BRANCH   8  10
HETATM   10  N   UNL     1     -10.958  13.456  67.110  1.00  0.00    -0.276 N  
HETATM   11  H   UNL     1     -11.336  12.616  66.671  1.00  0.00     0.000 HD 
BRANCH  10  12
HETATM   12  C   UNL     1     -11.468  13.794  68.359  1.00  0.00    -0.316 A  
HETATM   13  C   UNL     1     -11.868  13.011  69.433  1.00  0.00    -0.322 A  
HETATM   14  N   UNL     1     -11.894  11.657  69.679  1.00  0.00    -0.330 NA 
HETATM   15  C   UNL     1     -12.437  11.239  70.796  1.00  0.00    -0.376 A  
HETATM   16  C   UNL     1     -11.666  15.124  68.793  1.00  0.00    -0.342 A  
HETATM   17  C   UNL     1     -12.927  12.178  71.864  1.00  0.00    -0.419 A  
HETATM   18  N   UNL     1     -12.188  15.214  70.011  1.00  0.00    -0.336 NA 
HETATM   19  C   UNL     1     -12.838  13.486  71.609  1.00  0.00    -0.329 A  
HETATM   20  N   UNL     1     -12.322  13.922  70.402  1.00  0.00    -0.352 NA 
BRANCH  15  21
HETATM   21  N   UNL     1     -12.580   9.900  71.073  1.00  0.00    -0.331 NA 
HETATM   22  C   UNL     1     -12.305   7.550  71.170  1.00  0.00    -0.321 C  
HETATM   23  C   UNL     1     -13.365   9.414  72.191  1.00  0.00    -0.468 C  
HETATM   24  C   UNL     1     -12.033   8.794  70.285  1.00  0.00     0.252 C  
HETATM   25  C   UNL     1     -12.672   8.111  72.541  1.00  0.00    -0.159 C  
BRANCH  24  26
HETATM   26  C   UNL     1     -10.591   9.066  69.906  1.00  0.00    -0.240 A  
HETATM   27  C   UNL     1      -9.552   9.246  70.825  1.00  0.00    -0.275 A  
HETATM   28  C   UNL     1      -8.262   9.592  70.413  1.00  0.00    -0.220 A  
HETATM   29  F   UNL     1      -9.766   9.111  72.141  1.00  0.00    -0.368 F  
HETATM   30  C   UNL     1      -7.990   9.777  69.060  1.00  0.00    -0.096 A  
HETATM   31  C   UNL     1      -9.008   9.595  68.134  1.00  0.00    -0.123 A  
HETATM   32  C   UNL     1     -10.290   9.241  68.541  1.00  0.00    -0.237 A  
HETATM   33  F   UNL     1      -8.754   9.777  66.831  1.00  0.00    -0.130 F  
ENDBRANCH  24  26
ENDBRANCH  15  21
ENDBRANCH  10  12
ENDBRANCH   8  10
ENDBRANCH   6   8
TORSDOF 5
ENDMDL
MODEL      148
REMARK 921   NORMALIZED FREE ENERGY PREDICTED BY IDOCK:   -5.33 KCAL/MOL
REMARK 922        TOTAL FREE ENERGY PREDICTED BY IDOCK:   -8.61 KCAL/MOL
REMARK 923 INTER-LIGAND FREE ENERGY PREDICTED BY IDOCK:   -6.78 KCAL/MOL
REMARK 924 INTRA-LIGAND FREE ENERGY PREDICTED BY IDOCK:   -1.84 KCAL/MOL
REMARK 927      BINDING AFFINITY PREDICTED BY RF-SCORE:    0.00 PKD
ROOT
HETATM    1  O   UNL     1     -11.900  11.960  67.032  1.00  0.00    -0.585 OA 
HETATM    2  H   UNL     1     -12.452  11.631  67.732  1.00  0.00     0.000 HD 
HETATM    3  C   UNL     1     -11.237  10.902  66.361  1.00  0.00     0.114 C  
HETATM    4  C   UNL     1     -10.351  11.430  65.238  1.00  0.00    -0.336 C  
HETATM    5  C   UNL     1      -9.346  10.314  65.052  1.00  0.00    -0.237 C  
HETATM    6  N   UNL     1      -9.153   9.768  66.384  1.00  0.00    -0.151 N  
HETATM    7  C   UNL     1     -10.244  10.164  67.269  1.00  0.00    -0.222 C  
ENDROOT
BRANCH   6   8
HETATM    8  C   UNL     1      -8.055   8.961  66.631  1.00  0.00    -0.107 C  
HETATM    9  O   UNL     1      -7.057   9.437  67.161  1.00  0.00    -0.084 OA 
BRANCH   8  10
HETATM   10  N   UNL     1      -8.202   7.664  66.200  1.00  0.00    -0.117 N  
HETATM   11  H   UNL     1      -7.746   7.415  65.322  1.00  0.00     0.000 HD 
BRANCH  10  12
HETATM   12  C   UNL     1      -8.914   6.657  66.844  1.00  0.00    -0.127 A  
HETATM   13  C   UNL     1      -9.115   6.389  68.191  1.00  0.00    -0.113 A  
HETATM   14  N   UNL     1      -8.726   6.999  69.362  1.00  0.00    -0.133 NA 
HETATM   15  C   UNL     1      -9.019   6.412  70.496  1.00  0.00    -0.151 A  
HETATM   16  C   UNL     1      -9.637   5.649  66.167  1.00  0.00    -0.120 A  
HETATM   17  C   UNL     1      -9.857   5.166  70.574  1.00  0.00    -0.285 A  
HETATM   18  N   UNL     1     -10.219   4.775  66.981  1.00  0.00    -0.189 NA 
HETATM   19  C   UNL     1     -10.258   4.631  69.418  1.00  0.00    -0.009 A  
HETATM   20  N   UNL     1      -9.893   5.219  68.221  1.00  0.00    -0.147 NA 
BRANCH  15  21
HETATM   21  N   UNL     1      -8.589   6.914  71.702  1.00  0.00    -0.117 NA 
HETATM   22  C   UNL     1      -8.329   8.197  73.675  1.00  0.00    -0.305 C  
HETATM   23  C   UNL     1      -7.763   6.149  72.615  1.00  0.00    -0.102 C  
HETATM   24  C   UNL     1      -8.838   8.263  72.212  1.00  0.00    -0.209 C  
HETATM   25  C   UNL     1      -8.157   6.708  73.968  1.00  0.00    -0.124 C  
BRANCH  24  26
HETATM   26  C   UNL     1     -10.286   8.658  72.005  1.00  0.00    -0.416 A  
HETATM   27  C   UNL     1     -11.372   8.035  72.629  1.00  0.00    -0.405 A  
HETATM   28  C   UNL     1     -12.691   8.381  72.320  1.00  0.00    -0.376 A  
HETATM   29  F   UNL     1     -11.183   7.066  73.536  1.00  0.00    -0.279 F  
HETATM   30  C   UNL     1     -12.948   9.359  71.362  1.00  0.00    -0.421 A  
HETATM   31  C   UNL     1     -11.881   9.992  70.739  1.00  0.00    -0.346 A  
HETATM   32  C   UNL     1     -10.568   9.657  71.052  1.00  0.00    -0.362 A  
HETATM   33  F   UNL     1     -12.121  10.929  69.812  1.00  0.00    -0.315 F  
ENDBRANCH  24  26
ENDBRANCH  15  21
ENDBRANCH  10  12
ENDBRANCH   8  10
ENDBRANCH   6   8
TORSDOF 5
ENDMDL
MODEL      149
REMARK 921   NORMALIZED FREE ENERGY PREDICTED BY IDOCK:   -5.32 KCAL/MOL
REMARK 922        TOTAL FREE ENERGY PREDICTED BY IDOCK:   -8.61 KCAL/MOL
REMARK 923 INTER-LIGAND FREE ENERGY PREDICTED BY IDOCK:   -7.22 KCAL/MOL
REMARK 924 INTRA-LIGAND FREE ENERGY PREDICTED BY IDOCK:   -1.38 KCAL/MOL
REMARK 927      BINDING AFFINITY PREDICTED BY RF-SCORE:    0.00 PKD
ROOT
HETATM    1  O   UNL     1     -10.952   5.971  72.979  1.00  0.00    -0.250 OA 
HETATM    2  H   UNL     1     -11.677   5.803  73.570  1.00  0.00     0.000 HD 
HETATM    3  C   UNL     1     -10.744   7.363  72.807  1.00  0.00    -0.314 C  
HETATM    4  C   UNL     1      -9.581   7.634  71.859  1.00  0.00    -0.191 C  
HETATM    5  C   UNL     1      -9.873   9.033  71.363  1.00  0.00    -0.311 C  
HETATM    6  N   UNL     1     -11.323   9.108  71.308  1.00  0.00    -0.306 N  
HETATM    7  C   UNL     1     -11.927   8.050  72.112  1.00  0.00    -0.348 C  
ENDROOT
BRANCH   6   8
HETATM    8  C   UNL     1     -11.920  10.126  70.582  1.00  0.00    -0.332 C  
HETATM    9  O   UNL     1     -13.128  10.095  70.373  1.00  0.00    -0.225 OA 
BRANCH   8  10
HETATM   10  N   UNL     1     -11.043  11.080  70.126  1.00  0.00    -0.473 N  
HETATM   11  H   UNL     1     -10.570  11.646  70.831  1.00  0.00     0.000 HD 
BRANCH  10  12
HETATM   12  C   UNL     1     -10.737  11.350  68.796  1.00  0.00    -0.203 A  
HETATM   13  C   UNL     1     -10.468  12.541  68.136  1.00  0.00    -0.229 A  
HETATM   14  N   UNL     1     -10.379  13.858  68.527  1.00  0.00    -0.241 NA 
HETATM   15  C   UNL     1     -10.194  14.768  67.603  1.00  0.00    -0.232 A  
HETATM   16  C   UNL     1     -10.621  10.355  67.799  1.00  0.00    -0.250 A  
HETATM   17  C   UNL     1      -9.963  14.426  66.157  1.00  0.00    -0.328 A  
HETATM   18  N   UNL     1     -10.349  10.840  66.593  1.00  0.00    -0.233 NA 
HETATM   19  C   UNL     1     -10.006  13.133  65.826  1.00  0.00    -0.252 A  
HETATM   20  N   UNL     1     -10.265  12.180  66.794  1.00  0.00    -0.202 NA 
BRANCH  15  21
HETATM   21  N   UNL     1     -10.184  16.111  67.903  1.00  0.00    -0.255 NA 
HETATM   22  C   UNL     1      -9.561  18.284  68.608  1.00  0.00    -0.351 C  
HETATM   23  C   UNL     1     -11.145  17.042  67.347  1.00  0.00     0.053 C  
HETATM   24  C   UNL     1      -9.274  16.777  68.836  1.00  0.00    -0.234 C  
HETATM   25  C   UNL     1     -10.365  18.342  67.311  1.00  0.00    -0.417 C  
BRANCH  24  26
HETATM   26  C   UNL     1      -7.848  16.310  68.622  1.00  0.00    -0.202 A  
HETATM   27  C   UNL     1      -7.121  16.502  67.442  1.00  0.00    -0.154 A  
HETATM   28  C   UNL     1      -5.844  15.960  67.274  1.00  0.00    -0.024 A  
HETATM   29  F   UNL     1      -7.638  17.199  66.420  1.00  0.00    -0.235 F  
HETATM   30  C   UNL     1      -5.270  15.199  68.289  1.00  0.00    -0.113 A  
HETATM   31  C   UNL     1      -5.974  15.007  69.470  1.00  0.00    -0.108 A  
HETATM   32  C   UNL     1      -7.242  15.553  69.644  1.00  0.00    -0.169 A  
HETATM   33  F   UNL     1      -5.431  14.271  70.449  1.00  0.00    -0.094 F  
ENDBRANCH  24  26
ENDBRANCH  15  21
ENDBRANCH  10  12
ENDBRANCH   8  10
ENDBRANCH   6   8
TORSDOF 5
ENDMDL
MODEL      150
REMARK 921   NORMALIZED FREE ENERGY PREDICTED BY IDOCK:   -5.30 KCAL/MOL
REMARK 922        TOTAL FREE ENERGY PREDICTED BY IDOCK:   -8.58 KCAL/MOL
REMARK 923 INTER-LIGAND FREE ENERGY PREDICTED BY IDOCK:   -7.99 KCAL/MOL
REMARK 924 INTRA-LIGAND FREE ENERGY PREDICTED BY IDOCK:   -0.59 KCAL/MOL
REMARK 927      BINDING AFFINITY PREDICTED BY RF-SCORE:    0.00 PKD
ROOT
HETATM    1  O   UNL     1      -8.176  11.148  62.376  1.00  0.00    -0.401 OA 
HETATM    2  H   UNL     1      -8.227  11.778  61.666  1.00  0.00     0.000 HD 
HETATM    3  C   UNL     1      -9.447  10.939  62.969  1.00  0.00    -0.352 C  
HETATM    4  C   UNL     1      -9.365   9.929  64.108  1.00  0.00    -0.295 C  
HETATM    5  C   UNL     1     -10.584  10.263  64.939  1.00  0.00     0.261 C  
HETATM    6  N   UNL     1     -10.734  11.703  64.809  1.00  0.00    -0.296 N  
HETATM    7  C   UNL     1      -9.985  12.199  63.659  1.00  0.00    -0.323 C  
ENDROOT
BRANCH   6   8
HETATM    8  C   UNL     1     -11.542  12.382  65.706  1.00  0.00    -0.398 C  
HETATM    9  O   UNL     1     -12.723  12.571  65.436  1.00  0.00    -0.624 OA 
BRANCH   8  10
HETATM   10  N   UNL     1     -10.888  12.821  66.832  1.00  0.00    -0.250 N  
HETATM   11  H   UNL     1     -11.048  13.788  67.111  1.00  0.00     0.000 HD 
BRANCH  10  12
HETATM   12  C   UNL     1     -10.027  12.072  67.629  1.00  0.00    -0.191 A  
HETATM   13  C   UNL     1     -10.273  11.128  68.616  1.00  0.00    -0.205 A  
HETATM   14  N   UNL     1     -11.412  10.572  69.152  1.00  0.00    -0.259 NA 
HETATM   15  C   UNL     1     -11.285   9.752  70.166  1.00  0.00    -0.272 A  
HETATM   16  C   UNL     1      -8.618  12.144  67.545  1.00  0.00    -0.171 A  
HETATM   17  C   UNL     1      -9.947   9.309  70.692  1.00  0.00    -0.336 A  
HETATM   18  N   UNL     1      -7.994  11.362  68.418  1.00  0.00    -0.135 NA 
HETATM   19  C   UNL     1      -8.864   9.833  70.112  1.00  0.00    -0.188 A  
HETATM   20  N   UNL     1      -9.004  10.746  69.083  1.00  0.00    -0.132 NA 
BRANCH  15  21
HETATM   21  N   UNL     1     -12.379   9.226  70.811  1.00  0.00    -0.160 NA 
HETATM   22  C   UNL     1     -13.972   7.762  71.773  1.00  0.00    -0.477 C  
HETATM   23  C   UNL     1     -13.211  10.010  71.703  1.00  0.00    -0.419 C  
HETATM   24  C   UNL     1     -12.892   7.863  70.665  1.00  0.00     0.403 C  
HETATM   25  C   UNL     1     -13.728   8.968  72.676  1.00  0.00    -0.422 C  
BRANCH  24  26
HETATM   26  C   UNL     1     -11.762   6.855  70.714  1.00  0.00    -0.417 A  
HETATM   27  C   UNL     1     -11.018   6.555  71.860  1.00  0.00    -0.250 A  
HETATM   28  C   UNL     1      -9.922   5.688  71.815  1.00  0.00    -0.222 A  
HETATM   29  F   UNL     1     -11.320   7.109  73.042  1.00  0.00    -0.300 F  
HETATM   30  C   UNL     1      -9.542   5.108  70.607  1.00  0.00    -0.242 A  
HETATM   31  C   UNL     1     -10.275   5.388  69.462  1.00  0.00    -0.266 A  
HETATM   32  C   UNL     1     -11.371   6.243  69.506  1.00  0.00    -0.475 A  
HETATM   33  F   UNL     1      -9.911   4.838  68.296  1.00  0.00    -0.180 F  
ENDBRANCH  24  26
ENDBRANCH  15  21
ENDBRANCH  10  12
ENDBRANCH   8  10
ENDBRANCH   6   8
TORSDOF 5
ENDMDL
MODEL      151
REMARK 921   NORMALIZED FREE ENERGY PREDICTED BY IDOCK:   -5.28 KCAL/MOL
REMARK 922        TOTAL FREE ENERGY PREDICTED BY IDOCK:   -8.55 KCAL/MOL
REMARK 923 INTER-LIGAND FREE ENERGY PREDICTED BY IDOCK:   -8.37 KCAL/MOL
REMARK 924 INTRA-LIGAND FREE ENERGY PREDICTED BY IDOCK:   -0.18 KCAL/MOL
REMARK 927      BINDING AFFINITY PREDICTED BY RF-SCORE:    0.00 PKD
ROOT
HETATM    1  O   UNL     1     -11.011   5.194  71.831  1.00  0.00    -0.161 OA 
HETATM    2  H   UNL     1     -11.636   4.520  72.069  1.00  0.00     0.000 HD 
HETATM    3  C   UNL     1     -11.343   6.436  72.430  1.00  0.00    -0.287 C  
HETATM    4  C   UNL     1     -10.341   7.518  72.047  1.00  0.00    -0.236 C  
HETATM    5  C   UNL     1     -11.127   8.793  72.263  1.00  0.00    -0.270 C  
HETATM    6  N   UNL     1     -12.494   8.445  71.914  1.00  0.00    -0.327 N  
HETATM    7  C   UNL     1     -12.675   6.996  71.915  1.00  0.00    -0.278 C  
ENDROOT
BRANCH   6   8
HETATM    8  C   UNL     1     -13.410   9.457  71.676  1.00  0.00    -0.404 C  
HETATM    9  O   UNL     1     -14.384   9.239  70.966  1.00  0.00    -0.044 OA 
BRANCH   8  10
HETATM   10  N   UNL     1     -13.085  10.657  72.262  1.00  0.00    -0.522 N  
HETATM   11  H   UNL     1     -12.895  10.645  73.263  1.00  0.00     0.000 HD 
BRANCH  10  12
HETATM   12  C   UNL     1     -12.990  11.888  71.620  1.00  0.00    -0.342 A  
HETATM   13  C   UNL     1     -12.503  12.239  70.369  1.00  0.00    -0.141 A  
HETATM   14  N   UNL     1     -11.969  11.536  69.313  1.00  0.00    -0.336 NA 
HETATM   15  C   UNL     1     -11.511  12.209  68.286  1.00  0.00    -0.305 A  
HETATM   16  C   UNL     1     -13.435  13.105  72.185  1.00  0.00    -0.560 A  
HETATM   17  C   UNL     1     -11.647  13.702  68.166  1.00  0.00    -0.367 A  
HETATM   18  N   UNL     1     -13.222  14.160  71.407  1.00  0.00    -0.345 NA 
HETATM   19  C   UNL     1     -12.217  14.343  69.189  1.00  0.00    -0.220 A  
HETATM   20  N   UNL     1     -12.642  13.635  70.299  1.00  0.00    -0.239 NA 
BRANCH  15  21
HETATM   21  N   UNL     1     -10.883  11.584  67.234  1.00  0.00    -0.241 NA 
HETATM   22  C   UNL     1      -9.504  11.081  65.376  1.00  0.00    -0.257 C  
HETATM   23  C   UNL     1     -10.867  10.143  67.080  1.00  0.00    -0.189 C  
HETATM   24  C   UNL     1     -10.207  12.247  66.118  1.00  0.00    -0.239 C  
HETATM   25  C   UNL     1      -9.563   9.903  66.345  1.00  0.00    -0.255 C  
BRANCH  24  26
HETATM   26  C   UNL     1      -9.325  13.374  66.617  1.00  0.00    -0.248 A  
HETATM   27  C   UNL     1      -9.518  14.725  66.308  1.00  0.00    -0.303 A  
HETATM   28  C   UNL     1      -8.611  15.706  66.719  1.00  0.00    -0.309 A  
HETATM   29  F   UNL     1     -10.575  15.123  65.587  1.00  0.00    -0.283 F  
HETATM   30  C   UNL     1      -7.477  15.347  67.444  1.00  0.00    -0.239 A  
HETATM   31  C   UNL     1      -7.275  14.012  67.765  1.00  0.00    -0.165 A  
HETATM   32  C   UNL     1      -8.181  13.035  67.366  1.00  0.00    -0.183 A  
HETATM   33  F   UNL     1      -6.184  13.659  68.457  1.00  0.00    -0.075 F  
ENDBRANCH  24  26
ENDBRANCH  15  21
ENDBRANCH  10  12
ENDBRANCH   8  10
ENDBRANCH   6   8
TORSDOF 5
ENDMDL
MODEL      152
REMARK 921   NORMALIZED FREE ENERGY PREDICTED BY IDOCK:   -5.26 KCAL/MOL
REMARK 922        TOTAL FREE ENERGY PREDICTED BY IDOCK:   -8.52 KCAL/MOL
REMARK 923 INTER-LIGAND FREE ENERGY PREDICTED BY IDOCK:   -7.46 KCAL/MOL
REMARK 924 INTRA-LIGAND FREE ENERGY PREDICTED BY IDOCK:   -1.06 KCAL/MOL
REMARK 927      BINDING AFFINITY PREDICTED BY RF-SCORE:    0.00 PKD
ROOT
HETATM    1  O   UNL     1      -5.874  20.113  71.782  1.00  0.00    -0.445 OA 
HETATM    2  H   UNL     1      -6.558  20.301  72.414  1.00  0.00     0.000 HD 
HETATM    3  C   UNL     1      -6.266  20.488  70.473  1.00  0.00     0.001 C  
HETATM    4  C   UNL     1      -5.169  20.186  69.460  1.00  0.00    -0.249 C  
HETATM    5  C   UNL     1      -5.933  20.096  68.156  1.00  0.00    -0.244 C  
HETATM    6  N   UNL     1      -7.220  19.531  68.524  1.00  0.00    -0.313 N  
HETATM    7  C   UNL     1      -7.453  19.663  69.959  1.00  0.00     0.400 C  
ENDROOT
BRANCH   6   8
HETATM    8  C   UNL     1      -8.034  19.004  67.534  1.00  0.00    -0.252 C  
HETATM    9  O   UNL     1      -9.198  19.377  67.443  1.00  0.00    -0.295 OA 
BRANCH   8  10
HETATM   10  N   UNL     1      -7.425  18.049  66.755  1.00  0.00    -0.203 N  
HETATM   11  H   UNL     1      -7.203  18.312  65.795  1.00  0.00     0.000 HD 
BRANCH  10  12
HETATM   12  C   UNL     1      -7.084  16.760  67.148  1.00  0.00    -0.187 A  
HETATM   13  C   UNL     1      -7.696  15.535  66.923  1.00  0.00    -0.165 A  
HETATM   14  N   UNL     1      -8.818  15.134  66.232  1.00  0.00    -0.246 NA 
HETATM   15  C   UNL     1      -9.172  13.874  66.302  1.00  0.00    -0.088 A  
HETATM   16  C   UNL     1      -5.931  16.449  67.905  1.00  0.00    -0.125 A  
HETATM   17  C   UNL     1      -8.346  12.834  67.007  1.00  0.00    -0.123 A  
HETATM   18  N   UNL     1      -5.816  15.157  68.191  1.00  0.00    -0.123 NA 
HETATM   19  C   UNL     1      -7.238  13.255  67.622  1.00  0.00    -0.162 A  
HETATM   20  N   UNL     1      -6.901  14.596  67.600  1.00  0.00    -0.178 NA 
BRANCH  15  21
HETATM   21  N   UNL     1     -10.328  13.415  65.714  1.00  0.00    -0.288 NA 
HETATM   22  C   UNL     1     -12.475  12.502  65.316  1.00  0.00    -0.390 C  
HETATM   23  C   UNL     1     -10.714  13.780  64.365  1.00  0.00    -0.316 C  
HETATM   24  C   UNL     1     -11.284  12.481  66.309  1.00  0.00    -0.315 C  
HETATM   25  C   UNL     1     -12.228  13.717  64.426  1.00  0.00    -0.436 C  
BRANCH  24  26
HETATM   26  C   UNL     1     -11.581  12.857  67.746  1.00  0.00    -0.391 A  
HETATM   27  C   UNL     1     -11.682  11.941  68.799  1.00  0.00    -0.321 A  
HETATM   28  C   UNL     1     -12.056  12.343  70.085  1.00  0.00    -0.366 A  
HETATM   29  F   UNL     1     -11.442  10.637  68.603  1.00  0.00    -0.283 F  
HETATM   30  C   UNL     1     -12.349  13.681  70.339  1.00  0.00    -0.415 A  
HETATM   31  C   UNL     1     -12.246  14.604  69.307  1.00  0.00    -0.212 A  
HETATM   32  C   UNL     1     -11.864  14.208  68.029  1.00  0.00    -0.400 A  
HETATM   33  F   UNL     1     -12.531  15.891  69.544  1.00  0.00    -0.331 F  
ENDBRANCH  24  26
ENDBRANCH  15  21
ENDBRANCH  10  12
ENDBRANCH   8  10
ENDBRANCH   6   8
TORSDOF 5
ENDMDL
MODEL      153
REMARK 921   NORMALIZED FREE ENERGY PREDICTED BY IDOCK:   -5.24 KCAL/MOL
REMARK 922        TOTAL FREE ENERGY PREDICTED BY IDOCK:   -8.50 KCAL/MOL
REMARK 923 INTER-LIGAND FREE ENERGY PREDICTED BY IDOCK:   -6.88 KCAL/MOL
REMARK 924 INTRA-LIGAND FREE ENERGY PREDICTED BY IDOCK:   -1.62 KCAL/MOL
REMARK 927      BINDING AFFINITY PREDICTED BY RF-SCORE:    0.00 PKD
ROOT
HETATM    1  O   UNL     1      -7.734   3.193  72.507  1.00  0.00    -0.055 OA 
HETATM    2  H   UNL     1      -8.031   2.430  72.988  1.00  0.00     0.000 HD 
HETATM    3  C   UNL     1      -8.299   4.383  73.031  1.00  0.00    -0.095 C  
HETATM    4  C   UNL     1      -7.823   5.607  72.258  1.00  0.00    -0.103 C  
HETATM    5  C   UNL     1      -8.906   6.625  72.544  1.00  0.00    -0.127 C  
HETATM    6  N   UNL     1     -10.127   5.844  72.642  1.00  0.00    -0.177 N  
HETATM    7  C   UNL     1      -9.823   4.433  72.859  1.00  0.00    -0.142 C  
ENDROOT
BRANCH   6   8
HETATM    8  C   UNL     1     -11.351   6.489  72.563  1.00  0.00    -0.262 C  
HETATM    9  O   UNL     1     -12.321   5.896  72.106  1.00  0.00    -0.182 OA 
BRANCH   8  10
HETATM   10  N   UNL     1     -11.326   7.795  72.991  1.00  0.00    -0.567 N  
HETATM   11  H   UNL     1     -10.903   7.973  73.902  1.00  0.00     0.000 HD 
BRANCH  10  12
HETATM   12  C   UNL     1     -11.821   8.897  72.303  1.00  0.00    -0.295 A  
HETATM   13  C   UNL     1     -11.351   9.573  71.186  1.00  0.00    -0.370 A  
HETATM   14  N   UNL     1     -10.272   9.409  70.347  1.00  0.00    -0.235 NA 
HETATM   15  C   UNL     1     -10.067  10.308  69.416  1.00  0.00    -0.235 A  
HETATM   16  C   UNL     1     -13.014   9.570  72.651  1.00  0.00    -0.070 A  
HETATM   17  C   UNL     1     -11.019  11.443  69.156  1.00  0.00    -0.289 A  
HETATM   18  N   UNL     1     -13.283  10.612  71.874  1.00  0.00    -0.462 NA 
HETATM   19  C   UNL     1     -12.082  11.539  69.960  1.00  0.00    -0.331 A  
HETATM   20  N   UNL     1     -12.261  10.624  70.981  1.00  0.00    -0.370 NA 
BRANCH  15  21
HETATM   21  N   UNL     1      -8.963  10.262  68.597  1.00  0.00    -0.137 NA 
HETATM   22  C   UNL     1      -7.196   9.549  67.192  1.00  0.00    -0.087 C  
HETATM   23  C   UNL     1      -8.448  11.433  67.915  1.00  0.00    -0.139 C  
HETATM   24  C   UNL     1      -8.133   9.085  68.337  1.00  0.00    -0.108 C  
HETATM   25  C   UNL     1      -7.819  10.841  66.669  1.00  0.00    -0.140 C  
BRANCH  24  26
HETATM   26  C   UNL     1      -8.994   7.868  68.069  1.00  0.00    -0.127 A  
HETATM   27  C   UNL     1     -10.040   7.827  67.140  1.00  0.00    -0.258 A  
HETATM   28  C   UNL     1     -10.861   6.703  67.011  1.00  0.00    -0.467 A  
HETATM   29  F   UNL     1     -10.303   8.879  66.353  1.00  0.00    -0.348 F  
HETATM   30  C   UNL     1     -10.654   5.593  67.826  1.00  0.00    -0.274 A  
HETATM   31  C   UNL     1      -9.616   5.613  68.747  1.00  0.00    -0.131 A  
HETATM   32  C   UNL     1      -8.791   6.727  68.871  1.00  0.00    -0.128 A  
HETATM   33  F   UNL     1      -9.415   4.551  69.538  1.00  0.00    -0.165 F  
ENDBRANCH  24  26
ENDBRANCH  15  21
ENDBRANCH  10  12
ENDBRANCH   8  10
ENDBRANCH   6   8
TORSDOF 5
ENDMDL
MODEL      154
REMARK 921   NORMALIZED FREE ENERGY PREDICTED BY IDOCK:   -5.24 KCAL/MOL
REMARK 922        TOTAL FREE ENERGY PREDICTED BY IDOCK:   -8.50 KCAL/MOL
REMARK 923 INTER-LIGAND FREE ENERGY PREDICTED BY IDOCK:   -8.35 KCAL/MOL
REMARK 924 INTRA-LIGAND FREE ENERGY PREDICTED BY IDOCK:   -0.14 KCAL/MOL
REMARK 927      BINDING AFFINITY PREDICTED BY RF-SCORE:    0.00 PKD
ROOT
HETATM    1  O   UNL     1      -7.100   6.114  67.035  1.00  0.00    -0.070 OA 
HETATM    2  H   UNL     1      -6.227   5.907  66.723  1.00  0.00     0.000 HD 
HETATM    3  C   UNL     1      -7.737   7.058  66.192  1.00  0.00    -0.095 C  
HETATM    4  C   UNL     1      -9.138   7.390  66.694  1.00  0.00    -0.184 C  
HETATM    5  C   UNL     1      -9.404   8.744  66.073  1.00  0.00    -0.232 C  
HETATM    6  N   UNL     1      -8.106   9.397  66.048  1.00  0.00    -0.110 N  
HETATM    7  C   UNL     1      -7.032   8.421  66.203  1.00  0.00    -0.072 C  
ENDROOT
BRANCH   6   8
HETATM    8  C   UNL     1      -8.043  10.768  65.855  1.00  0.00    -0.148 C  
HETATM    9  O   UNL     1      -7.562  11.482  66.727  1.00  0.00    -0.148 OA 
BRANCH   8  10
HETATM   10  N   UNL     1      -8.587  11.193  64.667  1.00  0.00    -0.371 N  
HETATM   11  H   UNL     1      -7.994  11.130  63.840  1.00  0.00     0.000 HD 
BRANCH  10  12
HETATM   12  C   UNL     1      -9.869  11.702  64.483  1.00  0.00    -0.224 A  
HETATM   13  C   UNL     1     -10.571  12.694  65.154  1.00  0.00    -0.298 A  
HETATM   14  N   UNL     1     -10.278  13.539  66.200  1.00  0.00    -0.296 NA 
HETATM   15  C   UNL     1     -11.231  14.313  66.658  1.00  0.00    -0.334 A  
HETATM   16  C   UNL     1     -10.751  11.262  63.471  1.00  0.00    -0.335 A  
HETATM   17  C   UNL     1     -12.589  14.398  66.018  1.00  0.00    -0.235 A  
HETATM   18  N   UNL     1     -11.933  11.867  63.496  1.00  0.00    -0.500 NA 
HETATM   19  C   UNL     1     -12.818  13.599  64.973  1.00  0.00    -0.272 A  
HETATM   20  N   UNL     1     -11.830  12.737  64.532  1.00  0.00    -0.356 NA 
BRANCH  15  21
HETATM   21  N   UNL     1     -11.042  15.119  67.756  1.00  0.00    -0.303 NA 
HETATM   22  C   UNL     1     -10.980  16.001  69.953  1.00  0.00    -0.353 C  
HETATM   23  C   UNL     1     -10.131  16.247  67.748  1.00  0.00    -0.252 C  
HETATM   24  C   UNL     1     -11.740  15.007  69.038  1.00  0.00    -0.325 C  
HETATM   25  C   UNL     1      -9.694  16.331  69.198  1.00  0.00    -0.265 C  
BRANCH  24  26
HETATM   26  C   UNL     1     -11.800  13.563  69.493  1.00  0.00    -0.392 A  
HETATM   27  C   UNL     1     -12.504  13.116  70.616  1.00  0.00    -0.286 A  
HETATM   28  C   UNL     1     -12.438  11.785  71.039  1.00  0.00    -0.411 A  
HETATM   29  F   UNL     1     -13.252  13.959  71.340  1.00  0.00    -0.380 F  
HETATM   30  C   UNL     1     -11.649  10.872  70.344  1.00  0.00    -0.418 A  
HETATM   31  C   UNL     1     -10.951  11.297  69.222  1.00  0.00    -0.243 A  
HETATM   32  C   UNL     1     -11.022  12.618  68.793  1.00  0.00    -0.289 A  
HETATM   33  F   UNL     1     -10.186  10.425  68.553  1.00  0.00    -0.158 F  
ENDBRANCH  24  26
ENDBRANCH  15  21
ENDBRANCH  10  12
ENDBRANCH   8  10
ENDBRANCH   6   8
TORSDOF 5
ENDMDL
MODEL      155
REMARK 921   NORMALIZED FREE ENERGY PREDICTED BY IDOCK:   -5.24 KCAL/MOL
REMARK 922        TOTAL FREE ENERGY PREDICTED BY IDOCK:   -8.50 KCAL/MOL
REMARK 923 INTER-LIGAND FREE ENERGY PREDICTED BY IDOCK:   -7.44 KCAL/MOL
REMARK 924 INTRA-LIGAND FREE ENERGY PREDICTED BY IDOCK:   -1.06 KCAL/MOL
REMARK 927      BINDING AFFINITY PREDICTED BY RF-SCORE:    0.00 PKD
ROOT
HETATM    1  O   UNL     1     -10.287   6.544  71.997  1.00  0.00    -0.197 OA 
HETATM    2  H   UNL     1      -9.821   6.036  71.343  1.00  0.00     0.000 HD 
HETATM    3  C   UNL     1     -11.208   7.437  71.392  1.00  0.00    -0.246 C  
HETATM    4  C   UNL     1     -11.955   8.252  72.441  1.00  0.00    -0.447 C  
HETATM    5  C   UNL     1     -12.407   9.467  71.660  1.00  0.00    -0.398 C  
HETATM    6  N   UNL     1     -11.344   9.701  70.698  1.00  0.00    -0.288 N  
HETATM    7  C   UNL     1     -10.511   8.511  70.547  1.00  0.00    -0.204 C  
ENDROOT
BRANCH   6   8
HETATM    8  C   UNL     1     -11.273  10.925  70.053  1.00  0.00    -0.263 C  
HETATM    9  O   UNL     1     -12.177  11.741  70.196  1.00  0.00    -0.299 OA 
BRANCH   8  10
HETATM   10  N   UNL     1     -10.162  11.078  69.259  1.00  0.00    -0.384 N  
HETATM   11  H   UNL     1      -9.260  11.122  69.732  1.00  0.00     0.000 HD 
BRANCH  10  12
HETATM   12  C   UNL     1     -10.148  11.177  67.872  1.00  0.00    -0.176 A  
HETATM   13  C   UNL     1     -10.208  12.276  67.026  1.00  0.00    -0.215 A  
HETATM   14  N   UNL     1     -10.279  13.637  67.222  1.00  0.00    -0.244 NA 
HETATM   15  C   UNL     1     -10.420  14.409  66.173  1.00  0.00    -0.291 A  
HETATM   16  C   UNL     1     -10.042  10.066  67.005  1.00  0.00    -0.219 A  
HETATM   17  C   UNL     1     -10.394  13.882  64.765  1.00  0.00    -0.419 A  
HETATM   18  N   UNL     1     -10.075  10.390  65.718  1.00  0.00    -0.264 NA 
HETATM   19  C   UNL     1     -10.273  12.560  64.615  1.00  0.00    -0.290 A  
HETATM   20  N   UNL     1     -10.188  11.743  65.727  1.00  0.00    -0.230 NA 
BRANCH  15  21
HETATM   21  N   UNL     1     -10.587  15.769  66.294  1.00  0.00    -0.311 NA 
HETATM   22  C   UNL     1     -10.395  18.041  66.931  1.00  0.00    -0.377 C  
HETATM   23  C   UNL     1     -11.274  16.562  65.293  1.00  0.00     0.049 C  
HETATM   24  C   UNL     1     -10.166  16.591  67.429  1.00  0.00    -0.287 C  
HETATM   25  C   UNL     1     -10.600  17.915  65.423  1.00  0.00     0.113 C  
BRANCH  24  26
HETATM   26  C   UNL     1      -8.760  16.228  67.863  1.00  0.00    -0.175 A  
HETATM   27  C   UNL     1      -8.430  15.701  69.116  1.00  0.00    -0.253 A  
HETATM   28  C   UNL     1      -7.102  15.480  69.490  1.00  0.00    -0.195 A  
HETATM   29  F   UNL     1      -9.383  15.408  70.012  1.00  0.00    -0.267 F  
HETATM   30  C   UNL     1      -6.069  15.797  68.612  1.00  0.00    -0.100 A  
HETATM   31  C   UNL     1      -6.379  16.313  67.361  1.00  0.00    -0.173 A  
HETATM   32  C   UNL     1      -7.700  16.525  66.982  1.00  0.00    -0.244 A  
HETATM   33  F   UNL     1      -5.390  16.625  66.514  1.00  0.00    -0.145 F  
ENDBRANCH  24  26
ENDBRANCH  15  21
ENDBRANCH  10  12
ENDBRANCH   8  10
ENDBRANCH   6   8
TORSDOF 5
ENDMDL
MODEL      156
REMARK 921   NORMALIZED FREE ENERGY PREDICTED BY IDOCK:   -5.23 KCAL/MOL
REMARK 922        TOTAL FREE ENERGY PREDICTED BY IDOCK:   -8.49 KCAL/MOL
REMARK 923 INTER-LIGAND FREE ENERGY PREDICTED BY IDOCK:   -6.79 KCAL/MOL
REMARK 924 INTRA-LIGAND FREE ENERGY PREDICTED BY IDOCK:   -1.71 KCAL/MOL
REMARK 927      BINDING AFFINITY PREDICTED BY RF-SCORE:    0.00 PKD
ROOT
HETATM    1  O   UNL     1     -11.547   7.683  69.926  1.00  0.00    -0.477 OA 
HETATM    2  H   UNL     1     -12.369   7.736  69.453  1.00  0.00     0.000 HD 
HETATM    3  C   UNL     1     -10.802   8.881  69.795  1.00  0.00    -0.200 C  
HETATM    4  C   UNL     1      -9.482   8.796  70.554  1.00  0.00    -0.219 C  
HETATM    5  C   UNL     1      -8.629   9.836  69.860  1.00  0.00    -0.218 C  
HETATM    6  N   UNL     1      -9.056   9.793  68.472  1.00  0.00    -0.127 N  
HETATM    7  C   UNL     1     -10.356   9.138  68.350  1.00  0.00    -0.206 C  
ENDROOT
BRANCH   6   8
HETATM    8  C   UNL     1      -8.256  10.371  67.500  1.00  0.00    -0.114 C  
HETATM    9  O   UNL     1      -8.569  10.273  66.318  1.00  0.00    -0.133 OA 
BRANCH   8  10
HETATM   10  N   UNL     1      -7.130  10.985  67.992  1.00  0.00    -0.076 N  
HETATM   11  H   UNL     1      -6.438  10.386  68.442  1.00  0.00     0.000 HD 
BRANCH  10  12
HETATM   12  C   UNL     1      -6.841  12.345  67.937  1.00  0.00    -0.099 A  
HETATM   13  C   UNL     1      -7.580  13.459  68.311  1.00  0.00    -0.135 A  
HETATM   14  N   UNL     1      -8.820  13.644  68.880  1.00  0.00     0.093 NA 
HETATM   15  C   UNL     1      -9.263  14.869  69.018  1.00  0.00    -0.176 A  
HETATM   16  C   UNL     1      -5.620  12.870  67.458  1.00  0.00    -0.084 A  
HETATM   17  C   UNL     1      -8.431  16.077  68.688  1.00  0.00    -0.208 A  
HETATM   18  N   UNL     1      -5.571  14.197  67.470  1.00  0.00    -0.349 NA 
HETATM   19  C   UNL     1      -7.213  15.857  68.186  1.00  0.00    -0.128 A  
HETATM   20  N   UNL     1      -6.774  14.562  67.982  1.00  0.00    -0.128 NA 
BRANCH  15  21
HETATM   21  N   UNL     1     -10.526  15.131  69.495  1.00  0.00    -0.254 NA 
HETATM   22  C   UNL     1     -12.872  15.344  69.738  1.00  0.00     0.080 C  
HETATM   23  C   UNL     1     -10.803  15.328  70.904  1.00  0.00    -0.179 C  
HETATM   24  C   UNL     1     -11.734  15.301  68.686  1.00  0.00    -0.346 C  
HETATM   25  C   UNL     1     -12.234  14.844  71.032  1.00  0.00    -0.379 C  
BRANCH  24  26
HETATM   26  C   UNL     1     -11.824  14.226  67.621  1.00  0.00    -0.420 A  
HETATM   27  C   UNL     1     -11.897  12.854  67.887  1.00  0.00    -0.339 A  
HETATM   28  C   UNL     1     -11.878  11.908  66.858  1.00  0.00    -0.177 A  
HETATM   29  F   UNL     1     -11.968  12.399  69.145  1.00  0.00    -0.310 F  
HETATM   30  C   UNL     1     -11.773  12.322  65.533  1.00  0.00    -0.433 A  
HETATM   31  C   UNL     1     -11.707  13.680  65.251  1.00  0.00    -0.334 A  
HETATM   32  C   UNL     1     -11.736  14.624  66.273  1.00  0.00    -0.325 A  
HETATM   33  F   UNL     1     -11.600  14.085  63.979  1.00  0.00    -0.384 F  
ENDBRANCH  24  26
ENDBRANCH  15  21
ENDBRANCH  10  12
ENDBRANCH   8  10
ENDBRANCH   6   8
TORSDOF 5
ENDMDL
MODEL      157
REMARK 921   NORMALIZED FREE ENERGY PREDICTED BY IDOCK:   -5.23 KCAL/MOL
REMARK 922        TOTAL FREE ENERGY PREDICTED BY IDOCK:   -8.49 KCAL/MOL
REMARK 923 INTER-LIGAND FREE ENERGY PREDICTED BY IDOCK:   -7.64 KCAL/MOL
REMARK 924 INTRA-LIGAND FREE ENERGY PREDICTED BY IDOCK:   -0.84 KCAL/MOL
REMARK 927      BINDING AFFINITY PREDICTED BY RF-SCORE:    0.00 PKD
ROOT
HETATM    1  O   UNL     1     -12.737  16.611  74.364  1.00  0.00    -0.735 OA 
HETATM    2  H   UNL     1     -11.960  16.478  74.895  1.00  0.00     0.000 HD 
HETATM    3  C   UNL     1     -12.806  15.665  73.310  1.00  0.00    -0.527 C  
HETATM    4  C   UNL     1     -14.052  15.879  72.458  1.00  0.00    -0.368 C  
HETATM    5  C   UNL     1     -13.675  15.228  71.145  1.00  0.00    -0.443 C  
HETATM    6  N   UNL     1     -12.248  15.469  71.013  1.00  0.00    -0.362 N  
HETATM    7  C   UNL     1     -11.662  15.828  72.301  1.00  0.00    -0.478 C  
ENDROOT
BRANCH   6   8
HETATM    8  C   UNL     1     -11.646  15.305  69.776  1.00  0.00    -0.314 C  
HETATM    9  O   UNL     1     -12.067  15.928  68.808  1.00  0.00    -0.297 OA 
BRANCH   8  10
HETATM   10  N   UNL     1     -10.621  14.389  69.768  1.00  0.00    -0.451 N  
HETATM   11  H   UNL     1     -10.831  13.459  70.130  1.00  0.00     0.000 HD 
BRANCH  10  12
HETATM   12  C   UNL     1      -9.325  14.607  69.313  1.00  0.00     0.020 A  
HETATM   13  C   UNL     1      -8.452  13.801  68.596  1.00  0.00    -0.056 A  
HETATM   14  N   UNL     1      -8.533  12.536  68.059  1.00  0.00    -0.165 NA 
HETATM   15  C   UNL     1      -7.460  12.026  67.508  1.00  0.00    -0.140 A  
HETATM   16  C   UNL     1      -8.616  15.814  69.511  1.00  0.00    -0.144 A  
HETATM   17  C   UNL     1      -6.184  12.803  67.338  1.00  0.00    -0.133 A  
HETATM   18  N   UNL     1      -7.384  15.793  69.016  1.00  0.00    -0.163 NA 
HETATM   19  C   UNL     1      -6.161  14.046  67.827  1.00  0.00    -0.140 A  
HETATM   20  N   UNL     1      -7.276  14.558  68.465  1.00  0.00    -0.112 NA 
BRANCH  15  21
HETATM   21  N   UNL     1      -7.436  10.736  67.029  1.00  0.00    -0.108 NA 
HETATM   22  C   UNL     1      -7.982   8.683  65.985  1.00  0.00    -0.107 C  
HETATM   23  C   UNL     1      -6.209   9.978  66.889  1.00  0.00    -0.064 C  
HETATM   24  C   UNL     1      -8.603   9.936  66.654  1.00  0.00    -0.125 C  
HETATM   25  C   UNL     1      -6.522   9.051  65.731  1.00  0.00    -0.064 C  
BRANCH  24  26
HETATM   26  C   UNL     1      -9.569  10.752  65.819  1.00  0.00    -0.254 A  
HETATM   27  C   UNL     1     -10.809  11.216  66.271  1.00  0.00    -0.205 A  
HETATM   28  C   UNL     1     -11.697  11.880  65.419  1.00  0.00    -0.228 A  
HETATM   29  F   UNL     1     -11.197  11.020  67.539  1.00  0.00    -0.294 F  
HETATM   30  C   UNL     1     -11.360  12.083  64.083  1.00  0.00    -0.455 A  
HETATM   31  C   UNL     1     -10.130  11.637  63.620  1.00  0.00    -0.402 A  
HETATM   32  C   UNL     1      -9.240  10.985  64.468  1.00  0.00    -0.185 A  
HETATM   33  F   UNL     1      -9.802  11.824  62.335  1.00  0.00    -0.144 F  
ENDBRANCH  24  26
ENDBRANCH  15  21
ENDBRANCH  10  12
ENDBRANCH   8  10
ENDBRANCH   6   8
TORSDOF 5
ENDMDL
MODEL      158
REMARK 921   NORMALIZED FREE ENERGY PREDICTED BY IDOCK:   -5.18 KCAL/MOL
REMARK 922        TOTAL FREE ENERGY PREDICTED BY IDOCK:   -8.42 KCAL/MOL
REMARK 923 INTER-LIGAND FREE ENERGY PREDICTED BY IDOCK:   -7.43 KCAL/MOL
REMARK 924 INTRA-LIGAND FREE ENERGY PREDICTED BY IDOCK:   -0.99 KCAL/MOL
REMARK 927      BINDING AFFINITY PREDICTED BY RF-SCORE:    0.00 PKD
ROOT
HETATM    1  O   UNL     1     -11.339   7.751  66.952  1.00  0.00    -0.114 OA 
HETATM    2  H   UNL     1     -12.018   7.508  67.571  1.00  0.00     0.000 HD 
HETATM    3  C   UNL     1     -10.094   7.938  67.605  1.00  0.00    -0.203 C  
HETATM    4  C   UNL     1      -9.004   8.329  66.613  1.00  0.00    -0.179 C  
HETATM    5  C   UNL     1      -7.983   9.018  67.492  1.00  0.00    -0.101 C  
HETATM    6  N   UNL     1      -8.771   9.683  68.516  1.00  0.00    -0.119 N  
HETATM    7  C   UNL     1     -10.117   9.121  68.581  1.00  0.00    -0.194 C  
ENDROOT
BRANCH   6   8
HETATM    8  C   UNL     1      -8.183  10.676  69.282  1.00  0.00    -0.115 C  
HETATM    9  O   UNL     1      -7.638  10.385  70.341  1.00  0.00    -0.180 OA 
BRANCH   8  10
HETATM   10  N   UNL     1      -8.318  11.942  68.762  1.00  0.00    -0.346 N  
HETATM   11  H   UNL     1      -9.266  12.311  68.690  1.00  0.00     0.000 HD 
BRANCH  10  12
HETATM   12  C   UNL     1      -7.288  12.766  68.323  1.00  0.00    -0.117 A  
HETATM   13  C   UNL     1      -7.246  14.129  68.063  1.00  0.00    -0.143 A  
HETATM   14  N   UNL     1      -8.160  15.154  68.156  1.00  0.00    -0.133 NA 
HETATM   15  C   UNL     1      -7.807  16.342  67.730  1.00  0.00    -0.142 A  
HETATM   16  C   UNL     1      -5.976  12.312  68.059  1.00  0.00    -0.067 A  
HETATM   17  C   UNL     1      -6.416  16.654  67.252  1.00  0.00    -0.215 A  
HETATM   18  N   UNL     1      -5.161  13.266  67.624  1.00  0.00    -0.279 NA 
HETATM   19  C   UNL     1      -5.543  15.644  67.225  1.00  0.00     0.181 A  
HETATM   20  N   UNL     1      -5.938  14.378  67.615  1.00  0.00    -0.334 NA 
BRANCH  15  21
HETATM   21  N   UNL     1      -8.692  17.394  67.708  1.00  0.00    -0.228 NA 
HETATM   22  C   UNL     1     -10.579  18.778  67.348  1.00  0.00    -0.505 C  
HETATM   23  C   UNL     1      -8.583  18.524  68.609  1.00  0.00    -0.296 C  
HETATM   24  C   UNL     1      -9.806  17.563  66.774  1.00  0.00    -0.306 C  
HETATM   25  C   UNL     1     -10.024  18.971  68.757  1.00  0.00    -0.475 C  
BRANCH  24  26
HETATM   26  C   UNL     1     -10.579  16.268  66.619  1.00  0.00    -0.252 A  
HETATM   27  C   UNL     1     -11.275  15.633  67.654  1.00  0.00    -0.274 A  
HETATM   28  C   UNL     1     -11.885  14.389  67.470  1.00  0.00    -0.418 A  
HETATM   29  F   UNL     1     -11.362  16.192  68.869  1.00  0.00    -0.297 F  
HETATM   30  C   UNL     1     -11.799  13.747  66.237  1.00  0.00    -0.426 A  
HETATM   31  C   UNL     1     -11.119  14.366  65.198  1.00  0.00    -0.362 A  
HETATM   32  C   UNL     1     -10.519  15.609  65.375  1.00  0.00    -0.435 A  
HETATM   33  F   UNL     1     -11.027  13.751  64.011  1.00  0.00    -0.354 F  
ENDBRANCH  24  26
ENDBRANCH  15  21
ENDBRANCH  10  12
ENDBRANCH   8  10
ENDBRANCH   6   8
TORSDOF 5
ENDMDL
MODEL      159
REMARK 921   NORMALIZED FREE ENERGY PREDICTED BY IDOCK:   -5.17 KCAL/MOL
REMARK 922        TOTAL FREE ENERGY PREDICTED BY IDOCK:   -8.41 KCAL/MOL
REMARK 923 INTER-LIGAND FREE ENERGY PREDICTED BY IDOCK:   -6.74 KCAL/MOL
REMARK 924 INTRA-LIGAND FREE ENERGY PREDICTED BY IDOCK:   -1.68 KCAL/MOL
REMARK 927      BINDING AFFINITY PREDICTED BY RF-SCORE:    0.00 PKD
ROOT
HETATM    1  O   UNL     1     -12.562  10.656  69.408  1.00  0.00    -0.683 OA 
HETATM    2  H   UNL     1     -11.859  11.236  69.142  1.00  0.00     0.000 HD 
HETATM    3  C   UNL     1     -12.475  10.343  70.788  1.00  0.00    -0.368 C  
HETATM    4  C   UNL     1     -13.603   9.411  71.215  1.00  0.00    -0.296 C  
HETATM    5  C   UNL     1     -13.044   8.759  72.462  1.00  0.00    -0.335 C  
HETATM    6  N   UNL     1     -11.618   8.648  72.209  1.00  0.00    -0.368 N  
HETATM    7  C   UNL     1     -11.212   9.540  71.126  1.00  0.00    -0.376 C  
ENDROOT
BRANCH   6   8
HETATM    8  C   UNL     1     -10.856   7.799  72.995  1.00  0.00    -0.389 C  
HETATM    9  O   UNL     1      -9.775   8.179  73.430  1.00  0.00    -0.248 OA 
BRANCH   8  10
HETATM   10  N   UNL     1     -11.410   6.553  73.175  1.00  0.00    -0.476 N  
HETATM   11  H   UNL     1     -12.363   6.520  73.536  1.00  0.00     0.000 HD 
BRANCH  10  12
HETATM   12  C   UNL     1     -10.796   5.333  72.912  1.00  0.00    -0.270 A  
HETATM   13  C   UNL     1      -9.691   5.006  72.138  1.00  0.00    -0.161 A  
HETATM   14  N   UNL     1      -8.798   5.730  71.382  1.00  0.00    -0.139 NA 
HETATM   15  C   UNL     1      -7.902   5.077  70.684  1.00  0.00    -0.078 A  
HETATM   16  C   UNL     1     -11.227   4.103  73.458  1.00  0.00    -0.250 A  
HETATM   17  C   UNL     1      -7.738   3.585  70.763  1.00  0.00    -0.040 A  
HETATM   18  N   UNL     1     -10.511   3.061  73.051  1.00  0.00    -0.157 NA 
HETATM   19  C   UNL     1      -8.591   2.922  71.549  1.00  0.00    -0.065 A  
HETATM   20  N   UNL     1      -9.576   3.609  72.234  1.00  0.00    -0.136 NA 
BRANCH  15  21
HETATM   21  N   UNL     1      -7.034   5.725  69.836  1.00  0.00    -0.063 NA 
HETATM   22  C   UNL     1      -6.033   6.771  67.963  1.00  0.00    -0.031 C  
HETATM   23  C   UNL     1      -5.891   6.476  70.315  1.00  0.00    -0.023 C  
HETATM   24  C   UNL     1      -7.090   5.714  68.373  1.00  0.00    -0.070 C  
HETATM   25  C   UNL     1      -5.719   7.537  69.246  1.00  0.00    -0.026 C  
BRANCH  24  26
HETATM   26  C   UNL     1      -8.509   5.937  67.888  1.00  0.00    -0.107 A  
HETATM   27  C   UNL     1      -9.297   4.959  67.272  1.00  0.00    -0.131 A  
HETATM   28  C   UNL     1     -10.562   5.256  66.758  1.00  0.00    -0.309 A  
HETATM   29  F   UNL     1      -8.853   3.702  67.137  1.00  0.00    -0.102 F  
HETATM   30  C   UNL     1     -11.062   6.553  66.842  1.00  0.00    -0.342 A  
HETATM   31  C   UNL     1     -10.296   7.534  67.457  1.00  0.00    -0.252 A  
HETATM   32  C   UNL     1      -9.040   7.239  67.979  1.00  0.00    -0.133 A  
HETATM   33  F   UNL     1     -10.767   8.785  67.536  1.00  0.00    -0.315 F  
ENDBRANCH  24  26
ENDBRANCH  15  21
ENDBRANCH  10  12
ENDBRANCH   8  10
ENDBRANCH   6   8
TORSDOF 5
ENDMDL
MODEL      160
REMARK 921   NORMALIZED FREE ENERGY PREDICTED BY IDOCK:   -5.16 KCAL/MOL
REMARK 922        TOTAL FREE ENERGY PREDICTED BY IDOCK:   -8.40 KCAL/MOL
REMARK 923 INTER-LIGAND FREE ENERGY PREDICTED BY IDOCK:   -7.49 KCAL/MOL
REMARK 924 INTRA-LIGAND FREE ENERGY PREDICTED BY IDOCK:   -0.91 KCAL/MOL
REMARK 927      BINDING AFFINITY PREDICTED BY RF-SCORE:    0.00 PKD
ROOT
HETATM    1  O   UNL     1     -12.369  13.660  63.200  1.00  0.00    -1.045 OA 
HETATM    2  H   UNL     1     -11.861  13.352  62.459  1.00  0.00     0.000 HD 
HETATM    3  C   UNL     1     -11.636  13.545  64.408  1.00  0.00    -0.396 C  
HETATM    4  C   UNL     1     -12.451  14.038  65.598  1.00  0.00    -0.531 C  
HETATM    5  C   UNL     1     -11.796  13.334  66.767  1.00  0.00    -0.394 C  
HETATM    6  N   UNL     1     -11.373  12.051  66.232  1.00  0.00    -0.347 N  
HETATM    7  C   UNL     1     -11.334  12.086  64.773  1.00  0.00    -0.313 C  
ENDROOT
BRANCH   6   8
HETATM    8  C   UNL     1     -11.042  11.030  67.107  1.00  0.00    -0.267 C  
HETATM    9  O   UNL     1     -10.949   9.880  66.692  1.00  0.00    -0.036 OA 
BRANCH   8  10
HETATM   10  N   UNL     1     -10.884  11.436  68.411  1.00  0.00    -0.193 N  
HETATM   11  H   UNL     1     -10.474  12.358  68.560  1.00  0.00     0.000 HD 
BRANCH  10  12
HETATM   12  C   UNL     1     -11.230  10.712  69.547  1.00  0.00    -0.272 A  
HETATM   13  C   UNL     1     -10.473   9.921  70.401  1.00  0.00    -0.285 A  
HETATM   14  N   UNL     1      -9.142   9.579  70.467  1.00  0.00    -0.250 NA 
HETATM   15  C   UNL     1      -8.768   8.711  71.374  1.00  0.00    -0.204 A  
HETATM   16  C   UNL     1     -12.536  10.671  70.085  1.00  0.00    -0.270 A  
HETATM   17  C   UNL     1      -9.707   8.163  72.413  1.00  0.00    -0.338 A  
HETATM   18  N   UNL     1     -12.644   9.896  71.158  1.00  0.00    -0.343 NA 
HETATM   19  C   UNL     1     -10.981   8.559  72.347  1.00  0.00    -0.320 A  
HETATM   20  N   UNL     1     -11.385   9.426  71.348  1.00  0.00    -0.355 NA 
BRANCH  15  21
HETATM   21  N   UNL     1      -7.473   8.253  71.446  1.00  0.00    -0.077 NA 
HETATM   22  C   UNL     1      -5.542   6.889  71.579  1.00  0.00    -0.036 C  
HETATM   23  C   UNL     1      -6.334   9.071  71.078  1.00  0.00    -0.061 C  
HETATM   24  C   UNL     1      -7.050   6.940  71.936  1.00  0.00    -0.074 C  
HETATM   25  C   UNL     1      -5.327   8.043  70.602  1.00  0.00    -0.022 C  
BRANCH  24  26
HETATM   26  C   UNL     1      -7.928   5.844  71.367  1.00  0.00    -0.113 A  
HETATM   27  C   UNL     1      -8.624   4.907  72.138  1.00  0.00    -0.124 A  
HETATM   28  C   UNL     1      -9.338   3.860  71.548  1.00  0.00    -0.203 A  
HETATM   29  F   UNL     1      -8.612   4.972  73.476  1.00  0.00    -0.108 F  
HETATM   30  C   UNL     1      -9.360   3.725  70.162  1.00  0.00    -0.244 A  
HETATM   31  C   UNL     1      -8.681   4.651  69.382  1.00  0.00    -0.082 A  
HETATM   32  C   UNL     1      -7.978   5.700  69.966  1.00  0.00    -0.091 A  
HETATM   33  F   UNL     1      -8.693   4.524  68.049  1.00  0.00    -0.100 F  
ENDBRANCH  24  26
ENDBRANCH  15  21
ENDBRANCH  10  12
ENDBRANCH   8  10
ENDBRANCH   6   8
TORSDOF 5
ENDMDL
MODEL      161
REMARK 921   NORMALIZED FREE ENERGY PREDICTED BY IDOCK:   -5.16 KCAL/MOL
REMARK 922        TOTAL FREE ENERGY PREDICTED BY IDOCK:   -8.40 KCAL/MOL
REMARK 923 INTER-LIGAND FREE ENERGY PREDICTED BY IDOCK:   -7.86 KCAL/MOL
REMARK 924 INTRA-LIGAND FREE ENERGY PREDICTED BY IDOCK:   -0.54 KCAL/MOL
REMARK 927      BINDING AFFINITY PREDICTED BY RF-SCORE:    0.00 PKD
ROOT
HETATM    1  O   UNL     1      -9.747   4.611  71.509  1.00  0.00    -0.157 OA 
HETATM    2  H   UNL     1      -9.090   4.229  70.939  1.00  0.00     0.000 HD 
HETATM    3  C   UNL     1     -10.539   5.559  70.813  1.00  0.00    -0.249 C  
HETATM    4  C   UNL     1     -11.594   6.173  71.727  1.00  0.00    -0.333 C  
HETATM    5  C   UNL     1     -11.913   7.482  71.038  1.00  0.00    -0.290 C  
HETATM    6  N   UNL     1     -10.654   7.900  70.444  1.00  0.00    -0.223 N  
HETATM    7  C   UNL     1      -9.726   6.776  70.354  1.00  0.00    -0.175 C  
ENDROOT
BRANCH   6   8
HETATM    8  C   UNL     1     -10.505   9.212  70.027  1.00  0.00    -0.221 C  
HETATM    9  O   UNL     1      -9.384   9.701  69.947  1.00  0.00    -0.199 OA 
BRANCH   8  10
HETATM   10  N   UNL     1     -11.692   9.859  69.775  1.00  0.00    -0.450 N  
HETATM   11  H   UNL     1     -12.339   9.402  69.133  1.00  0.00     0.000 HD 
BRANCH  10  12
HETATM   12  C   UNL     1     -12.096  11.077  70.311  1.00  0.00    -0.362 A  
HETATM   13  C   UNL     1     -11.906  12.382  69.878  1.00  0.00    -0.305 A  
HETATM   14  N   UNL     1     -11.291  12.954  68.787  1.00  0.00    -0.271 NA 
HETATM   15  C   UNL     1     -11.211  14.261  68.733  1.00  0.00    -0.262 A  
HETATM   16  C   UNL     1     -12.858  11.201  71.494  1.00  0.00    -0.437 A  
HETATM   17  C   UNL     1     -11.859  15.158  69.750  1.00  0.00    -0.364 A  
HETATM   18  N   UNL     1     -13.109  12.459  71.836  1.00  0.00    -0.412 NA 
HETATM   19  C   UNL     1     -12.490  14.566  70.768  1.00  0.00    -0.351 A  
HETATM   20  N   UNL     1     -12.518  13.186  70.855  1.00  0.00    -0.359 NA 
BRANCH  15  21
HETATM   21  N   UNL     1     -10.535  14.902  67.721  1.00  0.00    -0.252 NA 
HETATM   22  C   UNL     1      -8.947  15.528  66.080  1.00  0.00    -0.329 C  
HETATM   23  C   UNL     1     -11.181  15.840  66.825  1.00  0.00    -0.021 C  
HETATM   24  C   UNL     1      -9.105  14.787  67.433  1.00  0.00    -0.195 C  
HETATM   25  C   UNL     1     -10.370  15.695  65.552  1.00  0.00    -0.421 C  
BRANCH  24  26
HETATM   26  C   UNL     1      -8.661  13.339  67.479  1.00  0.00    -0.202 A  
HETATM   27  C   UNL     1      -7.614  12.857  68.272  1.00  0.00    -0.134 A  
HETATM   28  C   UNL     1      -7.190  11.527  68.195  1.00  0.00    -0.080 A  
HETATM   29  F   UNL     1      -6.966  13.665  69.122  1.00  0.00    -0.105 F  
HETATM   30  C   UNL     1      -7.806  10.650  67.305  1.00  0.00    -0.112 A  
HETATM   31  C   UNL     1      -8.852  11.110  66.517  1.00  0.00    -0.171 A  
HETATM   32  C   UNL     1      -9.283  12.430  66.599  1.00  0.00    -0.218 A  
HETATM   33  F   UNL     1      -9.445  10.274  65.655  1.00  0.00    -0.203 F  
ENDBRANCH  24  26
ENDBRANCH  15  21
ENDBRANCH  10  12
ENDBRANCH   8  10
ENDBRANCH   6   8
TORSDOF 5
ENDMDL
MODEL      162
REMARK 921   NORMALIZED FREE ENERGY PREDICTED BY IDOCK:   -5.16 KCAL/MOL
REMARK 922        TOTAL FREE ENERGY PREDICTED BY IDOCK:   -8.40 KCAL/MOL
REMARK 923 INTER-LIGAND FREE ENERGY PREDICTED BY IDOCK:   -6.57 KCAL/MOL
REMARK 924 INTRA-LIGAND FREE ENERGY PREDICTED BY IDOCK:   -1.82 KCAL/MOL
REMARK 927      BINDING AFFINITY PREDICTED BY RF-SCORE:    0.00 PKD
ROOT
HETATM    1  O   UNL     1      -9.968   4.567  71.835  1.00  0.00    -0.177 OA 
HETATM    2  H   UNL     1     -10.496   3.809  72.059  1.00  0.00     0.000 HD 
HETATM    3  C   UNL     1     -10.425   5.728  72.510  1.00  0.00    -0.207 C  
HETATM    4  C   UNL     1      -9.578   6.943  72.150  1.00  0.00    -0.154 C  
HETATM    5  C   UNL     1     -10.505   8.099  72.459  1.00  0.00    -0.339 C  
HETATM    6  N   UNL     1     -11.832   7.601  72.140  1.00  0.00    -0.299 N  
HETATM    7  C   UNL     1     -11.835   6.143  72.071  1.00  0.00    -0.280 C  
ENDROOT
BRANCH   6   8
HETATM    8  C   UNL     1     -12.874   8.502  71.987  1.00  0.00    -0.374 C  
HETATM    9  O   UNL     1     -13.950   8.116  71.544  1.00  0.00    -0.367 OA 
BRANCH   8  10
HETATM   10  N   UNL     1     -12.554   9.794  72.330  1.00  0.00    -0.266 N  
HETATM   11  H   UNL     1     -12.378   9.978  73.317  1.00  0.00     0.000 HD 
BRANCH  10  12
HETATM   12  C   UNL     1     -12.447  10.874  71.461  1.00  0.00    -0.314 A  
HETATM   13  C   UNL     1     -11.861  10.995  70.208  1.00  0.00    -0.367 A  
HETATM   14  N   UNL     1     -11.206  10.125  69.366  1.00  0.00    -0.230 NA 
HETATM   15  C   UNL     1     -10.681  10.604  68.265  1.00  0.00    -0.219 A  
HETATM   16  C   UNL     1     -12.987  12.153  71.727  1.00  0.00    -0.332 A  
HETATM   17  C   UNL     1     -10.861  12.033  67.832  1.00  0.00    -0.254 A  
HETATM   18  N   UNL     1     -12.743  13.042  70.771  1.00  0.00    -0.220 NA 
HETATM   19  C   UNL     1     -11.547  12.833  68.652  1.00  0.00    -0.314 A  
HETATM   20  N   UNL     1     -12.045  12.339  69.844  1.00  0.00    -0.282 NA 
BRANCH  15  21
HETATM   21  N   UNL     1      -9.937   9.817  67.417  1.00  0.00    -0.180 NA 
HETATM   22  C   UNL     1      -8.164   8.752  66.264  1.00  0.00    -0.115 C  
HETATM   23  C   UNL     1     -10.489   8.659  66.742  1.00  0.00    -0.228 C  
HETATM   24  C   UNL     1      -8.543  10.044  67.034  1.00  0.00    -0.125 C  
HETATM   25  C   UNL     1      -9.279   7.759  66.585  1.00  0.00    -0.220 C  
BRANCH  24  26
HETATM   26  C   UNL     1      -7.702  10.393  68.245  1.00  0.00    -0.096 A  
HETATM   27  C   UNL     1      -7.257  11.683  68.553  1.00  0.00    -0.094 A  
HETATM   28  C   UNL     1      -6.401  11.924  69.632  1.00  0.00    -0.124 A  
HETATM   29  F   UNL     1      -7.623  12.735  67.807  1.00  0.00    -0.097 F  
HETATM   30  C   UNL     1      -5.962  10.864  70.422  1.00  0.00    -0.134 A  
HETATM   31  C   UNL     1      -6.400   9.579  70.135  1.00  0.00    -0.063 A  
HETATM   32  C   UNL     1      -7.260   9.338  69.068  1.00  0.00    -0.071 A  
HETATM   33  F   UNL     1      -5.977   8.555  70.887  1.00  0.00    -0.032 F  
ENDBRANCH  24  26
ENDBRANCH  15  21
ENDBRANCH  10  12
ENDBRANCH   8  10
ENDBRANCH   6   8
TORSDOF 5
ENDMDL
MODEL      163
REMARK 921   NORMALIZED FREE ENERGY PREDICTED BY IDOCK:   -5.15 KCAL/MOL
REMARK 922        TOTAL FREE ENERGY PREDICTED BY IDOCK:   -8.39 KCAL/MOL
REMARK 923 INTER-LIGAND FREE ENERGY PREDICTED BY IDOCK:   -6.95 KCAL/MOL
REMARK 924 INTRA-LIGAND FREE ENERGY PREDICTED BY IDOCK:   -1.44 KCAL/MOL
REMARK 927      BINDING AFFINITY PREDICTED BY RF-SCORE:    0.00 PKD
ROOT
HETATM    1  O   UNL     1     -12.582  16.508  74.399  1.00  0.00    -0.733 OA 
HETATM    2  H   UNL     1     -11.864  16.335  74.997  1.00  0.00     0.000 HD 
HETATM    3  C   UNL     1     -12.819  15.398  73.549  1.00  0.00    -0.552 C  
HETATM    4  C   UNL     1     -13.971  15.675  72.589  1.00  0.00    -0.608 C  
HETATM    5  C   UNL     1     -13.703  14.707  71.457  1.00  0.00    -0.419 C  
HETATM    6  N   UNL     1     -12.255  14.627  71.378  1.00  0.00    -0.334 N  
HETATM    7  C   UNL     1     -11.641  15.120  72.607  1.00  0.00    -0.317 C  
ENDROOT
BRANCH   6   8
HETATM    8  C   UNL     1     -11.668  14.095  70.241  1.00  0.00    -0.258 C  
HETATM    9  O   UNL     1     -10.742  14.689  69.701  1.00  0.00    -0.225 OA 
BRANCH   8  10
HETATM   10  N   UNL     1     -12.245  12.926  69.806  1.00  0.00    -0.216 N  
HETATM   11  H   UNL     1     -12.954  13.004  69.078  1.00  0.00     0.000 HD 
BRANCH  10  12
HETATM   12  C   UNL     1     -11.955  11.644  70.264  1.00  0.00    -0.358 A  
HETATM   13  C   UNL     1     -11.189  10.623  69.719  1.00  0.00    -0.297 A  
HETATM   14  N   UNL     1     -10.432  10.494  68.576  1.00  0.00    -0.177 NA 
HETATM   15  C   UNL     1      -9.899   9.326  68.313  1.00  0.00    -0.158 A  
HETATM   16  C   UNL     1     -12.424  11.123  71.490  1.00  0.00    -0.250 A  
HETATM   17  C   UNL     1      -9.984   8.161  69.260  1.00  0.00    -0.188 A  
HETATM   18  N   UNL     1     -12.047   9.869  71.714  1.00  0.00    -0.364 NA 
HETATM   19  C   UNL     1     -10.684   8.342  70.383  1.00  0.00    -0.232 A  
HETATM   20  N   UNL     1     -11.299   9.557  70.626  1.00  0.00    -0.281 NA 
BRANCH  15  21
HETATM   21  N   UNL     1      -9.205   9.094  67.148  1.00  0.00    -0.132 NA 
HETATM   22  C   UNL     1      -7.513   8.900  65.504  1.00  0.00    -0.086 C  
HETATM   23  C   UNL     1      -9.726   8.261  66.083  1.00  0.00    -0.119 C  
HETATM   24  C   UNL     1      -7.909   9.671  66.789  1.00  0.00    -0.102 C  
HETATM   25  C   UNL     1      -8.465   7.707  65.448  1.00  0.00    -0.110 C  
BRANCH  24  26
HETATM   26  C   UNL     1      -6.946   9.600  67.957  1.00  0.00    -0.078 A  
HETATM   27  C   UNL     1      -6.512   8.411  68.553  1.00  0.00    -0.055 A  
HETATM   28  C   UNL     1      -5.700   8.417  69.691  1.00  0.00    -0.030 A  
HETATM   29  F   UNL     1      -6.881   7.220  68.062  1.00  0.00    -0.059 F  
HETATM   30  C   UNL     1      -5.313   9.626  70.264  1.00  0.00    -0.040 A  
HETATM   31  C   UNL     1      -5.728  10.815  69.680  1.00  0.00    -0.044 A  
HETATM   32  C   UNL     1      -6.528  10.812  68.542  1.00  0.00    -0.054 A  
HETATM   33  F   UNL     1      -5.364  11.981  70.229  1.00  0.00    -0.072 F  
ENDBRANCH  24  26
ENDBRANCH  15  21
ENDBRANCH  10  12
ENDBRANCH   8  10
ENDBRANCH   6   8
TORSDOF 5
ENDMDL
MODEL      164
REMARK 921   NORMALIZED FREE ENERGY PREDICTED BY IDOCK:   -5.15 KCAL/MOL
REMARK 922        TOTAL FREE ENERGY PREDICTED BY IDOCK:   -8.38 KCAL/MOL
REMARK 923 INTER-LIGAND FREE ENERGY PREDICTED BY IDOCK:   -8.14 KCAL/MOL
REMARK 924 INTRA-LIGAND FREE ENERGY PREDICTED BY IDOCK:   -0.24 KCAL/MOL
REMARK 927      BINDING AFFINITY PREDICTED BY RF-SCORE:    0.00 PKD
ROOT
HETATM    1  O   UNL     1     -13.401  15.610  71.649  1.00  0.00    -0.485 OA 
HETATM    2  H   UNL     1     -12.863  16.289  71.260  1.00  0.00     0.000 HD 
HETATM    3  C   UNL     1     -12.688  14.389  71.757  1.00  0.00    -0.351 C  
HETATM    4  C   UNL     1     -13.552  13.299  72.380  1.00  0.00    -0.694 C  
HETATM    5  C   UNL     1     -12.886  12.028  71.897  1.00  0.00    -0.233 C  
HETATM    6  N   UNL     1     -12.387  12.356  70.572  1.00  0.00    -0.306 N  
HETATM    7  C   UNL     1     -12.320  13.803  70.388  1.00  0.00    -0.353 C  
ENDROOT
BRANCH   6   8
HETATM    8  C   UNL     1     -12.023  11.332  69.714  1.00  0.00    -0.360 C  
HETATM    9  O   UNL     1     -12.633  11.174  68.663  1.00  0.00    -0.318 OA 
BRANCH   8  10
HETATM   10  N   UNL     1     -10.993  10.549  70.179  1.00  0.00    -0.383 N  
HETATM   11  H   UNL     1     -10.348  10.981  70.840  1.00  0.00     0.000 HD 
BRANCH  10  12
HETATM   12  C   UNL     1     -10.747   9.223  69.837  1.00  0.00    -0.234 A  
HETATM   13  C   UNL     1     -10.189   8.654  68.700  1.00  0.00    -0.194 A  
HETATM   14  N   UNL     1      -9.665   9.158  67.531  1.00  0.00    -0.153 NA 
HETATM   15  C   UNL     1      -9.298   8.312  66.600  1.00  0.00    -0.192 A  
HETATM   16  C   UNL     1     -11.036   8.127  70.680  1.00  0.00    -0.254 A  
HETATM   17  C   UNL     1      -9.321   6.822  66.800  1.00  0.00    -0.189 A  
HETATM   18  N   UNL     1     -10.743   6.949  70.140  1.00  0.00    -0.227 NA 
HETATM   19  C   UNL     1      -9.789   6.373  67.968  1.00  0.00    -0.123 A  
HETATM   20  N   UNL     1     -10.234   7.268  68.923  1.00  0.00    -0.188 NA 
BRANCH  15  21
HETATM   21  N   UNL     1      -8.849   8.739  65.372  1.00  0.00    -0.191 NA 
HETATM   22  C   UNL     1      -8.362  10.023  63.444  1.00  0.00    -0.170 C  
HETATM   23  C   UNL     1      -7.800   8.052  64.644  1.00  0.00    -0.140 C  
HETATM   24  C   UNL     1      -9.372   9.874  64.611  1.00  0.00    -0.277 C  
HETATM   25  C   UNL     1      -7.160   9.174  63.849  1.00  0.00    -0.093 C  
BRANCH  24  26
HETATM   26  C   UNL     1      -9.569  11.079  65.508  1.00  0.00    -0.263 A  
HETATM   27  C   UNL     1      -8.598  11.583  66.379  1.00  0.00    -0.159 A  
HETATM   28  C   UNL     1      -8.876  12.638  67.253  1.00  0.00    -0.196 A  
HETATM   29  F   UNL     1      -7.367  11.054  66.419  1.00  0.00    -0.128 F  
HETATM   30  C   UNL     1     -10.147  13.205  67.278  1.00  0.00    -0.233 A  
HETATM   31  C   UNL     1     -11.120  12.722  66.414  1.00  0.00    -0.285 A  
HETATM   32  C   UNL     1     -10.844  11.679  65.536  1.00  0.00    -0.334 A  
HETATM   33  F   UNL     1     -12.347  13.259  66.437  1.00  0.00    -0.434 F  
ENDBRANCH  24  26
ENDBRANCH  15  21
ENDBRANCH  10  12
ENDBRANCH   8  10
ENDBRANCH   6   8
TORSDOF 5
ENDMDL
MODEL      165
REMARK 921   NORMALIZED FREE ENERGY PREDICTED BY IDOCK:   -5.15 KCAL/MOL
REMARK 922        TOTAL FREE ENERGY PREDICTED BY IDOCK:   -8.38 KCAL/MOL
REMARK 923 INTER-LIGAND FREE ENERGY PREDICTED BY IDOCK:   -7.01 KCAL/MOL
REMARK 924 INTRA-LIGAND FREE ENERGY PREDICTED BY IDOCK:   -1.37 KCAL/MOL
REMARK 927      BINDING AFFINITY PREDICTED BY RF-SCORE:    0.00 PKD
ROOT
HETATM    1  O   UNL     1      -7.442   8.947  67.522  1.00  0.00    -0.084 OA 
HETATM    2  H   UNL     1      -8.239   8.978  67.004  1.00  0.00     0.000 HD 
HETATM    3  C   UNL     1      -7.453   9.933  68.540  1.00  0.00    -0.082 C  
HETATM    4  C   UNL     1      -6.175   9.883  69.370  1.00  0.00    -0.044 C  
HETATM    5  C   UNL     1      -6.106  11.275  69.960  1.00  0.00    -0.142 C  
HETATM    6  N   UNL     1      -6.670  12.137  68.935  1.00  0.00    -0.089 N  
HETATM    7  C   UNL     1      -7.446  11.359  67.974  1.00  0.00    -0.100 C  
ENDROOT
BRANCH   6   8
HETATM    8  C   UNL     1      -6.452  13.503  69.006  1.00  0.00    -0.107 C  
HETATM    9  O   UNL     1      -6.103  14.009  70.066  1.00  0.00    -0.130 OA 
BRANCH   8  10
HETATM   10  N   UNL     1      -6.702  14.173  67.832  1.00  0.00    -0.151 N  
HETATM   11  H   UNL     1      -6.462  13.691  66.966  1.00  0.00     0.000 HD 
BRANCH  10  12
HETATM   12  C   UNL     1      -7.251  15.445  67.710  1.00  0.00    -0.163 A  
HETATM   13  C   UNL     1      -8.397  16.010  68.252  1.00  0.00    -0.164 A  
HETATM   14  N   UNL     1      -9.381  15.559  69.102  1.00  0.00    -0.233 NA 
HETATM   15  C   UNL     1     -10.401  16.345  69.344  1.00  0.00    -0.290 A  
HETATM   16  C   UNL     1      -6.665  16.484  66.952  1.00  0.00    -0.198 A  
HETATM   17  C   UNL     1     -10.484  17.754  68.824  1.00  0.00    -0.252 A  
HETATM   18  N   UNL     1      -7.374  17.608  66.953  1.00  0.00    -0.189 NA 
HETATM   19  C   UNL     1      -9.484  18.172  68.044  1.00  0.00    -0.285 A  
HETATM   20  N   UNL     1      -8.441  17.317  67.740  1.00  0.00    -0.214 NA 
BRANCH  15  21
HETATM   21  N   UNL     1     -11.466  15.932  70.110  1.00  0.00    -0.341 NA 
HETATM   22  C   UNL     1     -13.388  14.819  70.931  1.00  0.00    -0.372 C  
HETATM   23  C   UNL     1     -11.563  16.216  71.528  1.00  0.00    -0.430 C  
HETATM   24  C   UNL     1     -12.649  15.219  69.628  1.00  0.00    -0.052 C  
HETATM   25  C   UNL     1     -12.370  15.043  72.047  1.00  0.00    -0.421 C  
BRANCH  24  26
HETATM   26  C   UNL     1     -12.255  14.096  68.690  1.00  0.00    -0.216 A  
HETATM   27  C   UNL     1     -11.723  12.870  69.103  1.00  0.00    -0.324 A  
HETATM   28  C   UNL     1     -11.287  11.913  68.182  1.00  0.00    -0.350 A  
HETATM   29  F   UNL     1     -11.595  12.579  70.405  1.00  0.00    -0.319 F  
HETATM   30  C   UNL     1     -11.367  12.175  66.816  1.00  0.00    -0.398 A  
HETATM   31  C   UNL     1     -11.899  13.383  66.389  1.00  0.00    -0.396 A  
HETATM   32  C   UNL     1     -12.343  14.333  67.303  1.00  0.00    -0.140 A  
HETATM   33  F   UNL     1     -11.973  13.644  65.077  1.00  0.00    -0.335 F  
ENDBRANCH  24  26
ENDBRANCH  15  21
ENDBRANCH  10  12
ENDBRANCH   8  10
ENDBRANCH   6   8
TORSDOF 5
ENDMDL
MODEL      166
REMARK 921   NORMALIZED FREE ENERGY PREDICTED BY IDOCK:   -5.13 KCAL/MOL
REMARK 922        TOTAL FREE ENERGY PREDICTED BY IDOCK:   -8.36 KCAL/MOL
REMARK 923 INTER-LIGAND FREE ENERGY PREDICTED BY IDOCK:   -6.57 KCAL/MOL
REMARK 924 INTRA-LIGAND FREE ENERGY PREDICTED BY IDOCK:   -1.78 KCAL/MOL
REMARK 927      BINDING AFFINITY PREDICTED BY RF-SCORE:    0.00 PKD
ROOT
HETATM    1  O   UNL     1      -5.906  10.472  68.383  1.00  0.00    -0.044 OA 
HETATM    2  H   UNL     1      -6.273  10.216  67.545  1.00  0.00     0.000 HD 
HETATM    3  C   UNL     1      -6.469  11.690  68.838  1.00  0.00    -0.071 C  
HETATM    4  C   UNL     1      -5.879  12.102  70.183  1.00  0.00    -0.162 C  
HETATM    5  C   UNL     1      -6.127  13.594  70.214  1.00  0.00    -0.121 C  
HETATM    6  N   UNL     1      -6.001  14.016  68.829  1.00  0.00    -0.081 N  
HETATM    7  C   UNL     1      -6.117  12.874  67.927  1.00  0.00    -0.125 C  
ENDROOT
BRANCH   6   8
HETATM    8  C   UNL     1      -5.835  15.362  68.544  1.00  0.00    -0.096 C  
HETATM    9  O   UNL     1      -5.456  16.127  69.424  1.00  0.00    -0.113 OA 
BRANCH   8  10
HETATM   10  N   UNL     1      -6.166  15.708  67.256  1.00  0.00    -0.068 N  
HETATM   11  H   UNL     1      -5.440  15.602  66.549  1.00  0.00     0.000 HD 
BRANCH  10  12
HETATM   12  C   UNL     1      -7.397  16.190  66.824  1.00  0.00    -0.185 A  
HETATM   13  C   UNL     1      -8.685  15.692  66.970  1.00  0.00    -0.230 A  
HETATM   14  N   UNL     1      -9.224  14.589  67.593  1.00  0.00    -0.190 NA 
HETATM   15  C   UNL     1     -10.507  14.363  67.455  1.00  0.00    -0.261 A  
HETATM   16  C   UNL     1      -7.561  17.396  66.105  1.00  0.00    -0.286 A  
HETATM   17  C   UNL     1     -11.429  15.314  66.743  1.00  0.00    -0.123 A  
HETATM   18  N   UNL     1      -8.821  17.649  65.770  1.00  0.00    -0.426 NA 
HETATM   19  C   UNL     1     -10.875  16.400  66.195  1.00  0.00    -0.075 A  
HETATM   20  N   UNL     1      -9.511  16.602  66.289  1.00  0.00    -0.281 NA 
BRANCH  15  21
HETATM   21  N   UNL     1     -11.102  13.236  67.972  1.00  0.00    -0.246 NA 
HETATM   22  C   UNL     1     -12.119  11.115  68.241  1.00  0.00    -0.011 C  
HETATM   23  C   UNL     1     -11.040  12.898  69.380  1.00  0.00    -0.068 C  
HETATM   24  C   UNL     1     -11.906  12.268  67.225  1.00  0.00    -0.260 C  
HETATM   25  C   UNL     1     -11.117  11.384  69.361  1.00  0.00    -0.301 C  
BRANCH  24  26
HETATM   26  C   UNL     1     -11.238  11.912  65.913  1.00  0.00    -0.373 A  
HETATM   27  C   UNL     1     -11.704  12.310  64.655  1.00  0.00    -0.356 A  
HETATM   28  C   UNL     1     -11.098  11.865  63.476  1.00  0.00    -0.506 A  
HETATM   29  F   UNL     1     -12.766  13.119  64.538  1.00  0.00    -0.410 F  
HETATM   30  C   UNL     1     -10.010  10.997  63.537  1.00  0.00    -0.421 A  
HETATM   31  C   UNL     1      -9.531  10.599  64.777  1.00  0.00    -0.256 A  
HETATM   32  C   UNL     1     -10.126  11.048  65.952  1.00  0.00    -0.301 A  
HETATM   33  F   UNL     1      -8.489   9.760  64.842  1.00  0.00    -0.127 F  
ENDBRANCH  24  26
ENDBRANCH  15  21
ENDBRANCH  10  12
ENDBRANCH   8  10
ENDBRANCH   6   8
TORSDOF 5
ENDMDL
MODEL      167
REMARK 921   NORMALIZED FREE ENERGY PREDICTED BY IDOCK:   -5.12 KCAL/MOL
REMARK 922        TOTAL FREE ENERGY PREDICTED BY IDOCK:   -8.34 KCAL/MOL
REMARK 923 INTER-LIGAND FREE ENERGY PREDICTED BY IDOCK:   -7.97 KCAL/MOL
REMARK 924 INTRA-LIGAND FREE ENERGY PREDICTED BY IDOCK:   -0.38 KCAL/MOL
REMARK 927      BINDING AFFINITY PREDICTED BY RF-SCORE:    0.00 PKD
ROOT
HETATM    1  O   UNL     1      -8.279   8.650  73.931  1.00  0.00    -0.379 OA 
HETATM    2  H   UNL     1      -7.472   8.993  73.566  1.00  0.00     0.000 HD 
HETATM    3  C   UNL     1      -8.785   7.584  73.145  1.00  0.00    -0.156 C  
HETATM    4  C   UNL     1     -10.080   7.033  73.731  1.00  0.00    -0.390 C  
HETATM    5  C   UNL     1     -10.733   6.373  72.535  1.00  0.00    -0.227 C  
HETATM    6  N   UNL     1     -10.350   7.201  71.405  1.00  0.00    -0.197 N  
HETATM    7  C   UNL     1      -9.203   8.039  71.741  1.00  0.00    -0.161 C  
ENDROOT
BRANCH   6   8
HETATM    8  C   UNL     1     -11.045   7.081  70.212  1.00  0.00    -0.285 C  
HETATM    9  O   UNL     1     -11.569   6.012  69.920  1.00  0.00    -0.326 OA 
BRANCH   8  10
HETATM   10  N   UNL     1     -11.034   8.217  69.439  1.00  0.00    -0.431 N  
HETATM   11  H   UNL     1     -11.609   8.997  69.758  1.00  0.00     0.000 HD 
BRANCH  10  12
HETATM   12  C   UNL     1     -10.316   8.406  68.262  1.00  0.00    -0.199 A  
HETATM   13  C   UNL     1     -10.336   9.430  67.326  1.00  0.00    -0.260 A  
HETATM   14  N   UNL     1     -11.026  10.616  67.213  1.00  0.00    -0.300 NA 
HETATM   15  C   UNL     1     -10.868  11.325  66.122  1.00  0.00    -0.222 A  
HETATM   16  C   UNL     1      -9.337   7.505  67.786  1.00  0.00    -0.141 A  
HETATM   17  C   UNL     1      -9.885  10.954  65.046  1.00  0.00    -0.336 A  
HETATM   18  N   UNL     1      -8.796   7.871  66.630  1.00  0.00    -0.139 NA 
HETATM   19  C   UNL     1      -9.197   9.822  65.216  1.00  0.00    -0.238 A  
HETATM   20  N   UNL     1      -9.413   9.044  66.340  1.00  0.00    -0.206 NA 
BRANCH  15  21
HETATM   21  N   UNL     1     -11.588  12.474  65.896  1.00  0.00    -0.384 NA 
HETATM   22  C   UNL     1     -12.367  14.710  65.882  1.00  0.00    -0.127 C  
HETATM   23  C   UNL     1     -12.536  12.600  64.806  1.00  0.00    -0.484 C  
HETATM   24  C   UNL     1     -11.557  13.685  66.717  1.00  0.00    -0.364 C  
HETATM   25  C   UNL     1     -12.490  14.083  64.496  1.00  0.00    -0.342 C  
BRANCH  24  26
HETATM   26  C   UNL     1     -10.131  14.060  67.069  1.00  0.00    -0.255 A  
HETATM   27  C   UNL     1      -9.413  15.097  66.463  1.00  0.00    -0.283 A  
HETATM   28  C   UNL     1      -8.068  15.328  66.763  1.00  0.00    -0.166 A  
HETATM   29  F   UNL     1      -9.991  15.896  65.555  1.00  0.00    -0.321 F  
HETATM   30  C   UNL     1      -7.407  14.510  67.676  1.00  0.00    -0.201 A  
HETATM   31  C   UNL     1      -8.107  13.481  68.292  1.00  0.00    -0.155 A  
HETATM   32  C   UNL     1      -9.449  13.255  68.002  1.00  0.00    -0.219 A  
HETATM   33  F   UNL     1      -7.476  12.686  69.166  1.00  0.00    -0.073 F  
ENDBRANCH  24  26
ENDBRANCH  15  21
ENDBRANCH  10  12
ENDBRANCH   8  10
ENDBRANCH   6   8
TORSDOF 5
ENDMDL
MODEL      168
REMARK 921   NORMALIZED FREE ENERGY PREDICTED BY IDOCK:   -5.11 KCAL/MOL
REMARK 922        TOTAL FREE ENERGY PREDICTED BY IDOCK:   -8.34 KCAL/MOL
REMARK 923 INTER-LIGAND FREE ENERGY PREDICTED BY IDOCK:   -6.29 KCAL/MOL
REMARK 924 INTRA-LIGAND FREE ENERGY PREDICTED BY IDOCK:   -2.05 KCAL/MOL
REMARK 927      BINDING AFFINITY PREDICTED BY RF-SCORE:    0.00 PKD
ROOT
HETATM    1  O   UNL     1      -6.469  18.580  66.628  1.00  0.00    -0.176 OA 
HETATM    2  H   UNL     1      -6.836  19.280  66.101  1.00  0.00     0.000 HD 
HETATM    3  C   UNL     1      -7.235  17.394  66.511  1.00  0.00    -0.270 C  
HETATM    4  C   UNL     1      -6.646  16.271  67.358  1.00  0.00    -0.212 C  
HETATM    5  C   UNL     1      -7.832  15.353  67.567  1.00  0.00    -0.170 C  
HETATM    6  N   UNL     1      -8.977  16.244  67.639  1.00  0.00    -0.192 N  
HETATM    7  C   UNL     1      -8.651  17.553  67.079  1.00  0.00    -0.235 C  
ENDROOT
BRANCH   6   8
HETATM    8  C   UNL     1     -10.171  15.770  68.157  1.00  0.00    -0.230 C  
HETATM    9  O   UNL     1     -10.261  15.533  69.356  1.00  0.00    -0.227 OA 
BRANCH   8  10
HETATM   10  N   UNL     1     -11.154  15.575  67.216  1.00  0.00    -0.304 N  
HETATM   11  H   UNL     1     -11.957  16.203  67.251  1.00  0.00     0.000 HD 
BRANCH  10  12
HETATM   12  C   UNL     1     -11.160  14.605  66.219  1.00  0.00    -0.336 A  
HETATM   13  C   UNL     1     -10.925  13.238  66.264  1.00  0.00    -0.284 A  
HETATM   14  N   UNL     1     -10.632  12.345  67.270  1.00  0.00    -0.221 NA 
HETATM   15  C   UNL     1     -10.373  11.103  66.942  1.00  0.00    -0.231 A  
HETATM   16  C   UNL     1     -11.452  14.873  64.863  1.00  0.00    -0.407 A  
HETATM   17  C   UNL     1     -10.493  10.591  65.533  1.00  0.00    -0.220 A  
HETATM   18  N   UNL     1     -11.373  13.803  64.081  1.00  0.00    -0.317 NA 
HETATM   19  C   UNL     1     -10.830  11.478  64.593  1.00  0.00    -0.310 A  
HETATM   20  N   UNL     1     -11.041  12.801  64.934  1.00  0.00    -0.283 NA 
BRANCH  15  21
HETATM   21  N   UNL     1      -9.985  10.174  67.879  1.00  0.00    -0.158 NA 
HETATM   22  C   UNL     1      -8.729   8.794  69.337  1.00  0.00    -0.142 C  
HETATM   23  C   UNL     1     -10.902   9.623  68.857  1.00  0.00    -0.174 C  
HETATM   24  C   UNL     1      -8.654   9.576  68.000  1.00  0.00    -0.120 C  
HETATM   25  C   UNL     1      -9.990   9.308  70.027  1.00  0.00    -0.238 C  
BRANCH  24  26
HETATM   26  C   UNL     1      -7.576  10.634  67.882  1.00  0.00    -0.091 A  
HETATM   27  C   UNL     1      -6.827  10.876  66.725  1.00  0.00    -0.121 A  
HETATM   28  C   UNL     1      -5.779  11.800  66.712  1.00  0.00    -0.113 A  
HETATM   29  F   UNL     1      -7.079  10.209  65.590  1.00  0.00    -0.104 F  
HETATM   30  C   UNL     1      -5.451  12.499  67.871  1.00  0.00    -0.094 A  
HETATM   31  C   UNL     1      -6.190  12.277  69.026  1.00  0.00    -0.082 A  
HETATM   32  C   UNL     1      -7.240  11.365  69.039  1.00  0.00    -0.118 A  
HETATM   33  F   UNL     1      -5.876  12.941  70.146  1.00  0.00    -0.110 F  
ENDBRANCH  24  26
ENDBRANCH  15  21
ENDBRANCH  10  12
ENDBRANCH   8  10
ENDBRANCH   6   8
TORSDOF 5
ENDMDL
MODEL      169
REMARK 921   NORMALIZED FREE ENERGY PREDICTED BY IDOCK:   -5.09 KCAL/MOL
REMARK 922        TOTAL FREE ENERGY PREDICTED BY IDOCK:   -8.31 KCAL/MOL
REMARK 923 INTER-LIGAND FREE ENERGY PREDICTED BY IDOCK:   -6.41 KCAL/MOL
REMARK 924 INTRA-LIGAND FREE ENERGY PREDICTED BY IDOCK:   -1.90 KCAL/MOL
REMARK 927      BINDING AFFINITY PREDICTED BY RF-SCORE:    0.00 PKD
ROOT
HETATM    1  O   UNL     1      -7.626  12.785  69.414  1.00  0.00    -0.293 OA 
HETATM    2  H   UNL     1      -7.768  13.590  68.929  1.00  0.00     0.000 HD 
HETATM    3  C   UNL     1      -6.752  11.914  68.716  1.00  0.00    -0.088 C  
HETATM    4  C   UNL     1      -6.524  10.622  69.493  1.00  0.00    -0.078 C  
HETATM    5  C   UNL     1      -6.096   9.653  68.413  1.00  0.00    -0.043 C  
HETATM    6  N   UNL     1      -6.843  10.062  67.235  1.00  0.00    -0.081 N  
HETATM    7  C   UNL     1      -7.351  11.422  67.392  1.00  0.00    -0.119 C  
ENDROOT
BRANCH   6   8
HETATM    8  C   UNL     1      -6.946   9.191  66.163  1.00  0.00    -0.086 C  
HETATM    9  O   UNL     1      -7.016   9.636  65.023  1.00  0.00    -0.100 OA 
BRANCH   8  10
HETATM   10  N   UNL     1      -6.999   7.865  66.520  1.00  0.00    -0.070 N  
HETATM   11  H   UNL     1      -6.109   7.372  66.595  1.00  0.00     0.000 HD 
BRANCH  10  12
HETATM   12  C   UNL     1      -8.149   7.129  66.789  1.00  0.00    -0.113 A  
HETATM   13  C   UNL     1      -8.806   6.850  67.980  1.00  0.00    -0.123 A  
HETATM   14  N   UNL     1      -8.599   7.195  69.296  1.00  0.00    -0.136 NA 
HETATM   15  C   UNL     1      -9.380   6.667  70.206  1.00  0.00    -0.159 A  
HETATM   16  C   UNL     1      -8.926   6.495  65.795  1.00  0.00    -0.039 A  
HETATM   17  C   UNL     1     -10.555   5.794  69.864  1.00  0.00    -0.388 A  
HETATM   18  N   UNL     1      -9.966   5.825  66.279  1.00  0.00    -0.124 NA 
HETATM   19  C   UNL     1     -10.753   5.523  68.571  1.00  0.00    -0.091 A  
HETATM   20  N   UNL     1      -9.889   6.031  67.618  1.00  0.00    -0.117 NA 
BRANCH  15  21
HETATM   21  N   UNL     1      -9.180   6.893  71.548  1.00  0.00    -0.152 NA 
HETATM   22  C   UNL     1      -9.211   7.796  73.737  1.00  0.00    -0.316 C  
HETATM   23  C   UNL     1      -8.724   5.858  72.455  1.00  0.00    -0.127 C  
HETATM   24  C   UNL     1      -9.337   8.174  72.238  1.00  0.00    -0.224 C  
HETATM   25  C   UNL     1      -9.343   6.276  73.774  1.00  0.00    -0.144 C  
BRANCH  24  26
HETATM   26  C   UNL     1     -10.616   8.864  71.809  1.00  0.00    -0.432 A  
HETATM   27  C   UNL     1     -10.695   9.822  70.792  1.00  0.00    -0.323 A  
HETATM   28  C   UNL     1     -11.889  10.493  70.511  1.00  0.00    -0.442 A  
HETATM   29  F   UNL     1      -9.617  10.144  70.064  1.00  0.00    -0.243 F  
HETATM   30  C   UNL     1     -13.033  10.222  71.257  1.00  0.00    -0.517 A  
HETATM   31  C   UNL     1     -12.974   9.268  72.264  1.00  0.00    -0.412 A  
HETATM   32  C   UNL     1     -11.790   8.591  72.539  1.00  0.00    -0.398 A  
HETATM   33  F   UNL     1     -14.069   9.006  72.989  1.00  0.00    -0.432 F  
ENDBRANCH  24  26
ENDBRANCH  15  21
ENDBRANCH  10  12
ENDBRANCH   8  10
ENDBRANCH   6   8
TORSDOF 5
ENDMDL
MODEL      170
REMARK 921   NORMALIZED FREE ENERGY PREDICTED BY IDOCK:   -5.09 KCAL/MOL
REMARK 922        TOTAL FREE ENERGY PREDICTED BY IDOCK:   -8.31 KCAL/MOL
REMARK 923 INTER-LIGAND FREE ENERGY PREDICTED BY IDOCK:   -7.38 KCAL/MOL
REMARK 924 INTRA-LIGAND FREE ENERGY PREDICTED BY IDOCK:   -0.93 KCAL/MOL
REMARK 927      BINDING AFFINITY PREDICTED BY RF-SCORE:    0.00 PKD
ROOT
HETATM    1  O   UNL     1     -10.292  16.317  68.885  1.00  0.00    -0.232 OA 
HETATM    2  H   UNL     1     -10.664  16.594  69.714  1.00  0.00     0.000 HD 
HETATM    3  C   UNL     1     -11.058  15.278  68.300  1.00  0.00    -0.300 C  
HETATM    4  C   UNL     1     -10.459  14.833  66.970  1.00  0.00    -0.270 C  
HETATM    5  C   UNL     1     -11.010  13.433  66.807  1.00  0.00    -0.288 C  
HETATM    6  N   UNL     1     -11.089  12.910  68.160  1.00  0.00    -0.239 N  
HETATM    7  C   UNL     1     -11.037  13.993  69.138  1.00  0.00    -0.259 C  
ENDROOT
BRANCH   6   8
HETATM    8  C   UNL     1     -11.232  11.545  68.350  1.00  0.00    -0.255 C  
HETATM    9  O   UNL     1     -12.289  11.099  68.782  1.00  0.00    -0.539 OA 
BRANCH   8  10
HETATM   10  N   UNL     1     -10.105  10.815  68.054  1.00  0.00    -0.171 N  
HETATM   11  H   UNL     1     -10.030  10.449  67.105  1.00  0.00     0.000 HD 
BRANCH  10  12
HETATM   12  C   UNL     1      -9.058  10.528  68.923  1.00  0.00    -0.177 A  
HETATM   13  C   UNL     1      -8.941   9.599  69.948  1.00  0.00    -0.221 A  
HETATM   14  N   UNL     1      -9.769   8.629  70.466  1.00  0.00    -0.173 NA 
HETATM   15  C   UNL     1      -9.368   7.973  71.527  1.00  0.00    -0.153 A  
HETATM   16  C   UNL     1      -7.808  11.186  68.892  1.00  0.00    -0.131 A  
HETATM   17  C   UNL     1      -8.002   8.155  72.129  1.00  0.00    -0.168 A  
HETATM   18  N   UNL     1      -6.965  10.770  69.830  1.00  0.00    -0.148 NA 
HETATM   19  C   UNL     1      -7.208   9.070  71.566  1.00  0.00    -0.007 A  
HETATM   20  N   UNL     1      -7.659   9.806  70.486  1.00  0.00    -0.263 NA 
BRANCH  15  21
HETATM   21  N   UNL     1     -10.174   7.052  72.154  1.00  0.00    -0.186 NA 
HETATM   22  C   UNL     1     -11.649   5.261  72.627  1.00  0.00    -0.226 C  
HETATM   23  C   UNL     1     -10.084   6.776  73.575  1.00  0.00    -0.268 C  
HETATM   24  C   UNL     1     -11.245   6.276  71.527  1.00  0.00    -0.290 C  
HETATM   25  C   UNL     1     -10.526   5.328  73.660  1.00  0.00    -0.294 C  
BRANCH  24  26
HETATM   26  C   UNL     1     -10.789   5.705  70.200  1.00  0.00    -0.356 A  
HETATM   27  C   UNL     1      -9.811   4.716  70.058  1.00  0.00    -0.224 A  
HETATM   28  C   UNL     1      -9.364   4.302  68.800  1.00  0.00    -0.216 A  
HETATM   29  F   UNL     1      -9.251   4.142  71.133  1.00  0.00    -0.143 F  
HETATM   30  C   UNL     1      -9.888   4.887  67.649  1.00  0.00    -0.205 A  
HETATM   31  C   UNL     1     -10.865   5.864  67.771  1.00  0.00    -0.235 A  
HETATM   32  C   UNL     1     -11.318   6.271  69.022  1.00  0.00    -0.319 A  
HETATM   33  F   UNL     1     -11.369   6.434  66.669  1.00  0.00    -0.425 F  
ENDBRANCH  24  26
ENDBRANCH  15  21
ENDBRANCH  10  12
ENDBRANCH   8  10
ENDBRANCH   6   8
TORSDOF 5
ENDMDL
MODEL      171
REMARK 921   NORMALIZED FREE ENERGY PREDICTED BY IDOCK:   -5.07 KCAL/MOL
REMARK 922        TOTAL FREE ENERGY PREDICTED BY IDOCK:   -8.29 KCAL/MOL
REMARK 923 INTER-LIGAND FREE ENERGY PREDICTED BY IDOCK:   -6.85 KCAL/MOL
REMARK 924 INTRA-LIGAND FREE ENERGY PREDICTED BY IDOCK:   -1.43 KCAL/MOL
REMARK 927      BINDING AFFINITY PREDICTED BY RF-SCORE:    0.00 PKD
ROOT
HETATM    1  O   UNL     1     -11.415  15.416  70.202  1.00  0.00    -0.266 OA 
HETATM    2  H   UNL     1     -12.082  15.003  70.738  1.00  0.00     0.000 HD 
HETATM    3  C   UNL     1     -11.554  15.051  68.839  1.00  0.00    -0.326 C  
HETATM    4  C   UNL     1     -10.482  15.712  67.979  1.00  0.00    -0.263 C  
HETATM    5  C   UNL     1     -10.422  14.808  66.767  1.00  0.00    -0.282 C  
HETATM    6  N   UNL     1     -10.690  13.478  67.288  1.00  0.00    -0.266 N  
HETATM    7  C   UNL     1     -11.313  13.554  68.606  1.00  0.00    -0.288 C  
ENDROOT
BRANCH   6   8
HETATM    8  C   UNL     1     -10.380  12.373  66.512  1.00  0.00    -0.228 C  
HETATM    9  O   UNL     1     -11.280  11.657  66.088  1.00  0.00    -0.305 OA 
BRANCH   8  10
HETATM   10  N   UNL     1      -9.032  12.176  66.329  1.00  0.00    -0.368 N  
HETATM   11  H   UNL     1      -8.595  12.672  65.552  1.00  0.00     0.000 HD 
BRANCH  10  12
HETATM   12  C   UNL     1      -8.206  11.364  67.099  1.00  0.00    -0.157 A  
HETATM   13  C   UNL     1      -8.489  10.463  68.116  1.00  0.00    -0.121 A  
HETATM   14  N   UNL     1      -9.648  10.023  68.716  1.00  0.00    -0.162 NA 
HETATM   15  C   UNL     1      -9.547   9.212  69.740  1.00  0.00    -0.181 A  
HETATM   16  C   UNL     1      -6.802  11.303  66.949  1.00  0.00    -0.134 A  
HETATM   17  C   UNL     1      -8.232   8.656  70.212  1.00  0.00    -0.119 A  
HETATM   18  N   UNL     1      -6.211  10.481  67.808  1.00  0.00    -0.055 NA 
HETATM   19  C   UNL     1      -7.135   9.067  69.571  1.00  0.00    -0.059 A  
HETATM   20  N   UNL     1      -7.240   9.973  68.532  1.00  0.00    -0.075 NA 
BRANCH  15  21
HETATM   21  N   UNL     1     -10.653   8.800  70.447  1.00  0.00    -0.213 NA 
HETATM   22  C   UNL     1     -12.489   7.565  71.290  1.00  0.00    -0.354 C  
HETATM   23  C   UNL     1     -11.047   9.407  71.703  1.00  0.00    -0.339 C  
HETATM   24  C   UNL     1     -11.601   7.764  70.035  1.00  0.00     0.127 C  
HETATM   25  C   UNL     1     -11.737   8.264  72.421  1.00  0.00    -0.463 C  
BRANCH  24  26
HETATM   26  C   UNL     1     -10.871   6.544  69.510  1.00  0.00    -0.360 A  
HETATM   27  C   UNL     1     -10.080   5.697  70.294  1.00  0.00    -0.222 A  
HETATM   28  C   UNL     1      -9.352   4.646  69.730  1.00  0.00    -0.215 A  
HETATM   29  F   UNL     1      -9.977   5.881  71.618  1.00  0.00    -0.184 F  
HETATM   30  C   UNL     1      -9.395   4.427  68.356  1.00  0.00    -0.203 A  
HETATM   31  C   UNL     1     -10.182   5.253  67.564  1.00  0.00    -0.178 A  
HETATM   32  C   UNL     1     -10.915   6.294  68.124  1.00  0.00    -0.412 A  
HETATM   33  F   UNL     1     -10.223   5.052  66.240  1.00  0.00    -0.186 F  
ENDBRANCH  24  26
ENDBRANCH  15  21
ENDBRANCH  10  12
ENDBRANCH   8  10
ENDBRANCH   6   8
TORSDOF 5
ENDMDL
MODEL      172
REMARK 921   NORMALIZED FREE ENERGY PREDICTED BY IDOCK:   -5.06 KCAL/MOL
REMARK 922        TOTAL FREE ENERGY PREDICTED BY IDOCK:   -8.26 KCAL/MOL
REMARK 923 INTER-LIGAND FREE ENERGY PREDICTED BY IDOCK:   -6.76 KCAL/MOL
REMARK 924 INTRA-LIGAND FREE ENERGY PREDICTED BY IDOCK:   -1.50 KCAL/MOL
REMARK 927      BINDING AFFINITY PREDICTED BY RF-SCORE:    0.00 PKD
ROOT
HETATM    1  O   UNL     1     -12.752  14.762  69.705  1.00  0.00    -0.576 OA 
HETATM    2  H   UNL     1     -12.618  15.701  69.761  1.00  0.00     0.000 HD 
HETATM    3  C   UNL     1     -11.792  14.156  68.856  1.00  0.00    -0.347 C  
HETATM    4  C   UNL     1     -12.007  12.649  68.767  1.00  0.00    -0.279 C  
HETATM    5  C   UNL     1     -11.334  12.293  67.459  1.00  0.00    -0.325 C  
HETATM    6  N   UNL     1     -11.557  13.446  66.604  1.00  0.00    -0.344 N  
HETATM    7  C   UNL     1     -11.928  14.614  67.398  1.00  0.00    -0.279 C  
ENDROOT
BRANCH   6   8
HETATM    8  C   UNL     1     -11.369  13.322  65.238  1.00  0.00    -0.295 C  
HETATM    9  O   UNL     1     -11.320  14.327  64.537  1.00  0.00    -0.369 OA 
BRANCH   8  10
HETATM   10  N   UNL     1     -11.291  12.023  64.797  1.00  0.00    -0.322 N  
HETATM   11  H   UNL     1     -12.132  11.454  64.890  1.00  0.00     0.000 HD 
BRANCH  10  12
HETATM   12  C   UNL     1     -10.176  11.408  64.237  1.00  0.00    -0.315 A  
HETATM   13  C   UNL     1      -9.142  10.678  64.809  1.00  0.00    -0.209 A  
HETATM   14  N   UNL     1      -8.844  10.276  66.091  1.00  0.00    -0.148 NA 
HETATM   15  C   UNL     1      -7.706   9.660  66.299  1.00  0.00    -0.101 A  
HETATM   16  C   UNL     1      -9.890  11.409  62.854  1.00  0.00    -0.284 A  
HETATM   17  C   UNL     1      -6.773   9.275  65.185  1.00  0.00    -0.077 A  
HETATM   18  N   UNL     1      -8.759  10.784  62.544  1.00  0.00    -0.251 NA 
HETATM   19  C   UNL     1      -7.123   9.638  63.948  1.00  0.00    -0.115 A  
HETATM   20  N   UNL     1      -8.293  10.345  63.740  1.00  0.00    -0.168 NA 
BRANCH  15  21
HETATM   21  N   UNL     1      -7.297   9.307  67.564  1.00  0.00    -0.087 NA 
HETATM   22  C   UNL     1      -7.101   8.302  69.699  1.00  0.00    -0.056 C  
HETATM   23  C   UNL     1      -5.967   9.596  68.063  1.00  0.00    -0.043 C  
HETATM   24  C   UNL     1      -8.120   8.660  68.586  1.00  0.00    -0.117 C  
HETATM   25  C   UNL     1      -5.730   8.469  69.049  1.00  0.00    -0.039 C  
BRANCH  24  26
HETATM   26  C   UNL     1      -8.917   7.516  67.991  1.00  0.00    -0.129 A  
HETATM   27  C   UNL     1     -10.303   7.531  67.803  1.00  0.00    -0.216 A  
HETATM   28  C   UNL     1     -10.991   6.406  67.341  1.00  0.00    -0.463 A  
HETATM   29  F   UNL     1     -11.024   8.626  68.083  1.00  0.00    -0.191 F  
HETATM   30  C   UNL     1     -10.298   5.230  67.065  1.00  0.00    -0.286 A  
HETATM   31  C   UNL     1      -8.921   5.201  67.238  1.00  0.00    -0.112 A  
HETATM   32  C   UNL     1      -8.232   6.322  67.689  1.00  0.00    -0.117 A  
HETATM   33  F   UNL     1      -8.248   4.071  66.980  1.00  0.00    -0.097 F  
ENDBRANCH  24  26
ENDBRANCH  15  21
ENDBRANCH  10  12
ENDBRANCH   8  10
ENDBRANCH   6   8
TORSDOF 5
ENDMDL
MODEL      173
REMARK 921   NORMALIZED FREE ENERGY PREDICTED BY IDOCK:   -5.05 KCAL/MOL
REMARK 922        TOTAL FREE ENERGY PREDICTED BY IDOCK:   -8.26 KCAL/MOL
REMARK 923 INTER-LIGAND FREE ENERGY PREDICTED BY IDOCK:   -6.83 KCAL/MOL
REMARK 924 INTRA-LIGAND FREE ENERGY PREDICTED BY IDOCK:   -1.44 KCAL/MOL
REMARK 927      BINDING AFFINITY PREDICTED BY RF-SCORE:    0.00 PKD
ROOT
HETATM    1  O   UNL     1      -9.929  14.039  64.272  1.00  0.00    -0.668 OA 
HETATM    2  H   UNL     1     -10.307  14.902  64.150  1.00  0.00     0.000 HD 
HETATM    3  C   UNL     1     -10.771  13.217  65.062  1.00  0.00    -0.323 C  
HETATM    4  C   UNL     1     -10.164  11.832  65.258  1.00  0.00    -0.307 C  
HETATM    5  C   UNL     1     -10.849  11.342  66.516  1.00  0.00    -0.283 C  
HETATM    6  N   UNL     1     -11.040  12.538  67.319  1.00  0.00    -0.261 N  
HETATM    7  C   UNL     1     -10.920  13.739  66.497  1.00  0.00    -0.299 C  
ENDROOT
BRANCH   6   8
HETATM    8  C   UNL     1     -11.331  12.408  68.667  1.00  0.00    -0.288 C  
HETATM    9  O   UNL     1     -12.228  13.080  69.163  1.00  0.00    -0.225 OA 
BRANCH   8  10
HETATM   10  N   UNL     1     -10.516  11.525  69.335  1.00  0.00    -0.441 N  
HETATM   11  H   UNL     1      -9.516  11.728  69.332  1.00  0.00     0.000 HD 
BRANCH  10  12
HETATM   12  C   UNL     1     -10.922  10.381  70.015  1.00  0.00    -0.308 A  
HETATM   13  C   UNL     1     -10.783   9.034  69.714  1.00  0.00    -0.225 A  
HETATM   14  N   UNL     1     -10.196   8.333  68.685  1.00  0.00    -0.201 NA 
HETATM   15  C   UNL     1     -10.333   7.030  68.662  1.00  0.00    -0.186 A  
HETATM   16  C   UNL     1     -11.595  10.403  71.257  1.00  0.00    -0.146 A  
HETATM   17  C   UNL     1     -11.004   6.263  69.768  1.00  0.00    -0.444 A  
HETATM   18  N   UNL     1     -11.912   9.196  71.711  1.00  0.00    -0.358 NA 
HETATM   19  C   UNL     1     -11.517   6.975  70.775  1.00  0.00    -0.318 A  
HETATM   20  N   UNL     1     -11.425   8.355  70.763  1.00  0.00    -0.272 NA 
BRANCH  15  21
HETATM   21  N   UNL     1      -9.852   6.271  67.621  1.00  0.00    -0.117 NA 
HETATM   22  C   UNL     1      -8.501   4.933  66.211  1.00  0.00    -0.111 C  
HETATM   23  C   UNL     1     -10.719   5.670  66.628  1.00  0.00    -0.268 C  
HETATM   24  C   UNL     1      -8.442   6.005  67.329  1.00  0.00    -0.104 C  
HETATM   25  C   UNL     1      -9.944   4.435  66.214  1.00  0.00    -0.255 C  
BRANCH  24  26
HETATM   26  C   UNL     1      -7.691   5.638  68.593  1.00  0.00    -0.092 A  
HETATM   27  C   UNL     1      -7.907   4.469  69.331  1.00  0.00    -0.062 A  
HETATM   28  C   UNL     1      -7.250   4.236  70.542  1.00  0.00    -0.041 A  
HETATM   29  F   UNL     1      -8.771   3.537  68.906  1.00  0.00    -0.093 F  
HETATM   30  C   UNL     1      -6.365   5.185  71.048  1.00  0.00    -0.023 A  
HETATM   31  C   UNL     1      -6.134   6.348  70.325  1.00  0.00    -0.034 A  
HETATM   32  C   UNL     1      -6.778   6.577  69.114  1.00  0.00    -0.049 A  
HETATM   33  F   UNL     1      -5.288   7.267  70.809  1.00  0.00    -0.023 F  
ENDBRANCH  24  26
ENDBRANCH  15  21
ENDBRANCH  10  12
ENDBRANCH   8  10
ENDBRANCH   6   8
TORSDOF 5
ENDMDL
MODEL      174
REMARK 921   NORMALIZED FREE ENERGY PREDICTED BY IDOCK:   -5.03 KCAL/MOL
REMARK 922        TOTAL FREE ENERGY PREDICTED BY IDOCK:   -8.23 KCAL/MOL
REMARK 923 INTER-LIGAND FREE ENERGY PREDICTED BY IDOCK:   -7.61 KCAL/MOL
REMARK 924 INTRA-LIGAND FREE ENERGY PREDICTED BY IDOCK:   -0.62 KCAL/MOL
REMARK 927      BINDING AFFINITY PREDICTED BY RF-SCORE:    0.00 PKD
ROOT
HETATM    1  O   UNL     1     -12.762  16.332  71.843  1.00  0.00    -0.517 OA 
HETATM    2  H   UNL     1     -11.974  16.853  71.748  1.00  0.00     0.000 HD 
HETATM    3  C   UNL     1     -12.455  14.953  71.963  1.00  0.00    -0.334 C  
HETATM    4  C   UNL     1     -13.720  14.117  72.115  1.00  0.00    -0.587 C  
HETATM    5  C   UNL     1     -13.272  12.746  71.657  1.00  0.00    -0.317 C  
HETATM    6  N   UNL     1     -12.296  13.009  70.613  1.00  0.00    -0.347 N  
HETATM    7  C   UNL     1     -11.812  14.384  70.691  1.00  0.00    -0.295 C  
ENDROOT
BRANCH   6   8
HETATM    8  C   UNL     1     -11.937  11.987  69.750  1.00  0.00    -0.300 C  
HETATM    9  O   UNL     1     -12.386  11.967  68.610  1.00  0.00    -0.275 OA 
BRANCH   8  10
HETATM   10  N   UNL     1     -11.106  11.045  70.311  1.00  0.00    -0.466 N  
HETATM   11  H   UNL     1     -10.177  11.359  70.591  1.00  0.00     0.000 HD 
BRANCH  10  12
HETATM   12  C   UNL     1     -11.410   9.707  70.533  1.00  0.00    -0.296 A  
HETATM   13  C   UNL     1     -10.760   8.539  70.158  1.00  0.00    -0.235 A  
HETATM   14  N   UNL     1      -9.600   8.264  69.469  1.00  0.00    -0.169 NA 
HETATM   15  C   UNL     1      -9.319   7.013  69.201  1.00  0.00    -0.140 A  
HETATM   16  C   UNL     1     -12.535   9.268  71.267  1.00  0.00    -0.316 A  
HETATM   17  C   UNL     1     -10.147   5.866  69.710  1.00  0.00    -0.258 A  
HETATM   18  N   UNL     1     -12.645   7.946  71.332  1.00  0.00    -0.316 NA 
HETATM   19  C   UNL     1     -11.238   6.172  70.418  1.00  0.00    -0.353 A  
HETATM   20  N   UNL     1     -11.565   7.497  70.644  1.00  0.00    -0.277 NA 
BRANCH  15  21
HETATM   21  N   UNL     1      -8.226   6.664  68.442  1.00  0.00    -0.114 NA 
HETATM   22  C   UNL     1      -6.537   6.574  66.786  1.00  0.00    -0.048 C  
HETATM   23  C   UNL     1      -7.167   5.812  68.945  1.00  0.00    -0.082 C  
HETATM   24  C   UNL     1      -7.994   7.036  67.046  1.00  0.00    -0.116 C  
HETATM   25  C   UNL     1      -5.956   6.295  68.170  1.00  0.00    -0.016 C  
BRANCH  24  26
HETATM   26  C   UNL     1      -8.300   8.503  66.821  1.00  0.00    -0.109 A  
HETATM   27  C   UNL     1      -7.696   9.553  67.521  1.00  0.00    -0.095 A  
HETATM   28  C   UNL     1      -8.094  10.880  67.337  1.00  0.00    -0.114 A  
HETATM   29  F   UNL     1      -6.724   9.317  68.413  1.00  0.00    -0.056 F  
HETATM   30  C   UNL     1      -9.122  11.181  66.447  1.00  0.00    -0.198 A  
HETATM   31  C   UNL     1      -9.726  10.152  65.738  1.00  0.00    -0.245 A  
HETATM   32  C   UNL     1      -9.325   8.831  65.912  1.00  0.00    -0.284 A  
HETATM   33  F   UNL     1     -10.719  10.434  64.884  1.00  0.00    -0.334 F  
ENDBRANCH  24  26
ENDBRANCH  15  21
ENDBRANCH  10  12
ENDBRANCH   8  10
ENDBRANCH   6   8
TORSDOF 5
ENDMDL
MODEL      175
REMARK 921   NORMALIZED FREE ENERGY PREDICTED BY IDOCK:   -5.00 KCAL/MOL
REMARK 922        TOTAL FREE ENERGY PREDICTED BY IDOCK:   -8.19 KCAL/MOL
REMARK 923 INTER-LIGAND FREE ENERGY PREDICTED BY IDOCK:   -6.79 KCAL/MOL
REMARK 924 INTRA-LIGAND FREE ENERGY PREDICTED BY IDOCK:   -1.40 KCAL/MOL
REMARK 927      BINDING AFFINITY PREDICTED BY RF-SCORE:    0.00 PKD
ROOT
HETATM    1  O   UNL     1      -6.409  20.444  70.590  1.00  0.00    -0.510 OA 
HETATM    2  H   UNL     1      -6.771  21.029  69.935  1.00  0.00     0.000 HD 
HETATM    3  C   UNL     1      -5.796  19.316  69.987  1.00  0.00    -0.258 C  
HETATM    4  C   UNL     1      -5.215  18.377  71.038  1.00  0.00    -0.279 C  
HETATM    5  C   UNL     1      -5.149  17.055  70.303  1.00  0.00    -0.204 C  
HETATM    6  N   UNL     1      -6.300  17.070  69.416  1.00  0.00    -0.228 N  
HETATM    7  C   UNL     1      -6.804  18.429  69.245  1.00  0.00    -0.205 C  
ENDROOT
BRANCH   6   8
HETATM    8  C   UNL     1      -6.731  15.882  68.848  1.00  0.00    -0.134 C  
HETATM    9  O   UNL     1      -7.867  15.802  68.395  1.00  0.00    -0.130 OA 
BRANCH   8  10
HETATM   10  N   UNL     1      -5.803  14.869  68.892  1.00  0.00    -0.085 N  
HETATM   11  H   UNL     1      -4.898  15.054  68.460  1.00  0.00     0.000 HD 
BRANCH  10  12
HETATM   12  C   UNL     1      -5.979  13.616  69.468  1.00  0.00    -0.108 A  
HETATM   13  C   UNL     1      -6.579  12.459  68.991  1.00  0.00    -0.100 A  
HETATM   14  N   UNL     1      -7.186  12.109  67.806  1.00  0.00    -0.102 NA 
HETATM   15  C   UNL     1      -7.745  10.927  67.721  1.00  0.00    -0.107 A  
HETATM   16  C   UNL     1      -5.514  13.272  70.758  1.00  0.00    -0.174 A  
HETATM   17  C   UNL     1      -7.652   9.901  68.816  1.00  0.00    -0.081 A  
HETATM   18  N   UNL     1      -5.815  12.029  71.117  1.00  0.00    -0.323 NA 
HETATM   19  C   UNL     1      -7.010  10.261  69.931  1.00  0.00    -0.142 A  
HETATM   20  N   UNL     1      -6.477  11.532  70.042  1.00  0.00    -0.117 NA 
BRANCH  15  21
HETATM   21  N   UNL     1      -8.447  10.539  66.603  1.00  0.00    -0.127 NA 
HETATM   22  C   UNL     1     -10.155  10.095  65.024  1.00  0.00    -0.305 C  
HETATM   23  C   UNL     1      -7.808  10.304  65.323  1.00  0.00    -0.145 C  
HETATM   24  C   UNL     1      -9.882  10.258  66.542  1.00  0.00    -0.212 C  
HETATM   25  C   UNL     1      -8.907  10.645  64.336  1.00  0.00    -0.185 C  
BRANCH  24  26
HETATM   26  C   UNL     1     -10.671  11.327  67.270  1.00  0.00    -0.295 A  
HETATM   27  C   UNL     1     -10.818  12.645  66.823  1.00  0.00    -0.250 A  
HETATM   28  C   UNL     1     -11.476  13.609  67.591  1.00  0.00    -0.357 A  
HETATM   29  F   UNL     1     -10.312  13.032  65.644  1.00  0.00    -0.265 F  
HETATM   30  C   UNL     1     -11.993  13.271  68.839  1.00  0.00    -0.336 A  
HETATM   31  C   UNL     1     -11.863  11.966  69.295  1.00  0.00    -0.318 A  
HETATM   32  C   UNL     1     -11.217  11.002  68.528  1.00  0.00    -0.329 A  
HETATM   33  F   UNL     1     -12.353  11.636  70.497  1.00  0.00    -0.383 F  
ENDBRANCH  24  26
ENDBRANCH  15  21
ENDBRANCH  10  12
ENDBRANCH   8  10
ENDBRANCH   6   8
TORSDOF 5
ENDMDL
MODEL      176
REMARK 921   NORMALIZED FREE ENERGY PREDICTED BY IDOCK:   -4.98 KCAL/MOL
REMARK 922        TOTAL FREE ENERGY PREDICTED BY IDOCK:   -8.17 KCAL/MOL
REMARK 923 INTER-LIGAND FREE ENERGY PREDICTED BY IDOCK:   -6.67 KCAL/MOL
REMARK 924 INTRA-LIGAND FREE ENERGY PREDICTED BY IDOCK:   -1.50 KCAL/MOL
REMARK 927      BINDING AFFINITY PREDICTED BY RF-SCORE:    0.00 PKD
ROOT
HETATM    1  O   UNL     1     -12.738  16.196  69.658  1.00  0.00    -0.489 OA 
HETATM    2  H   UNL     1     -12.077  16.602  69.108  1.00  0.00     0.000 HD 
HETATM    3  C   UNL     1     -12.238  15.026  70.282  1.00  0.00    -0.340 C  
HETATM    4  C   UNL     1     -13.298  14.376  71.164  1.00  0.00    -0.392 C  
HETATM    5  C   UNL     1     -12.823  12.942  71.255  1.00  0.00    -0.270 C  
HETATM    6  N   UNL     1     -12.210  12.675  69.965  1.00  0.00    -0.244 N  
HETATM    7  C   UNL     1     -11.901  13.922  69.271  1.00  0.00    -0.348 C  
ENDROOT
BRANCH   6   8
HETATM    8  C   UNL     1     -11.974  11.364  69.586  1.00  0.00    -0.348 C  
HETATM    9  O   UNL     1     -11.031  11.105  68.846  1.00  0.00    -0.194 OA 
BRANCH   8  10
HETATM   10  N   UNL     1     -12.890  10.464  70.077  1.00  0.00    -0.527 N  
HETATM   11  H   UNL     1     -13.850  10.558  69.748  1.00  0.00     0.000 HD 
BRANCH  10  12
HETATM   12  C   UNL     1     -12.633   9.436  70.978  1.00  0.00    -0.220 A  
HETATM   13  C   UNL     1     -11.781   8.343  70.911  1.00  0.00    -0.246 A  
HETATM   14  N   UNL     1     -10.881   7.882  69.977  1.00  0.00    -0.248 NA 
HETATM   15  C   UNL     1     -10.292   6.732  70.197  1.00  0.00    -0.202 A  
HETATM   16  C   UNL     1     -13.247   9.333  72.247  1.00  0.00    -0.460 A  
HETATM   17  C   UNL     1     -10.474   5.955  71.471  1.00  0.00    -0.287 A  
HETATM   18  N   UNL     1     -12.874   8.258  72.932  1.00  0.00    -0.039 NA 
HETATM   19  C   UNL     1     -11.317   6.461  72.375  1.00  0.00    -0.287 A  
HETATM   20  N   UNL     1     -11.985   7.643  72.112  1.00  0.00    -0.303 NA 
BRANCH  15  21
HETATM   21  N   UNL     1      -9.449   6.163  69.271  1.00  0.00    -0.133 NA 
HETATM   22  C   UNL     1      -7.613   5.674  67.858  1.00  0.00    -0.085 C  
HETATM   23  C   UNL     1      -9.611   4.802  68.799  1.00  0.00    -0.163 C  
HETATM   24  C   UNL     1      -8.332   6.830  68.600  1.00  0.00    -0.120 C  
HETATM   25  C   UNL     1      -8.190   4.396  68.462  1.00  0.00    -0.086 C  
BRANCH  24  26
HETATM   26  C   UNL     1      -7.508   7.628  69.591  1.00  0.00    -0.091 A  
HETATM   27  C   UNL     1      -6.866   7.081  70.707  1.00  0.00    -0.054 A  
HETATM   28  C   UNL     1      -6.204   7.887  71.638  1.00  0.00    -0.036 A  
HETATM   29  F   UNL     1      -6.884   5.761  70.934  1.00  0.00    -0.049 F  
HETATM   30  C   UNL     1      -6.181   9.270  71.471  1.00  0.00    -0.046 A  
HETATM   31  C   UNL     1      -6.806   9.827  70.364  1.00  0.00    -0.135 A  
HETATM   32  C   UNL     1      -7.458   9.027  69.431  1.00  0.00    -0.077 A  
HETATM   33  F   UNL     1      -6.793  11.157  70.200  1.00  0.00    -0.152 F  
ENDBRANCH  24  26
ENDBRANCH  15  21
ENDBRANCH  10  12
ENDBRANCH   8  10
ENDBRANCH   6   8
TORSDOF 5
ENDMDL
MODEL      177
REMARK 921   NORMALIZED FREE ENERGY PREDICTED BY IDOCK:   -4.98 KCAL/MOL
REMARK 922        TOTAL FREE ENERGY PREDICTED BY IDOCK:   -8.16 KCAL/MOL
REMARK 923 INTER-LIGAND FREE ENERGY PREDICTED BY IDOCK:   -6.61 KCAL/MOL
REMARK 924 INTRA-LIGAND FREE ENERGY PREDICTED BY IDOCK:   -1.55 KCAL/MOL
REMARK 927      BINDING AFFINITY PREDICTED BY RF-SCORE:    0.00 PKD
ROOT
HETATM    1  O   UNL     1      -6.481   8.894  73.079  1.00  0.00    -0.288 OA 
HETATM    2  H   UNL     1      -5.836   8.915  72.382  1.00  0.00     0.000 HD 
HETATM    3  C   UNL     1      -7.653   8.208  72.672  1.00  0.00    -0.125 C  
HETATM    4  C   UNL     1      -8.690   8.175  73.790  1.00  0.00    -0.292 C  
HETATM    5  C   UNL     1      -9.985   7.959  73.038  1.00  0.00    -0.296 C  
HETATM    6  N   UNL     1      -9.804   8.668  71.783  1.00  0.00    -0.267 N  
HETATM    7  C   UNL     1      -8.389   8.930  71.536  1.00  0.00    -0.098 C  
ENDROOT
BRANCH   6   8
HETATM    8  C   UNL     1     -10.913   8.958  71.004  1.00  0.00    -0.276 C  
HETATM    9  O   UNL     1     -11.573   9.964  71.237  1.00  0.00    -0.360 OA 
BRANCH   8  10
HETATM   10  N   UNL     1     -11.181   8.018  70.037  1.00  0.00    -0.432 N  
HETATM   11  H   UNL     1     -11.771   7.233  70.309  1.00  0.00     0.000 HD 
BRANCH  10  12
HETATM   12  C   UNL     1     -10.724   8.036  68.723  1.00  0.00    -0.045 A  
HETATM   13  C   UNL     1      -9.895   8.920  68.048  1.00  0.00    -0.168 A  
HETATM   14  N   UNL     1      -9.213  10.062  68.404  1.00  0.00    -0.129 NA 
HETATM   15  C   UNL     1      -8.579  10.724  67.468  1.00  0.00    -0.125 A  
HETATM   16  C   UNL     1     -11.047   7.047  67.767  1.00  0.00    -0.089 A  
HETATM   17  C   UNL     1      -8.472  10.230  66.052  1.00  0.00    -0.144 A  
HETATM   18  N   UNL     1     -10.524   7.277  66.568  1.00  0.00    -0.102 NA 
HETATM   19  C   UNL     1      -9.105   9.092  65.757  1.00  0.00    -0.219 A  
HETATM   20  N   UNL     1      -9.826   8.429  66.733  1.00  0.00    -0.235 NA 
BRANCH  15  21
HETATM   21  N   UNL     1      -7.950  11.919  67.728  1.00  0.00    -0.134 NA 
HETATM   22  C   UNL     1      -7.410  14.216  67.919  1.00  0.00    -0.163 C  
HETATM   23  C   UNL     1      -6.843  12.032  68.657  1.00  0.00    -0.091 C  
HETATM   24  C   UNL     1      -8.247  13.205  67.095  1.00  0.00    -0.120 C  
HETATM   25  C   UNL     1      -6.983  13.452  69.170  1.00  0.00    -0.044 C  
BRANCH  24  26
HETATM   26  C   UNL     1      -9.743  13.440  67.032  1.00  0.00    -0.239 A  
HETATM   27  C   UNL     1     -10.469  13.603  65.847  1.00  0.00    -0.296 A  
HETATM   28  C   UNL     1     -11.831  13.916  65.861  1.00  0.00    -0.399 A  
HETATM   29  F   UNL     1      -9.874  13.483  64.653  1.00  0.00    -0.301 F  
HETATM   30  C   UNL     1     -12.495  14.085  67.074  1.00  0.00    -0.126 A  
HETATM   31  C   UNL     1     -11.791  13.919  68.259  1.00  0.00    -0.376 A  
HETATM   32  C   UNL     1     -10.437  13.597  68.248  1.00  0.00    -0.253 A  
HETATM   33  F   UNL     1     -12.421  14.085  69.429  1.00  0.00    -0.376 F  
ENDBRANCH  24  26
ENDBRANCH  15  21
ENDBRANCH  10  12
ENDBRANCH   8  10
ENDBRANCH   6   8
TORSDOF 5
ENDMDL
MODEL      178
REMARK 921   NORMALIZED FREE ENERGY PREDICTED BY IDOCK:   -4.98 KCAL/MOL
REMARK 922        TOTAL FREE ENERGY PREDICTED BY IDOCK:   -8.16 KCAL/MOL
REMARK 923 INTER-LIGAND FREE ENERGY PREDICTED BY IDOCK:   -6.63 KCAL/MOL
REMARK 924 INTRA-LIGAND FREE ENERGY PREDICTED BY IDOCK:   -1.53 KCAL/MOL
REMARK 927      BINDING AFFINITY PREDICTED BY RF-SCORE:    0.00 PKD
ROOT
HETATM    1  O   UNL     1     -10.909   5.595  68.843  1.00  0.00    -0.251 OA 
HETATM    2  H   UNL     1     -11.770   5.464  68.461  1.00  0.00     0.000 HD 
HETATM    3  C   UNL     1     -10.526   6.959  68.786  1.00  0.00    -0.205 C  
HETATM    4  C   UNL     1      -9.145   7.169  69.398  1.00  0.00    -0.145 C  
HETATM    5  C   UNL     1      -8.688   8.461  68.755  1.00  0.00    -0.136 C  
HETATM    6  N   UNL     1      -9.261   8.429  67.420  1.00  0.00    -0.139 N  
HETATM    7  C   UNL     1     -10.348   7.457  67.346  1.00  0.00    -0.270 C  
ENDROOT
BRANCH   6   8
HETATM    8  C   UNL     1      -8.768   9.289  66.452  1.00  0.00    -0.132 C  
HETATM    9  O   UNL     1      -7.681   9.831  66.617  1.00  0.00    -0.101 OA 
BRANCH   8  10
HETATM   10  N   UNL     1      -9.613   9.475  65.384  1.00  0.00    -0.353 N  
HETATM   11  H   UNL     1     -10.024   8.638  64.970  1.00  0.00     0.000 HD 
BRANCH  10  12
HETATM   12  C   UNL     1      -9.962  10.694  64.812  1.00  0.00    -0.327 A  
HETATM   13  C   UNL     1     -10.206  11.939  65.375  1.00  0.00    -0.263 A  
HETATM   14  N   UNL     1     -10.176  12.437  66.658  1.00  0.00    -0.222 NA 
HETATM   15  C   UNL     1     -10.562  13.674  66.853  1.00  0.00    -0.271 A  
HETATM   16  C   UNL     1     -10.127  10.891  63.423  1.00  0.00    -0.340 A  
HETATM   17  C   UNL     1     -10.927  14.600  65.726  1.00  0.00    -0.330 A  
HETATM   18  N   UNL     1     -10.488  12.128  63.100  1.00  0.00    -0.305 NA 
HETATM   19  C   UNL     1     -10.895  14.094  64.490  1.00  0.00    -0.320 A  
HETATM   20  N   UNL     1     -10.547  12.770  64.295  1.00  0.00    -0.377 NA 
BRANCH  15  21
HETATM   21  N   UNL     1     -10.644  14.214  68.115  1.00  0.00    -0.241 NA 
HETATM   22  C   UNL     1     -10.180  15.327  70.152  1.00  0.00    -0.166 C  
HETATM   23  C   UNL     1     -11.910  14.453  68.781  1.00  0.00    -0.325 C  
HETATM   24  C   UNL     1      -9.514  14.569  68.975  1.00  0.00    -0.085 C  
HETATM   25  C   UNL     1     -11.596  15.637  69.674  1.00  0.00    -0.364 C  
BRANCH  24  26
HETATM   26  C   UNL     1      -8.454  15.314  68.190  1.00  0.00    -0.151 A  
HETATM   27  C   UNL     1      -7.310  14.720  67.646  1.00  0.00    -0.186 A  
HETATM   28  C   UNL     1      -6.320  15.481  67.017  1.00  0.00     0.335 A  
HETATM   29  F   UNL     1      -7.115  13.397  67.728  1.00  0.00    -0.094 F  
HETATM   30  C   UNL     1      -6.454  16.864  66.931  1.00  0.00    -0.249 A  
HETATM   31  C   UNL     1      -7.587  17.468  67.458  1.00  0.00    -0.197 A  
HETATM   32  C   UNL     1      -8.578  16.713  68.076  1.00  0.00    -0.193 A  
HETATM   33  F   UNL     1      -7.719  18.799  67.384  1.00  0.00    -0.224 F  
ENDBRANCH  24  26
ENDBRANCH  15  21
ENDBRANCH  10  12
ENDBRANCH   8  10
ENDBRANCH   6   8
TORSDOF 5
ENDMDL
MODEL      179
REMARK 921   NORMALIZED FREE ENERGY PREDICTED BY IDOCK:   -4.95 KCAL/MOL
REMARK 922        TOTAL FREE ENERGY PREDICTED BY IDOCK:   -8.12 KCAL/MOL
REMARK 923 INTER-LIGAND FREE ENERGY PREDICTED BY IDOCK:   -7.44 KCAL/MOL
REMARK 924 INTRA-LIGAND FREE ENERGY PREDICTED BY IDOCK:   -0.68 KCAL/MOL
REMARK 927      BINDING AFFINITY PREDICTED BY RF-SCORE:    0.00 PKD
ROOT
HETATM    1  O   UNL     1      -9.728   7.421  74.373  1.00  0.00    -0.409 OA 
HETATM    2  H   UNL     1      -9.179   6.815  74.855  1.00  0.00     0.000 HD 
HETATM    3  C   UNL     1      -9.341   7.491  73.011  1.00  0.00    -0.191 C  
HETATM    4  C   UNL     1     -10.222   8.465  72.236  1.00  0.00    -0.396 C  
HETATM    5  C   UNL     1      -9.353   8.833  71.053  1.00  0.00    -0.222 C  
HETATM    6  N   UNL     1      -7.997   8.817  71.575  1.00  0.00    -0.135 N  
HETATM    7  C   UNL     1      -7.934   8.075  72.831  1.00  0.00    -0.151 C  
ENDROOT
BRANCH   6   8
HETATM    8  C   UNL     1      -6.987   9.431  70.853  1.00  0.00    -0.093 C  
HETATM    9  O   UNL     1      -5.818   9.276  71.189  1.00  0.00    -0.052 OA 
BRANCH   8  10
HETATM   10  N   UNL     1      -7.435  10.212  69.814  1.00  0.00    -0.149 N  
HETATM   11  H   UNL     1      -7.730  11.161  70.045  1.00  0.00     0.000 HD 
BRANCH  10  12
HETATM   12  C   UNL     1      -7.524   9.835  68.478  1.00  0.00    -0.079 A  
HETATM   13  C   UNL     1      -8.198  10.400  67.404  1.00  0.00    -0.117 A  
HETATM   14  N   UNL     1      -8.985  11.518  67.244  1.00  0.00    -0.159 NA 
HETATM   15  C   UNL     1      -9.557  11.713  66.081  1.00  0.00    -0.232 A  
HETATM   16  C   UNL     1      -6.864   8.710  67.934  1.00  0.00    -0.067 A  
HETATM   17  C   UNL     1      -9.298  10.834  64.889  1.00  0.00    -0.261 A  
HETATM   18  N   UNL     1      -7.111   8.522  66.643  1.00  0.00    -0.076 NA 
HETATM   19  C   UNL     1      -8.487   9.788  65.072  1.00  0.00    -0.153 A  
HETATM   20  N   UNL     1      -7.936   9.549  66.317  1.00  0.00    -0.107 NA 
BRANCH  15  21
HETATM   21  N   UNL     1     -10.428  12.756  65.870  1.00  0.00    -0.271 NA 
HETATM   22  C   UNL     1     -12.202  14.314  66.042  1.00  0.00    -0.422 C  
HETATM   23  C   UNL     1     -10.102  13.885  65.022  1.00  0.00    -0.290 C  
HETATM   24  C   UNL     1     -11.787  12.864  66.402  1.00  0.00    -0.415 C  
HETATM   25  C   UNL     1     -10.904  15.011  65.644  1.00  0.00    -0.356 C  
BRANCH  24  26
HETATM   26  C   UNL     1     -11.824  12.483  67.868  1.00  0.00    -0.383 A  
HETATM   27  C   UNL     1     -11.857  11.167  68.342  1.00  0.00    -0.232 A  
HETATM   28  C   UNL     1     -11.990  10.884  69.705  1.00  0.00    -0.414 A  
HETATM   29  F   UNL     1     -11.782  10.129  67.498  1.00  0.00    -0.167 F  
HETATM   30  C   UNL     1     -12.104  11.923  70.624  1.00  0.00    -0.389 A  
HETATM   31  C   UNL     1     -12.065  13.235  70.171  1.00  0.00    -0.333 A  
HETATM   32  C   UNL     1     -11.923  13.520  68.817  1.00  0.00    -0.374 A  
HETATM   33  F   UNL     1     -12.180  14.239  71.049  1.00  0.00    -0.346 F  
ENDBRANCH  24  26
ENDBRANCH  15  21
ENDBRANCH  10  12
ENDBRANCH   8  10
ENDBRANCH   6   8
TORSDOF 5
ENDMDL
MODEL      180
REMARK 921   NORMALIZED FREE ENERGY PREDICTED BY IDOCK:   -4.94 KCAL/MOL
REMARK 922        TOTAL FREE ENERGY PREDICTED BY IDOCK:   -8.11 KCAL/MOL
REMARK 923 INTER-LIGAND FREE ENERGY PREDICTED BY IDOCK:   -6.38 KCAL/MOL
REMARK 924 INTRA-LIGAND FREE ENERGY PREDICTED BY IDOCK:   -1.73 KCAL/MOL
REMARK 927      BINDING AFFINITY PREDICTED BY RF-SCORE:    0.00 PKD
ROOT
HETATM    1  O   UNL     1      -7.468   7.781  73.050  1.00  0.00    -0.094 OA 
HETATM    2  H   UNL     1      -6.788   7.827  72.389  1.00  0.00     0.000 HD 
HETATM    3  C   UNL     1      -8.750   7.653  72.459  1.00  0.00    -0.132 C  
HETATM    4  C   UNL     1      -9.842   7.578  73.521  1.00  0.00    -0.372 C  
HETATM    5  C   UNL     1     -11.076   8.019  72.763  1.00  0.00    -0.381 C  
HETATM    6  N   UNL     1     -10.589   9.004  71.812  1.00  0.00    -0.354 N  
HETATM    7  C   UNL     1      -9.144   8.889  71.641  1.00  0.00    -0.210 C  
ENDROOT
BRANCH   6   8
HETATM    8  C   UNL     1     -11.494   9.852  71.193  1.00  0.00    -0.383 C  
HETATM    9  O   UNL     1     -12.695   9.618  71.269  1.00  0.00    -0.322 OA 
BRANCH   8  10
HETATM   10  N   UNL     1     -10.911  10.886  70.501  1.00  0.00    -0.344 N  
HETATM   11  H   UNL     1     -10.335  11.533  71.038  1.00  0.00     0.000 HD 
BRANCH  10  12
HETATM   12  C   UNL     1     -11.032  11.137  69.138  1.00  0.00    -0.242 A  
HETATM   13  C   UNL     1     -10.297  10.686  68.050  1.00  0.00    -0.178 A  
HETATM   14  N   UNL     1      -9.225   9.836  67.900  1.00  0.00    -0.125 NA 
HETATM   15  C   UNL     1      -8.704   9.699  66.706  1.00  0.00    -0.134 A  
HETATM   16  C   UNL     1     -12.034  11.960  68.576  1.00  0.00    -0.212 A  
HETATM   17  C   UNL     1      -9.295  10.340  65.481  1.00  0.00    -0.250 A  
HETATM   18  N   UNL     1     -11.944  12.080  67.256  1.00  0.00    -0.590 NA 
HETATM   19  C   UNL     1     -10.366  11.118  65.661  1.00  0.00    -0.254 A  
HETATM   20  N   UNL     1     -10.875  11.310  66.932  1.00  0.00    -0.270 NA 
BRANCH  15  21
HETATM   21  N   UNL     1      -7.578   8.938  66.491  1.00  0.00    -0.091 NA 
HETATM   22  C   UNL     1      -5.987   7.186  66.444  1.00  0.00    -0.035 C  
HETATM   23  C   UNL     1      -6.591   9.272  65.483  1.00  0.00    -0.069 C  
HETATM   24  C   UNL     1      -7.184   7.751  67.251  1.00  0.00    -0.090 C  
HETATM   25  C   UNL     1      -6.034   7.914  65.103  1.00  0.00    -0.038 C  
BRANCH  24  26
HETATM   26  C   UNL     1      -8.368   6.829  67.460  1.00  0.00    -0.122 A  
HETATM   27  C   UNL     1      -9.169   6.323  66.431  1.00  0.00    -0.156 A  
HETATM   28  C   UNL     1     -10.306   5.556  66.698  1.00  0.00    -0.322 A  
HETATM   29  F   UNL     1      -8.880   6.576  65.146  1.00  0.00    -0.103 F  
HETATM   30  C   UNL     1     -10.673   5.289  68.014  1.00  0.00     0.012 A  
HETATM   31  C   UNL     1      -9.884   5.776  69.048  1.00  0.00    -0.158 A  
HETATM   32  C   UNL     1      -8.746   6.531  68.785  1.00  0.00    -0.123 A  
HETATM   33  F   UNL     1     -10.234   5.528  70.317  1.00  0.00    -0.240 F  
ENDBRANCH  24  26
ENDBRANCH  15  21
ENDBRANCH  10  12
ENDBRANCH   8  10
ENDBRANCH   6   8
TORSDOF 5
ENDMDL
MODEL      181
REMARK 921   NORMALIZED FREE ENERGY PREDICTED BY IDOCK:   -4.93 KCAL/MOL
REMARK 922        TOTAL FREE ENERGY PREDICTED BY IDOCK:   -8.10 KCAL/MOL
REMARK 923 INTER-LIGAND FREE ENERGY PREDICTED BY IDOCK:   -6.55 KCAL/MOL
REMARK 924 INTRA-LIGAND FREE ENERGY PREDICTED BY IDOCK:   -1.55 KCAL/MOL
REMARK 927      BINDING AFFINITY PREDICTED BY RF-SCORE:    0.00 PKD
ROOT
HETATM    1  O   UNL     1     -13.013  13.212  64.508  1.00  0.00    -0.688 OA 
HETATM    2  H   UNL     1     -13.331  12.355  64.769  1.00  0.00     0.000 HD 
HETATM    3  C   UNL     1     -11.903  13.609  65.293  1.00  0.00    -0.349 C  
HETATM    4  C   UNL     1     -11.394  14.984  64.874  1.00  0.00    -0.419 C  
HETATM    5  C   UNL     1     -10.663  15.462  66.110  1.00  0.00    -0.314 C  
HETATM    6  N   UNL     1     -11.419  14.906  67.220  1.00  0.00    -0.352 N  
HETATM    7  C   UNL     1     -12.272  13.810  66.769  1.00  0.00    -0.397 C  
ENDROOT
BRANCH   6   8
HETATM    8  C   UNL     1     -11.227  15.419  68.493  1.00  0.00    -0.318 C  
HETATM    9  O   UNL     1     -11.787  16.460  68.819  1.00  0.00    -0.201 OA 
BRANCH   8  10
HETATM   10  N   UNL     1     -10.360  14.687  69.268  1.00  0.00    -0.343 N  
HETATM   11  H   UNL     1     -10.743  14.262  70.112  1.00  0.00     0.000 HD 
BRANCH  10  12
HETATM   12  C   UNL     1      -9.010  14.470  69.014  1.00  0.00    -0.044 A  
HETATM   13  C   UNL     1      -8.354  13.465  68.315  1.00  0.00    -0.160 A  
HETATM   14  N   UNL     1      -8.767  12.355  67.614  1.00  0.00    -0.168 NA 
HETATM   15  C   UNL     1      -7.853  11.544  67.142  1.00  0.00    -0.160 A  
HETATM   16  C   UNL     1      -7.979  15.330  69.454  1.00  0.00    -0.223 A  
HETATM   17  C   UNL     1      -6.381  11.833  67.237  1.00  0.00    -0.132 A  
HETATM   18  N   UNL     1      -6.762  14.916  69.121  1.00  0.00    -0.117 NA 
HETATM   19  C   UNL     1      -6.022  12.946  67.881  1.00  0.00    -0.125 A  
HETATM   20  N   UNL     1      -6.988  13.768  68.433  1.00  0.00    -0.092 NA 
BRANCH  15  21
HETATM   21  N   UNL     1      -8.187  10.370  66.508  1.00  0.00    -0.127 NA 
HETATM   22  C   UNL     1      -8.830   8.142  66.026  1.00  0.00    -0.206 C  
HETATM   23  C   UNL     1      -8.581  10.320  65.114  1.00  0.00    -0.171 C  
HETATM   24  C   UNL     1      -8.148   9.031  67.098  1.00  0.00    -0.106 C  
HETATM   25  C   UNL     1      -9.509   9.123  65.073  1.00  0.00    -0.024 C  
BRANCH  24  26
HETATM   26  C   UNL     1      -8.765   9.035  68.482  1.00  0.00    -0.133 A  
HETATM   27  C   UNL     1      -8.097   8.642  69.647  1.00  0.00    -0.112 A  
HETATM   28  C   UNL     1      -8.754   8.575  70.879  1.00  0.00    -0.196 A  
HETATM   29  F   UNL     1      -6.803   8.296  69.616  1.00  0.00    -0.042 F  
HETATM   30  C   UNL     1     -10.107   8.891  70.966  1.00  0.00    -0.324 A  
HETATM   31  C   UNL     1     -10.783   9.291  69.820  1.00  0.00    -0.231 A  
HETATM   32  C   UNL     1     -10.129   9.368  68.595  1.00  0.00    -0.208 A  
HETATM   33  F   UNL     1     -12.086   9.591  69.895  1.00  0.00    -0.071 F  
ENDBRANCH  24  26
ENDBRANCH  15  21
ENDBRANCH  10  12
ENDBRANCH   8  10
ENDBRANCH   6   8
TORSDOF 5
ENDMDL
MODEL      182
REMARK 921   NORMALIZED FREE ENERGY PREDICTED BY IDOCK:   -4.91 KCAL/MOL
REMARK 922        TOTAL FREE ENERGY PREDICTED BY IDOCK:   -8.07 KCAL/MOL
REMARK 923 INTER-LIGAND FREE ENERGY PREDICTED BY IDOCK:   -7.24 KCAL/MOL
REMARK 924 INTRA-LIGAND FREE ENERGY PREDICTED BY IDOCK:   -0.83 KCAL/MOL
REMARK 927      BINDING AFFINITY PREDICTED BY RF-SCORE:    0.00 PKD
ROOT
HETATM    1  O   UNL     1     -10.387  19.436  69.003  1.00  0.00    -0.562 OA 
HETATM    2  H   UNL     1     -10.699  20.243  68.611  1.00  0.00     0.000 HD 
HETATM    3  C   UNL     1      -9.653  18.662  68.069  1.00  0.00    -0.316 C  
HETATM    4  C   UNL     1      -9.152  17.367  68.698  1.00  0.00    -0.261 C  
HETATM    5  C   UNL     1      -8.936  16.473  67.496  1.00  0.00    -0.196 C  
HETATM    6  N   UNL     1      -9.976  16.862  66.558  1.00  0.00    -0.287 N  
HETATM    7  C   UNL     1     -10.523  18.171  66.905  1.00  0.00    -0.357 C  
ENDROOT
BRANCH   6   8
HETATM    8  C   UNL     1     -10.279  16.023  65.498  1.00  0.00    -0.360 C  
HETATM    9  O   UNL     1     -11.025  16.415  64.607  1.00  0.00    -0.707 OA 
BRANCH   8  10
HETATM   10  N   UNL     1      -9.712  14.774  65.591  1.00  0.00    -0.466 N  
HETATM   11  H   UNL     1      -8.721  14.700  65.361  1.00  0.00     0.000 HD 
BRANCH  10  12
HETATM   12  C   UNL     1     -10.359  13.602  65.966  1.00  0.00    -0.304 A  
HETATM   13  C   UNL     1      -9.873  12.336  66.261  1.00  0.00    -0.241 A  
HETATM   14  N   UNL     1      -8.615  11.778  66.317  1.00  0.00    -0.118 NA 
HETATM   15  C   UNL     1      -8.517  10.491  66.544  1.00  0.00    -0.139 A  
HETATM   16  C   UNL     1     -11.757  13.498  66.145  1.00  0.00    -0.365 A  
HETATM   17  C   UNL     1      -9.706   9.626  66.857  1.00  0.00    -0.240 A  
HETATM   18  N   UNL     1     -12.161  12.278  66.478  1.00  0.00    -0.599 NA 
HETATM   19  C   UNL     1     -10.905  10.215  66.843  1.00  0.00    -0.106 A  
HETATM   20  N   UNL     1     -11.011  11.560  66.540  1.00  0.00    -0.293 NA 
BRANCH  15  21
HETATM   21  N   UNL     1      -7.303   9.845  66.527  1.00  0.00    -0.097 NA 
HETATM   22  C   UNL     1      -5.369   8.611  67.114  1.00  0.00    -0.037 C  
HETATM   23  C   UNL     1      -6.644   9.454  65.296  1.00  0.00    -0.078 C  
HETATM   24  C   UNL     1      -6.488   9.512  67.697  1.00  0.00    -0.062 C  
HETATM   25  C   UNL     1      -5.855   8.230  65.717  1.00  0.00    -0.041 C  
BRANCH  24  26
HETATM   26  C   UNL     1      -7.344   8.920  68.798  1.00  0.00    -0.076 A  
HETATM   27  C   UNL     1      -7.973   9.667  69.799  1.00  0.00    -0.151 A  
HETATM   28  C   UNL     1      -8.668   9.051  70.844  1.00  0.00    -0.280 A  
HETATM   29  F   UNL     1      -7.913  11.006  69.800  1.00  0.00    -0.050 F  
HETATM   30  C   UNL     1      -8.736   7.662  70.912  1.00  0.00    -0.138 A  
HETATM   31  C   UNL     1      -8.124   6.905  69.922  1.00  0.00    -0.125 A  
HETATM   32  C   UNL     1      -7.440   7.516  68.875  1.00  0.00    -0.096 A  
HETATM   33  F   UNL     1      -8.180   5.569  69.984  1.00  0.00    -0.095 F  
ENDBRANCH  24  26
ENDBRANCH  15  21
ENDBRANCH  10  12
ENDBRANCH   8  10
ENDBRANCH   6   8
TORSDOF 5
ENDMDL
MODEL      183
REMARK 921   NORMALIZED FREE ENERGY PREDICTED BY IDOCK:   -4.91 KCAL/MOL
REMARK 922        TOTAL FREE ENERGY PREDICTED BY IDOCK:   -8.07 KCAL/MOL
REMARK 923 INTER-LIGAND FREE ENERGY PREDICTED BY IDOCK:   -7.25 KCAL/MOL
REMARK 924 INTRA-LIGAND FREE ENERGY PREDICTED BY IDOCK:   -0.82 KCAL/MOL
REMARK 927      BINDING AFFINITY PREDICTED BY RF-SCORE:    0.00 PKD
ROOT
HETATM    1  O   UNL     1     -10.293   5.606  72.788  1.00  0.00    -0.180 OA 
HETATM    2  H   UNL     1      -9.633   5.057  73.195  1.00  0.00     0.000 HD 
HETATM    3  C   UNL     1     -10.426   5.313  71.408  1.00  0.00    -0.203 C  
HETATM    4  C   UNL     1     -11.485   6.195  70.756  1.00  0.00    -0.321 C  
HETATM    5  C   UNL     1     -11.090   6.167  69.295  1.00  0.00    -0.393 C  
HETATM    6  N   UNL     1      -9.640   6.088  69.308  1.00  0.00    -0.135 N  
HETATM    7  C   UNL     1      -9.157   5.648  70.614  1.00  0.00    -0.150 C  
ENDROOT
BRANCH   6   8
HETATM    8  C   UNL     1      -8.936   6.382  68.152  1.00  0.00    -0.116 C  
HETATM    9  O   UNL     1      -8.106   5.586  67.726  1.00  0.00    -0.100 OA 
BRANCH   8  10
HETATM   10  N   UNL     1      -9.236   7.609  67.609  1.00  0.00    -0.135 N  
HETATM   11  H   UNL     1      -9.948   8.162  68.084  1.00  0.00     0.000 HD 
BRANCH  10  12
HETATM   12  C   UNL     1      -8.661   8.169  66.473  1.00  0.00    -0.143 A  
HETATM   13  C   UNL     1      -9.033   9.256  65.693  1.00  0.00    -0.199 A  
HETATM   14  N   UNL     1     -10.055  10.176  65.751  1.00  0.00    -0.268 NA 
HETATM   15  C   UNL     1     -10.168  11.041  64.773  1.00  0.00    -0.319 A  
HETATM   16  C   UNL     1      -7.476   7.688  65.873  1.00  0.00    -0.082 A  
HETATM   17  C   UNL     1      -9.167  11.142  63.656  1.00  0.00    -0.167 A  
HETATM   18  N   UNL     1      -7.123   8.357  64.781  1.00  0.00    -0.078 NA 
HETATM   19  C   UNL     1      -8.160  10.264  63.663  1.00  0.00    -0.149 A  
HETATM   20  N   UNL     1      -8.080   9.312  64.662  1.00  0.00    -0.128 NA 
BRANCH  15  21
HETATM   21  N   UNL     1     -11.214  11.933  64.715  1.00  0.00    -0.310 NA 
HETATM   22  C   UNL     1     -12.707  13.723  65.123  1.00  0.00    -0.439 C  
HETATM   23  C   UNL     1     -12.036  12.094  63.532  1.00  0.00    -0.524 C  
HETATM   24  C   UNL     1     -11.680  12.786  65.808  1.00  0.00    -0.402 C  
HETATM   25  C   UNL     1     -12.471  13.543  63.626  1.00  0.00    -0.278 C  
BRANCH  24  26
HETATM   26  C   UNL     1     -10.511  13.445  66.512  1.00  0.00    -0.283 A  
HETATM   27  C   UNL     1     -10.059  13.099  67.790  1.00  0.00    -0.226 A  
HETATM   28  C   UNL     1      -9.038  13.813  68.424  1.00  0.00    -0.175 A  
HETATM   29  F   UNL     1     -10.609  12.077  68.461  1.00  0.00    -0.202 F  
HETATM   30  C   UNL     1      -8.452  14.904  67.787  1.00  0.00    -0.160 A  
HETATM   31  C   UNL     1      -8.883  15.256  66.515  1.00  0.00    -0.300 A  
HETATM   32  C   UNL     1      -9.892  14.541  65.878  1.00  0.00    -0.347 A  
HETATM   33  F   UNL     1      -8.328  16.308  65.899  1.00  0.00    -0.345 F  
ENDBRANCH  24  26
ENDBRANCH  15  21
ENDBRANCH  10  12
ENDBRANCH   8  10
ENDBRANCH   6   8
TORSDOF 5
ENDMDL
MODEL      184
REMARK 921   NORMALIZED FREE ENERGY PREDICTED BY IDOCK:   -4.89 KCAL/MOL
REMARK 922        TOTAL FREE ENERGY PREDICTED BY IDOCK:   -8.05 KCAL/MOL
REMARK 923 INTER-LIGAND FREE ENERGY PREDICTED BY IDOCK:   -6.13 KCAL/MOL
REMARK 924 INTRA-LIGAND FREE ENERGY PREDICTED BY IDOCK:   -1.92 KCAL/MOL
REMARK 927      BINDING AFFINITY PREDICTED BY RF-SCORE:    0.00 PKD
ROOT
HETATM    1  O   UNL     1     -10.409   8.216  66.334  1.00  0.00    -0.458 OA 
HETATM    2  H   UNL     1     -10.325   8.988  66.882  1.00  0.00     0.000 HD 
HETATM    3  C   UNL     1     -10.458   7.035  67.117  1.00  0.00    -0.312 C  
HETATM    4  C   UNL     1     -10.592   5.797  66.237  1.00  0.00    -0.121 C  
HETATM    5  C   UNL     1     -10.061   4.695  67.129  1.00  0.00    -0.143 C  
HETATM    6  N   UNL     1      -9.014   5.329  67.912  1.00  0.00    -0.109 N  
HETATM    7  C   UNL     1      -9.150   6.782  67.877  1.00  0.00    -0.114 C  
ENDROOT
BRANCH   6   8
HETATM    8  C   UNL     1      -8.098   4.536  68.583  1.00  0.00    -0.081 C  
HETATM    9  O   UNL     1      -6.927   4.891  68.659  1.00  0.00    -0.050 OA 
BRANCH   8  10
HETATM   10  N   UNL     1      -8.624   3.367  69.080  1.00  0.00    -0.074 N  
HETATM   11  H   UNL     1      -8.688   2.580  68.434  1.00  0.00     0.000 HD 
BRANCH  10  12
HETATM   12  C   UNL     1      -9.077   3.153  70.377  1.00  0.00    -0.122 A  
HETATM   13  C   UNL     1      -9.881   3.920  71.210  1.00  0.00    -0.157 A  
HETATM   14  N   UNL     1     -10.533   5.125  71.074  1.00  0.00    -0.204 NA 
HETATM   15  C   UNL     1     -11.148   5.619  72.121  1.00  0.00    -0.241 A  
HETATM   16  C   UNL     1      -8.780   1.997  71.133  1.00  0.00    -0.061 A  
HETATM   17  C   UNL     1     -11.266   4.875  73.422  1.00  0.00    -0.415 A  
HETATM   18  N   UNL     1      -9.295   2.015  72.357  1.00  0.00    -0.076 NA 
HETATM   19  C   UNL     1     -10.663   3.686  73.498  1.00  0.00    -0.217 A  
HETATM   20  N   UNL     1      -9.961   3.196  72.411  1.00  0.00    -0.156 NA 
BRANCH  15  21
HETATM   21  N   UNL     1     -11.745   6.857  72.089  1.00  0.00    -0.288 NA 
HETATM   22  C   UNL     1     -12.169   9.186  72.157  1.00  0.00    -0.408 C  
HETATM   23  C   UNL     1     -13.041   7.083  71.480  1.00  0.00    -0.339 C  
HETATM   24  C   UNL     1     -11.217   8.084  72.689  1.00  0.00    -0.397 C  
HETATM   25  C   UNL     1     -12.944   8.525  71.020  1.00  0.00     0.046 C  
BRANCH  24  26
HETATM   26  C   UNL     1      -9.742   8.242  72.380  1.00  0.00    -0.373 A  
HETATM   27  C   UNL     1      -8.710   7.955  73.280  1.00  0.00    -0.236 A  
HETATM   28  C   UNL     1      -7.373   8.217  72.968  1.00  0.00    -0.161 A  
HETATM   29  F   UNL     1      -8.974   7.436  74.488  1.00  0.00    -0.240 F  
HETATM   30  C   UNL     1      -7.043   8.786  71.741  1.00  0.00    -0.077 A  
HETATM   31  C   UNL     1      -8.055   9.069  70.833  1.00  0.00    -0.169 A  
HETATM   32  C   UNL     1      -9.385   8.801  71.137  1.00  0.00    -0.297 A  
HETATM   33  F   UNL     1      -7.745   9.622  69.653  1.00  0.00    -0.078 F  
ENDBRANCH  24  26
ENDBRANCH  15  21
ENDBRANCH  10  12
ENDBRANCH   8  10
ENDBRANCH   6   8
TORSDOF 5
ENDMDL
MODEL      185
REMARK 921   NORMALIZED FREE ENERGY PREDICTED BY IDOCK:   -4.88 KCAL/MOL
REMARK 922        TOTAL FREE ENERGY PREDICTED BY IDOCK:   -8.03 KCAL/MOL
REMARK 923 INTER-LIGAND FREE ENERGY PREDICTED BY IDOCK:   -6.79 KCAL/MOL
REMARK 924 INTRA-LIGAND FREE ENERGY PREDICTED BY IDOCK:   -1.24 KCAL/MOL
REMARK 927      BINDING AFFINITY PREDICTED BY RF-SCORE:    0.00 PKD
ROOT
HETATM    1  O   UNL     1     -10.765   7.134  72.128  1.00  0.00    -0.208 OA 
HETATM    2  H   UNL     1     -10.084   6.700  72.628  1.00  0.00     0.000 HD 
HETATM    3  C   UNL     1     -10.304   7.494  70.837  1.00  0.00    -0.201 C  
HETATM    4  C   UNL     1     -11.397   8.191  70.035  1.00  0.00     0.000 C  
HETATM    5  C   UNL     1     -10.610   8.974  69.006  1.00  0.00    -0.190 C  
HETATM    6  N   UNL     1      -9.391   9.363  69.696  1.00  0.00    -0.176 N  
HETATM    7  C   UNL     1      -9.186   8.543  70.886  1.00  0.00    -0.175 C  
ENDROOT
BRANCH   6   8
HETATM    8  C   UNL     1      -8.603  10.369  69.160  1.00  0.00    -0.164 C  
HETATM    9  O   UNL     1      -7.408  10.169  68.973  1.00  0.00    -0.075 OA 
BRANCH   8  10
HETATM   10  N   UNL     1      -9.276  11.544  68.923  1.00  0.00    -0.395 N  
HETATM   11  H   UNL     1      -9.582  12.072  69.740  1.00  0.00     0.000 HD 
BRANCH  10  12
HETATM   12  C   UNL     1      -9.579  12.083  67.678  1.00  0.00    -0.188 A  
HETATM   13  C   UNL     1      -9.737  13.396  67.256  1.00  0.00    -0.232 A  
HETATM   14  N   UNL     1      -9.637  14.623  67.873  1.00  0.00    -0.209 NA 
HETATM   15  C   UNL     1      -9.950  15.692  67.184  1.00  0.00    -0.240 A  
HETATM   16  C   UNL     1      -9.779  11.308  66.514  1.00  0.00    -0.202 A  
HETATM   17  C   UNL     1     -10.303  15.644  65.723  1.00  0.00    -0.386 A  
HETATM   18  N   UNL     1     -10.084  12.029  65.441  1.00  0.00    -0.252 NA 
HETATM   19  C   UNL     1     -10.339  14.439  65.147  1.00  0.00    -0.421 A  
HETATM   20  N   UNL     1     -10.070  13.308  65.894  1.00  0.00    -0.290 NA 
BRANCH  15  21
HETATM   21  N   UNL     1      -9.961  16.943  67.756  1.00  0.00    -0.269 NA 
HETATM   22  C   UNL     1      -9.343  19.054  68.632  1.00  0.00    -0.428 C  
HETATM   23  C   UNL     1     -11.166  17.740  67.864  1.00  0.00     0.282 C  
HETATM   24  C   UNL     1      -8.817  17.619  68.370  1.00  0.00    -0.281 C  
HETATM   25  C   UNL     1     -10.631  19.158  67.820  1.00  0.00    -0.498 C  
BRANCH  24  26
HETATM   26  C   UNL     1      -7.584  17.487  67.501  1.00  0.00    -0.209 A  
HETATM   27  C   UNL     1      -6.455  16.732  67.838  1.00  0.00    -0.138 A  
HETATM   28  C   UNL     1      -5.309  16.731  67.037  1.00  0.00    -0.157 A  
HETATM   29  F   UNL     1      -6.428  15.996  68.958  1.00  0.00    -0.121 F  
HETATM   30  C   UNL     1      -5.269  17.503  65.878  1.00  0.00    -0.138 A  
HETATM   31  C   UNL     1      -6.383  18.251  65.525  1.00  0.00    -0.249 A  
HETATM   32  C   UNL     1      -7.528  18.246  66.315  1.00  0.00    -0.295 A  
HETATM   33  F   UNL     1      -6.349  19.000  64.415  1.00  0.00    -0.289 F  
ENDBRANCH  24  26
ENDBRANCH  15  21
ENDBRANCH  10  12
ENDBRANCH   8  10
ENDBRANCH   6   8
TORSDOF 5
ENDMDL
MODEL      186
REMARK 921   NORMALIZED FREE ENERGY PREDICTED BY IDOCK:   -4.88 KCAL/MOL
REMARK 922        TOTAL FREE ENERGY PREDICTED BY IDOCK:   -8.03 KCAL/MOL
REMARK 923 INTER-LIGAND FREE ENERGY PREDICTED BY IDOCK:   -6.57 KCAL/MOL
REMARK 924 INTRA-LIGAND FREE ENERGY PREDICTED BY IDOCK:   -1.46 KCAL/MOL
REMARK 927      BINDING AFFINITY PREDICTED BY RF-SCORE:    0.00 PKD
ROOT
HETATM    1  O   UNL     1     -13.418   8.760  73.071  1.00  0.00    -0.873 OA 
HETATM    2  H   UNL     1     -14.058   9.348  72.687  1.00  0.00     0.000 HD 
HETATM    3  C   UNL     1     -12.212   8.756  72.325  1.00  0.00    -0.358 C  
HETATM    4  C   UNL     1     -11.185   7.813  72.942  1.00  0.00    -0.434 C  
HETATM    5  C   UNL     1     -10.272   7.504  71.776  1.00  0.00    -0.187 C  
HETATM    6  N   UNL     1     -11.146   7.504  70.615  1.00  0.00    -0.261 N  
HETATM    7  C   UNL     1     -12.401   8.189  70.912  1.00  0.00    -0.048 C  
ENDROOT
BRANCH   6   8
HETATM    8  C   UNL     1     -10.703   6.930  69.435  1.00  0.00    -0.246 C  
HETATM    9  O   UNL     1     -11.404   6.105  68.860  1.00  0.00    -0.367 OA 
BRANCH   8  10
HETATM   10  N   UNL     1      -9.451   7.342  69.045  1.00  0.00    -0.148 N  
HETATM   11  H   UNL     1      -8.722   7.339  69.758  1.00  0.00     0.000 HD 
BRANCH  10  12
HETATM   12  C   UNL     1      -9.082   7.763  67.772  1.00  0.00    -0.134 A  
HETATM   13  C   UNL     1      -8.544   8.959  67.317  1.00  0.00    -0.118 A  
HETATM   14  N   UNL     1      -8.162  10.134  67.924  1.00  0.00    -0.109 NA 
HETATM   15  C   UNL     1      -7.768  11.126  67.164  1.00  0.00    -0.136 A  
HETATM   16  C   UNL     1      -9.188   6.957  66.616  1.00  0.00    -0.157 A  
HETATM   17  C   UNL     1      -7.610  10.997  65.675  1.00  0.00     0.115 A  
HETATM   18  N   UNL     1      -8.804   7.571  65.503  1.00  0.00    -0.046 NA 
HETATM   19  C   UNL     1      -7.943   9.825  65.128  1.00  0.00    -0.129 A  
HETATM   20  N   UNL     1      -8.419   8.801  65.927  1.00  0.00    -0.135 NA 
BRANCH  15  21
HETATM   21  N   UNL     1      -7.454  12.358  67.690  1.00  0.00    -0.126 NA 
HETATM   22  C   UNL     1      -7.499  14.629  68.357  1.00  0.00    -0.117 C  
HETATM   23  C   UNL     1      -6.417  12.541  68.685  1.00  0.00    -0.078 C  
HETATM   24  C   UNL     1      -8.054  13.636  67.304  1.00  0.00    -0.139 C  
HETATM   25  C   UNL     1      -6.907  13.750  69.457  1.00  0.00     0.001 C  
BRANCH  24  26
HETATM   26  C   UNL     1      -9.561  13.514  67.202  1.00  0.00    -0.241 A  
HETATM   27  C   UNL     1     -10.288  13.660  66.016  1.00  0.00    -0.304 A  
HETATM   28  C   UNL     1     -11.686  13.634  66.006  1.00  0.00    -0.383 A  
HETATM   29  F   UNL     1      -9.665  13.850  64.845  1.00  0.00    -0.273 F  
HETATM   30  C   UNL     1     -12.387  13.471  67.199  1.00  0.00    -0.220 A  
HETATM   31  C   UNL     1     -11.681  13.317  68.384  1.00  0.00    -0.354 A  
HETATM   32  C   UNL     1     -10.290  13.333  68.395  1.00  0.00    -0.254 A  
HETATM   33  F   UNL     1     -12.350  13.167  69.534  1.00  0.00    -0.309 F  
ENDBRANCH  24  26
ENDBRANCH  15  21
ENDBRANCH  10  12
ENDBRANCH   8  10
ENDBRANCH   6   8
TORSDOF 5
ENDMDL
MODEL      187
REMARK 921   NORMALIZED FREE ENERGY PREDICTED BY IDOCK:   -4.87 KCAL/MOL
REMARK 922        TOTAL FREE ENERGY PREDICTED BY IDOCK:   -8.03 KCAL/MOL
REMARK 923 INTER-LIGAND FREE ENERGY PREDICTED BY IDOCK:   -7.52 KCAL/MOL
REMARK 924 INTRA-LIGAND FREE ENERGY PREDICTED BY IDOCK:   -0.51 KCAL/MOL
REMARK 927      BINDING AFFINITY PREDICTED BY RF-SCORE:    0.00 PKD
ROOT
HETATM    1  O   UNL     1     -11.183   3.542  73.926  1.00  0.00    -0.186 OA 
HETATM    2  H   UNL     1     -11.973   3.960  74.250  1.00  0.00     0.000 HD 
HETATM    3  C   UNL     1     -10.252   4.501  73.454  1.00  0.00    -0.169 C  
HETATM    4  C   UNL     1      -8.985   3.831  72.934  1.00  0.00    -0.109 C  
HETATM    5  C   UNL     1      -8.416   4.874  71.997  1.00  0.00    -0.124 C  
HETATM    6  N   UNL     1      -9.581   5.527  71.423  1.00  0.00    -0.152 N  
HETATM    7  C   UNL     1     -10.770   5.266  72.229  1.00  0.00    -0.223 C  
ENDROOT
BRANCH   6   8
HETATM    8  C   UNL     1      -9.431   6.296  70.281  1.00  0.00    -0.161 C  
HETATM    9  O   UNL     1      -9.492   5.765  69.178  1.00  0.00    -0.124 OA 
BRANCH   8  10
HETATM   10  N   UNL     1      -9.181   7.625  70.528  1.00  0.00    -0.159 N  
HETATM   11  H   UNL     1      -8.212   7.885  70.714  1.00  0.00     0.000 HD 
BRANCH  10  12
HETATM   12  C   UNL     1     -10.121   8.650  70.550  1.00  0.00    -0.196 A  
HETATM   13  C   UNL     1     -10.577   9.502  69.554  1.00  0.00    -0.221 A  
HETATM   14  N   UNL     1     -10.307   9.644  68.211  1.00  0.00    -0.195 NA 
HETATM   15  C   UNL     1     -10.863  10.642  67.568  1.00  0.00    -0.296 A  
HETATM   16  C   UNL     1     -10.854   9.020  71.700  1.00  0.00    -0.366 A  
HETATM   17  C   UNL     1     -11.865  11.564  68.206  1.00  0.00    -0.327 A  
HETATM   18  N   UNL     1     -11.677  10.042  71.499  1.00  0.00    -0.339 NA 
HETATM   19  C   UNL     1     -12.139  11.362  69.497  1.00  0.00    -0.302 A  
HETATM   20  N   UNL     1     -11.503  10.347  70.189  1.00  0.00    -0.295 NA 
BRANCH  15  21
HETATM   21  N   UNL     1     -10.573  10.902  66.249  1.00  0.00    -0.241 NA 
HETATM   22  C   UNL     1     -10.119  11.962  64.182  1.00  0.00    -0.338 C  
HETATM   23  C   UNL     1      -9.988   9.910  65.369  1.00  0.00    -0.279 C  
HETATM   24  C   UNL     1     -10.848  12.151  65.537  1.00  0.00    -0.283 C  
HETATM   25  C   UNL     1      -9.203  10.759  64.388  1.00  0.00    -0.250 C  
BRANCH  24  26
HETATM   26  C   UNL     1     -10.443  13.347  66.374  1.00  0.00    -0.286 A  
HETATM   27  C   UNL     1     -11.311  14.378  66.753  1.00  0.00    -0.352 A  
HETATM   28  C   UNL     1     -10.852  15.504  67.442  1.00  0.00    -0.312 A  
HETATM   29  F   UNL     1     -12.614  14.327  66.447  1.00  0.00    -0.481 F  
HETATM   30  C   UNL     1      -9.501  15.625  67.758  1.00  0.00    -0.208 A  
HETATM   31  C   UNL     1      -8.628  14.608  67.397  1.00  0.00    -0.199 A  
HETATM   32  C   UNL     1      -9.083  13.481  66.719  1.00  0.00    -0.223 A  
HETATM   33  F   UNL     1      -7.327  14.721  67.692  1.00  0.00    -0.127 F  
ENDBRANCH  24  26
ENDBRANCH  15  21
ENDBRANCH  10  12
ENDBRANCH   8  10
ENDBRANCH   6   8
TORSDOF 5
ENDMDL
MODEL      188
REMARK 921   NORMALIZED FREE ENERGY PREDICTED BY IDOCK:   -4.87 KCAL/MOL
REMARK 922        TOTAL FREE ENERGY PREDICTED BY IDOCK:   -8.02 KCAL/MOL
REMARK 923 INTER-LIGAND FREE ENERGY PREDICTED BY IDOCK:   -6.95 KCAL/MOL
REMARK 924 INTRA-LIGAND FREE ENERGY PREDICTED BY IDOCK:   -1.08 KCAL/MOL
REMARK 927      BINDING AFFINITY PREDICTED BY RF-SCORE:    0.00 PKD
ROOT
HETATM    1  O   UNL     1     -12.630  16.670  68.890  1.00  0.00     0.255 OA 
HETATM    2  H   UNL     1     -12.105  16.976  68.160  1.00  0.00     0.000 HD 
HETATM    3  C   UNL     1     -11.993  15.598  69.565  1.00  0.00    -0.345 C  
HETATM    4  C   UNL     1     -12.835  15.106  70.737  1.00  0.00    -0.473 C  
HETATM    5  C   UNL     1     -12.330  13.694  70.942  1.00  0.00    -0.371 C  
HETATM    6  N   UNL     1     -11.998  13.226  69.607  1.00  0.00    -0.320 N  
HETATM    7  C   UNL     1     -11.859  14.349  68.685  1.00  0.00    -0.331 C  
ENDROOT
BRANCH   6   8
HETATM    8  C   UNL     1     -11.827  11.869  69.390  1.00  0.00    -0.327 C  
HETATM    9  O   UNL     1     -12.235  11.364  68.350  1.00  0.00    -0.571 OA 
BRANCH   8  10
HETATM   10  N   UNL     1     -11.224  11.205  70.431  1.00  0.00    -0.445 N  
HETATM   11  H   UNL     1     -10.558  11.736  70.993  1.00  0.00     0.000 HD 
BRANCH  10  12
HETATM   12  C   UNL     1     -11.434   9.879  70.795  1.00  0.00    -0.354 A  
HETATM   13  C   UNL     1     -11.127   8.688  70.150  1.00  0.00    -0.192 A  
HETATM   14  N   UNL     1     -10.504   8.369  68.965  1.00  0.00    -0.220 NA 
HETATM   15  C   UNL     1     -10.462   7.109  68.606  1.00  0.00    -0.197 A  
HETATM   16  C   UNL     1     -12.038   9.483  72.009  1.00  0.00    -0.262 A  
HETATM   17  C   UNL     1     -10.963   5.995  69.482  1.00  0.00    -0.467 A  
HETATM   18  N   UNL     1     -12.162   8.166  72.136  1.00  0.00    -0.336 NA 
HETATM   19  C   UNL     1     -11.515   6.342  70.648  1.00  0.00    -0.362 A  
HETATM   20  N   UNL     1     -11.615   7.677  70.995  1.00  0.00    -0.280 NA 
BRANCH  15  21
HETATM   21  N   UNL     1      -9.936   6.721  67.395  1.00  0.00    -0.137 NA 
HETATM   22  C   UNL     1      -8.541   6.431  65.504  1.00  0.00    -0.115 C  
HETATM   23  C   UNL     1     -10.418   5.561  66.671  1.00  0.00    -0.294 C  
HETATM   24  C   UNL     1      -8.887   7.417  66.649  1.00  0.00    -0.143 C  
HETATM   25  C   UNL     1      -9.186   5.108  65.913  1.00  0.00    -0.163 C  
BRANCH  24  26
HETATM   26  C   UNL     1      -7.754   7.827  67.568  1.00  0.00    -0.117 A  
HETATM   27  C   UNL     1      -7.205   9.113  67.623  1.00  0.00    -0.083 A  
HETATM   28  C   UNL     1      -6.095   9.401  68.421  1.00  0.00    -0.044 A  
HETATM   29  F   UNL     1      -7.716  10.112  66.889  1.00  0.00    -0.099 F  
HETATM   30  C   UNL     1      -5.502   8.395  69.180  1.00  0.00    -0.031 A  
HETATM   31  C   UNL     1      -6.040   7.115  69.144  1.00  0.00    -0.026 A  
HETATM   32  C   UNL     1      -7.150   6.828  68.357  1.00  0.00    -0.083 A  
HETATM   33  F   UNL     1      -5.471   6.141  69.866  1.00  0.00    -0.011 F  
ENDBRANCH  24  26
ENDBRANCH  15  21
ENDBRANCH  10  12
ENDBRANCH   8  10
ENDBRANCH   6   8
TORSDOF 5
ENDMDL
MODEL      189
REMARK 921   NORMALIZED FREE ENERGY PREDICTED BY IDOCK:   -4.84 KCAL/MOL
REMARK 922        TOTAL FREE ENERGY PREDICTED BY IDOCK:   -7.98 KCAL/MOL
REMARK 923 INTER-LIGAND FREE ENERGY PREDICTED BY IDOCK:   -6.35 KCAL/MOL
REMARK 924 INTRA-LIGAND FREE ENERGY PREDICTED BY IDOCK:   -1.64 KCAL/MOL
REMARK 927      BINDING AFFINITY PREDICTED BY RF-SCORE:    0.00 PKD
ROOT
HETATM    1  O   UNL     1     -13.469   7.684  70.830  1.00  0.00    -0.584 OA 
HETATM    2  H   UNL     1     -13.796   8.575  70.789  1.00  0.00     0.000 HD 
HETATM    3  C   UNL     1     -12.648   7.491  71.969  1.00  0.00    -0.237 C  
HETATM    4  C   UNL     1     -12.123   6.061  72.036  1.00  0.00    -0.170 C  
HETATM    5  C   UNL     1     -10.889   6.197  72.900  1.00  0.00    -0.260 C  
HETATM    6  N   UNL     1     -10.353   7.507  72.571  1.00  0.00    -0.221 N  
HETATM    7  C   UNL     1     -11.365   8.330  71.914  1.00  0.00    -0.308 C  
ENDROOT
BRANCH   6   8
HETATM    8  C   UNL     1      -9.050   7.814  72.927  1.00  0.00    -0.197 C  
HETATM    9  O   UNL     1      -8.792   8.118  74.086  1.00  0.00    -0.198 OA 
BRANCH   8  10
HETATM   10  N   UNL     1      -8.158   7.777  71.881  1.00  0.00    -0.099 N  
HETATM   11  H   UNL     1      -8.047   6.883  71.402  1.00  0.00     0.000 HD 
BRANCH  10  12
HETATM   12  C   UNL     1      -7.393   8.840  71.413  1.00  0.00    -0.097 A  
HETATM   13  C   UNL     1      -7.648   9.801  70.445  1.00  0.00    -0.148 A  
HETATM   14  N   UNL     1      -8.718  10.080  69.624  1.00  0.00    -0.198 NA 
HETATM   15  C   UNL     1      -8.586  11.033  68.735  1.00  0.00    -0.144 A  
HETATM   16  C   UNL     1      -6.108   9.160  71.905  1.00  0.00    -0.035 A  
HETATM   17  C   UNL     1      -7.363  11.904  68.650  1.00  0.00    -0.115 A  
HETATM   18  N   UNL     1      -5.549  10.198  71.295  1.00  0.00    -0.169 NA 
HETATM   19  C   UNL     1      -6.367  11.635  69.498  1.00  0.00    -0.122 A  
HETATM   20  N   UNL     1      -6.485  10.587  70.393  1.00  0.00    -0.227 NA 
BRANCH  15  21
HETATM   21  N   UNL     1      -9.576  11.311  67.822  1.00  0.00    -0.171 NA 
HETATM   22  C   UNL     1     -11.094  11.219  66.007  1.00  0.00    -0.181 C  
HETATM   23  C   UNL     1     -10.615  12.290  68.071  1.00  0.00    -0.216 C  
HETATM   24  C   UNL     1      -9.704  10.728  66.485  1.00  0.00    -0.196 C  
HETATM   25  C   UNL     1     -11.779  11.753  67.262  1.00  0.00    -0.293 C  
BRANCH  24  26
HETATM   26  C   UNL     1      -9.482   9.229  66.529  1.00  0.00    -0.259 A  
HETATM   27  C   UNL     1      -8.329   8.586  66.065  1.00  0.00    -0.130 A  
HETATM   28  C   UNL     1      -8.228   7.192  66.043  1.00  0.00    -0.129 A  
HETATM   29  F   UNL     1      -7.286   9.290  65.605  1.00  0.00    -0.088 F  
HETATM   30  C   UNL     1      -9.294   6.409  66.479  1.00  0.00    -0.181 A  
HETATM   31  C   UNL     1     -10.442   7.032  66.950  1.00  0.00    -0.286 A  
HETATM   32  C   UNL     1     -10.542   8.419  66.983  1.00  0.00    -0.316 A  
HETATM   33  F   UNL     1     -11.474   6.285  67.366  1.00  0.00    -0.374 F  
ENDBRANCH  24  26
ENDBRANCH  15  21
ENDBRANCH  10  12
ENDBRANCH   8  10
ENDBRANCH   6   8
TORSDOF 5
ENDMDL
MODEL      190
REMARK 921   NORMALIZED FREE ENERGY PREDICTED BY IDOCK:   -4.84 KCAL/MOL
REMARK 922        TOTAL FREE ENERGY PREDICTED BY IDOCK:   -7.98 KCAL/MOL
REMARK 923 INTER-LIGAND FREE ENERGY PREDICTED BY IDOCK:   -6.67 KCAL/MOL
REMARK 924 INTRA-LIGAND FREE ENERGY PREDICTED BY IDOCK:   -1.31 KCAL/MOL
REMARK 927      BINDING AFFINITY PREDICTED BY RF-SCORE:    0.00 PKD
ROOT
HETATM    1  O   UNL     1      -7.623  18.545  69.316  1.00  0.00    -0.147 OA 
HETATM    2  H   UNL     1      -8.354  19.140  69.441  1.00  0.00     0.000 HD 
HETATM    3  C   UNL     1      -7.891  17.613  68.282  1.00  0.00    -0.256 C  
HETATM    4  C   UNL     1      -6.719  16.659  68.083  1.00  0.00    -0.148 C  
HETATM    5  C   UNL     1      -7.370  15.463  67.421  1.00  0.00    -0.213 C  
HETATM    6  N   UNL     1      -8.699  15.400  68.005  1.00  0.00    -0.159 N  
HETATM    7  C   UNL     1      -9.051  16.672  68.630  1.00  0.00    -0.245 C  
ENDROOT
BRANCH   6   8
HETATM    8  C   UNL     1      -9.440  14.236  67.875  1.00  0.00    -0.212 C  
HETATM    9  O   UNL     1     -10.176  13.880  68.788  1.00  0.00    -0.233 OA 
BRANCH   8  10
HETATM   10  N   UNL     1      -9.225  13.562  66.697  1.00  0.00    -0.356 N  
HETATM   11  H   UNL     1      -8.714  14.060  65.968  1.00  0.00     0.000 HD 
BRANCH  10  12
HETATM   12  C   UNL     1      -9.638  12.267  66.401  1.00  0.00    -0.237 A  
HETATM   13  C   UNL     1      -9.486  11.072  67.091  1.00  0.00    -0.164 A  
HETATM   14  N   UNL     1      -8.913  10.722  68.293  1.00  0.00    -0.137 NA 
HETATM   15  C   UNL     1      -8.861   9.451  68.608  1.00  0.00    -0.132 A  
HETATM   16  C   UNL     1     -10.369  11.921  65.243  1.00  0.00    -0.276 A  
HETATM   17  C   UNL     1      -9.497   8.377  67.770  1.00  0.00    -0.171 A  
HETATM   18  N   UNL     1     -10.634  10.623  65.150  1.00  0.00    -0.195 NA 
HETATM   19  C   UNL     1     -10.088   8.763  66.636  1.00  0.00    -0.288 A  
HETATM   20  N   UNL     1     -10.086  10.098  66.275  1.00  0.00    -0.237 NA 
BRANCH  15  21
HETATM   21  N   UNL     1      -8.226   9.016  69.749  1.00  0.00    -0.114 NA 
HETATM   22  C   UNL     1      -7.738   8.279  71.945  1.00  0.00    -0.143 C  
HETATM   23  C   UNL     1      -6.899   8.434  69.729  1.00  0.00    -0.043 C  
HETATM   24  C   UNL     1      -8.744   9.116  71.114  1.00  0.00    -0.143 C  
HETATM   25  C   UNL     1      -6.932   7.490  70.915  1.00  0.00    -0.054 C  
BRANCH  24  26
HETATM   26  C   UNL     1     -10.199   8.695  71.170  1.00  0.00    -0.294 A  
HETATM   27  C   UNL     1     -10.652   7.387  70.966  1.00  0.00    -0.224 A  
HETATM   28  C   UNL     1     -12.016   7.082  70.933  1.00  0.00    -0.409 A  
HETATM   29  F   UNL     1      -9.788   6.380  70.775  1.00  0.00    -0.184 F  
HETATM   30  C   UNL     1     -12.960   8.094  71.094  1.00  0.00    -0.082 A  
HETATM   31  C   UNL     1     -12.527   9.396  71.304  1.00  0.00    -0.335 A  
HETATM   32  C   UNL     1     -11.170   9.700  71.348  1.00  0.00    -0.426 A  
HETATM   33  F   UNL     1     -13.429  10.374  71.454  1.00  0.00    -0.410 F  
ENDBRANCH  24  26
ENDBRANCH  15  21
ENDBRANCH  10  12
ENDBRANCH   8  10
ENDBRANCH   6   8
TORSDOF 5
ENDMDL
MODEL      191
REMARK 921   NORMALIZED FREE ENERGY PREDICTED BY IDOCK:   -4.83 KCAL/MOL
REMARK 922        TOTAL FREE ENERGY PREDICTED BY IDOCK:   -7.97 KCAL/MOL
REMARK 923 INTER-LIGAND FREE ENERGY PREDICTED BY IDOCK:   -6.65 KCAL/MOL
REMARK 924 INTRA-LIGAND FREE ENERGY PREDICTED BY IDOCK:   -1.33 KCAL/MOL
REMARK 927      BINDING AFFINITY PREDICTED BY RF-SCORE:    0.00 PKD
ROOT
HETATM    1  O   UNL     1      -6.761  12.050  67.319  1.00  0.00    -0.121 OA 
HETATM    2  H   UNL     1      -6.240  11.371  67.733  1.00  0.00     0.000 HD 
HETATM    3  C   UNL     1      -7.837  12.450  68.151  1.00  0.00    -0.146 C  
HETATM    4  C   UNL     1      -8.672  13.539  67.487  1.00  0.00    -0.208 C  
HETATM    5  C   UNL     1     -10.004  13.416  68.193  1.00  0.00    -0.237 C  
HETATM    6  N   UNL     1     -10.144  11.996  68.470  1.00  0.00    -0.211 N  
HETATM    7  C   UNL     1      -8.852  11.322  68.376  1.00  0.00    -0.159 C  
ENDROOT
BRANCH   6   8
HETATM    8  C   UNL     1     -11.390  11.491  68.803  1.00  0.00    -0.265 C  
HETATM    9  O   UNL     1     -12.156  11.130  67.918  1.00  0.00    -0.627 OA 
BRANCH   8  10
HETATM   10  N   UNL     1     -11.651  11.488  70.153  1.00  0.00    -0.468 N  
HETATM   11  H   UNL     1     -11.694  12.396  70.616  1.00  0.00     0.000 HD 
BRANCH  10  12
HETATM   12  C   UNL     1     -11.863  10.367  70.949  1.00  0.00    -0.377 A  
HETATM   13  C   UNL     1     -10.988   9.411  71.443  1.00  0.00    -0.373 A  
HETATM   14  N   UNL     1      -9.627   9.219  71.363  1.00  0.00    -0.257 NA 
HETATM   15  C   UNL     1      -9.121   8.129  71.885  1.00  0.00    -0.171 A  
HETATM   16  C   UNL     1     -13.128   9.987  71.450  1.00  0.00    -0.417 A  
HETATM   17  C   UNL     1      -9.946   7.140  72.661  1.00  0.00    -0.208 A  
HETATM   18  N   UNL     1     -13.102   8.868  72.165  1.00  0.00    -0.391 NA 
HETATM   19  C   UNL     1     -11.255   7.387  72.760  1.00  0.00    -0.332 A  
HETATM   20  N   UNL     1     -11.794   8.507  72.154  1.00  0.00    -0.358 NA 
BRANCH  15  21
HETATM   21  N   UNL     1      -7.785   7.824  71.767  1.00  0.00    -0.085 NA 
HETATM   22  C   UNL     1      -5.723   6.766  71.285  1.00  0.00    -0.028 C  
HETATM   23  C   UNL     1      -6.743   8.825  71.882  1.00  0.00    -0.051 C  
HETATM   24  C   UNL     1      -7.221   6.488  71.572  1.00  0.00    -0.082 C  
HETATM   25  C   UNL     1      -5.645   8.264  71.000  1.00  0.00    -0.033 C  
BRANCH  24  26
HETATM   26  C   UNL     1      -7.993   5.727  70.513  1.00  0.00    -0.105 A  
HETATM   27  C   UNL     1      -8.153   6.155  69.190  1.00  0.00    -0.109 A  
HETATM   28  C   UNL     1      -8.960   5.457  68.288  1.00  0.00    -0.112 A  
HETATM   29  F   UNL     1      -7.550   7.268  68.749  1.00  0.00    -0.093 F  
HETATM   30  C   UNL     1      -9.638   4.312  68.701  1.00  0.00    -0.210 A  
HETATM   31  C   UNL     1      -9.483   3.869  70.007  1.00  0.00    -0.192 A  
HETATM   32  C   UNL     1      -8.672   4.557  70.905  1.00  0.00    -0.131 A  
HETATM   33  F   UNL     1     -10.136   2.772  70.413  1.00  0.00    -0.090 F  
ENDBRANCH  24  26
ENDBRANCH  15  21
ENDBRANCH  10  12
ENDBRANCH   8  10
ENDBRANCH   6   8
TORSDOF 5
ENDMDL
MODEL      192
REMARK 921   NORMALIZED FREE ENERGY PREDICTED BY IDOCK:   -4.81 KCAL/MOL
REMARK 922        TOTAL FREE ENERGY PREDICTED BY IDOCK:   -7.95 KCAL/MOL
REMARK 923 INTER-LIGAND FREE ENERGY PREDICTED BY IDOCK:   -6.18 KCAL/MOL
REMARK 924 INTRA-LIGAND FREE ENERGY PREDICTED BY IDOCK:   -1.77 KCAL/MOL
REMARK 927      BINDING AFFINITY PREDICTED BY RF-SCORE:    0.00 PKD
ROOT
HETATM    1  O   UNL     1     -10.490   5.540  65.781  1.00  0.00    -0.435 OA 
HETATM    2  H   UNL     1     -11.236   5.976  65.387  1.00  0.00     0.000 HD 
HETATM    3  C   UNL     1     -10.732   5.242  67.146  1.00  0.00    -0.058 C  
HETATM    4  C   UNL     1      -9.534   4.542  67.779  1.00  0.00    -0.196 C  
HETATM    5  C   UNL     1      -9.722   4.827  69.253  1.00  0.00    -0.196 C  
HETATM    6  N   UNL     1     -10.320   6.150  69.298  1.00  0.00    -0.199 N  
HETATM    7  C   UNL     1     -10.889   6.505  68.002  1.00  0.00    -0.295 C  
ENDROOT
BRANCH   6   8
HETATM    8  C   UNL     1     -10.315   6.854  70.491  1.00  0.00    -0.204 C  
HETATM    9  O   UNL     1      -9.257   7.044  71.081  1.00  0.00    -0.157 OA 
BRANCH   8  10
HETATM   10  N   UNL     1     -11.562   7.246  70.918  1.00  0.00    -0.291 N  
HETATM   11  H   UNL     1     -12.238   6.506  71.105  1.00  0.00     0.000 HD 
BRANCH  10  12
HETATM   12  C   UNL     1     -11.991   8.554  71.118  1.00  0.00    -0.272 A  
HETATM   13  C   UNL     1     -11.862   9.695  70.339  1.00  0.00    -0.155 A  
HETATM   14  N   UNL     1     -11.305   9.961  69.108  1.00  0.00    -0.105 NA 
HETATM   15  C   UNL     1     -11.274  11.205  68.697  1.00  0.00    -0.255 A  
HETATM   16  C   UNL     1     -12.717   8.977  72.254  1.00  0.00    -0.387 A  
HETATM   17  C   UNL     1     -11.918  12.330  69.457  1.00  0.00    -0.333 A  
HETATM   18  N   UNL     1     -13.000  10.275  72.250  1.00  0.00    -0.307 NA 
HETATM   19  C   UNL     1     -12.493  12.023  70.623  1.00  0.00    -0.247 A  
HETATM   20  N   UNL     1     -12.469  10.720  71.084  1.00  0.00    -0.389 NA 
BRANCH  15  21
HETATM   21  N   UNL     1     -10.656  11.561  67.521  1.00  0.00    -0.198 NA 
HETATM   22  C   UNL     1      -9.069  11.953  65.807  1.00  0.00    -0.041 C  
HETATM   23  C   UNL     1     -11.388  11.776  66.288  1.00  0.00    -0.287 C  
HETATM   24  C   UNL     1      -9.227  11.825  67.344  1.00  0.00    -0.174 C  
HETATM   25  C   UNL     1     -10.370  11.402  65.228  1.00  0.00    -0.336 C  
BRANCH  24  26
HETATM   26  C   UNL     1      -8.395  10.762  68.034  1.00  0.00    -0.120 A  
HETATM   27  C   UNL     1      -7.476  11.018  69.057  1.00  0.00    -0.129 A  
HETATM   28  C   UNL     1      -6.667  10.007  69.584  1.00  0.00    -0.068 A  
HETATM   29  F   UNL     1      -7.325  12.253  69.555  1.00  0.00     0.023 F  
HETATM   30  C   UNL     1      -6.758   8.710  69.083  1.00  0.00    -0.047 A  
HETATM   31  C   UNL     1      -7.671   8.438  68.073  1.00  0.00    -0.103 A  
HETATM   32  C   UNL     1      -8.483   9.440  67.554  1.00  0.00    -0.122 A  
HETATM   33  F   UNL     1      -7.759   7.195  67.582  1.00  0.00    -0.101 F  
ENDBRANCH  24  26
ENDBRANCH  15  21
ENDBRANCH  10  12
ENDBRANCH   8  10
ENDBRANCH   6   8
TORSDOF 5
ENDMDL
MODEL      193
REMARK 921   NORMALIZED FREE ENERGY PREDICTED BY IDOCK:   -4.78 KCAL/MOL
REMARK 922        TOTAL FREE ENERGY PREDICTED BY IDOCK:   -7.91 KCAL/MOL
REMARK 923 INTER-LIGAND FREE ENERGY PREDICTED BY IDOCK:   -6.98 KCAL/MOL
REMARK 924 INTRA-LIGAND FREE ENERGY PREDICTED BY IDOCK:   -0.92 KCAL/MOL
REMARK 927      BINDING AFFINITY PREDICTED BY RF-SCORE:    0.00 PKD
ROOT
HETATM    1  O   UNL     1      -6.629   8.456  63.412  1.00  0.00    -0.084 OA 
HETATM    2  H   UNL     1      -7.107   7.730  63.027  1.00  0.00     0.000 HD 
HETATM    3  C   UNL     1      -7.087   8.734  64.724  1.00  0.00    -0.077 C  
HETATM    4  C   UNL     1      -6.321   9.899  65.340  1.00  0.00    -0.089 C  
HETATM    5  C   UNL     1      -7.272  10.399  66.406  1.00  0.00    -0.119 C  
HETATM    6  N   UNL     1      -8.596  10.179  65.848  1.00  0.00    -0.142 N  
HETATM    7  C   UNL     1      -8.541   9.223  64.745  1.00  0.00    -0.184 C  
ENDROOT
BRANCH   6   8
HETATM    8  C   UNL     1      -9.683  10.827  66.411  1.00  0.00    -0.199 C  
HETATM    9  O   UNL     1     -10.640  11.131  65.708  1.00  0.00    -0.259 OA 
BRANCH   8  10
HETATM   10  N   UNL     1      -9.542  11.101  67.750  1.00  0.00    -0.169 N  
HETATM   11  H   UNL     1      -8.589  11.156  68.111  1.00  0.00     0.000 HD 
BRANCH  10  12
HETATM   12  C   UNL     1     -10.571  11.312  68.661  1.00  0.00    -0.202 A  
HETATM   13  C   UNL     1     -11.005  10.567  69.750  1.00  0.00    -0.294 A  
HETATM   14  N   UNL     1     -10.589   9.395  70.339  1.00  0.00    -0.240 NA 
HETATM   15  C   UNL     1     -11.301   8.910  71.326  1.00  0.00    -0.300 A  
HETATM   16  C   UNL     1     -11.422  12.440  68.639  1.00  0.00    -0.303 A  
HETATM   17  C   UNL     1     -12.481   9.634  71.912  1.00  0.00    -0.459 A  
HETATM   18  N   UNL     1     -12.352  12.423  69.586  1.00  0.00    -0.066 NA 
HETATM   19  C   UNL     1     -12.823  10.794  71.344  1.00  0.00    -0.452 A  
HETATM   20  N   UNL     1     -12.107  11.272  70.262  1.00  0.00    -0.349 NA 
BRANCH  15  21
HETATM   21  N   UNL     1     -11.001   7.699  71.907  1.00  0.00    -0.234 NA 
HETATM   22  C   UNL     1     -10.401   5.441  72.290  1.00  0.00    -0.260 C  
HETATM   23  C   UNL     1     -10.649   7.572  73.308  1.00  0.00    -0.384 C  
HETATM   24  C   UNL     1     -11.041   6.394  71.247  1.00  0.00    -0.282 C  
HETATM   25  C   UNL     1      -9.737   6.361  73.312  1.00  0.00    -0.174 C  
BRANCH  24  26
HETATM   26  C   UNL     1     -10.384   6.460  69.883  1.00  0.00    -0.242 A  
HETATM   27  C   UNL     1      -9.026   6.722  69.671  1.00  0.00    -0.143 A  
HETATM   28  C   UNL     1      -8.502   6.868  68.384  1.00  0.00    -0.123 A  
HETATM   29  F   UNL     1      -8.183   6.863  70.703  1.00  0.00    -0.112 F  
HETATM   30  C   UNL     1      -9.338   6.764  67.275  1.00  0.00    -0.148 A  
HETATM   31  C   UNL     1     -10.686   6.497  67.467  1.00  0.00    -0.321 A  
HETATM   32  C   UNL     1     -11.209   6.341  68.747  1.00  0.00    -0.357 A  
HETATM   33  F   UNL     1     -11.497   6.402  66.406  1.00  0.00    -0.218 F  
ENDBRANCH  24  26
ENDBRANCH  15  21
ENDBRANCH  10  12
ENDBRANCH   8  10
ENDBRANCH   6   8
TORSDOF 5
ENDMDL
MODEL      194
REMARK 921   NORMALIZED FREE ENERGY PREDICTED BY IDOCK:   -4.75 KCAL/MOL
REMARK 922        TOTAL FREE ENERGY PREDICTED BY IDOCK:   -7.87 KCAL/MOL
REMARK 923 INTER-LIGAND FREE ENERGY PREDICTED BY IDOCK:   -6.60 KCAL/MOL
REMARK 924 INTRA-LIGAND FREE ENERGY PREDICTED BY IDOCK:   -1.27 KCAL/MOL
REMARK 927      BINDING AFFINITY PREDICTED BY RF-SCORE:    0.00 PKD
ROOT
HETATM    1  O   UNL     1      -9.683  19.507  68.906  1.00  0.00    -0.412 OA 
HETATM    2  H   UNL     1     -10.458  19.314  69.419  1.00  0.00     0.000 HD 
HETATM    3  C   UNL     1      -9.454  18.506  67.928  1.00  0.00    -0.296 C  
HETATM    4  C   UNL     1      -8.209  18.814  67.104  1.00  0.00    -0.275 C  
HETATM    5  C   UNL     1      -7.816  17.453  66.571  1.00  0.00    -0.285 C  
HETATM    6  N   UNL     1      -8.184  16.525  67.626  1.00  0.00    -0.156 N  
HETATM    7  C   UNL     1      -9.131  17.142  68.551  1.00  0.00    -0.265 C  
ENDROOT
BRANCH   6   8
HETATM    8  C   UNL     1      -7.660  15.243  67.612  1.00  0.00    -0.172 C  
HETATM    9  O   UNL     1      -6.488  15.068  67.299  1.00  0.00    -0.305 OA 
BRANCH   8  10
HETATM   10  N   UNL     1      -8.569  14.262  67.930  1.00  0.00    -0.161 N  
HETATM   11  H   UNL     1      -8.487  13.839  68.854  1.00  0.00     0.000 HD 
BRANCH  10  12
HETATM   12  C   UNL     1      -9.591  13.789  67.112  1.00  0.00    -0.244 A  
HETATM   13  C   UNL     1      -9.682  12.658  66.313  1.00  0.00    -0.259 A  
HETATM   14  N   UNL     1      -8.845  11.598  66.048  1.00  0.00    -0.155 NA 
HETATM   15  C   UNL     1      -9.217  10.724  65.145  1.00  0.00    -0.209 A  
HETATM   16  C   UNL     1     -10.836  14.438  66.957  1.00  0.00    -0.297 A  
HETATM   17  C   UNL     1     -10.562  10.769  64.474  1.00  0.00    -0.258 A  
HETATM   18  N   UNL     1     -11.652  13.826  66.107  1.00  0.00    -0.339 NA 
HETATM   19  C   UNL     1     -11.367  11.785  64.796  1.00  0.00    -0.249 A  
HETATM   20  N   UNL     1     -10.945  12.741  65.702  1.00  0.00    -0.269 NA 
BRANCH  15  21
HETATM   21  N   UNL     1      -8.397   9.688  64.761  1.00  0.00    -0.141 NA 
HETATM   22  C   UNL     1      -7.124   7.693  64.697  1.00  0.00    -0.065 C  
HETATM   23  C   UNL     1      -8.082   9.417  63.373  1.00  0.00    -0.153 C  
HETATM   24  C   UNL     1      -7.697   8.767  65.657  1.00  0.00    -0.091 C  
HETATM   25  C   UNL     1      -7.850   7.918  63.372  1.00  0.00    -0.139 C  
BRANCH  24  26
HETATM   26  C   UNL     1      -8.619   8.282  66.758  1.00  0.00    -0.131 A  
HETATM   27  C   UNL     1      -8.493   8.630  68.107  1.00  0.00    -0.131 A  
HETATM   28  C   UNL     1      -9.317   8.070  69.087  1.00  0.00    -0.151 A  
HETATM   29  F   UNL     1      -7.558   9.503  68.508  1.00  0.00    -0.078 F  
HETATM   30  C   UNL     1     -10.284   7.133  68.732  1.00  0.00    -0.184 A  
HETATM   31  C   UNL     1     -10.428   6.782  67.397  1.00  0.00    -0.262 A  
HETATM   32  C   UNL     1      -9.617   7.346  66.418  1.00  0.00    -0.181 A  
HETATM   33  F   UNL     1     -11.353   5.877  67.049  1.00  0.00    -0.288 F  
ENDBRANCH  24  26
ENDBRANCH  15  21
ENDBRANCH  10  12
ENDBRANCH   8  10
ENDBRANCH   6   8
TORSDOF 5
ENDMDL
MODEL      195
REMARK 921   NORMALIZED FREE ENERGY PREDICTED BY IDOCK:   -4.75 KCAL/MOL
REMARK 922        TOTAL FREE ENERGY PREDICTED BY IDOCK:   -7.87 KCAL/MOL
REMARK 923 INTER-LIGAND FREE ENERGY PREDICTED BY IDOCK:   -5.96 KCAL/MOL
REMARK 924 INTRA-LIGAND FREE ENERGY PREDICTED BY IDOCK:   -1.91 KCAL/MOL
REMARK 927      BINDING AFFINITY PREDICTED BY RF-SCORE:    0.00 PKD
ROOT
HETATM    1  O   UNL     1      -9.210   4.446  73.098  1.00  0.00    -0.117 OA 
HETATM    2  H   UNL     1      -9.751   3.726  73.402  1.00  0.00     0.000 HD 
HETATM    3  C   UNL     1      -9.777   5.697  73.446  1.00  0.00    -0.148 C  
HETATM    4  C   UNL     1      -8.910   6.852  72.956  1.00  0.00    -0.144 C  
HETATM    5  C   UNL     1      -9.891   8.002  72.888  1.00  0.00    -0.287 C  
HETATM    6  N   UNL     1     -11.151   7.387  72.505  1.00  0.00    -0.282 N  
HETATM    7  C   UNL     1     -11.118   5.947  72.744  1.00  0.00    -0.281 C  
ENDROOT
BRANCH   6   8
HETATM    8  C   UNL     1     -12.176   8.188  72.027  1.00  0.00    -0.339 C  
HETATM    9  O   UNL     1     -13.291   7.709  71.856  1.00  0.00    -0.308 OA 
BRANCH   8  10
HETATM   10  N   UNL     1     -11.797   9.480  71.752  1.00  0.00    -0.385 N  
HETATM   11  H   UNL     1     -11.639  10.094  72.551  1.00  0.00     0.000 HD 
BRANCH  10  12
HETATM   12  C   UNL     1     -11.610  10.032  70.489  1.00  0.00    -0.323 A  
HETATM   13  C   UNL     1     -10.597   9.870  69.554  1.00  0.00    -0.242 A  
HETATM   14  N   UNL     1      -9.447   9.116  69.504  1.00  0.00    -0.162 NA 
HETATM   15  C   UNL     1      -8.644   9.275  68.480  1.00  0.00    -0.128 A  
HETATM   16  C   UNL     1     -12.519  10.927  69.880  1.00  0.00    -0.224 A  
HETATM   17  C   UNL     1      -8.981  10.159  67.312  1.00  0.00    -0.144 A  
HETATM   18  N   UNL     1     -12.127  11.350  68.684  1.00  0.00    -0.542 NA 
HETATM   19  C   UNL     1     -10.131  10.836  67.375  1.00  0.00    -0.193 A  
HETATM   20  N   UNL     1     -10.945  10.713  68.486  1.00  0.00    -0.229 NA 
BRANCH  15  21
HETATM   21  N   UNL     1      -7.435   8.624  68.402  1.00  0.00    -0.093 NA 
HETATM   22  C   UNL     1      -5.737   6.989  68.176  1.00  0.00    -0.021 C  
HETATM   23  C   UNL     1      -6.188   9.321  68.156  1.00  0.00    -0.053 C  
HETATM   24  C   UNL     1      -7.215   7.191  68.601  1.00  0.00    -0.094 C  
HETATM   25  C   UNL     1      -5.358   8.273  67.441  1.00  0.00    -0.034 C  
BRANCH  24  26
HETATM   26  C   UNL     1      -8.259   6.378  67.862  1.00  0.00    -0.115 A  
HETATM   27  C   UNL     1      -9.292   5.667  68.482  1.00  0.00    -0.123 A  
HETATM   28  C   UNL     1     -10.164   4.856  67.749  1.00  0.00    -0.120 A  
HETATM   29  F   UNL     1      -9.468   5.724  69.809  1.00  0.00    -0.145 F  
HETATM   30  C   UNL     1     -10.009   4.734  66.371  1.00  0.00    -0.264 A  
HETATM   31  C   UNL     1      -8.994   5.439  65.739  1.00  0.00    -0.158 A  
HETATM   32  C   UNL     1      -8.131   6.254  66.464  1.00  0.00    -0.110 A  
HETATM   33  F   UNL     1      -8.835   5.321  64.414  1.00  0.00    -0.149 F  
ENDBRANCH  24  26
ENDBRANCH  15  21
ENDBRANCH  10  12
ENDBRANCH   8  10
ENDBRANCH   6   8
TORSDOF 5
ENDMDL
MODEL      196
REMARK 921   NORMALIZED FREE ENERGY PREDICTED BY IDOCK:   -4.74 KCAL/MOL
REMARK 922        TOTAL FREE ENERGY PREDICTED BY IDOCK:   -7.86 KCAL/MOL
REMARK 923 INTER-LIGAND FREE ENERGY PREDICTED BY IDOCK:   -6.49 KCAL/MOL
REMARK 924 INTRA-LIGAND FREE ENERGY PREDICTED BY IDOCK:   -1.37 KCAL/MOL
REMARK 927      BINDING AFFINITY PREDICTED BY RF-SCORE:    0.00 PKD
ROOT
HETATM    1  O   UNL     1      -8.273   3.866  73.571  1.00  0.00    -0.087 OA 
HETATM    2  H   UNL     1      -8.618   2.982  73.517  1.00  0.00     0.000 HD 
HETATM    3  C   UNL     1      -9.283   4.790  73.939  1.00  0.00    -0.114 C  
HETATM    4  C   UNL     1      -8.729   6.208  74.025  1.00  0.00    -0.121 C  
HETATM    5  C   UNL     1      -9.966   7.061  73.846  1.00  0.00    -0.332 C  
HETATM    6  N   UNL     1     -10.804   6.306  72.930  1.00  0.00    -0.245 N  
HETATM    7  C   UNL     1     -10.382   4.909  72.875  1.00  0.00    -0.188 C  
ENDROOT
BRANCH   6   8
HETATM    8  C   UNL     1     -11.854   6.944  72.292  1.00  0.00    -0.235 C  
HETATM    9  O   UNL     1     -12.447   6.377  71.381  1.00  0.00    -0.217 OA 
BRANCH   8  10
HETATM   10  N   UNL     1     -12.100   8.217  72.750  1.00  0.00    -0.602 N  
HETATM   11  H   UNL     1     -12.184   8.335  73.759  1.00  0.00     0.000 HD 
BRANCH  10  12
HETATM   12  C   UNL     1     -12.245   9.359  71.970  1.00  0.00    -0.326 A  
HETATM   13  C   UNL     1     -11.467   9.881  70.947  1.00  0.00    -0.376 A  
HETATM   14  N   UNL     1     -10.311   9.478  70.316  1.00  0.00    -0.248 NA 
HETATM   15  C   UNL     1      -9.778  10.278  69.426  1.00  0.00    -0.222 A  
HETATM   16  C   UNL     1     -13.327  10.260  72.091  1.00  0.00    -0.299 A  
HETATM   17  C   UNL     1     -10.433  11.558  68.986  1.00  0.00    -0.175 A  
HETATM   18  N   UNL     1     -13.250  11.297  71.264  1.00  0.00    -0.196 NA 
HETATM   19  C   UNL     1     -11.580  11.890  69.585  1.00  0.00    -0.317 A  
HETATM   20  N   UNL     1     -12.106  11.074  70.569  1.00  0.00    -0.348 NA 
BRANCH  15  21
HETATM   21  N   UNL     1      -8.579   9.986  68.819  1.00  0.00    -0.125 NA 
HETATM   22  C   UNL     1      -6.709   8.876  67.882  1.00  0.00    -0.069 C  
HETATM   23  C   UNL     1      -7.861  10.949  68.007  1.00  0.00    -0.107 C  
HETATM   24  C   UNL     1      -7.839   8.728  68.934  1.00  0.00    -0.104 C  
HETATM   25  C   UNL     1      -7.123  10.066  67.020  1.00  0.00    -0.089 C  
BRANCH  24  26
HETATM   26  C   UNL     1      -8.769   7.541  68.782  1.00  0.00    -0.128 A  
HETATM   27  C   UNL     1      -8.887   6.505  69.714  1.00  0.00    -0.143 A  
HETATM   28  C   UNL     1      -9.690   5.388  69.467  1.00  0.00    -0.238 A  
HETATM   29  F   UNL     1      -8.214   6.540  70.872  1.00  0.00    -0.116 F  
HETATM   30  C   UNL     1     -10.388   5.282  68.266  1.00  0.00    -0.181 A  
HETATM   31  C   UNL     1     -10.288   6.306  67.334  1.00  0.00    -0.211 A  
HETATM   32  C   UNL     1      -9.497   7.423  67.581  1.00  0.00    -0.156 A  
HETATM   33  F   UNL     1     -10.951   6.208  66.175  1.00  0.00    -0.172 F  
ENDBRANCH  24  26
ENDBRANCH  15  21
ENDBRANCH  10  12
ENDBRANCH   8  10
ENDBRANCH   6   8
TORSDOF 5
ENDMDL
MODEL      197
REMARK 921   NORMALIZED FREE ENERGY PREDICTED BY IDOCK:   -4.74 KCAL/MOL
REMARK 922        TOTAL FREE ENERGY PREDICTED BY IDOCK:   -7.86 KCAL/MOL
REMARK 923 INTER-LIGAND FREE ENERGY PREDICTED BY IDOCK:   -7.40 KCAL/MOL
REMARK 924 INTRA-LIGAND FREE ENERGY PREDICTED BY IDOCK:   -0.45 KCAL/MOL
REMARK 927      BINDING AFFINITY PREDICTED BY RF-SCORE:    0.00 PKD
ROOT
HETATM    1  O   UNL     1     -12.453  13.677  63.186  1.00  0.00    -1.033 OA 
HETATM    2  H   UNL     1     -11.812  13.450  62.522  1.00  0.00     0.000 HD 
HETATM    3  C   UNL     1     -11.854  13.768  64.467  1.00  0.00    -0.417 C  
HETATM    4  C   UNL     1     -12.882  14.132  65.533  1.00  0.00    -0.404 C  
HETATM    5  C   UNL     1     -12.236  13.629  66.806  1.00  0.00    -0.369 C  
HETATM    6  N   UNL     1     -11.506  12.439  66.402  1.00  0.00    -0.352 N  
HETATM    7  C   UNL     1     -11.309  12.419  64.955  1.00  0.00    -0.320 C  
ENDROOT
BRANCH   6   8
HETATM    8  C   UNL     1     -11.078  11.547  67.371  1.00  0.00    -0.282 C  
HETATM    9  O   UNL     1     -10.597  10.470  67.036  1.00  0.00    -0.240 OA 
BRANCH   8  10
HETATM   10  N   UNL     1     -11.288  11.974  68.660  1.00  0.00    -0.251 N  
HETATM   11  H   UNL     1     -11.222  12.978  68.829  1.00  0.00     0.000 HD 
BRANCH  10  12
HETATM   12  C   UNL     1     -11.582  11.171  69.757  1.00  0.00    -0.334 A  
HETATM   13  C   UNL     1     -10.855  10.171  70.387  1.00  0.00    -0.301 A  
HETATM   14  N   UNL     1      -9.606   9.624  70.196  1.00  0.00    -0.243 NA 
HETATM   15  C   UNL     1      -9.257   8.599  70.934  1.00  0.00    -0.190 A  
HETATM   16  C   UNL     1     -12.782  11.260  70.497  1.00  0.00    -0.174 A  
HETATM   17  C   UNL     1     -10.114   8.072  72.052  1.00  0.00    -0.280 A  
HETATM   18  N   UNL     1     -12.863  10.379  71.488  1.00  0.00    -0.426 NA 
HETATM   19  C   UNL     1     -11.297   8.663  72.240  1.00  0.00    -0.340 A  
HETATM   20  N   UNL     1     -11.689   9.703  71.417  1.00  0.00    -0.380 NA 
BRANCH  15  21
HETATM   21  N   UNL     1      -8.063   7.943  70.742  1.00  0.00    -0.099 NA 
HETATM   22  C   UNL     1      -5.901   7.312  70.013  1.00  0.00    -0.024 C  
HETATM   23  C   UNL     1      -7.566   6.943  71.666  1.00  0.00    -0.090 C  
HETATM   24  C   UNL     1      -7.168   8.102  69.595  1.00  0.00    -0.065 C  
HETATM   25  C   UNL     1      -6.062   7.067  71.511  1.00  0.00    -0.037 C  
BRANCH  24  26
HETATM   26  C   UNL     1      -6.984   9.568  69.256  1.00  0.00    -0.050 A  
HETATM   27  C   UNL     1      -7.359  10.152  68.042  1.00  0.00    -0.086 A  
HETATM   28  C   UNL     1      -7.071  11.489  67.753  1.00  0.00    -0.079 A  
HETATM   29  F   UNL     1      -7.992   9.438  67.101  1.00  0.00    -0.100 F  
HETATM   30  C   UNL     1      -6.385  12.270  68.681  1.00  0.00    -0.071 A  
HETATM   31  C   UNL     1      -6.013  11.708  69.894  1.00  0.00    -0.137 A  
HETATM   32  C   UNL     1      -6.307  10.380  70.188  1.00  0.00    -0.123 A  
HETATM   33  F   UNL     1      -5.349  12.451  70.789  1.00  0.00    -0.107 F  
ENDBRANCH  24  26
ENDBRANCH  15  21
ENDBRANCH  10  12
ENDBRANCH   8  10
ENDBRANCH   6   8
TORSDOF 5
ENDMDL
MODEL      198
REMARK 921   NORMALIZED FREE ENERGY PREDICTED BY IDOCK:   -4.74 KCAL/MOL
REMARK 922        TOTAL FREE ENERGY PREDICTED BY IDOCK:   -7.85 KCAL/MOL
REMARK 923 INTER-LIGAND FREE ENERGY PREDICTED BY IDOCK:   -6.98 KCAL/MOL
REMARK 924 INTRA-LIGAND FREE ENERGY PREDICTED BY IDOCK:   -0.87 KCAL/MOL
REMARK 927      BINDING AFFINITY PREDICTED BY RF-SCORE:    0.00 PKD
ROOT
HETATM    1  O   UNL     1     -10.075   4.970  64.903  1.00  0.00    -0.368 OA 
HETATM    2  H   UNL     1     -10.808   5.437  64.518  1.00  0.00     0.000 HD 
HETATM    3  C   UNL     1     -10.382   4.525  66.213  1.00  0.00    -0.191 C  
HETATM    4  C   UNL     1      -9.206   3.777  66.831  1.00  0.00    -0.198 C  
HETATM    5  C   UNL     1      -9.475   3.900  68.315  1.00  0.00    -0.151 C  
HETATM    6  N   UNL     1     -10.098   5.203  68.469  1.00  0.00    -0.164 N  
HETATM    7  C   UNL     1     -10.606   5.688  67.188  1.00  0.00    -0.270 C  
ENDROOT
BRANCH   6   8
HETATM    8  C   UNL     1     -10.167   5.776  69.728  1.00  0.00    -0.236 C  
HETATM    9  O   UNL     1      -9.148   5.896  70.398  1.00  0.00    -0.144 OA 
BRANCH   8  10
HETATM   10  N   UNL     1     -11.439   6.127  70.116  1.00  0.00    -0.368 N  
HETATM   11  H   UNL     1     -12.113   5.370  70.223  1.00  0.00     0.000 HD 
BRANCH  10  12
HETATM   12  C   UNL     1     -11.894   7.415  70.378  1.00  0.00    -0.083 A  
HETATM   13  C   UNL     1     -11.380   8.660  70.042  1.00  0.00    -0.017 A  
HETATM   14  N   UNL     1     -10.281   9.086  69.331  1.00  0.00    -0.198 NA 
HETATM   15  C   UNL     1     -10.033  10.372  69.282  1.00  0.00    -0.228 A  
HETATM   16  C   UNL     1     -13.084   7.699  71.085  1.00  0.00    -0.151 A  
HETATM   17  C   UNL     1     -10.957  11.401  69.872  1.00  0.00    -0.030 A  
HETATM   18  N   UNL     1     -13.312   8.998  71.242  1.00  0.00    -0.262 NA 
HETATM   19  C   UNL     1     -12.040  10.950  70.510  1.00  0.00    -0.371 A  
HETATM   20  N   UNL     1     -12.264   9.589  70.614  1.00  0.00    -0.185 NA 
BRANCH  15  21
HETATM   21  N   UNL     1      -8.907  10.868  68.668  1.00  0.00    -0.153 NA 
HETATM   22  C   UNL     1      -7.409  11.993  67.220  1.00  0.00    -0.151 C  
HETATM   23  C   UNL     1      -7.615  10.908  69.322  1.00  0.00    -0.113 C  
HETATM   24  C   UNL     1      -8.824  11.363  67.293  1.00  0.00    -0.153 C  
HETATM   25  C   UNL     1      -6.950  12.106  68.671  1.00  0.00    -0.097 C  
BRANCH  24  26
HETATM   26  C   UNL     1      -9.997  12.268  66.975  1.00  0.00    -0.220 A  
HETATM   27  C   UNL     1     -10.280  13.461  67.649  1.00  0.00    -0.228 A  
HETATM   28  C   UNL     1     -11.434  14.201  67.373  1.00  0.00    -0.369 A  
HETATM   29  F   UNL     1      -9.460  13.925  68.601  1.00  0.00    -0.205 F  
HETATM   30  C   UNL     1     -12.339  13.749  66.416  1.00  0.00    -0.460 A  
HETATM   31  C   UNL     1     -12.068  12.571  65.732  1.00  0.00    -0.378 A  
HETATM   32  C   UNL     1     -10.916  11.838  65.997  1.00  0.00    -0.355 A  
HETATM   33  F   UNL     1     -12.937  12.128  64.814  1.00  0.00    -0.481 F  
ENDBRANCH  24  26
ENDBRANCH  15  21
ENDBRANCH  10  12
ENDBRANCH   8  10
ENDBRANCH   6   8
TORSDOF 5
ENDMDL
MODEL      199
REMARK 921   NORMALIZED FREE ENERGY PREDICTED BY IDOCK:   -4.72 KCAL/MOL
REMARK 922        TOTAL FREE ENERGY PREDICTED BY IDOCK:   -7.83 KCAL/MOL
REMARK 923 INTER-LIGAND FREE ENERGY PREDICTED BY IDOCK:   -6.70 KCAL/MOL
REMARK 924 INTRA-LIGAND FREE ENERGY PREDICTED BY IDOCK:   -1.13 KCAL/MOL
REMARK 927      BINDING AFFINITY PREDICTED BY RF-SCORE:    0.00 PKD
ROOT
HETATM    1  O   UNL     1      -9.112   9.207  62.950  1.00  0.00    -0.426 OA 
HETATM    2  H   UNL     1      -8.226   8.863  62.921  1.00  0.00     0.000 HD 
HETATM    3  C   UNL     1      -9.242  10.206  63.947  1.00  0.00    -0.280 C  
HETATM    4  C   UNL     1     -10.662  10.757  63.994  1.00  0.00    -0.043 C  
HETATM    5  C   UNL     1     -10.756  11.320  65.396  1.00  0.00    -0.227 C  
HETATM    6  N   UNL     1      -9.938  10.432  66.204  1.00  0.00    -0.221 N  
HETATM    7  C   UNL     1      -9.037   9.650  65.362  1.00  0.00    -0.215 C  
ENDROOT
BRANCH   6   8
HETATM    8  C   UNL     1     -10.072  10.457  67.582  1.00  0.00    -0.188 C  
HETATM    9  O   UNL     1      -9.140  10.091  68.290  1.00  0.00    -0.121 OA 
BRANCH   8  10
HETATM   10  N   UNL     1     -11.307  10.873  68.019  1.00  0.00    -0.310 N  
HETATM   11  H   UNL     1     -12.116  10.366  67.662  1.00  0.00     0.000 HD 
BRANCH  10  12
HETATM   12  C   UNL     1     -11.559  11.918  68.901  1.00  0.00    -0.311 A  
HETATM   13  C   UNL     1     -10.953  13.157  69.059  1.00  0.00    -0.197 A  
HETATM   14  N   UNL     1      -9.927  13.814  68.419  1.00  0.00    -0.228 NA 
HETATM   15  C   UNL     1      -9.536  14.969  68.897  1.00  0.00    -0.211 A  
HETATM   16  C   UNL     1     -12.589  11.898  69.869  1.00  0.00     0.146 A  
HETATM   17  C   UNL     1     -10.231  15.655  70.040  1.00  0.00    -0.277 A  
HETATM   18  N   UNL     1     -12.632  12.991  70.622  1.00  0.00    -0.243 NA 
HETATM   19  C   UNL     1     -11.255  15.008  70.603  1.00  0.00    -0.242 A  
HETATM   20  N   UNL     1     -11.625  13.760  70.136  1.00  0.00    -0.210 NA 
BRANCH  15  21
HETATM   21  N   UNL     1      -8.461  15.644  68.366  1.00  0.00    -0.159 NA 
HETATM   22  C   UNL     1      -6.954  16.744  66.909  1.00  0.00    -0.257 C  
HETATM   23  C   UNL     1      -7.526  16.390  69.186  1.00  0.00    -0.228 C  
HETATM   24  C   UNL     1      -8.072  15.670  66.956  1.00  0.00    -0.241 C  
HETATM   25  C   UNL     1      -7.054  17.479  68.243  1.00  0.00    -0.210 C  
BRANCH  24  26
HETATM   26  C   UNL     1      -9.279  15.896  66.069  1.00  0.00    -0.372 A  
HETATM   27  C   UNL     1      -9.975  17.106  65.973  1.00  0.00    -0.253 A  
HETATM   28  C   UNL     1     -11.142  17.221  65.211  1.00  0.00     0.243 A  
HETATM   29  F   UNL     1      -9.555  18.196  66.629  1.00  0.00    -0.265 F  
HETATM   30  C   UNL     1     -11.643  16.112  64.534  1.00  0.00    -0.164 A  
HETATM   31  C   UNL     1     -10.960  14.906  64.612  1.00  0.00    -0.306 A  
HETATM   32  C   UNL     1      -9.794  14.791  65.361  1.00  0.00    -0.295 A  
HETATM   33  F   UNL     1     -11.440  13.834  63.967  1.00  0.00    -0.388 F  
ENDBRANCH  24  26
ENDBRANCH  15  21
ENDBRANCH  10  12
ENDBRANCH   8  10
ENDBRANCH   6   8
TORSDOF 5
ENDMDL
MODEL      200
REMARK 921   NORMALIZED FREE ENERGY PREDICTED BY IDOCK:   -4.72 KCAL/MOL
REMARK 922        TOTAL FREE ENERGY PREDICTED BY IDOCK:   -7.83 KCAL/MOL
REMARK 923 INTER-LIGAND FREE ENERGY PREDICTED BY IDOCK:   -6.67 KCAL/MOL
REMARK 924 INTRA-LIGAND FREE ENERGY PREDICTED BY IDOCK:   -1.16 KCAL/MOL
REMARK 927      BINDING AFFINITY PREDICTED BY RF-SCORE:    0.00 PKD
ROOT
HETATM    1  O   UNL     1     -12.271  11.843  63.825  1.00  0.00    -0.458 OA 
HETATM    2  H   UNL     1     -11.863  11.033  63.542  1.00  0.00     0.000 HD 
HETATM    3  C   UNL     1     -11.301  12.846  64.075  1.00  0.00    -0.415 C  
HETATM    4  C   UNL     1     -11.956  14.145  64.530  1.00  0.00    -0.476 C  
HETATM    5  C   UNL     1     -10.835  14.844  65.269  1.00  0.00    -0.386 C  
HETATM    6  N   UNL     1     -10.076  13.769  65.886  1.00  0.00    -0.307 N  
HETATM    7  C   UNL     1     -10.381  12.490  65.251  1.00  0.00    -0.287 C  
ENDROOT
BRANCH   6   8
HETATM    8  C   UNL     1      -9.187  14.067  66.905  1.00  0.00    -0.260 C  
HETATM    9  O   UNL     1      -9.553  14.762  67.846  1.00  0.00    -0.205 OA 
BRANCH   8  10
HETATM   10  N   UNL     1      -7.925  13.555  66.717  1.00  0.00    -0.339 N  
HETATM   11  H   UNL     1      -7.557  13.575  65.767  1.00  0.00     0.000 HD 
BRANCH  10  12
HETATM   12  C   UNL     1      -7.102  13.012  67.698  1.00  0.00    -0.156 A  
HETATM   13  C   UNL     1      -7.282  11.943  68.564  1.00  0.00    -0.100 A  
HETATM   14  N   UNL     1      -8.292  11.028  68.765  1.00  0.00    -0.149 NA 
HETATM   15  C   UNL     1      -8.174  10.183  69.759  1.00  0.00    -0.145 A  
HETATM   16  C   UNL     1      -5.808  13.498  67.995  1.00  0.00    -0.130 A  
HETATM   17  C   UNL     1      -6.939  10.096  70.613  1.00  0.00     0.033 A  
HETATM   18  N   UNL     1      -5.211  12.847  68.986  1.00  0.00    -0.068 NA 
HETATM   19  C   UNL     1      -5.961  10.968  70.354  1.00  0.00    -0.141 A  
HETATM   20  N   UNL     1      -6.115  11.900  69.344  1.00  0.00    -0.086 NA 
BRANCH  15  21
HETATM   21  N   UNL     1      -9.178   9.299  70.079  1.00  0.00    -0.192 NA 
HETATM   22  C   UNL     1     -10.911   7.688  69.987  1.00  0.00    -0.250 C  
HETATM   23  C   UNL     1      -9.366   8.783  71.420  1.00  0.00    -0.258 C  
HETATM   24  C   UNL     1     -10.209   8.800  69.167  1.00  0.00    -0.207 C  
HETATM   25  C   UNL     1      -9.982   7.420  71.169  1.00  0.00    -0.188 C  
BRANCH  24  26
HETATM   26  C   UNL     1      -9.602   8.395  67.839  1.00  0.00    -0.180 A  
HETATM   27  C   UNL     1      -8.658   7.374  67.678  1.00  0.00    -0.119 A  
HETATM   28  C   UNL     1      -8.063   7.116  66.441  1.00  0.00    -0.116 A  
HETATM   29  F   UNL     1      -8.277   6.620  68.719  1.00  0.00    -0.113 F  
HETATM   30  C   UNL     1      -8.397   7.890  65.332  1.00  0.00    -0.146 A  
HETATM   31  C   UNL     1      -9.337   8.901  65.472  1.00  0.00    -0.145 A  
HETATM   32  C   UNL     1      -9.939   9.154  66.700  1.00  0.00    -0.343 A  
HETATM   33  F   UNL     1      -9.659   9.653  64.411  1.00  0.00    -0.333 F  
ENDBRANCH  24  26
ENDBRANCH  15  21
ENDBRANCH  10  12
ENDBRANCH   8  10
ENDBRANCH   6   8
TORSDOF 5
ENDMDL
MODEL      201
REMARK 921   NORMALIZED FREE ENERGY PREDICTED BY IDOCK:   -4.72 KCAL/MOL
REMARK 922        TOTAL FREE ENERGY PREDICTED BY IDOCK:   -7.83 KCAL/MOL
REMARK 923 INTER-LIGAND FREE ENERGY PREDICTED BY IDOCK:   -7.79 KCAL/MOL
REMARK 924 INTRA-LIGAND FREE ENERGY PREDICTED BY IDOCK:   -0.03 KCAL/MOL
REMARK 927      BINDING AFFINITY PREDICTED BY RF-SCORE:    0.00 PKD
ROOT
HETATM    1  O   UNL     1     -12.729  16.080  74.536  1.00  0.00    -0.889 OA 
HETATM    2  H   UNL     1     -11.969  15.857  75.062  1.00  0.00     0.000 HD 
HETATM    3  C   UNL     1     -12.795  15.280  73.367  1.00  0.00    -0.543 C  
HETATM    4  C   UNL     1     -14.014  15.637  72.524  1.00  0.00    -0.615 C  
HETATM    5  C   UNL     1     -13.620  15.151  71.145  1.00  0.00    -0.456 C  
HETATM    6  N   UNL     1     -12.185  15.367  71.077  1.00  0.00    -0.341 N  
HETATM    7  C   UNL     1     -11.623  15.540  72.413  1.00  0.00    -0.445 C  
ENDROOT
BRANCH   6   8
HETATM    8  C   UNL     1     -11.556  15.346  69.842  1.00  0.00    -0.323 C  
HETATM    9  O   UNL     1     -11.959  16.076  68.943  1.00  0.00    -0.348 OA 
BRANCH   8  10
HETATM   10  N   UNL     1     -10.527  14.439  69.751  1.00  0.00    -0.442 N  
HETATM   11  H   UNL     1     -10.730  13.482  70.038  1.00  0.00     0.000 HD 
BRANCH  10  12
HETATM   12  C   UNL     1      -9.236  14.700  69.305  1.00  0.00     0.036 A  
HETATM   13  C   UNL     1      -8.312  13.905  68.642  1.00  0.00    -0.088 A  
HETATM   14  N   UNL     1      -8.321  12.613  68.168  1.00  0.00    -0.169 NA 
HETATM   15  C   UNL     1      -7.214  12.131  67.658  1.00  0.00    -0.123 A  
HETATM   16  C   UNL     1      -8.592  15.949  69.453  1.00  0.00    -0.195 A  
HETATM   17  C   UNL     1      -5.976  12.962  67.468  1.00  0.00    -0.130 A  
HETATM   18  N   UNL     1      -7.351  15.967  68.978  1.00  0.00    -0.172 NA 
HETATM   19  C   UNL     1      -6.023  14.227  67.895  1.00  0.00    -0.136 A  
HETATM   20  N   UNL     1      -7.173  14.713  68.490  1.00  0.00    -0.110 NA 
BRANCH  15  21
HETATM   21  N   UNL     1      -7.119  10.822  67.245  1.00  0.00    -0.088 NA 
HETATM   22  C   UNL     1      -7.353   8.476  67.035  1.00  0.00    -0.084 C  
HETATM   23  C   UNL     1      -6.654  10.454  65.922  1.00  0.00    -0.123 C  
HETATM   24  C   UNL     1      -7.406   9.639  68.058  1.00  0.00    -0.082 C  
HETATM   25  C   UNL     1      -7.384   9.150  65.665  1.00  0.00    -0.086 C  
BRANCH  24  26
HETATM   26  C   UNL     1      -8.697   9.818  68.830  1.00  0.00    -0.128 A  
HETATM   27  C   UNL     1      -8.869   9.475  70.175  1.00  0.00    -0.235 A  
HETATM   28  C   UNL     1     -10.114   9.573  70.802  1.00  0.00    -0.352 A  
HETATM   29  F   UNL     1      -7.842   9.020  70.906  1.00  0.00    -0.094 F  
HETATM   30  C   UNL     1     -11.224  10.009  70.082  1.00  0.00    -0.367 A  
HETATM   31  C   UNL     1     -11.070  10.361  68.748  1.00  0.00    -0.250 A  
HETATM   32  C   UNL     1      -9.829  10.274  68.125  1.00  0.00    -0.166 A  
HETATM   33  F   UNL     1     -12.134  10.775  68.049  1.00  0.00    -0.252 F  
ENDBRANCH  24  26
ENDBRANCH  15  21
ENDBRANCH  10  12
ENDBRANCH   8  10
ENDBRANCH   6   8
TORSDOF 5
ENDMDL
MODEL      202
REMARK 921   NORMALIZED FREE ENERGY PREDICTED BY IDOCK:   -4.68 KCAL/MOL
REMARK 922        TOTAL FREE ENERGY PREDICTED BY IDOCK:   -7.78 KCAL/MOL
REMARK 923 INTER-LIGAND FREE ENERGY PREDICTED BY IDOCK:   -6.62 KCAL/MOL
REMARK 924 INTRA-LIGAND FREE ENERGY PREDICTED BY IDOCK:   -1.16 KCAL/MOL
REMARK 927      BINDING AFFINITY PREDICTED BY RF-SCORE:    0.00 PKD
ROOT
HETATM    1  O   UNL     1     -12.965  15.928  70.335  1.00  0.00    -0.676 OA 
HETATM    2  H   UNL     1     -12.843  16.854  70.159  1.00  0.00     0.000 HD 
HETATM    3  C   UNL     1     -11.849  15.171  69.898  1.00  0.00    -0.330 C  
HETATM    4  C   UNL     1     -12.045  13.686  70.180  1.00  0.00    -0.431 C  
HETATM    5  C   UNL     1     -11.113  13.030  69.185  1.00  0.00    -0.192 C  
HETATM    6  N   UNL     1     -11.147  13.900  68.022  1.00  0.00    -0.251 N  
HETATM    7  C   UNL     1     -11.673  15.215  68.374  1.00  0.00    -0.316 C  
ENDROOT
BRANCH   6   8
HETATM    8  C   UNL     1     -10.675  13.426  66.809  1.00  0.00    -0.277 C  
HETATM    9  O   UNL     1      -9.989  14.152  66.098  1.00  0.00    -0.292 OA 
BRANCH   8  10
HETATM   10  N   UNL     1     -11.080  12.147  66.509  1.00  0.00    -0.291 N  
HETATM   11  H   UNL     1     -11.963  11.837  66.915  1.00  0.00     0.000 HD 
BRANCH  10  12
HETATM   12  C   UNL     1     -10.402  11.235  65.707  1.00  0.00    -0.258 A  
HETATM   13  C   UNL     1      -9.404  10.316  65.999  1.00  0.00    -0.180 A  
HETATM   14  N   UNL     1      -8.741   9.949  67.148  1.00  0.00    -0.131 NA 
HETATM   15  C   UNL     1      -7.759   9.086  67.050  1.00  0.00    -0.098 A  
HETATM   16  C   UNL     1     -10.655  11.062  64.328  1.00  0.00    -0.331 A  
HETATM   17  C   UNL     1      -7.404   8.400  65.760  1.00  0.00    -0.073 A  
HETATM   18  N   UNL     1      -9.873  10.155  63.754  1.00  0.00    -0.157 NA 
HETATM   19  C   UNL     1      -8.105   8.746  64.676  1.00  0.00    -0.157 A  
HETATM   20  N   UNL     1      -9.098   9.703  64.772  1.00  0.00    -0.225 NA 
BRANCH  15  21
HETATM   21  N   UNL     1      -6.992   8.737  68.137  1.00  0.00    -0.073 NA 
HETATM   22  C   UNL     1      -6.241   8.186  70.314  1.00  0.00    -0.032 C  
HETATM   23  C   UNL     1      -5.686   8.123  68.006  1.00  0.00    -0.035 C  
HETATM   24  C   UNL     1      -7.332   8.971  69.541  1.00  0.00    -0.071 C  
HETATM   25  C   UNL     1      -5.583   7.289  69.268  1.00  0.00    -0.015 C  
BRANCH  24  26
HETATM   26  C   UNL     1      -8.774   8.594  69.816  1.00  0.00    -0.132 A  
HETATM   27  C   UNL     1      -9.369   7.395  69.407  1.00  0.00    -0.155 A  
HETATM   28  C   UNL     1     -10.731   7.150  69.605  1.00  0.00    -0.256 A  
HETATM   29  F   UNL     1      -8.653   6.446  68.790  1.00  0.00    -0.120 F  
HETATM   30  C   UNL     1     -11.531   8.115  70.213  1.00  0.00    -0.066 A  
HETATM   31  C   UNL     1     -10.955   9.306  70.631  1.00  0.00    -0.276 A  
HETATM   32  C   UNL     1      -9.598   9.549  70.444  1.00  0.00    -0.326 A  
HETATM   33  F   UNL     1     -11.720  10.241  71.211  1.00  0.00    -0.401 F  
ENDBRANCH  24  26
ENDBRANCH  15  21
ENDBRANCH  10  12
ENDBRANCH   8  10
ENDBRANCH   6   8
TORSDOF 5
ENDMDL
MODEL      203
REMARK 921   NORMALIZED FREE ENERGY PREDICTED BY IDOCK:   -4.67 KCAL/MOL
REMARK 922        TOTAL FREE ENERGY PREDICTED BY IDOCK:   -7.77 KCAL/MOL
REMARK 923 INTER-LIGAND FREE ENERGY PREDICTED BY IDOCK:   -7.02 KCAL/MOL
REMARK 924 INTRA-LIGAND FREE ENERGY PREDICTED BY IDOCK:   -0.76 KCAL/MOL
REMARK 927      BINDING AFFINITY PREDICTED BY RF-SCORE:    0.00 PKD
ROOT
HETATM    1  O   UNL     1      -6.807  19.787  69.195  1.00  0.00    -0.329 OA 
HETATM    2  H   UNL     1      -7.241  20.402  69.776  1.00  0.00     0.000 HD 
HETATM    3  C   UNL     1      -7.607  19.502  68.060  1.00  0.00    -0.296 C  
HETATM    4  C   UNL     1      -6.911  18.514  67.130  1.00  0.00    -0.213 C  
HETATM    5  C   UNL     1      -8.065  17.915  66.355  1.00  0.00    -0.261 C  
HETATM    6  N   UNL     1      -9.165  17.880  67.304  1.00  0.00    -0.252 N  
HETATM    7  C   UNL     1      -8.907  18.776  68.428  1.00  0.00    -0.342 C  
ENDROOT
BRANCH   6   8
HETATM    8  C   UNL     1     -10.268  17.088  67.033  1.00  0.00    -0.303 C  
HETATM    9  O   UNL     1     -11.107  16.893  67.905  1.00  0.00    -0.301 OA 
BRANCH   8  10
HETATM   10  N   UNL     1     -10.277  16.553  65.766  1.00  0.00    -0.346 N  
HETATM   11  H   UNL     1      -9.808  17.089  65.037  1.00  0.00     0.000 HD 
BRANCH  10  12
HETATM   12  C   UNL     1     -10.864  15.352  65.383  1.00  0.00    -0.391 A  
HETATM   13  C   UNL     1     -10.633  14.044  65.786  1.00  0.00    -0.299 A  
HETATM   14  N   UNL     1      -9.787  13.454  66.698  1.00  0.00    -0.271 NA 
HETATM   15  C   UNL     1      -9.760  12.146  66.764  1.00  0.00    -0.207 A  
HETATM   16  C   UNL     1     -11.910  15.255  64.438  1.00  0.00    -0.281 A  
HETATM   17  C   UNL     1     -10.691  11.271  65.970  1.00  0.00    -0.301 A  
HETATM   18  N   UNL     1     -12.301  14.008  64.204  1.00  0.00    -0.672 NA 
HETATM   19  C   UNL     1     -11.533  11.884  65.133  1.00  0.00    -0.243 A  
HETATM   20  N   UNL     1     -11.514  13.262  65.020  1.00  0.00    -0.299 NA 
BRANCH  15  21
HETATM   21  N   UNL     1      -8.879  11.482  67.585  1.00  0.00    -0.149 NA 
HETATM   22  C   UNL     1      -7.280   9.976  68.469  1.00  0.00    -0.076 C  
HETATM   23  C   UNL     1      -8.351  12.070  68.800  1.00  0.00     0.049 C  
HETATM   24  C   UNL     1      -8.397  10.112  67.402  1.00  0.00    -0.118 C  
HETATM   25  C   UNL     1      -6.995  11.404  68.928  1.00  0.00    -0.098 C  
BRANCH  24  26
HETATM   26  C   UNL     1      -8.002   9.869  65.960  1.00  0.00    -0.114 A  
HETATM   27  C   UNL     1      -8.626   8.945  65.113  1.00  0.00    -0.182 A  
HETATM   28  C   UNL     1      -8.150   8.698  63.823  1.00  0.00    -0.163 A  
HETATM   29  F   UNL     1      -9.695   8.249  65.523  1.00  0.00    -0.103 F  
HETATM   30  C   UNL     1      -7.023   9.369  63.355  1.00  0.00    -0.097 A  
HETATM   31  C   UNL     1      -6.397  10.294  64.179  1.00  0.00    -0.094 A  
HETATM   32  C   UNL     1      -6.874  10.550  65.461  1.00  0.00    -0.100 A  
HETATM   33  F   UNL     1      -5.309  10.939  63.738  1.00  0.00    -0.164 F  
ENDBRANCH  24  26
ENDBRANCH  15  21
ENDBRANCH  10  12
ENDBRANCH   8  10
ENDBRANCH   6   8
TORSDOF 5
ENDMDL
MODEL      204
REMARK 921   NORMALIZED FREE ENERGY PREDICTED BY IDOCK:   -4.65 KCAL/MOL
REMARK 922        TOTAL FREE ENERGY PREDICTED BY IDOCK:   -7.74 KCAL/MOL
REMARK 923 INTER-LIGAND FREE ENERGY PREDICTED BY IDOCK:   -7.03 KCAL/MOL
REMARK 924 INTRA-LIGAND FREE ENERGY PREDICTED BY IDOCK:   -0.71 KCAL/MOL
REMARK 927      BINDING AFFINITY PREDICTED BY RF-SCORE:    0.00 PKD
ROOT
HETATM    1  O   UNL     1     -12.803  15.740  74.419  1.00  0.00    -0.816 OA 
HETATM    2  H   UNL     1     -12.089  15.377  74.929  1.00  0.00     0.000 HD 
HETATM    3  C   UNL     1     -12.973  15.037  73.200  1.00  0.00    -0.522 C  
HETATM    4  C   UNL     1     -14.120  15.620  72.381  1.00  0.00    -0.575 C  
HETATM    5  C   UNL     1     -13.787  15.174  70.974  1.00  0.00    -0.349 C  
HETATM    6  N   UNL     1     -12.335  15.184  70.920  1.00  0.00    -0.323 N  
HETATM    7  C   UNL     1     -11.766  15.186  72.265  1.00  0.00    -0.401 C  
ENDROOT
BRANCH   6   8
HETATM    8  C   UNL     1     -11.704  15.154  69.687  1.00  0.00    -0.327 C  
HETATM    9  O   UNL     1     -11.976  16.001  68.844  1.00  0.00    -0.348 OA 
BRANCH   8  10
HETATM   10  N   UNL     1     -10.830  14.104  69.529  1.00  0.00    -0.423 N  
HETATM   11  H   UNL     1     -11.077  13.226  69.986  1.00  0.00     0.000 HD 
BRANCH  10  12
HETATM   12  C   UNL     1      -9.642  14.123  68.806  1.00  0.00    -0.122 A  
HETATM   13  C   UNL     1      -8.761  13.109  68.455  1.00  0.00    -0.120 A  
HETATM   14  N   UNL     1      -8.733  11.747  68.656  1.00  0.00    -0.109 NA 
HETATM   15  C   UNL     1      -7.676  11.083  68.260  1.00  0.00    -0.113 A  
HETATM   16  C   UNL     1      -9.087  15.291  68.236  1.00  0.00    -0.181 A  
HETATM   17  C   UNL     1      -6.549  11.725  67.498  1.00  0.00    -0.097 A  
HETATM   18  N   UNL     1      -7.934  15.082  67.612  1.00  0.00    -0.147 NA 
HETATM   19  C   UNL     1      -6.638  13.039  67.278  1.00  0.00     0.008 A  
HETATM   20  N   UNL     1      -7.726  13.748  67.753  1.00  0.00    -0.151 NA 
BRANCH  15  21
HETATM   21  N   UNL     1      -7.534   9.737  68.505  1.00  0.00    -0.078 NA 
HETATM   22  C   UNL     1      -7.589   7.375  68.354  1.00  0.00    -0.114 C  
HETATM   23  C   UNL     1      -6.593   9.216  69.476  1.00  0.00    -0.043 C  
HETATM   24  C   UNL     1      -8.317   8.663  67.891  1.00  0.00    -0.123 C  
HETATM   25  C   UNL     1      -6.248   7.854  68.906  1.00  0.00    -0.039 C  
BRANCH  24  26
HETATM   26  C   UNL     1      -8.448   8.880  66.397  1.00  0.00    -0.123 A  
HETATM   27  C   UNL     1      -7.480   8.512  65.457  1.00  0.00    -0.085 A  
HETATM   28  C   UNL     1      -7.618   8.829  64.102  1.00  0.00    -0.122 A  
HETATM   29  F   UNL     1      -6.371   7.857  65.830  1.00  0.00    -0.040 F  
HETATM   30  C   UNL     1      -8.734   9.536  63.663  1.00  0.00    -0.239 A  
HETATM   31  C   UNL     1      -9.708   9.902  64.582  1.00  0.00    -0.195 A  
HETATM   32  C   UNL     1      -9.578   9.579  65.929  1.00  0.00    -0.327 A  
HETATM   33  F   UNL     1     -10.781  10.588  64.167  1.00  0.00    -0.383 F  
ENDBRANCH  24  26
ENDBRANCH  15  21
ENDBRANCH  10  12
ENDBRANCH   8  10
ENDBRANCH   6   8
TORSDOF 5
ENDMDL
MODEL      205
REMARK 921   NORMALIZED FREE ENERGY PREDICTED BY IDOCK:   -4.64 KCAL/MOL
REMARK 922        TOTAL FREE ENERGY PREDICTED BY IDOCK:   -7.73 KCAL/MOL
REMARK 923 INTER-LIGAND FREE ENERGY PREDICTED BY IDOCK:   -6.51 KCAL/MOL
REMARK 924 INTRA-LIGAND FREE ENERGY PREDICTED BY IDOCK:   -1.22 KCAL/MOL
REMARK 927      BINDING AFFINITY PREDICTED BY RF-SCORE:    0.00 PKD
ROOT
HETATM    1  O   UNL     1     -11.405   5.776  66.286  1.00  0.00    -0.733 OA 
HETATM    2  H   UNL     1     -12.109   5.326  66.737  1.00  0.00     0.000 HD 
HETATM    3  C   UNL     1     -10.151   5.496  66.885  1.00  0.00    -0.203 C  
HETATM    4  C   UNL     1      -9.020   6.219  66.161  1.00  0.00    -0.164 C  
HETATM    5  C   UNL     1      -7.936   6.284  67.216  1.00  0.00    -0.109 C  
HETATM    6  N   UNL     1      -8.654   6.430  68.471  1.00  0.00    -0.122 N  
HETATM    7  C   UNL     1     -10.052   6.041  68.316  1.00  0.00    -0.164 C  
ENDROOT
BRANCH   6   8
HETATM    8  C   UNL     1      -7.967   6.855  69.596  1.00  0.00    -0.125 C  
HETATM    9  O   UNL     1      -7.372   6.038  70.290  1.00  0.00    -0.082 OA 
BRANCH   8  10
HETATM   10  N   UNL     1      -8.068   8.205  69.840  1.00  0.00    -0.113 N  
HETATM   11  H   UNL     1      -7.236   8.768  69.667  1.00  0.00     0.000 HD 
BRANCH  10  12
HETATM   12  C   UNL     1      -9.196   8.876  70.299  1.00  0.00    -0.185 A  
HETATM   13  C   UNL     1      -9.985   9.858  69.716  1.00  0.00    -0.243 A  
HETATM   14  N   UNL     1      -9.973  10.505  68.501  1.00  0.00    -0.163 NA 
HETATM   15  C   UNL     1     -10.832  11.475  68.305  1.00  0.00    -0.216 A  
HETATM   16  C   UNL     1      -9.798   8.635  71.555  1.00  0.00    -0.272 A  
HETATM   17  C   UNL     1     -11.898  11.832  69.304  1.00  0.00    -0.389 A  
HETATM   18  N   UNL     1     -10.849   9.409  71.799  1.00  0.00    -0.296 NA 
HETATM   19  C   UNL     1     -11.908  11.147  70.451  1.00  0.00    -0.369 A  
HETATM   20  N   UNL     1     -10.960  10.167  70.679  1.00  0.00    -0.314 NA 
BRANCH  15  21
HETATM   21  N   UNL     1     -10.823  12.226  67.153  1.00  0.00    -0.236 NA 
HETATM   22  C   UNL     1     -10.189  13.605  65.336  1.00  0.00    -0.330 C  
HETATM   23  C   UNL     1     -11.844  12.099  66.132  1.00  0.00    -0.254 C  
HETATM   24  C   UNL     1      -9.855  13.269  66.812  1.00  0.00    -0.264 C  
HETATM   25  C   UNL     1     -11.095  12.470  64.866  1.00  0.00    -0.336 C  
BRANCH  24  26
HETATM   26  C   UNL     1      -8.442  12.810  67.109  1.00  0.00    -0.181 A  
HETATM   27  C   UNL     1      -7.816  11.724  66.487  1.00  0.00     0.020 A  
HETATM   28  C   UNL     1      -6.546  11.290  66.877  1.00  0.00    -0.130 A  
HETATM   29  F   UNL     1      -8.427  11.047  65.505  1.00  0.00    -0.178 F  
HETATM   30  C   UNL     1      -5.878  11.934  67.915  1.00  0.00    -0.054 A  
HETATM   31  C   UNL     1      -6.481  13.019  68.537  1.00  0.00    -0.084 A  
HETATM   32  C   UNL     1      -7.741  13.459  68.145  1.00  0.00    -0.143 A  
HETATM   33  F   UNL     1      -5.846  13.640  69.540  1.00  0.00    -0.084 F  
ENDBRANCH  24  26
ENDBRANCH  15  21
ENDBRANCH  10  12
ENDBRANCH   8  10
ENDBRANCH   6   8
TORSDOF 5
ENDMDL
MODEL      206
REMARK 921   NORMALIZED FREE ENERGY PREDICTED BY IDOCK:   -4.64 KCAL/MOL
REMARK 922        TOTAL FREE ENERGY PREDICTED BY IDOCK:   -7.72 KCAL/MOL
REMARK 923 INTER-LIGAND FREE ENERGY PREDICTED BY IDOCK:   -7.23 KCAL/MOL
REMARK 924 INTRA-LIGAND FREE ENERGY PREDICTED BY IDOCK:   -0.49 KCAL/MOL
REMARK 927      BINDING AFFINITY PREDICTED BY RF-SCORE:    0.00 PKD
ROOT
HETATM    1  O   UNL     1      -9.947  12.925  63.783  1.00  0.00    -0.693 OA 
HETATM    2  H   UNL     1     -10.625  13.294  64.337  1.00  0.00     0.000 HD 
HETATM    3  C   UNL     1     -10.034  11.511  63.736  1.00  0.00    -0.349 C  
HETATM    4  C   UNL     1      -8.945  10.921  62.847  1.00  0.00    -0.294 C  
HETATM    5  C   UNL     1      -8.829   9.501  63.360  1.00  0.00    -0.214 C  
HETATM    6  N   UNL     1      -9.093   9.603  64.785  1.00  0.00    -0.225 N  
HETATM    7  C   UNL     1      -9.761  10.863  65.099  1.00  0.00    -0.262 C  
ENDROOT
BRANCH   6   8
HETATM    8  C   UNL     1      -8.740   8.552  65.615  1.00  0.00    -0.181 C  
HETATM    9  O   UNL     1      -7.555   8.307  65.815  1.00  0.00    -0.079 OA 
BRANCH   8  10
HETATM   10  N   UNL     1      -9.809   7.846  66.113  1.00  0.00    -0.464 N  
HETATM   11  H   UNL     1     -10.713   8.317  66.111  1.00  0.00     0.000 HD 
BRANCH  10  12
HETATM   12  C   UNL     1      -9.777   6.552  66.622  1.00  0.00    -0.154 A  
HETATM   13  C   UNL     1      -9.760   6.074  67.925  1.00  0.00    -0.119 A  
HETATM   14  N   UNL     1      -9.791   6.667  69.167  1.00  0.00    -0.147 NA 
HETATM   15  C   UNL     1      -9.663   5.902  70.223  1.00  0.00    -0.169 A  
HETATM   16  C   UNL     1      -9.773   5.391  65.815  1.00  0.00    -0.016 A  
HETATM   17  C   UNL     1      -9.599   4.402  70.139  1.00  0.00    -0.263 A  
HETATM   18  N   UNL     1      -9.713   4.261  66.511  1.00  0.00    -0.206 NA 
HETATM   19  C   UNL     1      -9.624   3.861  68.918  1.00  0.00    -0.130 A  
HETATM   20  N   UNL     1      -9.694   4.676  67.803  1.00  0.00    -0.163 NA 
BRANCH  15  21
HETATM   21  N   UNL     1      -9.595   6.429  71.492  1.00  0.00    -0.159 NA 
HETATM   22  C   UNL     1      -9.434   7.890  73.347  1.00  0.00    -0.341 C  
HETATM   23  C   UNL     1     -10.024   5.694  72.665  1.00  0.00    -0.174 C  
HETATM   24  C   UNL     1      -9.050   7.738  71.853  1.00  0.00    -0.134 C  
HETATM   25  C   UNL     1     -10.469   6.798  73.604  1.00  0.00    -0.374 C  
BRANCH  24  26
HETATM   26  C   UNL     1      -9.549   8.809  70.903  1.00  0.00    -0.275 A  
HETATM   27  C   UNL     1     -10.874   9.254  70.839  1.00  0.00    -0.296 A  
HETATM   28  C   UNL     1     -11.290  10.174  69.872  1.00  0.00    -0.335 A  
HETATM   29  F   UNL     1     -11.797   8.794  71.694  1.00  0.00    -0.307 F  
HETATM   30  C   UNL     1     -10.381  10.661  68.937  1.00  0.00    -0.225 A  
HETATM   31  C   UNL     1      -9.061  10.235  68.992  1.00  0.00    -0.183 A  
HETATM   32  C   UNL     1      -8.641   9.328  69.959  1.00  0.00    -0.193 A  
HETATM   33  F   UNL     1      -8.182  10.696  68.091  1.00  0.00    -0.106 F  
ENDBRANCH  24  26
ENDBRANCH  15  21
ENDBRANCH  10  12
ENDBRANCH   8  10
ENDBRANCH   6   8
TORSDOF 5
ENDMDL
MODEL      207
REMARK 921   NORMALIZED FREE ENERGY PREDICTED BY IDOCK:   -4.63 KCAL/MOL
REMARK 922        TOTAL FREE ENERGY PREDICTED BY IDOCK:   -7.71 KCAL/MOL
REMARK 923 INTER-LIGAND FREE ENERGY PREDICTED BY IDOCK:   -7.91 KCAL/MOL
REMARK 924 INTRA-LIGAND FREE ENERGY PREDICTED BY IDOCK:    0.20 KCAL/MOL
REMARK 927      BINDING AFFINITY PREDICTED BY RF-SCORE:    0.00 PKD
ROOT
HETATM    1  O   UNL     1      -6.326  21.229  65.469  1.00  0.00    -0.448 OA 
HETATM    2  H   UNL     1      -6.874  22.005  65.506  1.00  0.00     0.000 HD 
HETATM    3  C   UNL     1      -7.110  20.049  65.427  1.00  0.00    -0.278 C  
HETATM    4  C   UNL     1      -6.231  18.804  65.369  1.00  0.00    -0.317 C  
HETATM    5  C   UNL     1      -7.148  17.723  65.898  1.00  0.00    -0.243 C  
HETATM    6  N   UNL     1      -7.971  18.393  66.891  1.00  0.00    -0.229 N  
HETATM    7  C   UNL     1      -7.925  19.841  66.710  1.00  0.00    -0.296 C  
ENDROOT
BRANCH   6   8
HETATM    8  C   UNL     1      -8.683  17.632  67.804  1.00  0.00    -0.232 C  
HETATM    9  O   UNL     1      -8.107  17.151  68.773  1.00  0.00    -0.264 OA 
BRANCH   8  10
HETATM   10  N   UNL     1     -10.009  17.464  67.483  1.00  0.00    -0.288 N  
HETATM   11  H   UNL     1     -10.693  17.830  68.145  1.00  0.00     0.000 HD 
BRANCH  10  12
HETATM   12  C   UNL     1     -10.508  16.843  66.343  1.00  0.00    -0.252 A  
HETATM   13  C   UNL     1     -10.657  15.503  66.014  1.00  0.00    -0.325 A  
HETATM   14  N   UNL     1     -10.401  14.319  66.667  1.00  0.00    -0.275 NA 
HETATM   15  C   UNL     1     -10.576  13.198  66.012  1.00  0.00    -0.281 A  
HETATM   16  C   UNL     1     -11.014  17.544  65.225  1.00  0.00     0.232 A  
HETATM   17  C   UNL     1     -11.150  13.148  64.623  1.00  0.00    -0.366 A  
HETATM   18  N   UNL     1     -11.414  16.751  64.237  1.00  0.00    -1.059 NA 
HETATM   19  C   UNL     1     -11.433  14.317  64.042  1.00  0.00     0.017 A  
HETATM   20  N   UNL     1     -11.187  15.500  64.713  1.00  0.00    -0.423 NA 
BRANCH  15  21
HETATM   21  N   UNL     1     -10.258  11.980  66.566  1.00  0.00    -0.203 NA 
HETATM   22  C   UNL     1      -9.803  10.210  68.071  1.00  0.00    -0.169 C  
HETATM   23  C   UNL     1     -10.317  10.742  65.815  1.00  0.00    -0.230 C  
HETATM   24  C   UNL     1      -9.777  11.753  67.930  1.00  0.00    -0.185 C  
HETATM   25  C   UNL     1     -10.632   9.717  66.887  1.00  0.00    -0.243 C  
BRANCH  24  26
HETATM   26  C   UNL     1     -10.593  12.549  68.928  1.00  0.00    -0.152 A  
HETATM   27  C   UNL     1     -11.803  12.118  69.483  1.00  0.00    -0.321 A  
HETATM   28  C   UNL     1     -12.558  12.942  70.322  1.00  0.00    -0.084 A  
HETATM   29  F   UNL     1     -12.291  10.900  69.208  1.00  0.00    -0.383 F  
HETATM   30  C   UNL     1     -12.115  14.229  70.616  1.00  0.00    -0.417 A  
HETATM   31  C   UNL     1     -10.913  14.670  70.081  1.00  0.00    -0.076 A  
HETATM   32  C   UNL     1     -10.155  13.848  69.252  1.00  0.00     0.176 A  
HETATM   33  F   UNL     1     -10.484  15.909  70.354  1.00  0.00    -0.294 F  
ENDBRANCH  24  26
ENDBRANCH  15  21
ENDBRANCH  10  12
ENDBRANCH   8  10
ENDBRANCH   6   8
TORSDOF 5
ENDMDL
MODEL      208
REMARK 921   NORMALIZED FREE ENERGY PREDICTED BY IDOCK:   -4.62 KCAL/MOL
REMARK 922        TOTAL FREE ENERGY PREDICTED BY IDOCK:   -7.70 KCAL/MOL
REMARK 923 INTER-LIGAND FREE ENERGY PREDICTED BY IDOCK:   -6.58 KCAL/MOL
REMARK 924 INTRA-LIGAND FREE ENERGY PREDICTED BY IDOCK:   -1.12 KCAL/MOL
REMARK 927      BINDING AFFINITY PREDICTED BY RF-SCORE:    0.00 PKD
ROOT
HETATM    1  O   UNL     1      -6.270   9.220  62.851  1.00  0.00    -0.093 OA 
HETATM    2  H   UNL     1      -6.964   9.436  62.239  1.00  0.00     0.000 HD 
HETATM    3  C   UNL     1      -6.446   7.919  63.386  1.00  0.00    -0.067 C  
HETATM    4  C   UNL     1      -5.333   7.572  64.368  1.00  0.00    -0.029 C  
HETATM    5  C   UNL     1      -5.963   6.491  65.219  1.00  0.00    -0.033 C  
HETATM    6  N   UNL     1      -7.368   6.857  65.297  1.00  0.00    -0.080 N  
HETATM    7  C   UNL     1      -7.714   7.805  64.242  1.00  0.00    -0.124 C  
ENDROOT
BRANCH   6   8
HETATM    8  C   UNL     1      -8.165   6.275  66.268  1.00  0.00    -0.117 C  
HETATM    9  O   UNL     1      -8.724   5.209  66.038  1.00  0.00    -0.122 OA 
BRANCH   8  10
HETATM   10  N   UNL     1      -8.275   7.015  67.422  1.00  0.00    -0.118 N  
HETATM   11  H   UNL     1      -8.749   6.573  68.209  1.00  0.00     0.000 HD 
BRANCH  10  12
HETATM   12  C   UNL     1      -7.802   8.308  67.619  1.00  0.00    -0.106 A  
HETATM   13  C   UNL     1      -8.293   9.541  67.212  1.00  0.00    -0.125 A  
HETATM   14  N   UNL     1      -9.402   9.948  66.506  1.00  0.00    -0.158 NA 
HETATM   15  C   UNL     1      -9.516  11.219  66.210  1.00  0.00    -0.204 A  
HETATM   16  C   UNL     1      -6.635   8.613  68.355  1.00  0.00    -0.060 A  
HETATM   17  C   UNL     1      -8.550  12.261  66.703  1.00  0.00    -0.099 A  
HETATM   18  N   UNL     1      -6.355   9.911  68.394  1.00  0.00    -0.050 NA 
HETATM   19  C   UNL     1      -7.514  11.831  67.428  1.00  0.00    -0.143 A  
HETATM   20  N   UNL     1      -7.363  10.481  67.686  1.00  0.00    -0.086 NA 
BRANCH  15  21
HETATM   21  N   UNL     1     -10.549  11.689  65.432  1.00  0.00    -0.272 NA 
HETATM   22  C   UNL     1     -12.515  12.757  64.657  1.00  0.00    -0.525 C  
HETATM   23  C   UNL     1     -10.472  11.749  63.986  1.00  0.00    -0.368 C  
HETATM   24  C   UNL     1     -11.857  12.135  65.915  1.00  0.00    -0.272 C  
HETATM   25  C   UNL     1     -11.376  12.920  63.653  1.00  0.00    -0.455 C  
BRANCH  24  26
HETATM   26  C   UNL     1     -11.706  13.033  67.126  1.00  0.00    -0.439 A  
HETATM   27  C   UNL     1     -11.865  12.609  68.450  1.00  0.00    -0.301 A  
HETATM   28  C   UNL     1     -11.809  13.509  69.518  1.00  0.00    -0.392 A  
HETATM   29  F   UNL     1     -12.098  11.321  68.737  1.00  0.00    -0.381 F  
HETATM   30  C   UNL     1     -11.603  14.865  69.276  1.00  0.00    -0.330 A  
HETATM   31  C   UNL     1     -11.434  15.301  67.969  1.00  0.00    -0.341 A  
HETATM   32  C   UNL     1     -11.479  14.406  66.905  1.00  0.00    -0.379 A  
HETATM   33  F   UNL     1     -11.241  16.605  67.729  1.00  0.00    -0.309 F  
ENDBRANCH  24  26
ENDBRANCH  15  21
ENDBRANCH  10  12
ENDBRANCH   8  10
ENDBRANCH   6   8
TORSDOF 5
ENDMDL
MODEL      209
REMARK 921   NORMALIZED FREE ENERGY PREDICTED BY IDOCK:   -4.59 KCAL/MOL
REMARK 922        TOTAL FREE ENERGY PREDICTED BY IDOCK:   -7.66 KCAL/MOL
REMARK 923 INTER-LIGAND FREE ENERGY PREDICTED BY IDOCK:   -7.22 KCAL/MOL
REMARK 924 INTRA-LIGAND FREE ENERGY PREDICTED BY IDOCK:   -0.44 KCAL/MOL
REMARK 927      BINDING AFFINITY PREDICTED BY RF-SCORE:    0.00 PKD
ROOT
HETATM    1  O   UNL     1     -10.957   6.028  72.991  1.00  0.00    -0.250 OA 
HETATM    2  H   UNL     1     -11.672   5.893  73.602  1.00  0.00     0.000 HD 
HETATM    3  C   UNL     1     -10.687   7.408  72.814  1.00  0.00    -0.314 C  
HETATM    4  C   UNL     1      -9.539   7.625  71.834  1.00  0.00    -0.191 C  
HETATM    5  C   UNL     1      -9.777   9.038  71.348  1.00  0.00    -0.299 C  
HETATM    6  N   UNL     1     -11.222   9.183  71.334  1.00  0.00    -0.320 N  
HETATM    7  C   UNL     1     -11.854   8.153  72.154  1.00  0.00    -0.359 C  
ENDROOT
BRANCH   6   8
HETATM    8  C   UNL     1     -11.790  10.230  70.626  1.00  0.00    -0.347 C  
HETATM    9  O   UNL     1     -13.010  10.309  70.532  1.00  0.00    -0.320 OA 
BRANCH   8  10
HETATM   10  N   UNL     1     -10.876  11.081  70.052  1.00  0.00    -0.463 N  
HETATM   11  H   UNL     1     -10.366  11.702  70.680  1.00  0.00     0.000 HD 
BRANCH  10  12
HETATM   12  C   UNL     1     -10.579  11.176  68.696  1.00  0.00    -0.193 A  
HETATM   13  C   UNL     1     -10.291  12.270  67.891  1.00  0.00    -0.208 A  
HETATM   14  N   UNL     1     -10.171  13.623  68.115  1.00  0.00    -0.241 NA 
HETATM   15  C   UNL     1      -9.977  14.408  67.084  1.00  0.00    -0.253 A  
HETATM   16  C   UNL     1     -10.495  10.063  67.830  1.00  0.00    -0.234 A  
HETATM   17  C   UNL     1      -9.768  13.884  65.690  1.00  0.00    -0.157 A  
HETATM   18  N   UNL     1     -10.225  10.389  66.571  1.00  0.00    -0.226 NA 
HETATM   19  C   UNL     1      -9.842  12.561  65.522  1.00  0.00    -0.183 A  
HETATM   20  N   UNL     1     -10.110  11.741  66.603  1.00  0.00    -0.201 NA 
BRANCH  15  21
HETATM   21  N   UNL     1      -9.934  15.776  67.215  1.00  0.00    -0.235 NA 
HETATM   22  C   UNL     1     -10.264  18.008  67.933  1.00  0.00    -0.386 C  
HETATM   23  C   UNL     1      -8.889  16.585  66.620  1.00  0.00    -0.256 C  
HETATM   24  C   UNL     1     -10.926  16.607  67.901  1.00  0.00    -0.276 C  
HETATM   25  C   UNL     1      -8.801  17.765  67.569  1.00  0.00    -0.243 C  
BRANCH  24  26
HETATM   26  C   UNL     1     -11.308  15.997  69.234  1.00  0.00    -0.356 A  
HETATM   27  C   UNL     1     -10.414  15.769  70.286  1.00  0.00    -0.225 A  
HETATM   28  C   UNL     1     -10.811  15.112  71.454  1.00  0.00     0.023 A  
HETATM   29  F   UNL     1      -9.135  16.159  70.198  1.00  0.00     0.152 F  
HETATM   30  C   UNL     1     -12.120  14.656  71.587  1.00  0.00    -0.404 A  
HETATM   31  C   UNL     1     -13.022  14.881  70.556  1.00  0.00    -0.292 A  
HETATM   32  C   UNL     1     -12.633  15.544  69.397  1.00  0.00     0.109 A  
HETATM   33  F   UNL     1     -14.281  14.441  70.675  1.00  0.00    -0.074 F  
ENDBRANCH  24  26
ENDBRANCH  15  21
ENDBRANCH  10  12
ENDBRANCH   8  10
ENDBRANCH   6   8
TORSDOF 5
ENDMDL
MODEL      210
REMARK 921   NORMALIZED FREE ENERGY PREDICTED BY IDOCK:   -4.56 KCAL/MOL
REMARK 922        TOTAL FREE ENERGY PREDICTED BY IDOCK:   -7.62 KCAL/MOL
REMARK 923 INTER-LIGAND FREE ENERGY PREDICTED BY IDOCK:   -6.29 KCAL/MOL
REMARK 924 INTRA-LIGAND FREE ENERGY PREDICTED BY IDOCK:   -1.33 KCAL/MOL
REMARK 927      BINDING AFFINITY PREDICTED BY RF-SCORE:    0.00 PKD
ROOT
HETATM    1  O   UNL     1     -11.230  11.814  62.834  1.00  0.00    -0.621 OA 
HETATM    2  H   UNL     1     -10.670  12.116  62.128  1.00  0.00     0.000 HD 
HETATM    3  C   UNL     1     -11.769  12.903  63.563  1.00  0.00    -0.512 C  
HETATM    4  C   UNL     1     -12.666  12.419  64.697  1.00  0.00    -0.372 C  
HETATM    5  C   UNL     1     -12.661  13.593  65.652  1.00  0.00    -0.484 C  
HETATM    6  N   UNL     1     -11.330  14.163  65.525  1.00  0.00    -0.312 N  
HETATM    7  C   UNL     1     -10.688  13.709  64.295  1.00  0.00    -0.262 C  
ENDROOT
BRANCH   6   8
HETATM    8  C   UNL     1     -10.874  15.038  66.497  1.00  0.00    -0.320 C  
HETATM    9  O   UNL     1     -11.642  15.436  67.366  1.00  0.00    -0.269 OA 
BRANCH   8  10
HETATM   10  N   UNL     1      -9.559  15.409  66.347  1.00  0.00    -0.271 N  
HETATM   11  H   UNL     1      -9.295  15.820  65.451  1.00  0.00     0.000 HD 
BRANCH  10  12
HETATM   12  C   UNL     1      -8.552  15.277  67.297  1.00  0.00    -0.190 A  
HETATM   13  C   UNL     1      -7.657  14.248  67.555  1.00  0.00    -0.184 A  
HETATM   14  N   UNL     1      -7.411  13.022  66.980  1.00  0.00     0.062 NA 
HETATM   15  C   UNL     1      -6.528  12.237  67.547  1.00  0.00    -0.137 A  
HETATM   16  C   UNL     1      -8.230  16.276  68.244  1.00  0.00    -0.173 A  
HETATM   17  C   UNL     1      -5.697  12.663  68.725  1.00  0.00    -0.066 A  
HETATM   18  N   UNL     1      -7.252  15.928  69.073  1.00  0.00    -0.163 NA 
HETATM   19  C   UNL     1      -5.929  13.881  69.222  1.00  0.00    -0.090 A  
HETATM   20  N   UNL     1      -6.906  14.682  68.660  1.00  0.00    -0.089 NA 
BRANCH  15  21
HETATM   21  N   UNL     1      -6.292  10.963  67.085  1.00  0.00    -0.067 NA 
HETATM   22  C   UNL     1      -6.366   8.628  66.699  1.00  0.00    -0.059 C  
HETATM   23  C   UNL     1      -5.572  10.700  65.854  1.00  0.00    -0.124 C  
HETATM   24  C   UNL     1      -6.666   9.719  67.759  1.00  0.00    -0.069 C  
HETATM   25  C   UNL     1      -6.175   9.389  65.390  1.00  0.00    -0.065 C  
BRANCH  24  26
HETATM   26  C   UNL     1      -8.086   9.796  68.283  1.00  0.00    -0.104 A  
HETATM   27  C   UNL     1      -8.495   9.321  69.533  1.00  0.00    -0.144 A  
HETATM   28  C   UNL     1      -9.839   9.332  69.916  1.00  0.00    -0.219 A  
HETATM   29  F   UNL     1      -7.608   8.816  70.402  1.00  0.00    -0.058 F  
HETATM   30  C   UNL     1     -10.809   9.815  69.041  1.00  0.00    -0.223 A  
HETATM   31  C   UNL     1     -10.419  10.298  67.799  1.00  0.00    -0.226 A  
HETATM   32  C   UNL     1      -9.080  10.297  67.419  1.00  0.00    -0.148 A  
HETATM   33  F   UNL     1     -11.347  10.759  66.950  1.00  0.00    -0.325 F  
ENDBRANCH  24  26
ENDBRANCH  15  21
ENDBRANCH  10  12
ENDBRANCH   8  10
ENDBRANCH   6   8
TORSDOF 5
ENDMDL
MODEL      211
REMARK 921   NORMALIZED FREE ENERGY PREDICTED BY IDOCK:   -4.53 KCAL/MOL
REMARK 922        TOTAL FREE ENERGY PREDICTED BY IDOCK:   -7.59 KCAL/MOL
REMARK 923 INTER-LIGAND FREE ENERGY PREDICTED BY IDOCK:   -6.45 KCAL/MOL
REMARK 924 INTRA-LIGAND FREE ENERGY PREDICTED BY IDOCK:   -1.13 KCAL/MOL
REMARK 927      BINDING AFFINITY PREDICTED BY RF-SCORE:    0.00 PKD
ROOT
HETATM    1  O   UNL     1      -6.548  10.729  63.666  1.00  0.00    -0.359 OA 
HETATM    2  H   UNL     1      -7.053  11.092  62.947  1.00  0.00     0.000 HD 
HETATM    3  C   UNL     1      -7.229   9.646  64.275  1.00  0.00    -0.122 C  
HETATM    4  C   UNL     1      -6.420   9.064  65.429  1.00  0.00    -0.067 C  
HETATM    5  C   UNL     1      -7.477   8.380  66.268  1.00  0.00    -0.089 C  
HETATM    6  N   UNL     1      -8.659   9.211  66.118  1.00  0.00    -0.131 N  
HETATM    7  C   UNL     1      -8.536  10.081  64.951  1.00  0.00    -0.166 C  
ENDROOT
BRANCH   6   8
HETATM    8  C   UNL     1      -9.707   9.065  67.012  1.00  0.00    -0.189 C  
HETATM    9  O   UNL     1     -10.816   8.743  66.601  1.00  0.00    -0.079 OA 
BRANCH   8  10
HETATM   10  N   UNL     1      -9.376   9.348  68.316  1.00  0.00    -0.134 N  
HETATM   11  H   UNL     1      -9.925   8.887  69.041  1.00  0.00     0.000 HD 
BRANCH  10  12
HETATM   12  C   UNL     1      -8.365  10.203  68.742  1.00  0.00    -0.122 A  
HETATM   13  C   UNL     1      -8.185  11.570  68.580  1.00  0.00    -0.148 A  
HETATM   14  N   UNL     1      -8.915  12.571  67.981  1.00  0.00    -0.186 NA 
HETATM   15  C   UNL     1      -8.395  13.773  67.927  1.00  0.00    -0.172 A  
HETATM   16  C   UNL     1      -7.250   9.784  69.502  1.00  0.00    -0.087 A  
HETATM   17  C   UNL     1      -7.091  14.125  68.589  1.00  0.00    -0.110 A  
HETATM   18  N   UNL     1      -6.396  10.763  69.777  1.00  0.00    -0.087 NA 
HETATM   19  C   UNL     1      -6.437  13.136  69.204  1.00  0.00    -0.107 A  
HETATM   20  N   UNL     1      -6.960  11.856  69.204  1.00  0.00    -0.100 NA 
BRANCH  15  21
HETATM   21  N   UNL     1      -9.023  14.804  67.268  1.00  0.00    -0.188 NA 
HETATM   22  C   UNL     1     -10.588  16.420  66.532  1.00  0.00    -0.235 C  
HETATM   23  C   UNL     1      -8.296  15.802  66.510  1.00  0.00    -0.278 C  
HETATM   24  C   UNL     1     -10.468  15.018  67.184  1.00  0.00    -0.277 C  
HETATM   25  C   UNL     1      -9.189  17.022  66.626  1.00  0.00    -0.277 C  
BRANCH  24  26
HETATM   26  C   UNL     1     -11.119  14.833  68.539  1.00  0.00    -0.275 A  
HETATM   27  C   UNL     1     -11.958  13.764  68.874  1.00  0.00    -0.359 A  
HETATM   28  C   UNL     1     -12.607  13.703  70.111  1.00  0.00    -0.215 A  
HETATM   29  F   UNL     1     -12.184  12.768  68.007  1.00  0.00    -0.364 F  
HETATM   30  C   UNL     1     -12.434  14.727  71.039  1.00  0.00    -0.400 A  
HETATM   31  C   UNL     1     -11.599  15.790  70.726  1.00  0.00    -0.398 A  
HETATM   32  C   UNL     1     -10.944  15.849  69.500  1.00  0.00    -0.311 A  
HETATM   33  F   UNL     1     -11.433  16.781  71.612  1.00  0.00    -0.420 F  
ENDBRANCH  24  26
ENDBRANCH  15  21
ENDBRANCH  10  12
ENDBRANCH   8  10
ENDBRANCH   6   8
TORSDOF 5
ENDMDL
MODEL      212
REMARK 921   NORMALIZED FREE ENERGY PREDICTED BY IDOCK:   -4.52 KCAL/MOL
REMARK 922        TOTAL FREE ENERGY PREDICTED BY IDOCK:   -7.58 KCAL/MOL
REMARK 923 INTER-LIGAND FREE ENERGY PREDICTED BY IDOCK:   -5.90 KCAL/MOL
REMARK 924 INTRA-LIGAND FREE ENERGY PREDICTED BY IDOCK:   -1.68 KCAL/MOL
REMARK 927      BINDING AFFINITY PREDICTED BY RF-SCORE:    0.00 PKD
ROOT
HETATM    1  O   UNL     1     -12.203   8.089  72.881  1.00  0.00    -0.623 OA 
HETATM    2  H   UNL     1     -12.744   8.375  72.154  1.00  0.00     0.000 HD 
HETATM    3  C   UNL     1     -11.003   7.489  72.422  1.00  0.00    -0.286 C  
HETATM    4  C   UNL     1     -10.136   7.028  73.588  1.00  0.00    -0.376 C  
HETATM    5  C   UNL     1      -9.265   5.964  72.957  1.00  0.00    -0.137 C  
HETATM    6  N   UNL     1     -10.116   5.338  71.958  1.00  0.00    -0.187 N  
HETATM    7  C   UNL     1     -11.258   6.192  71.644  1.00  0.00    -0.286 C  
ENDROOT
BRANCH   6   8
HETATM    8  C   UNL     1      -9.750   4.111  71.431  1.00  0.00    -0.181 C  
HETATM    9  O   UNL     1     -10.240   3.083  71.886  1.00  0.00    -0.126 OA 
BRANCH   8  10
HETATM   10  N   UNL     1      -8.805   4.186  70.436  1.00  0.00    -0.081 N  
HETATM   11  H   UNL     1      -7.882   3.807  70.647  1.00  0.00     0.000 HD 
BRANCH  10  12
HETATM   12  C   UNL     1      -8.985   4.730  69.168  1.00  0.00    -0.096 A  
HETATM   13  C   UNL     1      -8.588   5.941  68.621  1.00  0.00    -0.110 A  
HETATM   14  N   UNL     1      -7.872   7.020  69.090  1.00  0.00    -0.112 NA 
HETATM   15  C   UNL     1      -7.755   8.071  68.316  1.00  0.00    -0.117 A  
HETATM   16  C   UNL     1      -9.655   4.065  68.117  1.00  0.00    -0.128 A  
HETATM   17  C   UNL     1      -8.269   8.104  66.904  1.00  0.00    -0.111 A  
HETATM   18  N   UNL     1      -9.735   4.781  67.001  1.00  0.00    -0.171 NA 
HETATM   19  C   UNL     1      -8.914   7.018  66.468  1.00  0.00    -0.147 A  
HETATM   20  N   UNL     1      -9.091   5.935  67.309  1.00  0.00    -0.112 NA 
BRANCH  15  21
HETATM   21  N   UNL     1      -7.131   9.219  68.747  1.00  0.00    -0.072 NA 
HETATM   22  C   UNL     1      -6.655  11.438  69.422  1.00  0.00    -0.119 C  
HETATM   23  C   UNL     1      -5.849   9.204  69.422  1.00  0.00    -0.034 C  
HETATM   24  C   UNL     1      -7.616  10.586  68.552  1.00  0.00    -0.097 C  
HETATM   25  C   UNL     1      -5.927  10.431  70.309  1.00  0.00    -0.096 C  
BRANCH  24  26
HETATM   26  C   UNL     1      -9.095  10.683  68.866  1.00  0.00    -0.181 A  
HETATM   27  C   UNL     1      -9.698  10.147  70.009  1.00  0.00    -0.093 A  
HETATM   28  C   UNL     1     -11.083  10.184  70.192  1.00  0.00    -0.378 A  
HETATM   29  F   UNL     1      -8.963   9.558  70.963  1.00  0.00    -0.269 F  
HETATM   30  C   UNL     1     -11.899  10.755  69.218  1.00  0.00    -0.359 A  
HETATM   31  C   UNL     1     -11.316  11.299  68.081  1.00  0.00    -0.303 A  
HETATM   32  C   UNL     1      -9.937  11.272  67.902  1.00  0.00    -0.189 A  
HETATM   33  F   UNL     1     -12.095  11.844  67.138  1.00  0.00    -0.322 F  
ENDBRANCH  24  26
ENDBRANCH  15  21
ENDBRANCH  10  12
ENDBRANCH   8  10
ENDBRANCH   6   8
TORSDOF 5
ENDMDL
MODEL      213
REMARK 921   NORMALIZED FREE ENERGY PREDICTED BY IDOCK:   -4.52 KCAL/MOL
REMARK 922        TOTAL FREE ENERGY PREDICTED BY IDOCK:   -7.57 KCAL/MOL
REMARK 923 INTER-LIGAND FREE ENERGY PREDICTED BY IDOCK:   -6.19 KCAL/MOL
REMARK 924 INTRA-LIGAND FREE ENERGY PREDICTED BY IDOCK:   -1.39 KCAL/MOL
REMARK 927      BINDING AFFINITY PREDICTED BY RF-SCORE:    0.00 PKD
ROOT
HETATM    1  O   UNL     1     -12.561  14.609  66.348  1.00  0.00    -0.341 OA 
HETATM    2  H   UNL     1     -12.171  14.430  65.500  1.00  0.00     0.000 HD 
HETATM    3  C   UNL     1     -11.766  14.084  67.399  1.00  0.00    -0.388 C  
HETATM    4  C   UNL     1     -12.391  14.370  68.759  1.00  0.00    -0.080 C  
HETATM    5  C   UNL     1     -11.777  13.304  69.641  1.00  0.00    -0.303 C  
HETATM    6  N   UNL     1     -11.622  12.152  68.768  1.00  0.00    -0.302 N  
HETATM    7  C   UNL     1     -11.691  12.552  67.366  1.00  0.00    -0.366 C  
ENDROOT
BRANCH   6   8
HETATM    8  C   UNL     1     -11.404  10.904  69.329  1.00  0.00    -0.277 C  
HETATM    9  O   UNL     1     -11.048   9.972  68.617  1.00  0.00    -0.228 OA 
BRANCH   8  10
HETATM   10  N   UNL     1     -11.660  10.842  70.678  1.00  0.00    -0.364 N  
HETATM   11  H   UNL     1     -11.823  11.727  71.157  1.00  0.00     0.000 HD 
BRANCH  10  12
HETATM   12  C   UNL     1     -11.719   9.688  71.453  1.00  0.00    -0.404 A  
HETATM   13  C   UNL     1     -10.787   8.687  71.686  1.00  0.00    -0.304 A  
HETATM   14  N   UNL     1      -9.491   8.466  71.278  1.00  0.00    -0.171 NA 
HETATM   15  C   UNL     1      -8.916   7.338  71.618  1.00  0.00    -0.124 A  
HETATM   16  C   UNL     1     -12.844   9.316  72.223  1.00  0.00    -0.384 A  
HETATM   17  C   UNL     1      -9.570   6.333  72.525  1.00  0.00    -0.146 A  
HETATM   18  N   UNL     1     -12.691   8.162  72.863  1.00  0.00     0.008 NA 
HETATM   19  C   UNL     1     -10.809   6.608  72.942  1.00  0.00    -0.262 A  
HETATM   20  N   UNL     1     -11.436   7.769  72.528  1.00  0.00    -0.355 NA 
BRANCH  15  21
HETATM   21  N   UNL     1      -7.657   7.006  71.175  1.00  0.00    -0.085 NA 
HETATM   22  C   UNL     1      -5.828   6.133  69.952  1.00  0.00    -0.018 C  
HETATM   23  C   UNL     1      -6.468   7.720  71.598  1.00  0.00    -0.039 C  
HETATM   24  C   UNL     1      -7.322   5.892  70.287  1.00  0.00    -0.080 C  
HETATM   25  C   UNL     1      -5.545   7.563  70.406  1.00  0.00    -0.023 C  
BRANCH  24  26
HETATM   26  C   UNL     1      -8.287   5.826  69.120  1.00  0.00    -0.105 A  
HETATM   27  C   UNL     1      -9.001   4.682  68.748  1.00  0.00    -0.108 A  
HETATM   28  C   UNL     1      -9.800   4.659  67.602  1.00  0.00    -0.194 A  
HETATM   29  F   UNL     1      -8.926   3.558  69.473  1.00  0.00    -0.117 F  
HETATM   30  C   UNL     1      -9.890   5.790  66.792  1.00  0.00    -0.188 A  
HETATM   31  C   UNL     1      -9.193   6.936  67.152  1.00  0.00    -0.139 A  
HETATM   32  C   UNL     1      -8.405   6.964  68.298  1.00  0.00    -0.123 A  
HETATM   33  F   UNL     1      -9.270   8.024  66.375  1.00  0.00    -0.176 F  
ENDBRANCH  24  26
ENDBRANCH  15  21
ENDBRANCH  10  12
ENDBRANCH   8  10
ENDBRANCH   6   8
TORSDOF 5
ENDMDL
MODEL      214
REMARK 921   NORMALIZED FREE ENERGY PREDICTED BY IDOCK:   -4.50 KCAL/MOL
REMARK 922        TOTAL FREE ENERGY PREDICTED BY IDOCK:   -7.55 KCAL/MOL
REMARK 923 INTER-LIGAND FREE ENERGY PREDICTED BY IDOCK:   -6.68 KCAL/MOL
REMARK 924 INTRA-LIGAND FREE ENERGY PREDICTED BY IDOCK:   -0.87 KCAL/MOL
REMARK 927      BINDING AFFINITY PREDICTED BY RF-SCORE:    0.00 PKD
ROOT
HETATM    1  O   UNL     1     -10.006  20.564  66.240  1.00  0.00    -0.587 OA 
HETATM    2  H   UNL     1      -9.381  21.079  65.743  1.00  0.00     0.000 HD 
HETATM    3  C   UNL     1      -9.357  19.548  66.985  1.00  0.00    -0.336 C  
HETATM    4  C   UNL     1     -10.359  18.722  67.783  1.00  0.00    -0.467 C  
HETATM    5  C   UNL     1      -9.616  17.424  68.012  1.00  0.00    -0.276 C  
HETATM    6  N   UNL     1      -8.812  17.245  66.815  1.00  0.00    -0.237 N  
HETATM    7  C   UNL     1      -8.682  18.504  66.086  1.00  0.00    -0.118 C  
ENDROOT
BRANCH   6   8
HETATM    8  C   UNL     1      -8.269  16.000  66.544  1.00  0.00    -0.299 C  
HETATM    9  O   UNL     1      -7.102  15.769  66.839  1.00  0.00    -0.188 OA 
BRANCH   8  10
HETATM   10  N   UNL     1      -9.132  15.137  65.912  1.00  0.00    -0.460 N  
HETATM   11  H   UNL     1      -9.097  15.115  64.893  1.00  0.00     0.000 HD 
BRANCH  10  12
HETATM   12  C   UNL     1     -10.047  14.289  66.527  1.00  0.00    -0.278 A  
HETATM   13  C   UNL     1      -9.873  13.211  67.384  1.00  0.00    -0.226 A  
HETATM   14  N   UNL     1      -8.777  12.603  67.953  1.00  0.00    -0.172 NA 
HETATM   15  C   UNL     1      -8.968  11.517  68.661  1.00  0.00    -0.112 A  
HETATM   16  C   UNL     1     -11.448  14.407  66.380  1.00  0.00    -0.360 A  
HETATM   17  C   UNL     1     -10.337  10.977  68.971  1.00  0.00    -0.229 A  
HETATM   18  N   UNL     1     -12.131  13.475  67.036  1.00  0.00    -0.378 NA 
HETATM   19  C   UNL     1     -11.378  11.626  68.443  1.00  0.00    -0.279 A  
HETATM   20  N   UNL     1     -11.169  12.735  67.643  1.00  0.00    -0.264 NA 
BRANCH  15  21
HETATM   21  N   UNL     1      -7.917  10.803  69.187  1.00  0.00    -0.147 NA 
HETATM   22  C   UNL     1      -6.365   9.101  69.734  1.00  0.00    -0.039 C  
HETATM   23  C   UNL     1      -6.757  11.442  69.777  1.00  0.00    -0.076 C  
HETATM   24  C   UNL     1      -7.828   9.345  69.282  1.00  0.00    -0.085 C  
HETATM   25  C   UNL     1      -5.655  10.435  69.517  1.00  0.00    -0.038 C  
BRANCH  24  26
HETATM   26  C   UNL     1      -8.264   8.694  67.985  1.00  0.00    -0.115 A  
HETATM   27  C   UNL     1      -7.571   8.801  66.774  1.00  0.00    -0.090 A  
HETATM   28  C   UNL     1      -8.079   8.259  65.590  1.00  0.00    -0.124 A  
HETATM   29  F   UNL     1      -6.400   9.449  66.705  1.00  0.00    -0.061 F  
HETATM   30  C   UNL     1      -9.307   7.602  65.595  1.00  0.00     0.209 A  
HETATM   31  C   UNL     1     -10.004   7.480  66.790  1.00  0.00    -0.237 A  
HETATM   32  C   UNL     1      -9.496   8.011  67.972  1.00  0.00    -0.157 A  
HETATM   33  F   UNL     1     -11.189   6.855  66.801  1.00  0.00    -0.457 F  
ENDBRANCH  24  26
ENDBRANCH  15  21
ENDBRANCH  10  12
ENDBRANCH   8  10
ENDBRANCH   6   8
TORSDOF 5
ENDMDL
MODEL      215
REMARK 921   NORMALIZED FREE ENERGY PREDICTED BY IDOCK:   -4.50 KCAL/MOL
REMARK 922        TOTAL FREE ENERGY PREDICTED BY IDOCK:   -7.54 KCAL/MOL
REMARK 923 INTER-LIGAND FREE ENERGY PREDICTED BY IDOCK:   -6.09 KCAL/MOL
REMARK 924 INTRA-LIGAND FREE ENERGY PREDICTED BY IDOCK:   -1.45 KCAL/MOL
REMARK 927      BINDING AFFINITY PREDICTED BY RF-SCORE:    0.00 PKD
ROOT
HETATM    1  O   UNL     1      -8.812   3.568  72.140  1.00  0.00    -0.089 OA 
HETATM    2  H   UNL     1      -9.318   2.889  72.571  1.00  0.00     0.000 HD 
HETATM    3  C   UNL     1      -9.161   4.854  72.624  1.00  0.00    -0.130 C  
HETATM    4  C   UNL     1      -8.350   5.943  71.932  1.00  0.00    -0.119 C  
HETATM    5  C   UNL     1      -9.212   7.173  72.119  1.00  0.00    -0.129 C  
HETATM    6  N   UNL     1     -10.576   6.675  72.068  1.00  0.00    -0.209 N  
HETATM    7  C   UNL     1     -10.610   5.232  72.288  1.00  0.00    -0.222 C  
ENDROOT
BRANCH   6   8
HETATM    8  C   UNL     1     -11.615   7.570  71.869  1.00  0.00    -0.275 C  
HETATM    9  O   UNL     1     -12.728   7.152  71.571  1.00  0.00    -0.362 OA 
BRANCH   8  10
HETATM   10  N   UNL     1     -11.252   8.889  71.998  1.00  0.00    -0.368 N  
HETATM   11  H   UNL     1     -10.577   9.112  72.729  1.00  0.00     0.000 HD 
BRANCH  10  12
HETATM   12  C   UNL     1     -11.717   9.950  71.228  1.00  0.00    -0.392 A  
HETATM   13  C   UNL     1     -11.352  10.403  69.968  1.00  0.00    -0.313 A  
HETATM   14  N   UNL     1     -10.444   9.984  69.021  1.00  0.00    -0.202 NA 
HETATM   15  C   UNL     1     -10.284  10.718  67.947  1.00  0.00    -0.176 A  
HETATM   16  C   UNL     1     -12.754  10.820  71.634  1.00  0.00    -0.414 A  
HETATM   17  C   UNL     1     -11.126  11.929  67.656  1.00  0.00    -0.314 A  
HETATM   18  N   UNL     1     -13.018  11.779  70.754  1.00  0.00    -0.055 NA 
HETATM   19  C   UNL     1     -12.031  12.274  68.575  1.00  0.00    -0.219 A  
HETATM   20  N   UNL     1     -12.154  11.533  69.737  1.00  0.00    -0.315 NA 
BRANCH  15  21
HETATM   21  N   UNL     1      -9.335  10.414  67.000  1.00  0.00    -0.153 NA 
HETATM   22  C   UNL     1      -7.418  10.419  65.610  1.00  0.00    -0.149 C  
HETATM   23  C   UNL     1      -9.234   9.103  66.389  1.00  0.00    -0.183 C  
HETATM   24  C   UNL     1      -8.351  11.340  66.438  1.00  0.00    -0.159 C  
HETATM   25  C   UNL     1      -7.757   9.001  66.063  1.00  0.00    -0.095 C  
BRANCH  24  26
HETATM   26  C   UNL     1      -7.706  12.168  67.531  1.00  0.00    -0.159 A  
HETATM   27  C   UNL     1      -7.737  13.565  67.588  1.00  0.00    -0.176 A  
HETATM   28  C   UNL     1      -7.037  14.273  68.570  1.00  0.00    -0.105 A  
HETATM   29  F   UNL     1      -8.425  14.276  66.684  1.00  0.00    -0.209 F  
HETATM   30  C   UNL     1      -6.278  13.588  69.515  1.00  0.00    -0.115 A  
HETATM   31  C   UNL     1      -6.244  12.200  69.478  1.00  0.00    -0.124 A  
HETATM   32  C   UNL     1      -6.947  11.493  68.508  1.00  0.00    -0.083 A  
HETATM   33  F   UNL     1      -5.511  11.535  70.380  1.00  0.00    -0.078 F  
ENDBRANCH  24  26
ENDBRANCH  15  21
ENDBRANCH  10  12
ENDBRANCH   8  10
ENDBRANCH   6   8
TORSDOF 5
ENDMDL
MODEL      216
REMARK 921   NORMALIZED FREE ENERGY PREDICTED BY IDOCK:   -4.47 KCAL/MOL
REMARK 922        TOTAL FREE ENERGY PREDICTED BY IDOCK:   -7.51 KCAL/MOL
REMARK 923 INTER-LIGAND FREE ENERGY PREDICTED BY IDOCK:   -6.47 KCAL/MOL
REMARK 924 INTRA-LIGAND FREE ENERGY PREDICTED BY IDOCK:   -1.04 KCAL/MOL
REMARK 927      BINDING AFFINITY PREDICTED BY RF-SCORE:    0.00 PKD
ROOT
HETATM    1  O   UNL     1      -8.329   3.825  74.513  1.00  0.00    -0.084 OA 
HETATM    2  H   UNL     1      -9.036   3.282  74.842  1.00  0.00     0.000 HD 
HETATM    3  C   UNL     1      -8.821   4.850  73.666  1.00  0.00    -0.108 C  
HETATM    4  C   UNL     1      -7.687   5.720  73.137  1.00  0.00    -0.099 C  
HETATM    5  C   UNL     1      -8.285   6.323  71.883  1.00  0.00    -0.110 C  
HETATM    6  N   UNL     1      -9.157   5.286  71.358  1.00  0.00    -0.143 N  
HETATM    7  C   UNL     1      -9.460   4.294  72.386  1.00  0.00    -0.129 C  
ENDROOT
BRANCH   6   8
HETATM    8  C   UNL     1      -9.599   5.373  70.048  1.00  0.00    -0.169 C  
HETATM    9  O   UNL     1      -8.820   5.151  69.128  1.00  0.00    -0.091 OA 
BRANCH   8  10
HETATM   10  N   UNL     1     -10.914   5.755  69.923  1.00  0.00    -0.349 N  
HETATM   11  H   UNL     1     -11.560   5.063  69.545  1.00  0.00     0.000 HD 
BRANCH  10  12
HETATM   12  C   UNL     1     -11.448   6.994  70.261  1.00  0.00    -0.287 A  
HETATM   13  C   UNL     1     -11.032   8.286  69.972  1.00  0.00    -0.197 A  
HETATM   14  N   UNL     1      -9.990   8.822  69.251  1.00  0.00    -0.188 NA 
HETATM   15  C   UNL     1      -9.833  10.123  69.259  1.00  0.00    -0.220 A  
HETATM   16  C   UNL     1     -12.630   7.159  71.017  1.00  0.00    -0.290 A  
HETATM   17  C   UNL     1     -10.805  11.056  69.926  1.00  0.00    -0.142 A  
HETATM   18  N   UNL     1     -12.942   8.430  71.245  1.00  0.00    -0.217 NA 
HETATM   19  C   UNL     1     -11.833  10.499  70.573  1.00  0.00    -0.347 A  
HETATM   20  N   UNL     1     -11.959   9.123  70.616  1.00  0.00    -0.189 NA 
BRANCH  15  21
HETATM   21  N   UNL     1      -8.765  10.726  68.636  1.00  0.00    -0.145 NA 
HETATM   22  C   UNL     1      -7.399  12.046  67.222  1.00  0.00    -0.151 C  
HETATM   23  C   UNL     1      -7.442  10.772  69.226  1.00  0.00    -0.135 C  
HETATM   24  C   UNL     1      -8.779  11.343  67.309  1.00  0.00    -0.148 C  
HETATM   25  C   UNL     1      -6.868  12.053  68.654  1.00  0.00    -0.091 C  
BRANCH  24  26
HETATM   26  C   UNL     1     -10.006  12.215  67.134  1.00  0.00    -0.210 A  
HETATM   27  C   UNL     1     -11.086  11.902  66.301  1.00  0.00    -0.314 A  
HETATM   28  C   UNL     1     -12.143  12.796  66.108  1.00  0.00    -0.429 A  
HETATM   29  F   UNL     1     -11.132  10.736  65.642  1.00  0.00    -0.193 F  
HETATM   30  C   UNL     1     -12.132  14.036  66.742  1.00  0.00    -0.480 A  
HETATM   31  C   UNL     1     -11.072  14.358  67.578  1.00  0.00    -0.302 A  
HETATM   32  C   UNL     1     -10.023  13.467  67.780  1.00  0.00    -0.233 A  
HETATM   33  F   UNL     1     -11.052  15.551  68.187  1.00  0.00    -0.273 F  
ENDBRANCH  24  26
ENDBRANCH  15  21
ENDBRANCH  10  12
ENDBRANCH   8  10
ENDBRANCH   6   8
TORSDOF 5
ENDMDL
MODEL      217
REMARK 921   NORMALIZED FREE ENERGY PREDICTED BY IDOCK:   -4.47 KCAL/MOL
REMARK 922        TOTAL FREE ENERGY PREDICTED BY IDOCK:   -7.50 KCAL/MOL
REMARK 923 INTER-LIGAND FREE ENERGY PREDICTED BY IDOCK:   -6.46 KCAL/MOL
REMARK 924 INTRA-LIGAND FREE ENERGY PREDICTED BY IDOCK:   -1.04 KCAL/MOL
REMARK 927      BINDING AFFINITY PREDICTED BY RF-SCORE:    0.00 PKD
ROOT
HETATM    1  O   UNL     1     -11.188  17.469  68.483  1.00  0.00    -0.140 OA 
HETATM    2  H   UNL     1     -10.576  18.162  68.702  1.00  0.00     0.000 HD 
HETATM    3  C   UNL     1     -10.670  16.197  68.831  1.00  0.00    -0.280 C  
HETATM    4  C   UNL     1     -11.652  15.085  68.478  1.00  0.00    -0.348 C  
HETATM    5  C   UNL     1     -10.756  13.870  68.370  1.00  0.00    -0.257 C  
HETATM    6  N   UNL     1      -9.504  14.383  67.841  1.00  0.00    -0.209 N  
HETATM    7  C   UNL     1      -9.422  15.830  68.017  1.00  0.00    -0.202 C  
ENDROOT
BRANCH   6   8
HETATM    8  C   UNL     1      -8.583  13.498  67.305  1.00  0.00    -0.213 C  
HETATM    9  O   UNL     1      -7.470  13.400  67.808  1.00  0.00    -0.127 OA 
BRANCH   8  10
HETATM   10  N   UNL     1      -9.032  12.826  66.193  1.00  0.00    -0.429 N  
HETATM   11  H   UNL     1      -9.295  13.393  65.387  1.00  0.00     0.000 HD 
BRANCH  10  12
HETATM   12  C   UNL     1      -9.162  11.448  66.060  1.00  0.00    -0.214 A  
HETATM   13  C   UNL     1      -9.784  10.499  66.860  1.00  0.00    -0.180 A  
HETATM   14  N   UNL     1     -10.503  10.554  68.033  1.00  0.00    -0.184 NA 
HETATM   15  C   UNL     1     -10.879   9.426  68.583  1.00  0.00    -0.109 A  
HETATM   16  C   UNL     1      -8.645  10.711  64.970  1.00  0.00    -0.160 A  
HETATM   17  C   UNL     1     -10.658   8.089  67.932  1.00  0.00    -0.210 A  
HETATM   18  N   UNL     1      -8.862   9.404  65.061  1.00  0.00    -0.185 NA 
HETATM   19  C   UNL     1     -10.001   8.082  66.769  1.00  0.00    -0.274 A  
HETATM   20  N   UNL     1      -9.550   9.270  66.223  1.00  0.00    -0.226 NA 
BRANCH  15  21
HETATM   21  N   UNL     1     -11.522   9.394  69.798  1.00  0.00    -0.047 NA 
HETATM   22  C   UNL     1     -12.175   8.898  72.019  1.00  0.00    -0.447 C  
HETATM   23  C   UNL     1     -12.406  10.454  70.241  1.00  0.00    -0.250 C  
HETATM   24  C   UNL     1     -11.465   8.305  70.775  1.00  0.00    -0.252 C  
HETATM   25  C   UNL     1     -12.263  10.398  71.749  1.00  0.00    -0.219 C  
BRANCH  24  26
HETATM   26  C   UNL     1     -10.040   7.825  70.961  1.00  0.00    -0.199 A  
HETATM   27  C   UNL     1      -9.646   6.483  70.924  1.00  0.00    -0.175 A  
HETATM   28  C   UNL     1      -8.331   6.098  71.201  1.00  0.00    -0.124 A  
HETATM   29  F   UNL     1     -10.528   5.514  70.639  1.00  0.00    -0.275 F  
HETATM   30  C   UNL     1      -7.380   7.058  71.535  1.00  0.00    -0.080 A  
HETATM   31  C   UNL     1      -7.752   8.395  71.569  1.00  0.00    -0.103 A  
HETATM   32  C   UNL     1      -9.057   8.782  71.284  1.00  0.00    -0.300 A  
HETATM   33  F   UNL     1      -6.843   9.324  71.895  1.00  0.00    -0.045 F  
ENDBRANCH  24  26
ENDBRANCH  15  21
ENDBRANCH  10  12
ENDBRANCH   8  10
ENDBRANCH   6   8
TORSDOF 5
ENDMDL
MODEL      218
REMARK 921   NORMALIZED FREE ENERGY PREDICTED BY IDOCK:   -4.46 KCAL/MOL
REMARK 922        TOTAL FREE ENERGY PREDICTED BY IDOCK:   -7.50 KCAL/MOL
REMARK 923 INTER-LIGAND FREE ENERGY PREDICTED BY IDOCK:   -8.10 KCAL/MOL
REMARK 924 INTRA-LIGAND FREE ENERGY PREDICTED BY IDOCK:    0.60 KCAL/MOL
REMARK 927      BINDING AFFINITY PREDICTED BY RF-SCORE:    0.00 PKD
ROOT
HETATM    1  O   UNL     1     -10.478  17.998  69.445  1.00  0.00    -0.400 OA 
HETATM    2  H   UNL     1     -10.292  18.879  69.142  1.00  0.00     0.000 HD 
HETATM    3  C   UNL     1     -10.020  17.028  68.518  1.00  0.00    -0.293 C  
HETATM    4  C   UNL     1     -10.318  15.615  69.005  1.00  0.00    -0.225 C  
HETATM    5  C   UNL     1     -10.309  14.810  67.723  1.00  0.00    -0.244 C  
HETATM    6  N   UNL     1     -10.837  15.717  66.718  1.00  0.00    -0.307 N  
HETATM    7  C   UNL     1     -10.767  17.100  67.180  1.00  0.00    -0.177 C  
ENDROOT
BRANCH   6   8
HETATM    8  C   UNL     1     -11.278  15.203  65.509  1.00  0.00    -0.320 C  
HETATM    9  O   UNL     1     -11.229  15.897  64.500  1.00  0.00    -0.454 OA 
BRANCH   8  10
HETATM   10  N   UNL     1     -11.780  13.926  65.591  1.00  0.00    -0.341 N  
HETATM   11  H   UNL     1     -12.704  13.821  66.009  1.00  0.00     0.000 HD 
BRANCH  10  12
HETATM   12  C   UNL     1     -11.150  12.764  65.160  1.00  0.00    -0.291 A  
HETATM   13  C   UNL     1     -10.840  11.584  65.822  1.00  0.00    -0.262 A  
HETATM   14  N   UNL     1     -11.046  11.116  67.100  1.00  0.00    -0.295 NA 
HETATM   15  C   UNL     1     -10.527   9.959  67.429  1.00  0.00    -0.267 A  
HETATM   16  C   UNL     1     -10.689  12.564  63.839  1.00  0.00    -0.437 A  
HETATM   17  C   UNL     1      -9.816   9.076  66.441  1.00  0.00    -0.356 A  
HETATM   18  N   UNL     1     -10.094  11.391  63.656  1.00  0.00    -0.336 NA 
HETATM   19  C   UNL     1      -9.680   9.543  65.197  1.00  0.00    -0.137 A  
HETATM   20  N   UNL     1     -10.174  10.793  64.871  1.00  0.00    -0.314 NA 
BRANCH  15  21
HETATM   21  N   UNL     1     -10.614   9.466  68.710  1.00  0.00    -0.222 NA 
HETATM   22  C   UNL     1     -10.722   8.050  70.605  1.00  0.00    -0.235 C  
HETATM   23  C   UNL     1     -10.351  10.281  69.879  1.00  0.00    -0.233 C  
HETATM   24  C   UNL     1     -11.023   8.111  69.085  1.00  0.00     0.089 C  
HETATM   25  C   UNL     1      -9.841   9.266  70.883  1.00  0.00    -0.363 C  
BRANCH  24  26
HETATM   26  C   UNL     1     -10.342   7.081  68.207  1.00  0.00    -0.223 A  
HETATM   27  C   UNL     1      -8.959   6.875  68.157  1.00  0.00    -0.123 A  
HETATM   28  C   UNL     1      -8.385   5.976  67.253  1.00  0.00    -0.105 A  
HETATM   29  F   UNL     1      -8.132   7.552  68.966  1.00  0.00    -0.116 F  
HETATM   30  C   UNL     1      -9.193   5.269  66.367  1.00  0.00    -0.145 A  
HETATM   31  C   UNL     1     -10.568   5.456  66.409  1.00  0.00    -0.260 A  
HETATM   32  C   UNL     1     -11.143   6.342  67.314  1.00  0.00    -0.416 A  
HETATM   33  F   UNL     1     -11.351   4.783  65.555  1.00  0.00    -0.293 F  
ENDBRANCH  24  26
ENDBRANCH  15  21
ENDBRANCH  10  12
ENDBRANCH   8  10
ENDBRANCH   6   8
TORSDOF 5
ENDMDL
MODEL      219
REMARK 921   NORMALIZED FREE ENERGY PREDICTED BY IDOCK:   -4.45 KCAL/MOL
REMARK 922        TOTAL FREE ENERGY PREDICTED BY IDOCK:   -7.48 KCAL/MOL
REMARK 923 INTER-LIGAND FREE ENERGY PREDICTED BY IDOCK:   -7.48 KCAL/MOL
REMARK 924 INTRA-LIGAND FREE ENERGY PREDICTED BY IDOCK:    0.01 KCAL/MOL
REMARK 927      BINDING AFFINITY PREDICTED BY RF-SCORE:    0.00 PKD
ROOT
HETATM    1  O   UNL     1     -10.091   7.015  74.557  1.00  0.00    -0.466 OA 
HETATM    2  H   UNL     1      -9.387   6.451  74.855  1.00  0.00     0.000 HD 
HETATM    3  C   UNL     1     -10.051   7.186  73.150  1.00  0.00    -0.251 C  
HETATM    4  C   UNL     1     -11.180   8.092  72.672  1.00  0.00    -0.462 C  
HETATM    5  C   UNL     1     -10.659   8.603  71.346  1.00  0.00    -0.264 C  
HETATM    6  N   UNL     1      -9.222   8.711  71.534  1.00  0.00    -0.223 N  
HETATM    7  C   UNL     1      -8.790   7.926  72.686  1.00  0.00    -0.178 C  
ENDROOT
BRANCH   6   8
HETATM    8  C   UNL     1      -8.478   9.462  70.638  1.00  0.00    -0.193 C  
HETATM    9  O   UNL     1      -7.378   9.889  70.970  1.00  0.00    -0.312 OA 
BRANCH   8  10
HETATM   10  N   UNL     1      -9.105   9.685  69.435  1.00  0.00    -0.175 N  
HETATM   11  H   UNL     1     -10.075   9.998  69.472  1.00  0.00     0.000 HD 
BRANCH  10  12
HETATM   12  C   UNL     1      -8.545   9.524  68.172  1.00  0.00    -0.120 A  
HETATM   13  C   UNL     1      -8.912  10.025  66.931  1.00  0.00    -0.135 A  
HETATM   14  N   UNL     1      -9.915  10.858  66.489  1.00  0.00    -0.204 NA 
HETATM   15  C   UNL     1     -10.032  11.058  65.200  1.00  0.00    -0.278 A  
HETATM   16  C   UNL     1      -7.382   8.761  67.920  1.00  0.00    -0.088 A  
HETATM   17  C   UNL     1      -9.054  10.510  64.198  1.00  0.00    -0.258 A  
HETATM   18  N   UNL     1      -7.040   8.723  66.637  1.00  0.00    -0.080 NA 
HETATM   19  C   UNL     1      -8.064   9.748  64.672  1.00  0.00    -0.148 A  
HETATM   20  N   UNL     1      -7.981   9.487  66.027  1.00  0.00    -0.106 NA 
BRANCH  15  21
HETATM   21  N   UNL     1     -11.061  11.805  64.675  1.00  0.00    -0.312 NA 
HETATM   22  C   UNL     1     -12.904  13.265  64.392  1.00  0.00    -0.069 C  
HETATM   23  C   UNL     1     -11.157  12.119  63.263  1.00  0.00    -0.332 C  
HETATM   24  C   UNL     1     -12.206  12.335  65.417  1.00  0.00    -0.208 C  
HETATM   25  C   UNL     1     -11.888  13.447  63.267  1.00  0.00    -0.199 C  
BRANCH  24  26
HETATM   26  C   UNL     1     -11.758  12.963  66.721  1.00  0.00    -0.445 A  
HETATM   27  C   UNL     1     -11.099  14.193  66.821  1.00  0.00    -0.310 A  
HETATM   28  C   UNL     1     -10.624  14.671  68.046  1.00  0.00    -0.240 A  
HETATM   29  F   UNL     1     -10.883  14.948  65.736  1.00  0.00    -0.298 F  
HETATM   30  C   UNL     1     -10.792  13.913  69.202  1.00  0.00    -0.220 A  
HETATM   31  C   UNL     1     -11.451  12.694  69.122  1.00  0.00    -0.304 A  
HETATM   32  C   UNL     1     -11.934  12.221  67.906  1.00  0.00    -0.240 A  
HETATM   33  F   UNL     1     -11.611  11.957  70.229  1.00  0.00    -0.367 F  
ENDBRANCH  24  26
ENDBRANCH  15  21
ENDBRANCH  10  12
ENDBRANCH   8  10
ENDBRANCH   6   8
TORSDOF 5
ENDMDL
MODEL      220
REMARK 921   NORMALIZED FREE ENERGY PREDICTED BY IDOCK:   -4.42 KCAL/MOL
REMARK 922        TOTAL FREE ENERGY PREDICTED BY IDOCK:   -7.45 KCAL/MOL
REMARK 923 INTER-LIGAND FREE ENERGY PREDICTED BY IDOCK:   -5.89 KCAL/MOL
REMARK 924 INTRA-LIGAND FREE ENERGY PREDICTED BY IDOCK:   -1.55 KCAL/MOL
REMARK 927      BINDING AFFINITY PREDICTED BY RF-SCORE:    0.00 PKD
ROOT
HETATM    1  O   UNL     1     -12.069  12.644  65.258  1.00  0.00    -0.421 OA 
HETATM    2  H   UNL     1     -12.369  13.498  65.549  1.00  0.00     0.000 HD 
HETATM    3  C   UNL     1     -11.305  11.999  66.263  1.00  0.00    -0.357 C  
HETATM    4  C   UNL     1     -10.823  10.630  65.796  1.00  0.00    -0.010 C  
HETATM    5  C   UNL     1      -9.625  10.377  66.686  1.00  0.00    -0.177 C  
HETATM    6  N   UNL     1      -9.040  11.690  66.896  1.00  0.00    -0.182 N  
HETATM    7  C   UNL     1      -9.999  12.742  66.571  1.00  0.00    -0.253 C  
ENDROOT
BRANCH   6   8
HETATM    8  C   UNL     1      -7.746  11.784  67.382  1.00  0.00    -0.151 C  
HETATM    9  O   UNL     1      -6.798  11.676  66.612  1.00  0.00    -0.120 OA 
BRANCH   8  10
HETATM   10  N   UNL     1      -7.669  11.957  68.744  1.00  0.00    -0.251 N  
HETATM   11  H   UNL     1      -8.041  12.829  69.119  1.00  0.00     0.000 HD 
BRANCH  10  12
HETATM   12  C   UNL     1      -7.132  11.058  69.659  1.00  0.00    -0.087 A  
HETATM   13  C   UNL     1      -7.691   9.975  70.323  1.00  0.00    -0.073 A  
HETATM   14  N   UNL     1      -8.933   9.380  70.317  1.00  0.00    -0.223 NA 
HETATM   15  C   UNL     1      -9.157   8.401  71.159  1.00  0.00    -0.174 A  
HETATM   16  C   UNL     1      -5.789  11.090  70.097  1.00  0.00    -0.117 A  
HETATM   17  C   UNL     1      -8.086   7.830  72.046  1.00  0.00    -0.126 A  
HETATM   18  N   UNL     1      -5.500  10.154  70.994  1.00  0.00    -0.078 NA 
HETATM   19  C   UNL     1      -6.880   8.402  71.987  1.00  0.00    -0.089 A  
HETATM   20  N   UNL     1      -6.665   9.475  71.142  1.00  0.00    -0.273 NA 
BRANCH  15  21
HETATM   21  N   UNL     1     -10.397   7.817  71.274  1.00  0.00    -0.198 NA 
HETATM   22  C   UNL     1     -12.387   6.597  70.879  1.00  0.00    -0.260 C  
HETATM   23  C   UNL     1     -11.055   7.630  72.552  1.00  0.00    -0.336 C  
HETATM   24  C   UNL     1     -11.239   7.360  70.168  1.00  0.00    -0.218 C  
HETATM   25  C   UNL     1     -11.900   6.394  72.312  1.00  0.00    -0.315 C  
BRANCH  24  26
HETATM   26  C   UNL     1     -10.423   6.583  69.155  1.00  0.00    -0.260 A  
HETATM   27  C   UNL     1     -10.476   6.788  67.772  1.00  0.00    -0.222 A  
HETATM   28  C   UNL     1      -9.770   5.971  66.884  1.00  0.00    -0.173 A  
HETATM   29  F   UNL     1     -11.226   7.768  67.249  1.00  0.00    -0.263 F  
HETATM   30  C   UNL     1      -9.000   4.916  67.369  1.00  0.00    -0.111 A  
HETATM   31  C   UNL     1      -8.930   4.705  68.739  1.00  0.00    -0.108 A  
HETATM   32  C   UNL     1      -9.623   5.522  69.626  1.00  0.00    -0.210 A  
HETATM   33  F   UNL     1      -8.196   3.689  69.212  1.00  0.00    -0.057 F  
ENDBRANCH  24  26
ENDBRANCH  15  21
ENDBRANCH  10  12
ENDBRANCH   8  10
ENDBRANCH   6   8
TORSDOF 5
ENDMDL
MODEL      221
REMARK 921   NORMALIZED FREE ENERGY PREDICTED BY IDOCK:   -4.40 KCAL/MOL
REMARK 922        TOTAL FREE ENERGY PREDICTED BY IDOCK:   -7.41 KCAL/MOL
REMARK 923 INTER-LIGAND FREE ENERGY PREDICTED BY IDOCK:   -6.07 KCAL/MOL
REMARK 924 INTRA-LIGAND FREE ENERGY PREDICTED BY IDOCK:   -1.35 KCAL/MOL
REMARK 927      BINDING AFFINITY PREDICTED BY RF-SCORE:    0.00 PKD
ROOT
HETATM    1  O   UNL     1      -6.933   8.169  64.555  1.00  0.00    -0.072 OA 
HETATM    2  H   UNL     1      -7.376   7.332  64.634  1.00  0.00     0.000 HD 
HETATM    3  C   UNL     1      -7.257   9.024  65.638  1.00  0.00    -0.085 C  
HETATM    4  C   UNL     1      -6.547  10.367  65.511  1.00  0.00    -0.125 C  
HETATM    5  C   UNL     1      -7.410  11.283  66.351  1.00  0.00    -0.058 C  
HETATM    6  N   UNL     1      -8.762  10.779  66.173  1.00  0.00    -0.173 N  
HETATM    7  C   UNL     1      -8.740   9.415  65.652  1.00  0.00    -0.154 C  
ENDROOT
BRANCH   6   8
HETATM    8  C   UNL     1      -9.835  11.580  66.528  1.00  0.00    -0.202 C  
HETATM    9  O   UNL     1     -10.767  11.728  65.746  1.00  0.00    -0.264 OA 
BRANCH   8  10
HETATM   10  N   UNL     1      -9.708  12.175  67.760  1.00  0.00    -0.192 N  
HETATM   11  H   UNL     1      -8.847  12.693  67.935  1.00  0.00     0.000 HD 
BRANCH  10  12
HETATM   12  C   UNL     1     -10.639  12.138  68.793  1.00  0.00    -0.201 A  
HETATM   13  C   UNL     1     -11.076  11.099  69.602  1.00  0.00    -0.232 A  
HETATM   14  N   UNL     1     -10.756   9.764  69.711  1.00  0.00    -0.240 NA 
HETATM   15  C   UNL     1     -11.447   9.026  70.543  1.00  0.00    -0.212 A  
HETATM   16  C   UNL     1     -11.355  13.269  69.245  1.00  0.00    -0.253 A  
HETATM   17  C   UNL     1     -12.492   9.595  71.462  1.00  0.00    -0.476 A  
HETATM   18  N   UNL     1     -12.212  12.999  70.224  1.00  0.00    -0.329 NA 
HETATM   19  C   UNL     1     -12.739  10.904  71.363  1.00  0.00    -0.434 A  
HETATM   20  N   UNL     1     -12.051  11.669  70.437  1.00  0.00    -0.374 NA 
BRANCH  15  21
HETATM   21  N   UNL     1     -11.246   7.669  70.643  1.00  0.00    -0.265 NA 
HETATM   22  C   UNL     1     -10.282   5.509  70.748  1.00  0.00    -0.302 C  
HETATM   23  C   UNL     1     -12.246   6.770  71.187  1.00  0.00    -0.360 C  
HETATM   24  C   UNL     1     -10.064   6.937  70.185  1.00  0.00    -0.182 C  
HETATM   25  C   UNL     1     -11.404   5.654  71.773  1.00  0.00    -0.181 C  
BRANCH  24  26
HETATM   26  C   UNL     1      -8.795   7.653  70.599  1.00  0.00    -0.145 A  
HETATM   27  C   UNL     1      -8.472   7.993  71.917  1.00  0.00    -0.136 A  
HETATM   28  C   UNL     1      -7.332   8.742  72.221  1.00  0.00     0.033 A  
HETATM   29  F   UNL     1      -9.263   7.629  72.935  1.00  0.00    -0.170 F  
HETATM   30  C   UNL     1      -6.491   9.176  71.200  1.00  0.00    -0.084 A  
HETATM   31  C   UNL     1      -6.791   8.840  69.887  1.00  0.00    -0.042 A  
HETATM   32  C   UNL     1      -7.921   8.087  69.582  1.00  0.00    -0.117 A  
HETATM   33  F   UNL     1      -5.990   9.259  68.899  1.00  0.00    -0.041 F  
ENDBRANCH  24  26
ENDBRANCH  15  21
ENDBRANCH  10  12
ENDBRANCH   8  10
ENDBRANCH   6   8
TORSDOF 5
ENDMDL
MODEL      222
REMARK 921   NORMALIZED FREE ENERGY PREDICTED BY IDOCK:   -4.33 KCAL/MOL
REMARK 922        TOTAL FREE ENERGY PREDICTED BY IDOCK:   -7.33 KCAL/MOL
REMARK 923 INTER-LIGAND FREE ENERGY PREDICTED BY IDOCK:   -5.77 KCAL/MOL
REMARK 924 INTRA-LIGAND FREE ENERGY PREDICTED BY IDOCK:   -1.56 KCAL/MOL
REMARK 927      BINDING AFFINITY PREDICTED BY RF-SCORE:    0.00 PKD
ROOT
HETATM    1  O   UNL     1     -14.408   6.204  72.144  1.00  0.00    -0.375 OA 
HETATM    2  H   UNL     1     -14.175   5.376  71.741  1.00  0.00     0.000 HD 
HETATM    3  C   UNL     1     -13.862   7.297  71.424  1.00  0.00    -0.304 C  
HETATM    4  C   UNL     1     -14.236   8.626  72.072  1.00  0.00    -0.524 C  
HETATM    5  C   UNL     1     -13.158   9.559  71.565  1.00  0.00    -0.389 C  
HETATM    6  N   UNL     1     -11.970   8.728  71.465  1.00  0.00    -0.305 N  
HETATM    7  C   UNL     1     -12.328   7.312  71.458  1.00  0.00    -0.362 C  
ENDROOT
BRANCH   6   8
HETATM    8  C   UNL     1     -10.729   9.332  71.356  1.00  0.00    -0.362 C  
HETATM    9  O   UNL     1      -9.831   9.020  72.129  1.00  0.00    -0.273 OA 
BRANCH   8  10
HETATM   10  N   UNL     1     -10.654  10.287  70.369  1.00  0.00    -0.432 N  
HETATM   11  H   UNL     1     -11.305  11.069  70.434  1.00  0.00     0.000 HD 
BRANCH  10  12
HETATM   12  C   UNL     1      -9.775  10.289  69.290  1.00  0.00    -0.225 A  
HETATM   13  C   UNL     1      -9.207   9.253  68.563  1.00  0.00    -0.135 A  
HETATM   14  N   UNL     1      -9.305   7.880  68.608  1.00  0.00    -0.146 NA 
HETATM   15  C   UNL     1      -8.537   7.177  67.812  1.00  0.00    -0.126 A  
HETATM   16  C   UNL     1      -9.279  11.465  68.684  1.00  0.00    -0.146 A  
HETATM   17  C   UNL     1      -7.643   7.805  66.779  1.00  0.00    -0.098 A  
HETATM   18  N   UNL     1      -8.433  11.233  67.687  1.00  0.00    -0.122 NA 
HETATM   19  C   UNL     1      -7.614   9.140  66.732  1.00  0.00    -0.087 A  
HETATM   20  N   UNL     1      -8.378   9.879  67.617  1.00  0.00    -0.114 NA 
BRANCH  15  21
HETATM   21  N   UNL     1      -8.513   5.803  67.860  1.00  0.00    -0.104 NA 
HETATM   22  C   UNL     1      -8.197   3.551  68.519  1.00  0.00    -0.084 C  
HETATM   23  C   UNL     1      -9.343   4.977  67.005  1.00  0.00    -0.128 C  
HETATM   24  C   UNL     1      -7.643   4.986  68.707  1.00  0.00    -0.077 C  
HETATM   25  C   UNL     1      -9.556   3.735  67.849  1.00  0.00    -0.187 C  
BRANCH  24  26
HETATM   26  C   UNL     1      -7.606   5.528  70.122  1.00  0.00    -0.074 A  
HETATM   27  C   UNL     1      -6.710   6.503  70.573  1.00  0.00    -0.057 A  
HETATM   28  C   UNL     1      -6.663   6.889  71.916  1.00  0.00    -0.057 A  
HETATM   29  F   UNL     1      -5.848   7.088  69.730  1.00  0.00    -0.021 F  
HETATM   30  C   UNL     1      -7.514   6.291  72.842  1.00  0.00    -0.096 A  
HETATM   31  C   UNL     1      -8.416   5.328  72.410  1.00  0.00    -0.122 A  
HETATM   32  C   UNL     1      -8.471   4.949  71.073  1.00  0.00    -0.121 A  
HETATM   33  F   UNL     1      -9.233   4.745  73.297  1.00  0.00    -0.115 F  
ENDBRANCH  24  26
ENDBRANCH  15  21
ENDBRANCH  10  12
ENDBRANCH   8  10
ENDBRANCH   6   8
TORSDOF 5
ENDMDL
MODEL      223
REMARK 921   NORMALIZED FREE ENERGY PREDICTED BY IDOCK:   -4.31 KCAL/MOL
REMARK 922        TOTAL FREE ENERGY PREDICTED BY IDOCK:   -7.30 KCAL/MOL
REMARK 923 INTER-LIGAND FREE ENERGY PREDICTED BY IDOCK:   -5.96 KCAL/MOL
REMARK 924 INTRA-LIGAND FREE ENERGY PREDICTED BY IDOCK:   -1.34 KCAL/MOL
REMARK 927      BINDING AFFINITY PREDICTED BY RF-SCORE:    0.00 PKD
ROOT
HETATM    1  O   UNL     1      -6.817   8.687  73.304  1.00  0.00    -0.270 OA 
HETATM    2  H   UNL     1      -6.101   8.554  72.694  1.00  0.00     0.000 HD 
HETATM    3  C   UNL     1      -7.901   7.819  73.021  1.00  0.00    -0.119 C  
HETATM    4  C   UNL     1      -9.050   8.033  74.000  1.00  0.00    -0.033 C  
HETATM    5  C   UNL     1     -10.243   7.500  73.237  1.00  0.00    -0.343 C  
HETATM    6  N   UNL     1      -9.963   7.819  71.848  1.00  0.00    -0.169 N  
HETATM    7  C   UNL     1      -8.545   8.111  71.660  1.00  0.00    -0.140 C  
ENDROOT
BRANCH   6   8
HETATM    8  C   UNL     1     -10.993   7.776  70.923  1.00  0.00    -0.250 C  
HETATM    9  O   UNL     1     -11.875   8.626  70.955  1.00  0.00    -0.284 OA 
BRANCH   8  10
HETATM   10  N   UNL     1     -10.925   6.710  70.057  1.00  0.00    -0.283 N  
HETATM   11  H   UNL     1     -11.196   5.799  70.425  1.00  0.00     0.000 HD 
BRANCH  10  12
HETATM   12  C   UNL     1     -10.523   6.754  68.726  1.00  0.00    -0.208 A  
HETATM   13  C   UNL     1      -9.746   7.669  68.029  1.00  0.00    -0.152 A  
HETATM   14  N   UNL     1      -9.081   8.824  68.371  1.00  0.00    -0.141 NA 
HETATM   15  C   UNL     1      -8.503   9.514  67.419  1.00  0.00    -0.125 A  
HETATM   16  C   UNL     1     -10.858   5.768  67.771  1.00  0.00    -0.167 A  
HETATM   17  C   UNL     1      -8.440   9.039  65.994  1.00  0.00    -0.138 A  
HETATM   18  N   UNL     1     -10.390   6.026  66.555  1.00  0.00    -0.177 NA 
HETATM   19  C   UNL     1      -9.054   7.887  65.710  1.00  0.00    -0.030 A  
HETATM   20  N   UNL     1      -9.717   7.194  66.707  1.00  0.00    -0.187 NA 
BRANCH  15  21
HETATM   21  N   UNL     1      -7.895  10.722  67.668  1.00  0.00    -0.108 NA 
HETATM   22  C   UNL     1      -7.319  13.018  67.708  1.00  0.00    -0.139 C  
HETATM   23  C   UNL     1      -6.999  10.928  68.789  1.00  0.00    -0.078 C  
HETATM   24  C   UNL     1      -8.007  11.928  66.847  1.00  0.00    -0.132 C  
HETATM   25  C   UNL     1      -7.187  12.401  69.098  1.00  0.00     0.060 C  
BRANCH  24  26
HETATM   26  C   UNL     1      -9.448  12.176  66.448  1.00  0.00    -0.238 A  
HETATM   27  C   UNL     1     -10.501  12.344  67.353  1.00  0.00    -0.215 A  
HETATM   28  C   UNL     1     -11.825  12.471  66.921  1.00  0.00    -0.404 A  
HETATM   29  F   UNL     1     -10.277  12.370  68.674  1.00  0.00    -0.215 F  
HETATM   30  C   UNL     1     -12.121  12.419  65.561  1.00  0.00    -0.417 A  
HETATM   31  C   UNL     1     -11.086  12.260  64.649  1.00  0.00    -0.313 A  
HETATM   32  C   UNL     1      -9.768  12.144  65.076  1.00  0.00    -0.112 A  
HETATM   33  F   UNL     1     -11.365  12.203  63.340  1.00  0.00    -0.430 F  
ENDBRANCH  24  26
ENDBRANCH  15  21
ENDBRANCH  10  12
ENDBRANCH   8  10
ENDBRANCH   6   8
TORSDOF 5
ENDMDL
MODEL      224
REMARK 921   NORMALIZED FREE ENERGY PREDICTED BY IDOCK:   -4.30 KCAL/MOL
REMARK 922        TOTAL FREE ENERGY PREDICTED BY IDOCK:   -7.29 KCAL/MOL
REMARK 923 INTER-LIGAND FREE ENERGY PREDICTED BY IDOCK:   -6.32 KCAL/MOL
REMARK 924 INTRA-LIGAND FREE ENERGY PREDICTED BY IDOCK:   -0.97 KCAL/MOL
REMARK 927      BINDING AFFINITY PREDICTED BY RF-SCORE:    0.00 PKD
ROOT
HETATM    1  O   UNL     1      -6.522  11.530  65.992  1.00  0.00    -0.367 OA 
HETATM    2  H   UNL     1      -6.150  10.657  66.014  1.00  0.00     0.000 HD 
HETATM    3  C   UNL     1      -7.287  11.792  67.156  1.00  0.00    -0.146 C  
HETATM    4  C   UNL     1      -7.885  13.194  67.120  1.00  0.00    -0.061 C  
HETATM    5  C   UNL     1      -9.059  13.081  68.069  1.00  0.00    -0.210 C  
HETATM    6  N   UNL     1      -9.539  11.720  67.898  1.00  0.00    -0.181 N  
HETATM    7  C   UNL     1      -8.523  10.888  67.260  1.00  0.00    -0.125 C  
ENDROOT
BRANCH   6   8
HETATM    8  C   UNL     1     -10.801  11.385  68.361  1.00  0.00    -0.207 C  
HETATM    9  O   UNL     1     -11.697  11.139  67.561  1.00  0.00    -0.574 OA 
BRANCH   8  10
HETATM   10  N   UNL     1     -10.920  11.404  69.730  1.00  0.00    -0.467 N  
HETATM   11  H   UNL     1     -10.416  12.139  70.226  1.00  0.00     0.000 HD 
BRANCH  10  12
HETATM   12  C   UNL     1     -11.660  10.517  70.506  1.00  0.00    -0.350 A  
HETATM   13  C   UNL     1     -11.509   9.159  70.749  1.00  0.00    -0.282 A  
HETATM   14  N   UNL     1     -10.596   8.207  70.355  1.00  0.00    -0.220 NA 
HETATM   15  C   UNL     1     -10.808   6.962  70.702  1.00  0.00    -0.245 A  
HETATM   16  C   UNL     1     -12.792  10.892  71.264  1.00  0.00    -0.433 A  
HETATM   17  C   UNL     1     -11.939   6.549  71.603  1.00  0.00    -0.387 A  
HETATM   18  N   UNL     1     -13.361   9.879  71.907  1.00  0.00    -0.423 NA 
HETATM   19  C   UNL     1     -12.775   7.510  72.006  1.00  0.00    -0.216 A  
HETATM   20  N   UNL     1     -12.584   8.814  71.585  1.00  0.00    -0.330 NA 
BRANCH  15  21
HETATM   21  N   UNL     1      -9.990   5.942  70.273  1.00  0.00    -0.183 NA 
HETATM   22  C   UNL     1      -8.131   4.650  69.581  1.00  0.00    -0.064 C  
HETATM   23  C   UNL     1     -10.374   4.547  70.357  1.00  0.00     0.061 C  
HETATM   24  C   UNL     1      -8.681   6.098  69.639  1.00  0.00    -0.135 C  
HETATM   25  C   UNL     1      -9.039   3.845  70.509  1.00  0.00    -0.186 C  
BRANCH  24  26
HETATM   26  C   UNL     1      -7.843   7.122  70.379  1.00  0.00    -0.100 A  
HETATM   27  C   UNL     1      -7.098   8.131  69.760  1.00  0.00    -0.060 A  
HETATM   28  C   UNL     1      -6.267   8.982  70.494  1.00  0.00    -0.045 A  
HETATM   29  F   UNL     1      -7.141   8.302  68.431  1.00  0.00    -0.072 F  
HETATM   30  C   UNL     1      -6.158   8.829  71.874  1.00  0.00    -0.072 A  
HETATM   31  C   UNL     1      -6.897   7.838  72.505  1.00  0.00    -0.069 A  
HETATM   32  C   UNL     1      -7.732   6.995  71.778  1.00  0.00    -0.093 A  
HETATM   33  F   UNL     1      -6.792   7.681  73.831  1.00  0.00    -0.077 F  
ENDBRANCH  24  26
ENDBRANCH  15  21
ENDBRANCH  10  12
ENDBRANCH   8  10
ENDBRANCH   6   8
TORSDOF 5
ENDMDL
MODEL      225
REMARK 921   NORMALIZED FREE ENERGY PREDICTED BY IDOCK:   -4.30 KCAL/MOL
REMARK 922        TOTAL FREE ENERGY PREDICTED BY IDOCK:   -7.29 KCAL/MOL
REMARK 923 INTER-LIGAND FREE ENERGY PREDICTED BY IDOCK:   -5.95 KCAL/MOL
REMARK 924 INTRA-LIGAND FREE ENERGY PREDICTED BY IDOCK:   -1.34 KCAL/MOL
REMARK 927      BINDING AFFINITY PREDICTED BY RF-SCORE:    0.00 PKD
ROOT
HETATM    1  O   UNL     1     -10.449  17.156  67.964  1.00  0.00    -0.336 OA 
HETATM    2  H   UNL     1     -11.233  17.580  68.293  1.00  0.00     0.000 HD 
HETATM    3  C   UNL     1     -10.759  16.227  66.940  1.00  0.00    -0.217 C  
HETATM    4  C   UNL     1      -9.500  15.546  66.413  1.00  0.00    -0.320 C  
HETATM    5  C   UNL     1     -10.039  14.266  65.812  1.00  0.00    -0.335 C  
HETATM    6  N   UNL     1     -11.160  13.905  66.663  1.00  0.00    -0.302 N  
HETATM    7  C   UNL     1     -11.601  15.052  67.452  1.00  0.00    -0.291 C  
ENDROOT
BRANCH   6   8
HETATM    8  C   UNL     1     -11.668  12.618  66.601  1.00  0.00    -0.398 C  
HETATM    9  O   UNL     1     -12.700  12.401  65.977  1.00  0.00    -0.230 OA 
BRANCH   8  10
HETATM   10  N   UNL     1     -10.943  11.693  67.314  1.00  0.00    -0.251 N  
HETATM   11  H   UNL     1     -10.115  11.308  66.860  1.00  0.00     0.000 HD 
BRANCH  10  12
HETATM   12  C   UNL     1     -11.228  11.232  68.595  1.00  0.00    -0.250 A  
HETATM   13  C   UNL     1     -10.809  10.100  69.281  1.00  0.00    -0.235 A  
HETATM   14  N   UNL     1      -9.968   9.052  68.983  1.00  0.00    -0.180 NA 
HETATM   15  C   UNL     1      -9.865   8.074  69.849  1.00  0.00    -0.186 A  
HETATM   16  C   UNL     1     -12.061  11.916  69.509  1.00  0.00    -0.226 A  
HETATM   17  C   UNL     1     -10.534   8.104  71.195  1.00  0.00    -0.238 A  
HETATM   18  N   UNL     1     -12.215  11.280  70.665  1.00  0.00    -0.374 NA 
HETATM   19  C   UNL     1     -11.302   9.163  71.467  1.00  0.00    -0.368 A  
HETATM   20  N   UNL     1     -11.459  10.163  70.525  1.00  0.00    -0.313 NA 
BRANCH  15  21
HETATM   21  N   UNL     1      -9.115   6.951  69.585  1.00  0.00    -0.144 NA 
HETATM   22  C   UNL     1      -7.384   5.339  69.481  1.00  0.00    -0.061 C  
HETATM   23  C   UNL     1      -9.707   5.703  69.148  1.00  0.00    -0.145 C  
HETATM   24  C   UNL     1      -7.655   6.857  69.646  1.00  0.00    -0.101 C  
HETATM   25  C   UNL     1      -8.740   4.669  69.691  1.00  0.00    -0.111 C  
BRANCH  24  26
HETATM   26  C   UNL     1      -7.126   7.516  70.904  1.00  0.00    -0.059 A  
HETATM   27  C   UNL     1      -6.642   8.828  70.966  1.00  0.00    -0.060 A  
HETATM   28  C   UNL     1      -6.076   9.344  72.134  1.00  0.00     0.133 A  
HETATM   29  F   UNL     1      -6.687   9.629  69.892  1.00  0.00    -0.046 F  
HETATM   30  C   UNL     1      -5.973   8.545  73.271  1.00  0.00    -0.099 A  
HETATM   31  C   UNL     1      -6.456   7.245  73.229  1.00  0.00    -0.064 A  
HETATM   32  C   UNL     1      -7.029   6.731  72.070  1.00  0.00    -0.074 A  
HETATM   33  F   UNL     1      -6.355   6.469  74.316  1.00  0.00    -0.064 F  
ENDBRANCH  24  26
ENDBRANCH  15  21
ENDBRANCH  10  12
ENDBRANCH   8  10
ENDBRANCH   6   8
TORSDOF 5
ENDMDL
MODEL      226
REMARK 921   NORMALIZED FREE ENERGY PREDICTED BY IDOCK:   -4.25 KCAL/MOL
REMARK 922        TOTAL FREE ENERGY PREDICTED BY IDOCK:   -7.22 KCAL/MOL
REMARK 923 INTER-LIGAND FREE ENERGY PREDICTED BY IDOCK:   -6.66 KCAL/MOL
REMARK 924 INTRA-LIGAND FREE ENERGY PREDICTED BY IDOCK:   -0.56 KCAL/MOL
REMARK 927      BINDING AFFINITY PREDICTED BY RF-SCORE:    0.00 PKD
ROOT
HETATM    1  O   UNL     1      -8.928  21.041  66.918  1.00  0.00    -0.584 OA 
HETATM    2  H   UNL     1      -8.148  21.539  66.701  1.00  0.00     0.000 HD 
HETATM    3  C   UNL     1      -8.627  19.972  67.798  1.00  0.00    -0.289 C  
HETATM    4  C   UNL     1      -9.878  19.173  68.144  1.00  0.00    -0.444 C  
HETATM    5  C   UNL     1      -9.314  17.833  68.565  1.00  0.00    -0.295 C  
HETATM    6  N   UNL     1      -8.139  17.652  67.729  1.00  0.00    -0.220 N  
HETATM    7  C   UNL     1      -7.712  18.923  67.154  1.00  0.00    -0.235 C  
ENDROOT
BRANCH   6   8
HETATM    8  C   UNL     1      -7.580  16.389  67.614  1.00  0.00    -0.142 C  
HETATM    9  O   UNL     1      -6.824  15.978  68.487  1.00  0.00    -0.123 OA 
BRANCH   8  10
HETATM   10  N   UNL     1      -7.924  15.725  66.461  1.00  0.00    -0.284 N  
HETATM   11  H   UNL     1      -7.164  15.480  65.826  1.00  0.00     0.000 HD 
BRANCH  10  12
HETATM   12  C   UNL     1      -9.208  15.355  66.075  1.00  0.00    -0.298 A  
HETATM   13  C   UNL     1      -9.984  14.251  66.398  1.00  0.00    -0.292 A  
HETATM   14  N   UNL     1      -9.804  13.153  67.208  1.00  0.00    -0.228 NA 
HETATM   15  C   UNL     1     -10.731  12.226  67.212  1.00  0.00    -0.231 A  
HETATM   16  C   UNL     1     -10.023  16.127  65.217  1.00  0.00     0.028 A  
HETATM   17  C   UNL     1     -12.025  12.366  66.460  1.00  0.00    -0.325 A  
HETATM   18  N   UNL     1     -11.201  15.571  64.961  1.00  0.00    -0.376 NA 
HETATM   19  C   UNL     1     -12.184  13.470  65.726  1.00  0.00    -0.461 A  
HETATM   20  N   UNL     1     -11.177  14.416  65.674  1.00  0.00    -0.316 NA 
BRANCH  15  21
HETATM   21  N   UNL     1     -10.582  11.060  67.926  1.00  0.00    -0.193 NA 
HETATM   22  C   UNL     1     -10.496   9.437  69.648  1.00  0.00    -0.236 C  
HETATM   23  C   UNL     1     -10.578   9.755  67.296  1.00  0.00    -0.255 C  
HETATM   24  C   UNL     1     -10.359  10.956  69.369  1.00  0.00    -0.145 C  
HETATM   25  C   UNL     1     -11.131   8.858  68.386  1.00  0.00     0.207 C  
BRANCH  24  26
HETATM   26  C   UNL     1     -11.292  11.880  70.125  1.00  0.00     0.010 A  
HETATM   27  C   UNL     1     -12.472  11.470  70.755  1.00  0.00    -0.349 A  
HETATM   28  C   UNL     1     -13.340  12.389  71.352  1.00  0.00    -0.033 A  
HETATM   29  F   UNL     1     -12.821  10.177  70.789  1.00  0.00    -0.369 F  
HETATM   30  C   UNL     1     -13.044  13.749  71.319  1.00  0.00    -0.370 A  
HETATM   31  C   UNL     1     -11.873  14.172  70.706  1.00  0.00    -0.242 A  
HETATM   32  C   UNL     1     -11.002  13.259  70.119  1.00  0.00     0.679 A  
HETATM   33  F   UNL     1     -11.585  15.480  70.665  1.00  0.00    -0.254 F  
ENDBRANCH  24  26
ENDBRANCH  15  21
ENDBRANCH  10  12
ENDBRANCH   8  10
ENDBRANCH   6   8
TORSDOF 5
ENDMDL
MODEL      227
REMARK 921   NORMALIZED FREE ENERGY PREDICTED BY IDOCK:   -4.24 KCAL/MOL
REMARK 922        TOTAL FREE ENERGY PREDICTED BY IDOCK:   -7.22 KCAL/MOL
REMARK 923 INTER-LIGAND FREE ENERGY PREDICTED BY IDOCK:   -6.29 KCAL/MOL
REMARK 924 INTRA-LIGAND FREE ENERGY PREDICTED BY IDOCK:   -0.93 KCAL/MOL
REMARK 927      BINDING AFFINITY PREDICTED BY RF-SCORE:    0.00 PKD
ROOT
HETATM    1  O   UNL     1     -10.861   6.923  68.757  1.00  0.00    -0.287 OA 
HETATM    2  H   UNL     1     -11.799   7.008  68.633  1.00  0.00     0.000 HD 
HETATM    3  C   UNL     1     -10.174   8.069  68.283  1.00  0.00    -0.205 C  
HETATM    4  C   UNL     1      -8.669   7.932  68.482  1.00  0.00    -0.131 C  
HETATM    5  C   UNL     1      -8.107   8.893  67.457  1.00  0.00    -0.109 C  
HETATM    6  N   UNL     1      -9.039   8.828  66.344  1.00  0.00    -0.165 N  
HETATM    7  C   UNL     1     -10.310   8.248  66.766  1.00  0.00    -0.290 C  
ENDROOT
BRANCH   6   8
HETATM    8  C   UNL     1      -8.652   9.323  65.109  1.00  0.00    -0.172 C  
HETATM    9  O   UNL     1      -8.306   8.548  64.225  1.00  0.00    -0.160 OA 
BRANCH   8  10
HETATM   10  N   UNL     1      -8.666  10.695  65.024  1.00  0.00    -0.195 N  
HETATM   11  H   UNL     1      -7.794  11.178  65.238  1.00  0.00     0.000 HD 
BRANCH  10  12
HETATM   12  C   UNL     1      -9.755  11.488  64.675  1.00  0.00    -0.212 A  
HETATM   13  C   UNL     1     -10.457  12.451  65.385  1.00  0.00    -0.277 A  
HETATM   14  N   UNL     1     -10.342  12.991  66.646  1.00  0.00    -0.256 NA 
HETATM   15  C   UNL     1     -11.256  13.842  67.043  1.00  0.00    -0.311 A  
HETATM   16  C   UNL     1     -10.378  11.452  63.407  1.00  0.00    -0.402 A  
HETATM   17  C   UNL     1     -12.355  14.335  66.143  1.00  0.00    -0.411 A  
HETATM   18  N   UNL     1     -11.415  12.275  63.302  1.00  0.00    -0.395 NA 
HETATM   19  C   UNL     1     -12.403  13.826  64.909  1.00  0.00    -0.405 A  
HETATM   20  N   UNL     1     -11.473  12.880  64.515  1.00  0.00    -0.327 NA 
BRANCH  15  21
HETATM   21  N   UNL     1     -11.259  14.356  68.319  1.00  0.00    -0.263 NA 
HETATM   22  C   UNL     1     -10.625  15.160  70.454  1.00  0.00    -0.166 C  
HETATM   23  C   UNL     1     -12.387  15.085  68.863  1.00  0.00     0.012 C  
HETATM   24  C   UNL     1     -10.192  14.207  69.310  1.00  0.00     0.039 C  
HETATM   25  C   UNL     1     -11.727  16.028  69.851  1.00  0.00    -0.276 C  
BRANCH  24  26
HETATM   26  C   UNL     1      -8.836  14.460  68.682  1.00  0.00    -0.167 A  
HETATM   27  C   UNL     1      -8.471  15.647  68.038  1.00  0.00    -0.146 A  
HETATM   28  C   UNL     1      -7.239  15.781  67.393  1.00  0.00    -0.235 A  
HETATM   29  F   UNL     1      -9.306  16.695  68.002  1.00  0.00    -0.214 F  
HETATM   30  C   UNL     1      -6.345  14.713  67.370  1.00  0.00     0.103 A  
HETATM   31  C   UNL     1      -6.688  13.530  68.011  1.00  0.00    -0.138 A  
HETATM   32  C   UNL     1      -7.910  13.398  68.663  1.00  0.00    -0.073 A  
HETATM   33  F   UNL     1      -5.836  12.497  67.989  1.00  0.00    -0.055 F  
ENDBRANCH  24  26
ENDBRANCH  15  21
ENDBRANCH  10  12
ENDBRANCH   8  10
ENDBRANCH   6   8
TORSDOF 5
ENDMDL
MODEL      228
REMARK 921   NORMALIZED FREE ENERGY PREDICTED BY IDOCK:   -4.24 KCAL/MOL
REMARK 922        TOTAL FREE ENERGY PREDICTED BY IDOCK:   -7.21 KCAL/MOL
REMARK 923 INTER-LIGAND FREE ENERGY PREDICTED BY IDOCK:   -5.62 KCAL/MOL
REMARK 924 INTRA-LIGAND FREE ENERGY PREDICTED BY IDOCK:   -1.58 KCAL/MOL
REMARK 927      BINDING AFFINITY PREDICTED BY RF-SCORE:    0.00 PKD
ROOT
HETATM    1  O   UNL     1      -7.146   8.844  72.400  1.00  0.00    -0.318 OA 
HETATM    2  H   UNL     1      -6.610   8.947  71.622  1.00  0.00     0.000 HD 
HETATM    3  C   UNL     1      -8.163   7.877  72.198  1.00  0.00    -0.125 C  
HETATM    4  C   UNL     1      -9.023   7.712  73.446  1.00  0.00    -0.281 C  
HETATM    5  C   UNL     1     -10.310   7.142  72.892  1.00  0.00    -0.247 C  
HETATM    6  N   UNL     1     -10.451   7.757  71.584  1.00  0.00    -0.200 N  
HETATM    7  C   UNL     1      -9.177   8.309  71.131  1.00  0.00    -0.162 C  
ENDROOT
BRANCH   6   8
HETATM    8  C   UNL     1     -11.681   7.718  70.947  1.00  0.00    -0.265 C  
HETATM    9  O   UNL     1     -12.535   8.552  71.223  1.00  0.00    -0.305 OA 
BRANCH   8  10
HETATM   10  N   UNL     1     -11.822   6.675  70.062  1.00  0.00    -0.638 N  
HETATM   11  H   UNL     1     -12.583   6.020  70.240  1.00  0.00     0.000 HD 
BRANCH  10  12
HETATM   12  C   UNL     1     -11.027   6.427  68.948  1.00  0.00    -0.346 A  
HETATM   13  C   UNL     1     -10.494   7.277  67.988  1.00  0.00    -0.197 A  
HETATM   14  N   UNL     1     -10.524   8.638  67.787  1.00  0.00    -0.238 NA 
HETATM   15  C   UNL     1      -9.977   9.116  66.697  1.00  0.00    -0.273 A  
HETATM   16  C   UNL     1     -10.570   5.141  68.580  1.00  0.00     0.055 A  
HETATM   17  C   UNL     1      -9.225   8.257  65.719  1.00  0.00    -0.142 A  
HETATM   18  N   UNL     1      -9.847   5.133  67.466  1.00  0.00    -0.152 NA 
HETATM   19  C   UNL     1      -9.175   6.947  65.976  1.00  0.00    -0.020 A  
HETATM   20  N   UNL     1      -9.808   6.438  67.095  1.00  0.00    -0.138 NA 
BRANCH  15  21
HETATM   21  N   UNL     1     -10.044  10.454  66.382  1.00  0.00    -0.220 NA 
HETATM   22  C   UNL     1      -9.616  12.775  66.192  1.00  0.00    -0.214 C  
HETATM   23  C   UNL     1     -10.850  10.958  65.287  1.00  0.00    -0.052 C  
HETATM   24  C   UNL     1      -9.384  11.543  67.104  1.00  0.00    -0.172 C  
HETATM   25  C   UNL     1     -10.089  12.198  64.859  1.00  0.00    -0.280 C  
BRANCH  24  26
HETATM   26  C   UNL     1      -7.947  11.184  67.422  1.00  0.00    -0.125 A  
HETATM   27  C   UNL     1      -7.003  10.780  66.471  1.00  0.00    -0.130 A  
HETATM   28  C   UNL     1      -5.721  10.367  66.842  1.00  0.00    -0.047 A  
HETATM   29  F   UNL     1      -7.308  10.755  65.166  1.00  0.00    -0.109 F  
HETATM   30  C   UNL     1      -5.359  10.341  68.187  1.00  0.00    -0.034 A  
HETATM   31  C   UNL     1      -6.281  10.747  69.143  1.00  0.00    -0.045 A  
HETATM   32  C   UNL     1      -7.555  11.167  68.775  1.00  0.00    -0.129 A  
HETATM   33  F   UNL     1      -5.942  10.719  70.438  1.00  0.00    -0.075 F  
ENDBRANCH  24  26
ENDBRANCH  15  21
ENDBRANCH  10  12
ENDBRANCH   8  10
ENDBRANCH   6   8
TORSDOF 5
ENDMDL
MODEL      229
REMARK 921   NORMALIZED FREE ENERGY PREDICTED BY IDOCK:   -4.24 KCAL/MOL
REMARK 922        TOTAL FREE ENERGY PREDICTED BY IDOCK:   -7.21 KCAL/MOL
REMARK 923 INTER-LIGAND FREE ENERGY PREDICTED BY IDOCK:   -5.91 KCAL/MOL
REMARK 924 INTRA-LIGAND FREE ENERGY PREDICTED BY IDOCK:   -1.30 KCAL/MOL
REMARK 927      BINDING AFFINITY PREDICTED BY RF-SCORE:    0.00 PKD
ROOT
HETATM    1  O   UNL     1     -13.722   6.346  72.367  1.00  0.00    -0.450 OA 
HETATM    2  H   UNL     1     -13.940   5.504  71.984  1.00  0.00     0.000 HD 
HETATM    3  C   UNL     1     -13.246   7.249  71.383  1.00  0.00    -0.346 C  
HETATM    4  C   UNL     1     -12.896   8.599  71.998  1.00  0.00    -0.425 C  
HETATM    5  C   UNL     1     -11.920   9.179  70.997  1.00  0.00    -0.282 C  
HETATM    6  N   UNL     1     -11.194   8.030  70.484  1.00  0.00    -0.264 N  
HETATM    7  C   UNL     1     -11.918   6.793  70.765  1.00  0.00    -0.378 C  
ENDROOT
BRANCH   6   8
HETATM    8  C   UNL     1     -10.004   8.230  69.803  1.00  0.00    -0.191 C  
HETATM    9  O   UNL     1      -9.117   7.386  69.869  1.00  0.00    -0.142 OA 
BRANCH   8  10
HETATM   10  N   UNL     1      -9.937   9.426  69.130  1.00  0.00    -0.175 N  
HETATM   11  H   UNL     1     -10.634  10.130  69.371  1.00  0.00     0.000 HD 
BRANCH  10  12
HETATM   12  C   UNL     1      -9.010   9.770  68.152  1.00  0.00    -0.119 A  
HETATM   13  C   UNL     1      -7.964  10.682  68.154  1.00  0.00    -0.113 A  
HETATM   14  N   UNL     1      -7.445  11.547  69.090  1.00  0.00    -0.071 NA 
HETATM   15  C   UNL     1      -6.484  12.358  68.721  1.00  0.00    -0.084 A  
HETATM   16  C   UNL     1      -8.963   9.176  66.871  1.00  0.00    -0.123 A  
HETATM   17  C   UNL     1      -5.852  12.304  67.358  1.00  0.00    -0.143 A  
HETATM   18  N   UNL     1      -8.014   9.675  66.088  1.00  0.00    -0.107 NA 
HETATM   19  C   UNL     1      -6.350  11.416  66.494  1.00  0.00    -0.095 A  
HETATM   20  N   UNL     1      -7.407  10.606  66.867  1.00  0.00    -0.108 NA 
BRANCH  15  21
HETATM   21  N   UNL     1      -5.975  13.310  69.573  1.00  0.00    -0.100 NA 
HETATM   22  C   UNL     1      -5.470  15.341  70.682  1.00  0.00    -0.131 C  
HETATM   23  C   UNL     1      -5.365  12.974  70.845  1.00  0.00    -0.174 C  
HETATM   24  C   UNL     1      -5.919  14.751  69.320  1.00  0.00    -0.103 C  
HETATM   25  C   UNL     1      -5.649  14.204  71.685  1.00  0.00    -0.221 C  
BRANCH  24  26
HETATM   26  C   UNL     1      -7.234  15.249  68.756  1.00  0.00    -0.127 A  
HETATM   27  C   UNL     1      -7.368  15.915  67.533  1.00  0.00    -0.171 A  
HETATM   28  C   UNL     1      -8.596  16.437  67.115  1.00  0.00    -0.204 A  
HETATM   29  F   UNL     1      -6.313  16.094  66.727  1.00  0.00    -0.200 F  
HETATM   30  C   UNL     1      -9.720  16.310  67.928  1.00  0.00    -0.233 A  
HETATM   31  C   UNL     1      -9.606  15.644  69.140  1.00  0.00    -0.251 A  
HETATM   32  C   UNL     1      -8.387  15.115  69.554  1.00  0.00    -0.151 A  
HETATM   33  F   UNL     1     -10.681  15.522  69.929  1.00  0.00    -0.228 F  
ENDBRANCH  24  26
ENDBRANCH  15  21
ENDBRANCH  10  12
ENDBRANCH   8  10
ENDBRANCH   6   8
TORSDOF 5
ENDMDL
MODEL      230
REMARK 921   NORMALIZED FREE ENERGY PREDICTED BY IDOCK:   -4.24 KCAL/MOL
REMARK 922        TOTAL FREE ENERGY PREDICTED BY IDOCK:   -7.21 KCAL/MOL
REMARK 923 INTER-LIGAND FREE ENERGY PREDICTED BY IDOCK:   -7.37 KCAL/MOL
REMARK 924 INTRA-LIGAND FREE ENERGY PREDICTED BY IDOCK:    0.16 KCAL/MOL
REMARK 927      BINDING AFFINITY PREDICTED BY RF-SCORE:    0.00 PKD
ROOT
HETATM    1  O   UNL     1     -11.725   2.496  73.365  1.00  0.00    -0.145 OA 
HETATM    2  H   UNL     1     -12.095   2.412  74.236  1.00  0.00     0.000 HD 
HETATM    3  C   UNL     1     -10.627   3.392  73.357  1.00  0.00    -0.191 C  
HETATM    4  C   UNL     1     -10.035   3.527  71.959  1.00  0.00    -0.227 C  
HETATM    5  C   UNL     1      -9.329   4.864  72.022  1.00  0.00    -0.141 C  
HETATM    6  N   UNL     1     -10.153   5.672  72.906  1.00  0.00    -0.173 N  
HETATM    7  C   UNL     1     -11.041   4.828  73.700  1.00  0.00    -0.304 C  
ENDROOT
BRANCH   6   8
HETATM    8  C   UNL     1      -9.984   7.047  72.918  1.00  0.00    -0.187 C  
HETATM    9  O   UNL     1      -8.861   7.522  72.803  1.00  0.00    -0.130 OA 
BRANCH   8  10
HETATM   10  N   UNL     1     -11.148   7.754  73.105  1.00  0.00    -0.478 N  
HETATM   11  H   UNL     1     -11.659   7.579  73.970  1.00  0.00     0.000 HD 
BRANCH  10  12
HETATM   12  C   UNL     1     -11.697   8.684  72.228  1.00  0.00    -0.358 A  
HETATM   13  C   UNL     1     -11.150   9.374  71.156  1.00  0.00    -0.362 A  
HETATM   14  N   UNL     1      -9.912   9.389  70.554  1.00  0.00    -0.249 NA 
HETATM   15  C   UNL     1      -9.700  10.253  69.591  1.00  0.00    -0.185 A  
HETATM   16  C   UNL     1     -13.043   9.111  72.278  1.00  0.00    -0.438 A  
HETATM   17  C   UNL     1     -10.781  11.144  69.045  1.00  0.00    -0.265 A  
HETATM   18  N   UNL     1     -13.345  10.024  71.362  1.00  0.00    -0.370 NA 
HETATM   19  C   UNL     1     -11.983  11.063  69.623  1.00  0.00    -0.353 A  
HETATM   20  N   UNL     1     -12.185  10.195  70.680  1.00  0.00    -0.299 NA 
BRANCH  15  21
HETATM   21  N   UNL     1      -8.465  10.389  69.002  1.00  0.00    -0.146 NA 
HETATM   22  C   UNL     1      -6.700  10.713  67.458  1.00  0.00    -0.070 C  
HETATM   23  C   UNL     1      -7.263  10.665  69.764  1.00  0.00    -0.131 C  
HETATM   24  C   UNL     1      -8.168  10.230  67.578  1.00  0.00    -0.114 C  
HETATM   25  C   UNL     1      -6.410  11.433  68.773  1.00  0.00    -0.053 C  
BRANCH  24  26
HETATM   26  C   UNL     1      -9.199  10.948  66.730  1.00  0.00    -0.174 A  
HETATM   27  C   UNL     1     -10.142  10.307  65.919  1.00  0.00    -0.251 A  
HETATM   28  C   UNL     1     -11.001  11.028  65.085  1.00  0.00    -0.103 A  
HETATM   29  F   UNL     1     -10.239   8.970  65.901  1.00  0.00    -0.372 F  
HETATM   30  C   UNL     1     -10.923  12.418  65.039  1.00  0.00    -0.336 A  
HETATM   31  C   UNL     1      -9.999  13.070  65.844  1.00  0.00    -0.267 A  
HETATM   32  C   UNL     1      -9.149  12.355  66.682  1.00  0.00    -0.204 A  
HETATM   33  F   UNL     1      -9.914  14.406  65.800  1.00  0.00    -0.292 F  
ENDBRANCH  24  26
ENDBRANCH  15  21
ENDBRANCH  10  12
ENDBRANCH   8  10
ENDBRANCH   6   8
TORSDOF 5
ENDMDL
MODEL      231
REMARK 921   NORMALIZED FREE ENERGY PREDICTED BY IDOCK:   -4.23 KCAL/MOL
REMARK 922        TOTAL FREE ENERGY PREDICTED BY IDOCK:   -7.20 KCAL/MOL
REMARK 923 INTER-LIGAND FREE ENERGY PREDICTED BY IDOCK:   -5.42 KCAL/MOL
REMARK 924 INTRA-LIGAND FREE ENERGY PREDICTED BY IDOCK:   -1.78 KCAL/MOL
REMARK 927      BINDING AFFINITY PREDICTED BY RF-SCORE:    0.00 PKD
ROOT
HETATM    1  O   UNL     1     -11.993  12.669  69.306  1.00  0.00    -0.292 OA 
HETATM    2  H   UNL     1     -12.873  13.013  69.407  1.00  0.00     0.000 HD 
HETATM    3  C   UNL     1     -11.994  11.252  69.289  1.00  0.00    -0.342 C  
HETATM    4  C   UNL     1     -10.582  10.701  69.126  1.00  0.00    -0.256 C  
HETATM    5  C   UNL     1     -10.702   9.302  69.692  1.00  0.00    -0.230 C  
HETATM    6  N   UNL     1     -11.674   9.423  70.765  1.00  0.00    -0.283 N  
HETATM    7  C   UNL     1     -12.451  10.651  70.624  1.00  0.00    -0.371 C  
ENDROOT
BRANCH   6   8
HETATM    8  C   UNL     1     -11.770   8.412  71.707  1.00  0.00    -0.310 C  
HETATM    9  O   UNL     1     -12.680   7.595  71.632  1.00  0.00    -0.323 OA 
BRANCH   8  10
HETATM   10  N   UNL     1     -10.809   8.466  72.689  1.00  0.00    -0.310 N  
HETATM   11  H   UNL     1     -10.889   9.219  73.372  1.00  0.00     0.000 HD 
BRANCH  10  12
HETATM   12  C   UNL     1      -9.736   7.593  72.840  1.00  0.00    -0.226 A  
HETATM   13  C   UNL     1      -9.233   6.599  72.012  1.00  0.00    -0.142 A  
HETATM   14  N   UNL     1      -9.570   6.127  70.764  1.00  0.00    -0.168 NA 
HETATM   15  C   UNL     1      -8.925   5.084  70.300  1.00  0.00    -0.116 A  
HETATM   16  C   UNL     1      -8.885   7.583  73.968  1.00  0.00    -0.244 A  
HETATM   17  C   UNL     1      -7.765   4.457  71.022  1.00  0.00    -0.067 A  
HETATM   18  N   UNL     1      -7.943   6.649  73.914  1.00  0.00    -0.105 NA 
HETATM   19  C   UNL     1      -7.436   4.977  72.208  1.00  0.00    -0.093 A  
HETATM   20  N   UNL     1      -8.160   6.037  72.723  1.00  0.00    -0.107 NA 
BRANCH  15  21
HETATM   21  N   UNL     1      -9.263   4.500  69.102  1.00  0.00    -0.122 NA 
HETATM   22  C   UNL     1      -9.593   4.042  66.802  1.00  0.00    -0.234 C  
HETATM   23  C   UNL     1      -9.527   3.081  68.973  1.00  0.00    -0.101 C  
HETATM   24  C   UNL     1      -9.456   5.196  67.829  1.00  0.00    -0.128 C  
HETATM   25  C   UNL     1      -9.115   2.795  67.542  1.00  0.00    -0.213 C  
BRANCH  24  26
HETATM   26  C   UNL     1      -8.346   6.200  67.590  1.00  0.00    -0.112 A  
HETATM   27  C   UNL     1      -6.981   5.892  67.621  1.00  0.00    -0.069 A  
HETATM   28  C   UNL     1      -6.005   6.883  67.491  1.00  0.00    -0.028 A  
HETATM   29  F   UNL     1      -6.564   4.631  67.797  1.00  0.00    -0.041 F  
HETATM   30  C   UNL     1      -6.380   8.216  67.338  1.00  0.00    -0.056 A  
HETATM   31  C   UNL     1      -7.730   8.537  67.297  1.00  0.00    -0.097 A  
HETATM   32  C   UNL     1      -8.704   7.551  67.416  1.00  0.00    -0.124 A  
HETATM   33  F   UNL     1      -8.098   9.817  67.156  1.00  0.00    -0.112 F  
ENDBRANCH  24  26
ENDBRANCH  15  21
ENDBRANCH  10  12
ENDBRANCH   8  10
ENDBRANCH   6   8
TORSDOF 5
ENDMDL
MODEL      232
REMARK 921   NORMALIZED FREE ENERGY PREDICTED BY IDOCK:   -4.21 KCAL/MOL
REMARK 922        TOTAL FREE ENERGY PREDICTED BY IDOCK:   -7.18 KCAL/MOL
REMARK 923 INTER-LIGAND FREE ENERGY PREDICTED BY IDOCK:   -7.34 KCAL/MOL
REMARK 924 INTRA-LIGAND FREE ENERGY PREDICTED BY IDOCK:    0.16 KCAL/MOL
REMARK 927      BINDING AFFINITY PREDICTED BY RF-SCORE:    0.00 PKD
ROOT
HETATM    1  O   UNL     1      -9.546   3.494  71.896  1.00  0.00    -0.128 OA 
HETATM    2  H   UNL     1     -10.072   2.861  72.370  1.00  0.00     0.000 HD 
HETATM    3  C   UNL     1      -9.813   4.815  72.335  1.00  0.00    -0.161 C  
HETATM    4  C   UNL     1      -8.969   5.831  71.574  1.00  0.00    -0.146 C  
HETATM    5  C   UNL     1      -9.761   7.111  71.735  1.00  0.00    -0.157 C  
HETATM    6  N   UNL     1     -11.150   6.684  71.745  1.00  0.00    -0.240 N  
HETATM    7  C   UNL     1     -11.250   5.255  72.027  1.00  0.00    -0.021 C  
ENDROOT
BRANCH   6   8
HETATM    8  C   UNL     1     -12.147   7.623  71.540  1.00  0.00    -0.310 C  
HETATM    9  O   UNL     1     -13.119   7.336  70.850  1.00  0.00    -0.220 OA 
BRANCH   8  10
HETATM   10  N   UNL     1     -11.904   8.840  72.132  1.00  0.00    -0.369 N  
HETATM   11  H   UNL     1     -11.509   8.824  73.072  1.00  0.00     0.000 HD 
BRANCH  10  12
HETATM   12  C   UNL     1     -12.143  10.090  71.572  1.00  0.00    -0.387 A  
HETATM   13  C   UNL     1     -11.743  10.652  70.368  1.00  0.00    -0.353 A  
HETATM   14  N   UNL     1     -11.006  10.203  69.295  1.00  0.00    -0.231 NA 
HETATM   15  C   UNL     1     -10.731  11.049  68.333  1.00  0.00    -0.203 A  
HETATM   16  C   UNL     1     -12.925  11.091  72.191  1.00  0.00    -0.139 A  
HETATM   17  C   UNL     1     -11.278  12.450  68.299  1.00  0.00    -0.309 A  
HETATM   18  N   UNL     1     -12.999  12.217  71.490  1.00  0.00    -0.354 NA 
HETATM   19  C   UNL     1     -12.031  12.832  69.335  1.00  0.00    -0.263 A  
HETATM   20  N   UNL     1     -12.267  11.955  70.378  1.00  0.00    -0.338 NA 
BRANCH  15  21
HETATM   21  N   UNL     1      -9.926  10.701  67.273  1.00  0.00    -0.183 NA 
HETATM   22  C   UNL     1      -8.878  10.571  65.154  1.00  0.00    -0.206 C  
HETATM   23  C   UNL     1      -8.697   9.952  67.439  1.00  0.00    -0.128 C  
HETATM   24  C   UNL     1     -10.199  10.972  65.861  1.00  0.00    -0.254 C  
HETATM   25  C   UNL     1      -7.853  10.437  66.277  1.00  0.00    -0.132 C  
BRANCH  24  26
HETATM   26  C   UNL     1     -10.676  12.397  65.668  1.00  0.00    -0.299 A  
HETATM   27  C   UNL     1     -11.983  12.753  65.319  1.00  0.00    -0.429 A  
HETATM   28  C   UNL     1     -12.335  14.081  65.059  1.00  0.00    -0.458 A  
HETATM   29  F   UNL     1     -12.942  11.824  65.200  1.00  0.00     0.285 F  
HETATM   30  C   UNL     1     -11.372  15.084  65.135  1.00  0.00    -0.372 A  
HETATM   31  C   UNL     1     -10.073  14.749  65.489  1.00  0.00    -0.380 A  
HETATM   32  C   UNL     1      -9.722  13.430  65.757  1.00  0.00    -0.147 A  
HETATM   33  F   UNL     1      -9.140  15.708  65.558  1.00  0.00    -0.309 F  
ENDBRANCH  24  26
ENDBRANCH  15  21
ENDBRANCH  10  12
ENDBRANCH   8  10
ENDBRANCH   6   8
TORSDOF 5
ENDMDL
MODEL      233
REMARK 921   NORMALIZED FREE ENERGY PREDICTED BY IDOCK:   -4.20 KCAL/MOL
REMARK 922        TOTAL FREE ENERGY PREDICTED BY IDOCK:   -7.16 KCAL/MOL
REMARK 923 INTER-LIGAND FREE ENERGY PREDICTED BY IDOCK:   -6.34 KCAL/MOL
REMARK 924 INTRA-LIGAND FREE ENERGY PREDICTED BY IDOCK:   -0.81 KCAL/MOL
REMARK 927      BINDING AFFINITY PREDICTED BY RF-SCORE:    0.00 PKD
ROOT
HETATM    1  O   UNL     1     -10.369  13.107  64.507  1.00  0.00    -0.415 OA 
HETATM    2  H   UNL     1     -10.459  13.923  64.985  1.00  0.00     0.000 HD 
HETATM    3  C   UNL     1     -10.270  12.003  65.391  1.00  0.00    -0.263 C  
HETATM    4  C   UNL     1     -10.125  10.693  64.624  1.00  0.00    -0.417 C  
HETATM    5  C   UNL     1      -9.479   9.779  65.642  1.00  0.00    -0.246 C  
HETATM    6  N   UNL     1      -8.616  10.651  66.423  1.00  0.00    -0.144 N  
HETATM    7  C   UNL     1      -8.997  12.049  66.246  1.00  0.00    -0.129 C  
ENDROOT
BRANCH   6   8
HETATM    8  C   UNL     1      -7.629  10.090  67.216  1.00  0.00    -0.095 C  
HETATM    9  O   UNL     1      -7.295   8.924  67.039  1.00  0.00    -0.082 OA 
BRANCH   8  10
HETATM   10  N   UNL     1      -7.139  10.935  68.184  1.00  0.00    -0.076 N  
HETATM   11  H   UNL     1      -7.095  11.927  67.950  1.00  0.00     0.000 HD 
BRANCH  10  12
HETATM   12  C   UNL     1      -6.699  10.569  69.451  1.00  0.00    -0.076 A  
HETATM   13  C   UNL     1      -7.233   9.706  70.398  1.00  0.00    -0.142 A  
HETATM   14  N   UNL     1      -8.344   8.894  70.441  1.00  0.00    -0.131 NA 
HETATM   15  C   UNL     1      -8.609   8.264  71.559  1.00  0.00    -0.155 A  
HETATM   16  C   UNL     1      -5.507  11.050  70.038  1.00  0.00    -0.066 A  
HETATM   17  C   UNL     1      -7.694   8.301  72.751  1.00  0.00    -0.170 A  
HETATM   18  N   UNL     1      -5.295  10.589  71.265  1.00  0.00    -0.170 NA 
HETATM   19  C   UNL     1      -6.599   9.060  72.652  1.00  0.00     0.208 A  
HETATM   20  N   UNL     1      -6.356   9.774  71.493  1.00  0.00    -0.305 NA 
BRANCH  15  21
HETATM   21  N   UNL     1      -9.747   7.506  71.708  1.00  0.00    -0.159 NA 
HETATM   22  C   UNL     1     -11.987   6.740  71.744  1.00  0.00    -0.382 C  
HETATM   23  C   UNL     1      -9.713   6.061  71.818  1.00  0.00    -0.151 C  
HETATM   24  C   UNL     1     -11.113   8.018  71.831  1.00  0.00    -0.276 C  
HETATM   25  C   UNL     1     -11.049   5.652  71.229  1.00  0.00    -0.205 C  
BRANCH  24  26
HETATM   26  C   UNL     1     -11.375   9.101  70.805  1.00  0.00    -0.337 A  
HETATM   27  C   UNL     1     -11.105   8.978  69.438  1.00  0.00     0.018 A  
HETATM   28  C   UNL     1     -11.278  10.051  68.558  1.00  0.00    -0.180 A  
HETATM   29  F   UNL     1     -10.648   7.827  68.927  1.00  0.00    -0.212 F  
HETATM   30  C   UNL     1     -11.719  11.281  69.039  1.00  0.00    -0.410 A  
HETATM   31  C   UNL     1     -12.000  11.418  70.392  1.00  0.00    -0.374 A  
HETATM   32  C   UNL     1     -11.838  10.349  71.267  1.00  0.00    -0.381 A  
HETATM   33  F   UNL     1     -12.420  12.600  70.861  1.00  0.00    -0.422 F  
ENDBRANCH  24  26
ENDBRANCH  15  21
ENDBRANCH  10  12
ENDBRANCH   8  10
ENDBRANCH   6   8
TORSDOF 5
ENDMDL
MODEL      234
REMARK 921   NORMALIZED FREE ENERGY PREDICTED BY IDOCK:   -4.20 KCAL/MOL
REMARK 922        TOTAL FREE ENERGY PREDICTED BY IDOCK:   -7.16 KCAL/MOL
REMARK 923 INTER-LIGAND FREE ENERGY PREDICTED BY IDOCK:   -6.65 KCAL/MOL
REMARK 924 INTRA-LIGAND FREE ENERGY PREDICTED BY IDOCK:   -0.51 KCAL/MOL
REMARK 927      BINDING AFFINITY PREDICTED BY RF-SCORE:    0.00 PKD
ROOT
HETATM    1  O   UNL     1     -11.902  13.578  64.614  1.00  0.00    -0.362 OA 
HETATM    2  H   UNL     1     -12.667  13.775  65.142  1.00  0.00     0.000 HD 
HETATM    3  C   UNL     1     -11.586  12.197  64.664  1.00  0.00    -0.328 C  
HETATM    4  C   UNL     1     -10.358  11.881  63.818  1.00  0.00    -0.451 C  
HETATM    5  C   UNL     1      -9.856  10.589  64.426  1.00  0.00    -0.341 C  
HETATM    6  N   UNL     1     -10.165  10.706  65.841  1.00  0.00    -0.256 N  
HETATM    7  C   UNL     1     -11.167  11.743  66.069  1.00  0.00    -0.296 C  
ENDROOT
BRANCH   6   8
HETATM    8  C   UNL     1      -9.546   9.854  66.741  1.00  0.00    -0.183 C  
HETATM    9  O   UNL     1      -8.565  10.240  67.367  1.00  0.00    -0.125 OA 
BRANCH   8  10
HETATM   10  N   UNL     1     -10.107   8.601  66.806  1.00  0.00    -0.275 N  
HETATM   11  H   UNL     1     -11.124   8.549  66.764  1.00  0.00     0.000 HD 
BRANCH  10  12
HETATM   12  C   UNL     1      -9.421   7.397  66.922  1.00  0.00    -0.162 A  
HETATM   13  C   UNL     1      -9.073   6.638  68.032  1.00  0.00    -0.114 A  
HETATM   14  N   UNL     1      -9.281   6.765  69.386  1.00  0.00    -0.143 NA 
HETATM   15  C   UNL     1      -8.719   5.891  70.185  1.00  0.00    -0.141 A  
HETATM   16  C   UNL     1      -8.930   6.662  65.819  1.00  0.00    -0.026 A  
HETATM   17  C   UNL     1      -7.956   4.699  69.679  1.00  0.00    -0.065 A  
HETATM   18  N   UNL     1      -8.283   5.555  66.164  1.00  0.00    -0.110 NA 
HETATM   19  C   UNL     1      -7.819   4.584  68.356  1.00  0.00    -0.079 A  
HETATM   20  N   UNL     1      -8.359   5.542  67.519  1.00  0.00    -0.101 NA 
BRANCH  15  21
HETATM   21  N   UNL     1      -8.807   6.002  71.553  1.00  0.00    -0.139 NA 
HETATM   22  C   UNL     1      -9.278   6.735  73.755  1.00  0.00    -0.190 C  
HETATM   23  C   UNL     1      -8.598   4.876  72.442  1.00  0.00    -0.123 C  
HETATM   24  C   UNL     1      -9.061   7.233  72.303  1.00  0.00    -0.131 C  
HETATM   25  C   UNL     1      -9.472   5.226  73.631  1.00  0.00    -0.133 C  
BRANCH  24  26
HETATM   26  C   UNL     1     -10.189   8.025  71.673  1.00  0.00    -0.256 A  
HETATM   27  C   UNL     1     -10.022   9.238  70.996  1.00  0.00    -0.293 A  
HETATM   28  C   UNL     1     -11.116   9.968  70.523  1.00  0.00    -0.400 A  
HETATM   29  F   UNL     1      -8.801   9.753  70.797  1.00  0.00    -0.240 F  
HETATM   30  C   UNL     1     -12.410   9.497  70.731  1.00  0.00    -0.233 A  
HETATM   31  C   UNL     1     -12.593   8.290  71.393  1.00  0.00    -0.275 A  
HETATM   32  C   UNL     1     -11.505   7.557  71.856  1.00  0.00    -0.307 A  
HETATM   33  F   UNL     1     -13.835   7.834  71.601  1.00  0.00    -0.366 F  
ENDBRANCH  24  26
ENDBRANCH  15  21
ENDBRANCH  10  12
ENDBRANCH   8  10
ENDBRANCH   6   8
TORSDOF 5
ENDMDL
MODEL      235
REMARK 921   NORMALIZED FREE ENERGY PREDICTED BY IDOCK:   -4.20 KCAL/MOL
REMARK 922        TOTAL FREE ENERGY PREDICTED BY IDOCK:   -7.15 KCAL/MOL
REMARK 923 INTER-LIGAND FREE ENERGY PREDICTED BY IDOCK:   -6.21 KCAL/MOL
REMARK 924 INTRA-LIGAND FREE ENERGY PREDICTED BY IDOCK:   -0.94 KCAL/MOL
REMARK 927      BINDING AFFINITY PREDICTED BY RF-SCORE:    0.00 PKD
ROOT
HETATM    1  O   UNL     1      -7.423  19.968  68.491  1.00  0.00    -0.288 OA 
HETATM    2  H   UNL     1      -7.800  20.312  67.689  1.00  0.00     0.000 HD 
HETATM    3  C   UNL     1      -6.489  18.938  68.218  1.00  0.00    -0.226 C  
HETATM    4  C   UNL     1      -5.885  18.386  69.504  1.00  0.00    -0.249 C  
HETATM    5  C   UNL     1      -5.413  17.009  69.088  1.00  0.00    -0.141 C  
HETATM    6  N   UNL     1      -6.386  16.571  68.102  1.00  0.00    -0.128 N  
HETATM    7  C   UNL     1      -7.146  17.705  67.584  1.00  0.00    -0.177 C  
ENDROOT
BRANCH   6   8
HETATM    8  C   UNL     1      -6.449  15.229  67.764  1.00  0.00    -0.158 C  
HETATM    9  O   UNL     1      -5.485  14.502  67.979  1.00  0.00    -0.120 OA 
BRANCH   8  10
HETATM   10  N   UNL     1      -7.626  14.855  67.161  1.00  0.00    -0.273 N  
HETATM   11  H   UNL     1      -7.652  14.885  66.142  1.00  0.00     0.000 HD 
BRANCH  10  12
HETATM   12  C   UNL     1      -8.787  14.442  67.807  1.00  0.00    -0.186 A  
HETATM   13  C   UNL     1      -9.315  13.178  68.032  1.00  0.00    -0.219 A  
HETATM   14  N   UNL     1      -8.904  11.898  67.738  1.00  0.00    -0.159 NA 
HETATM   15  C   UNL     1      -9.712  10.906  68.021  1.00  0.00    -0.165 A  
HETATM   16  C   UNL     1      -9.705  15.326  68.417  1.00  0.00    -0.213 A  
HETATM   17  C   UNL     1     -11.012  11.097  68.751  1.00  0.00    -0.268 A  
HETATM   18  N   UNL     1     -10.756  14.716  68.951  1.00  0.00    -0.241 NA 
HETATM   19  C   UNL     1     -11.352  12.351  69.065  1.00  0.00    -0.283 A  
HETATM   20  N   UNL     1     -10.526  13.401  68.708  1.00  0.00    -0.223 NA 
BRANCH  15  21
HETATM   21  N   UNL     1      -9.410   9.608  67.678  1.00  0.00    -0.127 NA 
HETATM   22  C   UNL     1      -9.099   7.574  66.507  1.00  0.00    -0.201 C  
HETATM   23  C   UNL     1      -8.544   8.769  68.482  1.00  0.00    -0.134 C  
HETATM   24  C   UNL     1      -9.937   8.878  66.524  1.00  0.00    -0.288 C  
HETATM   25  C   UNL     1      -7.930   7.842  67.452  1.00  0.00    -0.119 C  
BRANCH  24  26
HETATM   26  C   UNL     1      -9.894   9.739  65.277  1.00  0.00    -0.335 A  
HETATM   27  C   UNL     1      -8.776   9.874  64.448  1.00  0.00    -0.202 A  
HETATM   28  C   UNL     1      -8.768  10.761  63.368  1.00  0.00    -0.123 A  
HETATM   29  F   UNL     1      -7.660   9.168  64.676  1.00  0.00    -0.098 F  
HETATM   30  C   UNL     1      -9.889  11.545  63.103  1.00  0.00    -0.413 A  
HETATM   31  C   UNL     1     -11.010  11.417  63.911  1.00  0.00    -0.366 A  
HETATM   32  C   UNL     1     -11.023  10.528  64.981  1.00  0.00     0.393 A  
HETATM   33  F   UNL     1     -12.089  12.172  63.665  1.00  0.00    -0.479 F  
ENDBRANCH  24  26
ENDBRANCH  15  21
ENDBRANCH  10  12
ENDBRANCH   8  10
ENDBRANCH   6   8
TORSDOF 5
ENDMDL
MODEL      236
REMARK 921   NORMALIZED FREE ENERGY PREDICTED BY IDOCK:   -4.17 KCAL/MOL
REMARK 922        TOTAL FREE ENERGY PREDICTED BY IDOCK:   -7.12 KCAL/MOL
REMARK 923 INTER-LIGAND FREE ENERGY PREDICTED BY IDOCK:   -5.54 KCAL/MOL
REMARK 924 INTRA-LIGAND FREE ENERGY PREDICTED BY IDOCK:   -1.58 KCAL/MOL
REMARK 927      BINDING AFFINITY PREDICTED BY RF-SCORE:    0.00 PKD
ROOT
HETATM    1  O   UNL     1      -6.768   8.238  64.445  1.00  0.00    -0.065 OA 
HETATM    2  H   UNL     1      -7.155   7.371  64.489  1.00  0.00     0.000 HD 
HETATM    3  C   UNL     1      -7.066   8.992  65.608  1.00  0.00    -0.081 C  
HETATM    4  C   UNL     1      -6.446  10.383  65.537  1.00  0.00    -0.126 C  
HETATM    5  C   UNL     1      -7.302  11.180  66.498  1.00  0.00    -0.129 C  
HETATM    6  N   UNL     1      -8.630  10.605  66.369  1.00  0.00    -0.144 N  
HETATM    7  C   UNL     1      -8.565   9.286  65.747  1.00  0.00    -0.152 C  
ENDROOT
BRANCH   6   8
HETATM    8  C   UNL     1      -9.721  11.309  66.852  1.00  0.00    -0.192 C  
HETATM    9  O   UNL     1     -10.547  11.762  66.068  1.00  0.00    -0.244 OA 
BRANCH   8  10
HETATM   10  N   UNL     1      -9.733  11.458  68.218  1.00  0.00    -0.195 N  
HETATM   11  H   UNL     1      -8.980  12.009  68.628  1.00  0.00     0.000 HD 
BRANCH  10  12
HETATM   12  C   UNL     1     -10.674  10.930  69.096  1.00  0.00    -0.226 A  
HETATM   13  C   UNL     1     -10.795   9.672  69.669  1.00  0.00    -0.244 A  
HETATM   14  N   UNL     1     -10.052   8.515  69.614  1.00  0.00    -0.197 NA 
HETATM   15  C   UNL     1     -10.514   7.450  70.221  1.00  0.00    -0.221 A  
HETATM   16  C   UNL     1     -11.763  11.666  69.616  1.00  0.00    -0.350 A  
HETATM   17  C   UNL     1     -11.758   7.470  71.066  1.00  0.00    -0.317 A  
HETATM   18  N   UNL     1     -12.551  10.955  70.415  1.00  0.00    -0.314 NA 
HETATM   19  C   UNL     1     -12.425   8.626  71.136  1.00  0.00    -0.182 A  
HETATM   20  N   UNL     1     -11.967   9.731  70.442  1.00  0.00    -0.198 NA 
BRANCH  15  21
HETATM   21  N   UNL     1      -9.875   6.235  70.137  1.00  0.00    -0.169 NA 
HETATM   22  C   UNL     1      -8.432   4.390  70.485  1.00  0.00    -0.098 C  
HETATM   23  C   UNL     1     -10.454   5.094  69.457  1.00  0.00    -0.163 C  
HETATM   24  C   UNL     1      -8.539   5.928  70.651  1.00  0.00    -0.133 C  
HETATM   25  C   UNL     1      -9.859   3.921  70.211  1.00  0.00    -0.168 C  
BRANCH  24  26
HETATM   26  C   UNL     1      -8.361   6.481  72.051  1.00  0.00    -0.107 A  
HETATM   27  C   UNL     1      -9.201   6.187  73.131  1.00  0.00    -0.132 A  
HETATM   28  C   UNL     1      -9.040   6.808  74.372  1.00  0.00    -0.230 A  
HETATM   29  F   UNL     1     -10.206   5.310  73.002  1.00  0.00    -0.181 F  
HETATM   30  C   UNL     1      -8.033   7.752  74.554  1.00  0.00    -0.262 A  
HETATM   31  C   UNL     1      -7.185   8.049  73.495  1.00  0.00    -0.131 A  
HETATM   32  C   UNL     1      -7.337   7.426  72.261  1.00  0.00    -0.068 A  
HETATM   33  F   UNL     1      -6.218   8.961  73.661  1.00  0.00    -0.126 F  
ENDBRANCH  24  26
ENDBRANCH  15  21
ENDBRANCH  10  12
ENDBRANCH   8  10
ENDBRANCH   6   8
TORSDOF 5
ENDMDL
MODEL      237
REMARK 921   NORMALIZED FREE ENERGY PREDICTED BY IDOCK:   -4.16 KCAL/MOL
REMARK 922        TOTAL FREE ENERGY PREDICTED BY IDOCK:   -7.11 KCAL/MOL
REMARK 923 INTER-LIGAND FREE ENERGY PREDICTED BY IDOCK:   -5.68 KCAL/MOL
REMARK 924 INTRA-LIGAND FREE ENERGY PREDICTED BY IDOCK:   -1.43 KCAL/MOL
REMARK 927      BINDING AFFINITY PREDICTED BY RF-SCORE:    0.00 PKD
ROOT
HETATM    1  O   UNL     1     -10.980   4.106  63.311  1.00  0.00    -0.363 OA 
HETATM    2  H   UNL     1     -11.875   4.362  63.500  1.00  0.00     0.000 HD 
HETATM    3  C   UNL     1     -10.325   3.633  64.476  1.00  0.00    -0.157 C  
HETATM    4  C   UNL     1      -8.888   3.223  64.173  1.00  0.00    -0.097 C  
HETATM    5  C   UNL     1      -8.221   3.314  65.528  1.00  0.00    -0.097 C  
HETATM    6  N   UNL     1      -8.889   4.421  66.192  1.00  0.00    -0.113 N  
HETATM    7  C   UNL     1     -10.158   4.727  65.538  1.00  0.00    -0.136 C  
ENDROOT
BRANCH   6   8
HETATM    8  C   UNL     1      -8.303   4.991  67.310  1.00  0.00    -0.106 C  
HETATM    9  O   UNL     1      -7.177   5.468  67.230  1.00  0.00    -0.072 OA 
BRANCH   8  10
HETATM   10  N   UNL     1      -9.074   4.919  68.446  1.00  0.00    -0.110 N  
HETATM   11  H   UNL     1      -9.129   4.012  68.909  1.00  0.00     0.000 HD 
BRANCH  10  12
HETATM   12  C   UNL     1      -9.787   5.964  69.025  1.00  0.00    -0.152 A  
HETATM   13  C   UNL     1      -9.558   7.332  69.051  1.00  0.00    -0.147 A  
HETATM   14  N   UNL     1      -8.592   8.156  68.519  1.00  0.00    -0.130 NA 
HETATM   15  C   UNL     1      -8.625   9.430  68.823  1.00  0.00    -0.127 A  
HETATM   16  C   UNL     1     -10.994   5.790  69.740  1.00  0.00    -0.327 A  
HETATM   17  C   UNL     1      -9.733  10.045  69.633  1.00  0.00    -0.255 A  
HETATM   18  N   UNL     1     -11.489   6.921  70.230  1.00  0.00    -0.325 NA 
HETATM   19  C   UNL     1     -10.680   9.220  70.089  1.00  0.00    -0.235 A  
HETATM   20  N   UNL     1     -10.607   7.866  69.819  1.00  0.00    -0.240 NA 
BRANCH  15  21
HETATM   21  N   UNL     1      -7.645  10.299  68.403  1.00  0.00    -0.089 NA 
HETATM   22  C   UNL     1      -6.305  11.781  67.133  1.00  0.00    -0.145 C  
HETATM   23  C   UNL     1      -6.784  11.010  69.328  1.00  0.00    -0.099 C  
HETATM   24  C   UNL     1      -7.291  10.591  67.013  1.00  0.00    -0.099 C  
HETATM   25  C   UNL     1      -6.460  12.281  68.568  1.00  0.00    -0.064 C  
BRANCH  24  26
HETATM   26  C   UNL     1      -8.535  10.811  66.177  1.00  0.00    -0.167 A  
HETATM   27  C   UNL     1      -8.879  10.051  65.054  1.00  0.00    -0.186 A  
HETATM   28  C   UNL     1      -9.989  10.368  64.267  1.00  0.00    -0.368 A  
HETATM   29  F   UNL     1      -8.137   8.998  64.683  1.00  0.00    -0.114 F  
HETATM   30  C   UNL     1     -10.777  11.471  64.587  1.00  0.00    -0.379 A  
HETATM   31  C   UNL     1     -10.455  12.232  65.702  1.00  0.00    -0.261 A  
HETATM   32  C   UNL     1      -9.356  11.912  66.493  1.00  0.00    -0.222 A  
HETATM   33  F   UNL     1     -11.205  13.298  66.012  1.00  0.00    -0.293 F  
ENDBRANCH  24  26
ENDBRANCH  15  21
ENDBRANCH  10  12
ENDBRANCH   8  10
ENDBRANCH   6   8
TORSDOF 5
ENDMDL
MODEL      238
REMARK 921   NORMALIZED FREE ENERGY PREDICTED BY IDOCK:   -4.15 KCAL/MOL
REMARK 922        TOTAL FREE ENERGY PREDICTED BY IDOCK:   -7.09 KCAL/MOL
REMARK 923 INTER-LIGAND FREE ENERGY PREDICTED BY IDOCK:   -5.73 KCAL/MOL
REMARK 924 INTRA-LIGAND FREE ENERGY PREDICTED BY IDOCK:   -1.36 KCAL/MOL
REMARK 927      BINDING AFFINITY PREDICTED BY RF-SCORE:    0.00 PKD
ROOT
HETATM    1  O   UNL     1     -14.409   6.432  72.623  1.00  0.00    -0.574 OA 
HETATM    2  H   UNL     1     -14.360   5.486  72.553  1.00  0.00     0.000 HD 
HETATM    3  C   UNL     1     -13.805   7.061  71.506  1.00  0.00    -0.237 C  
HETATM    4  C   UNL     1     -13.883   8.580  71.619  1.00  0.00    -0.437 C  
HETATM    5  C   UNL     1     -12.753   9.040  70.724  1.00  0.00     0.138 C  
HETATM    6  N   UNL     1     -11.730   8.019  70.871  1.00  0.00    -0.279 N  
HETATM    7  C   UNL     1     -12.296   6.795  71.430  1.00  0.00    -0.353 C  
ENDROOT
BRANCH   6   8
HETATM    8  C   UNL     1     -10.436   8.294  70.457  1.00  0.00    -0.210 C  
HETATM    9  O   UNL     1      -9.502   7.644  70.912  1.00  0.00    -0.163 OA 
BRANCH   8  10
HETATM   10  N   UNL     1     -10.341   9.338  69.568  1.00  0.00    -0.208 N  
HETATM   11  H   UNL     1     -10.950  10.140  69.732  1.00  0.00     0.000 HD 
BRANCH  10  12
HETATM   12  C   UNL     1      -9.494   9.408  68.467  1.00  0.00    -0.145 A  
HETATM   13  C   UNL     1      -8.541  10.346  68.096  1.00  0.00    -0.125 A  
HETATM   14  N   UNL     1      -8.067  11.509  68.660  1.00  0.00    -0.147 NA 
HETATM   15  C   UNL     1      -7.204  12.223  67.978  1.00  0.00    -0.102 A  
HETATM   16  C   UNL     1      -9.446   8.429  67.449  1.00  0.00    -0.147 A  
HETATM   17  C   UNL     1      -6.630  11.769  66.665  1.00  0.00     0.010 A  
HETATM   18  N   UNL     1      -8.584   8.712  66.480  1.00  0.00    -0.112 NA 
HETATM   19  C   UNL     1      -7.078  10.609  66.175  1.00  0.00    -0.138 A  
HETATM   20  N   UNL     1      -8.035   9.891  66.867  1.00  0.00    -0.109 NA 
BRANCH  15  21
HETATM   21  N   UNL     1      -6.752  13.439  68.434  1.00  0.00    -0.086 NA 
HETATM   22  C   UNL     1      -6.495  15.746  68.900  1.00  0.00    -0.116 C  
HETATM   23  C   UNL     1      -5.815  13.561  69.534  1.00  0.00    -0.104 C  
HETATM   24  C   UNL     1      -7.086  14.748  67.872  1.00  0.00    -0.158 C  
HETATM   25  C   UNL     1      -6.181  14.904  70.134  1.00  0.00    -0.165 C  
BRANCH  24  26
HETATM   26  C   UNL     1      -8.572  14.850  67.592  1.00  0.00    -0.181 A  
HETATM   27  C   UNL     1      -9.571  14.711  68.562  1.00  0.00    -0.221 A  
HETATM   28  C   UNL     1     -10.927  14.717  68.222  1.00  0.00    -0.264 A  
HETATM   29  F   UNL     1      -9.258  14.546  69.854  1.00  0.00     0.188 F  
HETATM   30  C   UNL     1     -11.310  14.852  66.890  1.00  0.00    -0.338 A  
HETATM   31  C   UNL     1     -10.332  14.999  65.916  1.00  0.00    -0.313 A  
HETATM   32  C   UNL     1      -8.982  15.004  66.253  1.00  0.00    -0.233 A  
HETATM   33  F   UNL     1     -10.694  15.124  64.632  1.00  0.00    -0.402 F  
ENDBRANCH  24  26
ENDBRANCH  15  21
ENDBRANCH  10  12
ENDBRANCH   8  10
ENDBRANCH   6   8
TORSDOF 5
ENDMDL
MODEL      239
REMARK 921   NORMALIZED FREE ENERGY PREDICTED BY IDOCK:   -4.13 KCAL/MOL
REMARK 922        TOTAL FREE ENERGY PREDICTED BY IDOCK:   -7.07 KCAL/MOL
REMARK 923 INTER-LIGAND FREE ENERGY PREDICTED BY IDOCK:   -5.52 KCAL/MOL
REMARK 924 INTRA-LIGAND FREE ENERGY PREDICTED BY IDOCK:   -1.55 KCAL/MOL
REMARK 927      BINDING AFFINITY PREDICTED BY RF-SCORE:    0.00 PKD
ROOT
HETATM    1  O   UNL     1      -9.215   8.950  64.636  1.00  0.00    -0.431 OA 
HETATM    2  H   UNL     1      -8.578   8.543  65.212  1.00  0.00     0.000 HD 
HETATM    3  C   UNL     1      -9.456  10.297  65.007  1.00  0.00    -0.257 C  
HETATM    4  C   UNL     1     -10.479  10.949  64.083  1.00  0.00    -0.397 C  
HETATM    5  C   UNL     1     -11.013  12.086  64.927  1.00  0.00    -0.306 C  
HETATM    6  N   UNL     1     -10.988  11.577  66.288  1.00  0.00    -0.289 N  
HETATM    7  C   UNL     1     -10.109  10.415  66.390  1.00  0.00    -0.228 C  
ENDROOT
BRANCH   6   8
HETATM    8  C   UNL     1     -11.719  12.229  67.267  1.00  0.00    -0.324 C  
HETATM    9  O   UNL     1     -12.262  11.579  68.154  1.00  0.00    -0.576 OA 
BRANCH   8  10
HETATM   10  N   UNL     1     -11.787  13.592  67.104  1.00  0.00    -0.376 N  
HETATM   11  H   UNL     1     -11.968  13.934  66.161  1.00  0.00     0.000 HD 
BRANCH  10  12
HETATM   12  C   UNL     1     -11.632  14.550  68.100  1.00  0.00    -0.331 A  
HETATM   13  C   UNL     1     -10.689  15.554  68.274  1.00  0.00    -0.271 A  
HETATM   14  N   UNL     1      -9.603  15.988  67.549  1.00  0.00    -0.221 NA 
HETATM   15  C   UNL     1      -8.850  16.930  68.063  1.00  0.00    -0.216 A  
HETATM   16  C   UNL     1     -12.505  14.685  69.203  1.00  0.00     0.022 A  
HETATM   17  C   UNL     1      -9.187  17.630  69.350  1.00  0.00     0.364 A  
HETATM   18  N   UNL     1     -12.152  15.649  70.045  1.00  0.00    -0.370 NA 
HETATM   19  C   UNL     1     -10.278  17.214  69.999  1.00  0.00     0.466 A  
HETATM   20  N   UNL     1     -11.034  16.176  69.485  1.00  0.00    -0.317 NA 
BRANCH  15  21
HETATM   21  N   UNL     1      -7.699  17.355  67.441  1.00  0.00    -0.189 NA 
HETATM   22  C   UNL     1      -5.449  17.652  66.768  1.00  0.00    -0.193 C  
HETATM   23  C   UNL     1      -7.711  18.061  66.175  1.00  0.00    -0.231 C  
HETATM   24  C   UNL     1      -6.338  17.217  67.961  1.00  0.00    -0.141 C  
HETATM   25  C   UNL     1      -6.383  17.665  65.561  1.00  0.00     0.073 C  
BRANCH  24  26
HETATM   26  C   UNL     1      -6.112  15.824  68.514  1.00  0.00    -0.102 A  
HETATM   27  C   UNL     1      -5.972  15.526  69.874  1.00  0.00    -0.149 A  
HETATM   28  C   UNL     1      -5.667  14.235  70.312  1.00  0.00    -0.135 A  
HETATM   29  F   UNL     1      -6.105  16.481  70.805  1.00  0.00    -0.015 F  
HETATM   30  C   UNL     1      -5.484  13.210  69.387  1.00  0.00    -0.079 A  
HETATM   31  C   UNL     1      -5.628  13.487  68.034  1.00  0.00    -0.121 A  
HETATM   32  C   UNL     1      -5.942  14.769  67.596  1.00  0.00    -0.060 A  
HETATM   33  F   UNL     1      -5.449  12.507  67.139  1.00  0.00    -0.121 F  
ENDBRANCH  24  26
ENDBRANCH  15  21
ENDBRANCH  10  12
ENDBRANCH   8  10
ENDBRANCH   6   8
TORSDOF 5
ENDMDL
MODEL      240
REMARK 921   NORMALIZED FREE ENERGY PREDICTED BY IDOCK:   -4.12 KCAL/MOL
REMARK 922        TOTAL FREE ENERGY PREDICTED BY IDOCK:   -7.06 KCAL/MOL
REMARK 923 INTER-LIGAND FREE ENERGY PREDICTED BY IDOCK:   -5.47 KCAL/MOL
REMARK 924 INTRA-LIGAND FREE ENERGY PREDICTED BY IDOCK:   -1.58 KCAL/MOL
REMARK 927      BINDING AFFINITY PREDICTED BY RF-SCORE:    0.00 PKD
ROOT
HETATM    1  O   UNL     1     -12.725  14.575  66.894  1.00  0.00    -0.418 OA 
HETATM    2  H   UNL     1     -13.252  14.331  67.645  1.00  0.00     0.000 HD 
HETATM    3  C   UNL     1     -11.867  13.516  66.504  1.00  0.00    -0.399 C  
HETATM    4  C   UNL     1     -11.020  13.908  65.298  1.00  0.00    -0.331 C  
HETATM    5  C   UNL     1      -9.841  12.963  65.397  1.00  0.00    -0.118 C  
HETATM    6  N   UNL     1      -9.633  12.784  66.823  1.00  0.00    -0.237 N  
HETATM    7  C   UNL     1     -10.818  13.188  67.574  1.00  0.00    -0.255 C  
ENDROOT
BRANCH   6   8
HETATM    8  C   UNL     1      -8.435  12.252  67.270  1.00  0.00    -0.181 C  
HETATM    9  O   UNL     1      -8.099  12.407  68.439  1.00  0.00    -0.154 OA 
BRANCH   8  10
HETATM   10  N   UNL     1      -7.705  11.613  66.296  1.00  0.00    -0.381 N  
HETATM   11  H   UNL     1      -7.154  12.203  65.673  1.00  0.00     0.000 HD 
BRANCH  10  12
HETATM   12  C   UNL     1      -7.647  10.241  66.077  1.00  0.00    -0.128 A  
HETATM   13  C   UNL     1      -7.440   9.178  66.945  1.00  0.00    -0.091 A  
HETATM   14  N   UNL     1      -7.245   9.070  68.304  1.00  0.00    -0.078 NA 
HETATM   15  C   UNL     1      -6.981   7.887  68.801  1.00  0.00    -0.066 A  
HETATM   16  C   UNL     1      -7.823   9.639  64.811  1.00  0.00    -0.128 A  
HETATM   17  C   UNL     1      -6.995   6.633  67.970  1.00  0.00    -0.080 A  
HETATM   18  N   UNL     1      -7.700   8.317  64.829  1.00  0.00    -0.107 NA 
HETATM   19  C   UNL     1      -7.240   6.774  66.665  1.00  0.00    -0.073 A  
HETATM   20  N   UNL     1      -7.455   8.032  66.133  1.00  0.00    -0.074 NA 
BRANCH  15  21
HETATM   21  N   UNL     1      -6.687   7.712  70.133  1.00  0.00    -0.048 NA 
HETATM   22  C   UNL     1      -6.825   7.423  72.479  1.00  0.00    -0.067 C  
HETATM   23  C   UNL     1      -5.397   7.232  70.590  1.00  0.00    -0.024 C  
HETATM   24  C   UNL     1      -7.570   8.021  71.258  1.00  0.00    -0.081 C  
HETATM   25  C   UNL     1      -5.748   6.520  71.882  1.00  0.00    -0.036 C  
BRANCH  24  26
HETATM   26  C   UNL     1      -8.974   7.514  70.994  1.00  0.00    -0.147 A  
HETATM   27  C   UNL     1      -9.290   6.188  70.679  1.00  0.00    -0.165 A  
HETATM   28  C   UNL     1     -10.593   5.805  70.350  1.00  0.00    -0.365 A  
HETATM   29  F   UNL     1      -8.343   5.240  70.662  1.00  0.00    -0.102 F  
HETATM   30  C   UNL     1     -11.612   6.755  70.319  1.00  0.00    -0.417 A  
HETATM   31  C   UNL     1     -11.317   8.073  70.638  1.00  0.00    -0.252 A  
HETATM   32  C   UNL     1     -10.022   8.455  70.975  1.00  0.00    -0.235 A  
HETATM   33  F   UNL     1     -12.290   8.993  70.605  1.00  0.00    -0.236 F  
ENDBRANCH  24  26
ENDBRANCH  15  21
ENDBRANCH  10  12
ENDBRANCH   8  10
ENDBRANCH   6   8
TORSDOF 5
ENDMDL
MODEL      241
REMARK 921   NORMALIZED FREE ENERGY PREDICTED BY IDOCK:   -4.11 KCAL/MOL
REMARK 922        TOTAL FREE ENERGY PREDICTED BY IDOCK:   -7.05 KCAL/MOL
REMARK 923 INTER-LIGAND FREE ENERGY PREDICTED BY IDOCK:   -5.46 KCAL/MOL
REMARK 924 INTRA-LIGAND FREE ENERGY PREDICTED BY IDOCK:   -1.59 KCAL/MOL
REMARK 927      BINDING AFFINITY PREDICTED BY RF-SCORE:    0.00 PKD
ROOT
HETATM    1  O   UNL     1     -10.606   2.111  72.634  1.00  0.00    -0.155 OA 
HETATM    2  H   UNL     1     -10.769   1.878  71.727  1.00  0.00     0.000 HD 
HETATM    3  C   UNL     1     -10.882   3.481  72.870  1.00  0.00    -0.044 C  
HETATM    4  C   UNL     1     -10.619   3.855  74.324  1.00  0.00    -0.265 C  
HETATM    5  C   UNL     1     -10.401   5.351  74.251  1.00  0.00    -0.276 C  
HETATM    6  N   UNL     1      -9.752   5.565  72.969  1.00  0.00    -0.150 N  
HETATM    7  C   UNL     1      -9.937   4.410  72.095  1.00  0.00    -0.185 C  
ENDROOT
BRANCH   6   8
HETATM    8  C   UNL     1      -9.111   6.769  72.729  1.00  0.00    -0.135 C  
HETATM    9  O   UNL     1      -7.948   6.772  72.341  1.00  0.00    -0.098 OA 
BRANCH   8  10
HETATM   10  N   UNL     1      -9.878   7.878  73.001  1.00  0.00    -0.274 N  
HETATM   11  H   UNL     1      -9.916   8.183  73.973  1.00  0.00     0.000 HD 
BRANCH  10  12
HETATM   12  C   UNL     1     -10.606   8.622  72.079  1.00  0.00    -0.351 A  
HETATM   13  C   UNL     1     -10.210   9.359  70.972  1.00  0.00    -0.299 A  
HETATM   14  N   UNL     1      -8.999   9.611  70.367  1.00  0.00    -0.235 NA 
HETATM   15  C   UNL     1      -8.969  10.451  69.362  1.00  0.00    -0.151 A  
HETATM   16  C   UNL     1     -12.013   8.752  72.110  1.00  0.00    -0.366 A  
HETATM   17  C   UNL     1     -10.211  11.060  68.773  1.00  0.00    -0.211 A  
HETATM   18  N   UNL     1     -12.496   9.531  71.149  1.00  0.00    -0.319 NA 
HETATM   19  C   UNL     1     -11.373  10.751  69.356  1.00  0.00    -0.285 A  
HETATM   20  N   UNL     1     -11.393   9.914  70.457  1.00  0.00    -0.302 NA 
BRANCH  15  21
HETATM   21  N   UNL     1      -7.787  10.820  68.764  1.00  0.00    -0.120 NA 
HETATM   22  C   UNL     1      -5.820  10.881  67.448  1.00  0.00    -0.046 C  
HETATM   23  C   UNL     1      -7.326  12.194  68.730  1.00  0.00    -0.090 C  
HETATM   24  C   UNL     1      -6.818   9.918  68.141  1.00  0.00    -0.064 C  
HETATM   25  C   UNL     1      -6.514  12.240  67.450  1.00  0.00    -0.157 C  
BRANCH  24  26
HETATM   26  C   UNL     1      -7.518   8.903  67.260  1.00  0.00    -0.084 A  
HETATM   27  C   UNL     1      -7.686   7.553  67.587  1.00  0.00    -0.115 A  
HETATM   28  C   UNL     1      -8.253   6.647  66.687  1.00  0.00    -0.112 A  
HETATM   29  F   UNL     1      -7.287   7.078  68.775  1.00  0.00    -0.082 F  
HETATM   30  C   UNL     1      -8.657   7.078  65.426  1.00  0.00    -0.048 A  
HETATM   31  C   UNL     1      -8.504   8.416  65.087  1.00  0.00    -0.160 A  
HETATM   32  C   UNL     1      -7.949   9.322  65.985  1.00  0.00    -0.110 A  
HETATM   33  F   UNL     1      -8.885   8.836  63.874  1.00  0.00    -0.168 F  
ENDBRANCH  24  26
ENDBRANCH  15  21
ENDBRANCH  10  12
ENDBRANCH   8  10
ENDBRANCH   6   8
TORSDOF 5
ENDMDL
MODEL      242
REMARK 921   NORMALIZED FREE ENERGY PREDICTED BY IDOCK:   -4.09 KCAL/MOL
REMARK 922        TOTAL FREE ENERGY PREDICTED BY IDOCK:   -7.02 KCAL/MOL
REMARK 923 INTER-LIGAND FREE ENERGY PREDICTED BY IDOCK:   -4.93 KCAL/MOL
REMARK 924 INTRA-LIGAND FREE ENERGY PREDICTED BY IDOCK:   -2.08 KCAL/MOL
REMARK 927      BINDING AFFINITY PREDICTED BY RF-SCORE:    0.00 PKD
ROOT
HETATM    1  O   UNL     1     -10.898   8.677  67.432  1.00  0.00    -0.461 OA 
HETATM    2  H   UNL     1     -10.489   9.331  67.986  1.00  0.00     0.000 HD 
HETATM    3  C   UNL     1     -10.495   7.369  67.800  1.00  0.00    -0.232 C  
HETATM    4  C   UNL     1     -11.151   6.319  66.910  1.00  0.00    -0.329 C  
HETATM    5  C   UNL     1     -10.216   5.136  67.043  1.00  0.00    -0.223 C  
HETATM    6  N   UNL     1      -8.896   5.727  67.188  1.00  0.00    -0.108 N  
HETATM    7  C   UNL     1      -8.997   7.132  67.572  1.00  0.00    -0.121 C  
ENDROOT
BRANCH   6   8
HETATM    8  C   UNL     1      -7.776   4.935  66.996  1.00  0.00    -0.092 C  
HETATM    9  O   UNL     1      -6.909   5.289  66.206  1.00  0.00    -0.056 OA 
BRANCH   8  10
HETATM   10  N   UNL     1      -7.783   3.767  67.721  1.00  0.00    -0.070 N  
HETATM   11  H   UNL     1      -8.118   2.930  67.243  1.00  0.00     0.000 HD 
BRANCH  10  12
HETATM   12  C   UNL     1      -7.378   3.615  69.043  1.00  0.00    -0.053 A  
HETATM   13  C   UNL     1      -7.888   4.128  70.227  1.00  0.00    -0.051 A  
HETATM   14  N   UNL     1      -8.960   4.932  70.544  1.00  0.00    -0.117 NA 
HETATM   15  C   UNL     1      -9.104   5.312  71.790  1.00  0.00    -0.138 A  
HETATM   16  C   UNL     1      -6.280   2.819  69.441  1.00  0.00    -0.028 A  
HETATM   17  C   UNL     1      -8.219   4.816  72.899  1.00  0.00    -0.101 A  
HETATM   18  N   UNL     1      -6.057   2.840  70.751  1.00  0.00    -0.018 NA 
HETATM   19  C   UNL     1      -7.221   3.996  72.559  1.00  0.00    -0.058 A  
HETATM   20  N   UNL     1      -7.033   3.649  71.234  1.00  0.00    -0.032 NA 
BRANCH  15  21
HETATM   21  N   UNL     1     -10.097   6.185  72.168  1.00  0.00    -0.182 NA 
HETATM   22  C   UNL     1     -11.334   8.124  72.729  1.00  0.00    -0.406 C  
HETATM   23  C   UNL     1     -11.502   5.830  72.138  1.00  0.00    -0.235 C  
HETATM   24  C   UNL     1      -9.900   7.537  72.693  1.00  0.00    -0.191 C  
HETATM   25  C   UNL     1     -12.176   7.166  71.890  1.00  0.00    -0.358 C  
BRANCH  24  26
HETATM   26  C   UNL     1      -8.871   8.288  71.872  1.00  0.00    -0.238 A  
HETATM   27  C   UNL     1      -7.512   8.376  72.194  1.00  0.00    -0.112 A  
HETATM   28  C   UNL     1      -6.633   9.167  71.449  1.00  0.00    -0.059 A  
HETATM   29  F   UNL     1      -7.010   7.716  73.247  1.00  0.00    -0.063 F  
HETATM   30  C   UNL     1      -7.106   9.900  70.363  1.00  0.00    -0.146 A  
HETATM   31  C   UNL     1      -8.450   9.818  70.025  1.00  0.00    -0.206 A  
HETATM   32  C   UNL     1      -9.325   9.024  70.759  1.00  0.00    -0.305 A  
HETATM   33  F   UNL     1      -8.912  10.526  68.986  1.00  0.00    -0.146 F  
ENDBRANCH  24  26
ENDBRANCH  15  21
ENDBRANCH  10  12
ENDBRANCH   8  10
ENDBRANCH   6   8
TORSDOF 5
ENDMDL
MODEL      243
REMARK 921   NORMALIZED FREE ENERGY PREDICTED BY IDOCK:   -4.08 KCAL/MOL
REMARK 922        TOTAL FREE ENERGY PREDICTED BY IDOCK:   -7.01 KCAL/MOL
REMARK 923 INTER-LIGAND FREE ENERGY PREDICTED BY IDOCK:   -5.42 KCAL/MOL
REMARK 924 INTRA-LIGAND FREE ENERGY PREDICTED BY IDOCK:   -1.58 KCAL/MOL
REMARK 927      BINDING AFFINITY PREDICTED BY RF-SCORE:    0.00 PKD
ROOT
HETATM    1  O   UNL     1     -12.218  11.486  68.064  1.00  0.00    -0.582 OA 
HETATM    2  H   UNL     1     -12.607  10.683  67.738  1.00  0.00     0.000 HD 
HETATM    3  C   UNL     1     -10.843  11.563  67.727  1.00  0.00    -0.221 C  
HETATM    4  C   UNL     1     -10.219  12.852  68.249  1.00  0.00    -0.245 C  
HETATM    5  C   UNL     1      -8.747  12.506  68.319  1.00  0.00    -0.171 C  
HETATM    6  N   UNL     1      -8.718  11.097  68.671  1.00  0.00    -0.160 N  
HETATM    7  C   UNL     1     -10.011  10.471  68.410  1.00  0.00    -0.164 C  
ENDROOT
BRANCH   6   8
HETATM    8  C   UNL     1      -7.540  10.542  69.145  1.00  0.00    -0.123 C  
HETATM    9  O   UNL     1      -7.169  10.786  70.287  1.00  0.00    -0.166 OA 
BRANCH   8  10
HETATM   10  N   UNL     1      -6.870   9.775  68.221  1.00  0.00    -0.067 N  
HETATM   11  H   UNL     1      -6.345  10.274  67.502  1.00  0.00     0.000 HD 
BRANCH  10  12
HETATM   12  C   UNL     1      -6.837   8.386  68.173  1.00  0.00    -0.069 A  
HETATM   13  C   UNL     1      -7.711   7.426  68.665  1.00  0.00    -0.120 A  
HETATM   14  N   UNL     1      -8.908   7.473  69.343  1.00  0.00    -0.137 NA 
HETATM   15  C   UNL     1      -9.436   6.345  69.750  1.00  0.00    -0.152 A  
HETATM   16  C   UNL     1      -5.816   7.646  67.536  1.00  0.00    -0.036 A  
HETATM   17  C   UNL     1      -8.849   5.003  69.412  1.00  0.00    -0.116 A  
HETATM   18  N   UNL     1      -5.971   6.331  67.635  1.00  0.00    -0.016 NA 
HETATM   19  C   UNL     1      -7.713   4.998  68.709  1.00  0.00    -0.078 A  
HETATM   20  N   UNL     1      -7.125   6.192  68.335  1.00  0.00    -0.080 NA 
BRANCH  15  21
HETATM   21  N   UNL     1     -10.583   6.317  70.509  1.00  0.00    -0.233 NA 
HETATM   22  C   UNL     1     -12.129   6.281  72.301  1.00  0.00    -0.255 C  
HETATM   23  C   UNL     1     -11.883   6.660  69.970  1.00  0.00    -0.238 C  
HETATM   24  C   UNL     1     -10.679   5.899  71.908  1.00  0.00    -0.239 C  
HETATM   25  C   UNL     1     -12.613   7.202  71.183  1.00  0.00    -0.384 C  
BRANCH  24  26
HETATM   26  C   UNL     1      -9.562   6.509  72.730  1.00  0.00    -0.157 A  
HETATM   27  C   UNL     1      -9.384   7.883  72.928  1.00  0.00    -0.246 A  
HETATM   28  C   UNL     1      -8.276   8.386  73.614  1.00  0.00    -0.182 A  
HETATM   29  F   UNL     1     -10.266   8.768  72.443  1.00  0.00    -0.370 F  
HETATM   30  C   UNL     1      -7.310   7.514  74.112  1.00  0.00    -0.141 A  
HETATM   31  C   UNL     1      -7.475   6.148  73.932  1.00  0.00    -0.091 A  
HETATM   32  C   UNL     1      -8.582   5.644  73.257  1.00  0.00    -0.116 A  
HETATM   33  F   UNL     1      -6.547   5.305  74.402  1.00  0.00    -0.067 F  
ENDBRANCH  24  26
ENDBRANCH  15  21
ENDBRANCH  10  12
ENDBRANCH   8  10
ENDBRANCH   6   8
TORSDOF 5
ENDMDL
MODEL      244
REMARK 921   NORMALIZED FREE ENERGY PREDICTED BY IDOCK:   -4.07 KCAL/MOL
REMARK 922        TOTAL FREE ENERGY PREDICTED BY IDOCK:   -6.99 KCAL/MOL
REMARK 923 INTER-LIGAND FREE ENERGY PREDICTED BY IDOCK:   -5.84 KCAL/MOL
REMARK 924 INTRA-LIGAND FREE ENERGY PREDICTED BY IDOCK:   -1.15 KCAL/MOL
REMARK 927      BINDING AFFINITY PREDICTED BY RF-SCORE:    0.00 PKD
ROOT
HETATM    1  O   UNL     1     -13.720  15.951  71.723  1.00  0.00    -0.375 OA 
HETATM    2  H   UNL     1     -13.155  16.623  71.357  1.00  0.00     0.000 HD 
HETATM    3  C   UNL     1     -13.008  14.744  71.938  1.00  0.00    -0.327 C  
HETATM    4  C   UNL     1     -13.914  13.667  72.525  1.00  0.00    -0.572 C  
HETATM    5  C   UNL     1     -13.198  12.388  72.150  1.00  0.00    -0.385 C  
HETATM    6  N   UNL     1     -12.589  12.673  70.862  1.00  0.00    -0.309 N  
HETATM    7  C   UNL     1     -12.518  14.112  70.629  1.00  0.00    -0.362 C  
ENDROOT
BRANCH   6   8
HETATM    8  C   UNL     1     -12.143  11.621  70.078  1.00  0.00    -0.319 C  
HETATM    9  O   UNL     1     -12.770  11.304  69.073  1.00  0.00    -0.190 OA 
BRANCH   8  10
HETATM   10  N   UNL     1     -11.015  11.000  70.559  1.00  0.00    -0.281 N  
HETATM   11  H   UNL     1     -10.404  11.555  71.158  1.00  0.00     0.000 HD 
BRANCH  10  12
HETATM   12  C   UNL     1     -10.627   9.688  70.309  1.00  0.00    -0.278 A  
HETATM   13  C   UNL     1     -10.005   9.105  69.214  1.00  0.00    -0.187 A  
HETATM   14  N   UNL     1      -9.531   9.579  68.012  1.00  0.00    -0.133 NA 
HETATM   15  C   UNL     1      -9.071   8.715  67.141  1.00  0.00    -0.133 A  
HETATM   16  C   UNL     1     -10.802   8.628  71.227  1.00  0.00    -0.260 A  
HETATM   17  C   UNL     1      -8.936   7.248  67.443  1.00  0.00    -0.122 A  
HETATM   18  N   UNL     1     -10.382   7.454  70.770  1.00  0.00    -0.202 NA 
HETATM   19  C   UNL     1      -9.360   6.834  68.640  1.00  0.00    -0.131 A  
HETATM   20  N   UNL     1      -9.903   7.740  69.533  1.00  0.00    -0.176 NA 
BRANCH  15  21
HETATM   21  N   UNL     1      -8.663   9.101  65.886  1.00  0.00    -0.149 NA 
HETATM   22  C   UNL     1      -7.636  10.212  64.064  1.00  0.00    -0.128 C  
HETATM   23  C   UNL     1      -8.767   8.233  64.730  1.00  0.00     0.070 C  
HETATM   24  C   UNL     1      -8.131  10.415  65.519  1.00  0.00    -0.156 C  
HETATM   25  C   UNL     1      -7.616   8.699  63.859  1.00  0.00    -0.127 C  
BRANCH  24  26
HETATM   26  C   UNL     1      -7.108  10.883  66.534  1.00  0.00    -0.139 A  
HETATM   27  C   UNL     1      -6.022  10.119  66.974  1.00  0.00    -0.051 A  
HETATM   28  C   UNL     1      -5.171  10.571  67.986  1.00  0.00    -0.037 A  
HETATM   29  F   UNL     1      -5.773   8.911  66.449  1.00  0.00    -0.048 F  
HETATM   30  C   UNL     1      -5.400  11.804  68.590  1.00  0.00    -0.049 A  
HETATM   31  C   UNL     1      -6.469  12.579  68.160  1.00  0.00    -0.076 A  
HETATM   32  C   UNL     1      -7.312  12.136  67.147  1.00  0.00    -0.124 A  
HETATM   33  F   UNL     1      -6.699  13.764  68.741  1.00  0.00    -0.081 F  
ENDBRANCH  24  26
ENDBRANCH  15  21
ENDBRANCH  10  12
ENDBRANCH   8  10
ENDBRANCH   6   8
TORSDOF 5
ENDMDL
MODEL      245
REMARK 921   NORMALIZED FREE ENERGY PREDICTED BY IDOCK:   -4.07 KCAL/MOL
REMARK 922        TOTAL FREE ENERGY PREDICTED BY IDOCK:   -6.99 KCAL/MOL
REMARK 923 INTER-LIGAND FREE ENERGY PREDICTED BY IDOCK:   -5.82 KCAL/MOL
REMARK 924 INTRA-LIGAND FREE ENERGY PREDICTED BY IDOCK:   -1.17 KCAL/MOL
REMARK 927      BINDING AFFINITY PREDICTED BY RF-SCORE:    0.00 PKD
ROOT
HETATM    1  O   UNL     1     -11.379   2.306  63.662  1.00  0.00    -0.610 OA 
HETATM    2  H   UNL     1     -11.517   1.770  64.434  1.00  0.00     0.000 HD 
HETATM    3  C   UNL     1     -10.105   2.927  63.690  1.00  0.00    -0.167 C  
HETATM    4  C   UNL     1      -9.883   3.787  62.451  1.00  0.00    -0.125 C  
HETATM    5  C   UNL     1      -8.820   4.763  62.908  1.00  0.00    -0.114 C  
HETATM    6  N   UNL     1      -9.108   4.987  64.314  1.00  0.00    -0.027 N  
HETATM    7  C   UNL     1      -9.969   3.933  64.841  1.00  0.00    -0.196 C  
ENDROOT
BRANCH   6   8
HETATM    8  C   UNL     1      -8.541   6.077  64.955  1.00  0.00    -0.038 C  
HETATM    9  O   UNL     1      -7.893   6.892  64.309  1.00  0.00    -0.106 OA 
BRANCH   8  10
HETATM   10  N   UNL     1      -8.748   6.099  66.314  1.00  0.00    -0.138 N  
HETATM   11  H   UNL     1      -9.431   5.440  66.687  1.00  0.00     0.000 HD 
BRANCH  10  12
HETATM   12  C   UNL     1      -8.117   6.934  67.230  1.00  0.00    -0.118 A  
HETATM   13  C   UNL     1      -8.600   7.626  68.332  1.00  0.00    -0.124 A  
HETATM   14  N   UNL     1      -9.833   7.733  68.934  1.00  0.00    -0.162 NA 
HETATM   15  C   UNL     1      -9.966   8.570  69.933  1.00  0.00    -0.189 A  
HETATM   16  C   UNL     1      -6.736   7.233  67.198  1.00  0.00    -0.068 A  
HETATM   17  C   UNL     1      -8.807   9.330  70.517  1.00  0.00    -0.285 A  
HETATM   18  N   UNL     1      -6.352   8.073  68.153  1.00  0.00    -0.053 NA 
HETATM   19  C   UNL     1      -7.616   9.161  69.937  1.00  0.00    -0.080 A  
HETATM   20  N   UNL     1      -7.494   8.324  68.842  1.00  0.00    -0.090 NA 
BRANCH  15  21
HETATM   21  N   UNL     1     -11.185   8.798  70.529  1.00  0.00    -0.256 NA 
HETATM   22  C   UNL     1     -13.152   8.622  71.835  1.00  0.00    -0.409 C  
HETATM   23  C   UNL     1     -11.797  10.111  70.575  1.00  0.00    -0.321 C  
HETATM   24  C   UNL     1     -12.049   7.785  71.137  1.00  0.00    -0.286 C  
HETATM   25  C   UNL     1     -12.615  10.051  71.850  1.00  0.00    -0.454 C  
BRANCH  24  26
HETATM   26  C   UNL     1     -11.243   6.846  72.011  1.00  0.00    -0.292 A  
HETATM   27  C   UNL     1     -10.491   7.247  73.121  1.00  0.00    -0.339 A  
HETATM   28  C   UNL     1      -9.690   6.345  73.827  1.00  0.00    -0.208 A  
HETATM   29  F   UNL     1     -10.499   8.522  73.533  1.00  0.00     0.130 F  
HETATM   30  C   UNL     1      -9.618   5.014  73.424  1.00  0.00    -0.147 A  
HETATM   31  C   UNL     1     -10.364   4.597  72.329  1.00  0.00    -0.185 A  
HETATM   32  C   UNL     1     -11.169   5.491  71.631  1.00  0.00    -0.135 A  
HETATM   33  F   UNL     1     -10.294   3.320  71.932  1.00  0.00    -0.225 F  
ENDBRANCH  24  26
ENDBRANCH  15  21
ENDBRANCH  10  12
ENDBRANCH   8  10
ENDBRANCH   6   8
TORSDOF 5
ENDMDL
MODEL      246
REMARK 921   NORMALIZED FREE ENERGY PREDICTED BY IDOCK:   -4.02 KCAL/MOL
REMARK 922        TOTAL FREE ENERGY PREDICTED BY IDOCK:   -6.92 KCAL/MOL
REMARK 923 INTER-LIGAND FREE ENERGY PREDICTED BY IDOCK:   -5.57 KCAL/MOL
REMARK 924 INTRA-LIGAND FREE ENERGY PREDICTED BY IDOCK:   -1.35 KCAL/MOL
REMARK 927      BINDING AFFINITY PREDICTED BY RF-SCORE:    0.00 PKD
ROOT
HETATM    1  O   UNL     1     -10.841  12.886  63.459  1.00  0.00    -0.532 OA 
HETATM    2  H   UNL     1     -11.668  13.124  63.863  1.00  0.00     0.000 HD 
HETATM    3  C   UNL     1     -10.619  11.488  63.530  1.00  0.00    -0.423 C  
HETATM    4  C   UNL     1      -9.293  11.106  62.883  1.00  0.00    -0.385 C  
HETATM    5  C   UNL     1      -8.971   9.780  63.536  1.00  0.00    -0.244 C  
HETATM    6  N   UNL     1      -9.495   9.899  64.886  1.00  0.00    -0.278 N  
HETATM    7  C   UNL     1     -10.458  10.993  64.973  1.00  0.00    -0.277 C  
ENDROOT
BRANCH   6   8
HETATM    8  C   UNL     1      -9.078   9.001  65.855  1.00  0.00    -0.212 C  
HETATM    9  O   UNL     1      -8.382   9.391  66.786  1.00  0.00    -0.121 OA 
BRANCH   8  10
HETATM   10  N   UNL     1      -9.481   7.706  65.631  1.00  0.00    -0.337 N  
HETATM   11  H   UNL     1     -10.454   7.567  65.361  1.00  0.00     0.000 HD 
BRANCH  10  12
HETATM   12  C   UNL     1      -8.690   6.567  65.737  1.00  0.00    -0.120 A  
HETATM   13  C   UNL     1      -8.451   5.707  66.800  1.00  0.00    -0.111 A  
HETATM   14  N   UNL     1      -8.901   5.636  68.099  1.00  0.00    -0.109 NA 
HETATM   15  C   UNL     1      -8.387   4.723  68.885  1.00  0.00    -0.082 A  
HETATM   16  C   UNL     1      -7.935   6.032  64.669  1.00  0.00    -0.130 A  
HETATM   17  C   UNL     1      -7.414   3.684  68.399  1.00  0.00    -0.054 A  
HETATM   18  N   UNL     1      -7.232   4.956  65.001  1.00  0.00    -0.063 NA 
HETATM   19  C   UNL     1      -7.040   3.756  67.119  1.00  0.00    -0.063 A  
HETATM   20  N   UNL     1      -7.537   4.760  66.309  1.00  0.00    -0.090 NA 
BRANCH  15  21
HETATM   21  N   UNL     1      -8.720   4.645  70.218  1.00  0.00    -0.081 NA 
HETATM   22  C   UNL     1      -9.055   5.114  72.514  1.00  0.00    -0.142 C  
HETATM   23  C   UNL     1      -9.649   3.659  70.733  1.00  0.00    -0.179 C  
HETATM   24  C   UNL     1      -8.172   5.475  71.292  1.00  0.00    -0.125 C  
HETATM   25  C   UNL     1     -10.252   4.366  71.931  1.00  0.00    -0.216 C  
BRANCH  24  26
HETATM   26  C   UNL     1      -8.132   6.932  70.879  1.00  0.00    -0.114 A  
HETATM   27  C   UNL     1      -6.997   7.584  70.385  1.00  0.00    -0.052 A  
HETATM   28  C   UNL     1      -7.000   8.955  70.116  1.00  0.00    -0.043 A  
HETATM   29  F   UNL     1      -5.856   6.913  70.172  1.00  0.00    -0.021 F  
HETATM   30  C   UNL     1      -8.148   9.709  70.349  1.00  0.00    -0.198 A  
HETATM   31  C   UNL     1      -9.285   9.076  70.832  1.00  0.00    -0.259 A  
HETATM   32  C   UNL     1      -9.288   7.709  71.092  1.00  0.00    -0.161 A  
HETATM   33  F   UNL     1     -10.391   9.796  71.064  1.00  0.00    -0.353 F  
ENDBRANCH  24  26
ENDBRANCH  15  21
ENDBRANCH  10  12
ENDBRANCH   8  10
ENDBRANCH   6   8
TORSDOF 5
ENDMDL
MODEL      247
REMARK 921   NORMALIZED FREE ENERGY PREDICTED BY IDOCK:   -4.01 KCAL/MOL
REMARK 922        TOTAL FREE ENERGY PREDICTED BY IDOCK:   -6.91 KCAL/MOL
REMARK 923 INTER-LIGAND FREE ENERGY PREDICTED BY IDOCK:   -5.98 KCAL/MOL
REMARK 924 INTRA-LIGAND FREE ENERGY PREDICTED BY IDOCK:   -0.93 KCAL/MOL
REMARK 927      BINDING AFFINITY PREDICTED BY RF-SCORE:    0.00 PKD
ROOT
HETATM    1  O   UNL     1      -9.870  13.960  64.607  1.00  0.00    -0.579 OA 
HETATM    2  H   UNL     1     -10.077  14.887  64.633  1.00  0.00     0.000 HD 
HETATM    3  C   UNL     1     -10.743  13.217  65.442  1.00  0.00    -0.294 C  
HETATM    4  C   UNL     1     -10.412  11.729  65.401  1.00  0.00    -0.317 C  
HETATM    5  C   UNL     1     -10.997  11.221  66.701  1.00  0.00    -0.268 C  
HETATM    6  N   UNL     1     -10.823  12.320  67.636  1.00  0.00    -0.218 N  
HETATM    7  C   UNL     1     -10.577  13.571  66.925  1.00  0.00    -0.270 C  
ENDROOT
BRANCH   6   8
HETATM    8  C   UNL     1     -10.941  12.076  68.995  1.00  0.00    -0.210 C  
HETATM    9  O   UNL     1     -11.779  12.685  69.651  1.00  0.00    -0.303 OA 
BRANCH   8  10
HETATM   10  N   UNL     1     -10.037  11.164  69.482  1.00  0.00    -0.433 N  
HETATM   11  H   UNL     1      -9.075  11.483  69.594  1.00  0.00     0.000 HD 
BRANCH  10  12
HETATM   12  C   UNL     1     -10.306   9.846  69.838  1.00  0.00    -0.258 A  
HETATM   13  C   UNL     1     -10.030   8.645  69.200  1.00  0.00    -0.192 A  
HETATM   14  N   UNL     1      -9.391   8.303  68.029  1.00  0.00    -0.132 NA 
HETATM   15  C   UNL     1      -9.389   7.043  67.669  1.00  0.00    -0.122 A  
HETATM   16  C   UNL     1     -10.954   9.473  71.037  1.00  0.00    -0.353 A  
HETATM   17  C   UNL     1      -9.953   5.948  68.531  1.00  0.00    -0.185 A  
HETATM   18  N   UNL     1     -11.132   8.162  71.159  1.00  0.00    -0.240 NA 
HETATM   19  C   UNL     1     -10.520   6.315  69.684  1.00  0.00    -0.238 A  
HETATM   20  N   UNL     1     -10.576   7.653  70.031  1.00  0.00    -0.234 NA 
BRANCH  15  21
HETATM   21  N   UNL     1      -8.849   6.635  66.471  1.00  0.00    -0.134 NA 
HETATM   22  C   UNL     1      -7.577   6.478  64.480  1.00  0.00    -0.101 C  
HETATM   23  C   UNL     1      -8.957   5.272  65.990  1.00  0.00    -0.144 C  
HETATM   24  C   UNL     1      -8.156   7.488  65.504  1.00  0.00    -0.131 C  
HETATM   25  C   UNL     1      -7.702   5.114  65.155  1.00  0.00    -0.084 C  
BRANCH  24  26
HETATM   26  C   UNL     1      -7.169   8.401  66.202  1.00  0.00    -0.077 A  
HETATM   27  C   UNL     1      -6.140   7.960  67.041  1.00  0.00    -0.053 A  
HETATM   28  C   UNL     1      -5.324   8.858  67.734  1.00  0.00    -0.035 A  
HETATM   29  F   UNL     1      -5.914   6.651  67.224  1.00  0.00    -0.015 F  
HETATM   30  C   UNL     1      -5.533  10.229  67.607  1.00  0.00    -0.044 A  
HETATM   31  C   UNL     1      -6.545  10.685  66.772  1.00  0.00    -0.091 A  
HETATM   32  C   UNL     1      -7.352   9.793  66.074  1.00  0.00    -0.102 A  
HETATM   33  F   UNL     1      -6.756  12.002  66.650  1.00  0.00    -0.120 F  
ENDBRANCH  24  26
ENDBRANCH  15  21
ENDBRANCH  10  12
ENDBRANCH   8  10
ENDBRANCH   6   8
TORSDOF 5
ENDMDL
MODEL      248
REMARK 921   NORMALIZED FREE ENERGY PREDICTED BY IDOCK:   -3.95 KCAL/MOL
REMARK 922        TOTAL FREE ENERGY PREDICTED BY IDOCK:   -6.83 KCAL/MOL
REMARK 923 INTER-LIGAND FREE ENERGY PREDICTED BY IDOCK:   -6.26 KCAL/MOL
REMARK 924 INTRA-LIGAND FREE ENERGY PREDICTED BY IDOCK:   -0.57 KCAL/MOL
REMARK 927      BINDING AFFINITY PREDICTED BY RF-SCORE:    0.00 PKD
ROOT
HETATM    1  O   UNL     1     -10.989   2.272  63.981  1.00  0.00    -0.436 OA 
HETATM    2  H   UNL     1     -11.112   1.534  64.567  1.00  0.00     0.000 HD 
HETATM    3  C   UNL     1      -9.704   2.848  64.143  1.00  0.00    -0.153 C  
HETATM    4  C   UNL     1      -9.508   4.032  63.204  1.00  0.00    -0.139 C  
HETATM    5  C   UNL     1      -8.413   4.823  63.887  1.00  0.00    -0.132 C  
HETATM    6  N   UNL     1      -8.650   4.626  65.307  1.00  0.00    -0.127 N  
HETATM    7  C   UNL     1      -9.512   3.469  65.532  1.00  0.00    -0.147 C  
ENDROOT
BRANCH   6   8
HETATM    8  C   UNL     1      -8.042   5.474  66.218  1.00  0.00    -0.106 C  
HETATM    9  O   UNL     1      -7.249   6.322  65.824  1.00  0.00    -0.071 OA 
BRANCH   8  10
HETATM   10  N   UNL     1      -8.385   5.231  67.527  1.00  0.00    -0.107 N  
HETATM   11  H   UNL     1      -8.946   4.399  67.709  1.00  0.00     0.000 HD 
BRANCH  10  12
HETATM   12  C   UNL     1      -8.042   6.010  68.627  1.00  0.00    -0.107 A  
HETATM   13  C   UNL     1      -8.363   7.316  68.967  1.00  0.00    -0.126 A  
HETATM   14  N   UNL     1      -9.132   8.299  68.386  1.00  0.00    -0.136 NA 
HETATM   15  C   UNL     1      -9.147   9.486  68.942  1.00  0.00    -0.141 A  
HETATM   16  C   UNL     1      -7.242   5.549  69.697  1.00  0.00    -0.065 A  
HETATM   17  C   UNL     1      -8.454   9.784  70.243  1.00  0.00    -0.163 A  
HETATM   18  N   UNL     1      -7.018   6.469  70.628  1.00  0.00    -0.063 NA 
HETATM   19  C   UNL     1      -7.760   8.789  70.802  1.00  0.00    -0.102 A  
HETATM   20  N   UNL     1      -7.694   7.556  70.179  1.00  0.00    -0.088 NA 
BRANCH  15  21
HETATM   21  N   UNL     1      -9.819  10.542  68.373  1.00  0.00    -0.156 NA 
HETATM   22  C   UNL     1     -11.437  12.176  67.809  1.00  0.00    -0.398 C  
HETATM   23  C   UNL     1      -9.144  11.586  67.628  1.00  0.00    -0.168 C  
HETATM   24  C   UNL     1     -11.269  10.745  68.380  1.00  0.00    -0.284 C  
HETATM   25  C   UNL     1     -10.039  12.788  67.856  1.00  0.00    -0.231 C  
BRANCH  24  26
HETATM   26  C   UNL     1     -11.842  10.483  69.758  1.00  0.00    -0.329 A  
HETATM   27  C   UNL     1     -11.967   9.215  70.335  1.00  0.00     0.055 A  
HETATM   28  C   UNL     1     -12.596   9.032  71.570  1.00  0.00    -0.400 A  
HETATM   29  F   UNL     1     -11.504   8.124  69.709  1.00  0.00    -0.128 F  
HETATM   30  C   UNL     1     -13.125  10.125  72.252  1.00  0.00    -0.350 A  
HETATM   31  C   UNL     1     -13.002  11.392  71.697  1.00  0.00    -0.418 A  
HETATM   32  C   UNL     1     -12.368  11.578  70.473  1.00  0.00    -0.432 A  
HETATM   33  F   UNL     1     -13.514  12.447  72.344  1.00  0.00    -0.619 F  
ENDBRANCH  24  26
ENDBRANCH  15  21
ENDBRANCH  10  12
ENDBRANCH   8  10
ENDBRANCH   6   8
TORSDOF 5
ENDMDL
MODEL      249
REMARK 921   NORMALIZED FREE ENERGY PREDICTED BY IDOCK:   -3.95 KCAL/MOL
REMARK 922        TOTAL FREE ENERGY PREDICTED BY IDOCK:   -6.83 KCAL/MOL
REMARK 923 INTER-LIGAND FREE ENERGY PREDICTED BY IDOCK:   -5.59 KCAL/MOL
REMARK 924 INTRA-LIGAND FREE ENERGY PREDICTED BY IDOCK:   -1.24 KCAL/MOL
REMARK 927      BINDING AFFINITY PREDICTED BY RF-SCORE:    0.00 PKD
ROOT
HETATM    1  O   UNL     1     -10.338   5.122  72.815  1.00  0.00    -0.181 OA 
HETATM    2  H   UNL     1      -9.610   4.721  73.276  1.00  0.00     0.000 HD 
HETATM    3  C   UNL     1     -10.053   5.267  71.434  1.00  0.00    -0.203 C  
HETATM    4  C   UNL     1     -11.221   5.909  70.694  1.00  0.00    -0.284 C  
HETATM    5  C   UNL     1     -10.559   6.489  69.463  1.00  0.00    -0.246 C  
HETATM    6  N   UNL     1      -9.239   6.896  69.914  1.00  0.00    -0.148 N  
HETATM    7  C   UNL     1      -8.898   6.242  71.174  1.00  0.00    -0.142 C  
ENDROOT
BRANCH   6   8
HETATM    8  C   UNL     1      -8.496   7.766  69.133  1.00  0.00    -0.138 C  
HETATM    9  O   UNL     1      -7.420   7.400  68.672  1.00  0.00    -0.096 OA 
BRANCH   8  10
HETATM   10  N   UNL     1      -9.059   9.011  68.988  1.00  0.00    -0.142 N  
HETATM   11  H   UNL     1      -9.337   9.494  69.843  1.00  0.00     0.000 HD 
BRANCH  10  12
HETATM   12  C   UNL     1      -9.286   9.678  67.789  1.00  0.00    -0.127 A  
HETATM   13  C   UNL     1      -9.682  10.981  67.520  1.00  0.00    -0.172 A  
HETATM   14  N   UNL     1      -9.968  12.079  68.299  1.00  0.00    -0.200 NA 
HETATM   15  C   UNL     1     -10.415  13.160  67.708  1.00  0.00    -0.228 A  
HETATM   16  C   UNL     1      -9.119   9.086  66.517  1.00  0.00    -0.163 A  
HETATM   17  C   UNL     1     -10.519  13.287  66.214  1.00  0.00    -0.289 A  
HETATM   18  N   UNL     1      -9.418   9.897  65.509  1.00  0.00    -0.231 NA 
HETATM   19  C   UNL     1     -10.184  12.216  65.489  1.00  0.00    -0.265 A  
HETATM   20  N   UNL     1      -9.773  11.056  66.120  1.00  0.00    -0.209 NA 
BRANCH  15  21
HETATM   21  N   UNL     1     -10.806  14.266  68.426  1.00  0.00    -0.246 NA 
HETATM   22  C   UNL     1     -10.855  16.325  69.593  1.00  0.00    -0.345 C  
HETATM   23  C   UNL     1     -12.194  14.666  68.548  1.00  0.00    -0.100 C  
HETATM   24  C   UNL     1      -9.928  15.148  69.196  1.00  0.00    -0.238 C  
HETATM   25  C   UNL     1     -12.093  16.170  68.713  1.00  0.00     0.197 C  
BRANCH  24  26
HETATM   26  C   UNL     1      -8.683  15.492  68.403  1.00  0.00    -0.174 A  
HETATM   27  C   UNL     1      -7.448  14.851  68.552  1.00  0.00    -0.118 A  
HETATM   28  C   UNL     1      -6.312  15.282  67.861  1.00  0.00    -0.173 A  
HETATM   29  F   UNL     1      -7.309  13.809  69.384  1.00  0.00    -0.078 F  
HETATM   30  C   UNL     1      -6.390  16.380  67.008  1.00  0.00    -0.176 A  
HETATM   31  C   UNL     1      -7.610  17.022  66.843  1.00  0.00    -0.209 A  
HETATM   32  C   UNL     1      -8.744  16.590  67.522  1.00  0.00    -0.191 A  
HETATM   33  F   UNL     1      -7.691  18.083  66.028  1.00  0.00    -0.281 F  
ENDBRANCH  24  26
ENDBRANCH  15  21
ENDBRANCH  10  12
ENDBRANCH   8  10
ENDBRANCH   6   8
TORSDOF 5
ENDMDL
MODEL      250
REMARK 921   NORMALIZED FREE ENERGY PREDICTED BY IDOCK:   -3.93 KCAL/MOL
REMARK 922        TOTAL FREE ENERGY PREDICTED BY IDOCK:   -6.81 KCAL/MOL
REMARK 923 INTER-LIGAND FREE ENERGY PREDICTED BY IDOCK:   -6.28 KCAL/MOL
REMARK 924 INTRA-LIGAND FREE ENERGY PREDICTED BY IDOCK:   -0.53 KCAL/MOL
REMARK 927      BINDING AFFINITY PREDICTED BY RF-SCORE:    0.00 PKD
ROOT
HETATM    1  O   UNL     1      -6.713   8.565  73.131  1.00  0.00    -0.168 OA 
HETATM    2  H   UNL     1      -5.962   8.528  72.551  1.00  0.00     0.000 HD 
HETATM    3  C   UNL     1      -7.889   8.117  72.476  1.00  0.00    -0.136 C  
HETATM    4  C   UNL     1      -9.095   8.176  73.407  1.00  0.00    -0.309 C  
HETATM    5  C   UNL     1     -10.259   8.236  72.442  1.00  0.00    -0.327 C  
HETATM    6  N   UNL     1      -9.758   8.996  71.309  1.00  0.00    -0.289 N  
HETATM    7  C   UNL     1      -8.298   9.034  71.317  1.00  0.00    -0.120 C  
ENDROOT
BRANCH   6   8
HETATM    8  C   UNL     1     -10.657   9.524  70.398  1.00  0.00    -0.276 C  
HETATM    9  O   UNL     1     -11.671   8.897  70.111  1.00  0.00    -0.062 OA 
BRANCH   8  10
HETATM   10  N   UNL     1     -10.273  10.732  69.865  1.00  0.00    -0.422 N  
HETATM   11  H   UNL     1      -9.495  11.209  70.320  1.00  0.00     0.000 HD 
BRANCH  10  12
HETATM   12  C   UNL     1     -10.844  11.367  68.768  1.00  0.00    -0.208 A  
HETATM   13  C   UNL     1     -10.585  11.267  67.408  1.00  0.00    -0.224 A  
HETATM   14  N   UNL     1      -9.717  10.516  66.647  1.00  0.00    -0.183 NA 
HETATM   15  C   UNL     1      -9.666  10.743  65.358  1.00  0.00    -0.245 A  
HETATM   16  C   UNL     1     -11.900  12.302  68.862  1.00  0.00    -0.303 A  
HETATM   17  C   UNL     1     -10.591  11.704  64.663  1.00  0.00    -0.366 A  
HETATM   18  N   UNL     1     -12.272  12.804  67.690  1.00  0.00    -0.285 NA 
HETATM   19  C   UNL     1     -11.454  12.376  65.429  1.00  0.00    -0.358 A  
HETATM   20  N   UNL     1     -11.461  12.180  66.798  1.00  0.00    -0.378 NA 
BRANCH  15  21
HETATM   21  N   UNL     1      -8.763  10.097  64.546  1.00  0.00    -0.181 NA 
HETATM   22  C   UNL     1      -7.152   8.602  63.666  1.00  0.00    -0.089 C  
HETATM   23  C   UNL     1      -8.739  10.278  63.108  1.00  0.00    -0.207 C  
HETATM   24  C   UNL     1      -7.691   9.205  64.989  1.00  0.00    -0.109 C  
HETATM   25  C   UNL     1      -8.204   8.948  62.615  1.00  0.00    -0.190 C  
BRANCH  24  26
HETATM   26  C   UNL     1      -8.200   8.229  66.031  1.00  0.00    -0.119 A  
HETATM   27  C   UNL     1      -7.546   7.944  67.234  1.00  0.00    -0.101 A  
HETATM   28  C   UNL     1      -8.018   6.960  68.108  1.00  0.00    -0.115 A  
HETATM   29  F   UNL     1      -6.427   8.595  67.581  1.00  0.00    -0.056 F  
HETATM   30  C   UNL     1      -9.158   6.229  67.784  1.00  0.00    -0.114 A  
HETATM   31  C   UNL     1      -9.824   6.505  66.598  1.00  0.00    -0.148 A  
HETATM   32  C   UNL     1      -9.363   7.490  65.731  1.00  0.00     0.119 A  
HETATM   33  F   UNL     1     -10.918   5.802  66.277  1.00  0.00    -0.307 F  
ENDBRANCH  24  26
ENDBRANCH  15  21
ENDBRANCH  10  12
ENDBRANCH   8  10
ENDBRANCH   6   8
TORSDOF 5
ENDMDL
MODEL      251
REMARK 921   NORMALIZED FREE ENERGY PREDICTED BY IDOCK:   -3.93 KCAL/MOL
REMARK 922        TOTAL FREE ENERGY PREDICTED BY IDOCK:   -6.80 KCAL/MOL
REMARK 923 INTER-LIGAND FREE ENERGY PREDICTED BY IDOCK:   -5.52 KCAL/MOL
REMARK 924 INTRA-LIGAND FREE ENERGY PREDICTED BY IDOCK:   -1.29 KCAL/MOL
REMARK 927      BINDING AFFINITY PREDICTED BY RF-SCORE:    0.00 PKD
ROOT
HETATM    1  O   UNL     1     -11.277   7.138  66.692  1.00  0.00    -0.446 OA 
HETATM    2  H   UNL     1     -12.153   7.047  67.051  1.00  0.00     0.000 HD 
HETATM    3  C   UNL     1     -10.291   6.899  67.682  1.00  0.00    -0.205 C  
HETATM    4  C   UNL     1      -8.886   7.046  67.107  1.00  0.00    -0.121 C  
HETATM    5  C   UNL     1      -8.050   7.331  68.336  1.00  0.00    -0.125 C  
HETATM    6  N   UNL     1      -8.925   8.100  69.204  1.00  0.00    -0.144 N  
HETATM    7  C   UNL     1     -10.320   7.946  68.802  1.00  0.00    -0.203 C  
ENDROOT
BRANCH   6   8
HETATM    8  C   UNL     1      -8.376   8.809  70.260  1.00  0.00    -0.136 C  
HETATM    9  O   UNL     1      -7.943   8.207  71.236  1.00  0.00    -0.085 OA 
BRANCH   8  10
HETATM   10  N   UNL     1      -8.415  10.174  70.102  1.00  0.00    -0.337 N  
HETATM   11  H   UNL     1      -9.291  10.640  70.340  1.00  0.00     0.000 HD 
BRANCH  10  12
HETATM   12  C   UNL     1      -7.378  10.981  69.647  1.00  0.00    -0.014 A  
HETATM   13  C   UNL     1      -7.381  12.167  68.926  1.00  0.00    -0.054 A  
HETATM   14  N   UNL     1      -8.369  12.982  68.421  1.00  0.00    -0.147 NA 
HETATM   15  C   UNL     1      -8.013  14.007  67.687  1.00  0.00    -0.178 A  
HETATM   16  C   UNL     1      -6.011  10.711  69.883  1.00  0.00    -0.076 A  
HETATM   17  C   UNL     1      -6.576  14.392  67.469  1.00  0.00    -0.101 A  
HETATM   18  N   UNL     1      -5.191  11.600  69.335  1.00  0.00    -0.052 NA 
HETATM   19  C   UNL     1      -5.647  13.605  68.017  1.00  0.00    -0.125 A  
HETATM   20  N   UNL     1      -6.027  12.488  68.739  1.00  0.00    -0.063 NA 
BRANCH  15  21
HETATM   21  N   UNL     1      -8.943  14.816  67.075  1.00  0.00    -0.225 NA 
HETATM   22  C   UNL     1     -10.733  15.644  65.765  1.00  0.00    -0.350 C  
HETATM   23  C   UNL     1      -9.258  16.146  67.557  1.00  0.00    -0.208 C  
HETATM   24  C   UNL     1      -9.692  14.498  65.858  1.00  0.00    -0.293 C  
HETATM   25  C   UNL     1     -10.703  16.318  67.134  1.00  0.00    -0.247 C  
BRANCH  24  26
HETATM   26  C   UNL     1     -10.231  13.083  65.912  1.00  0.00    -0.298 A  
HETATM   27  C   UNL     1     -11.151  12.622  66.860  1.00  0.00    -0.273 A  
HETATM   28  C   UNL     1     -11.533  11.279  66.917  1.00  0.00    -0.123 A  
HETATM   29  F   UNL     1     -11.683  13.456  67.765  1.00  0.00    -0.309 F  
HETATM   30  C   UNL     1     -10.988  10.362  66.022  1.00  0.00     0.170 A  
HETATM   31  C   UNL     1     -10.080  10.804  65.070  1.00  0.00    -0.313 A  
HETATM   32  C   UNL     1      -9.705  12.142  65.005  1.00  0.00    -0.112 A  
HETATM   33  F   UNL     1      -9.547   9.926  64.210  1.00  0.00    -0.323 F  
ENDBRANCH  24  26
ENDBRANCH  15  21
ENDBRANCH  10  12
ENDBRANCH   8  10
ENDBRANCH   6   8
TORSDOF 5
ENDMDL
MODEL      252
REMARK 921   NORMALIZED FREE ENERGY PREDICTED BY IDOCK:   -3.92 KCAL/MOL
REMARK 922        TOTAL FREE ENERGY PREDICTED BY IDOCK:   -6.79 KCAL/MOL
REMARK 923 INTER-LIGAND FREE ENERGY PREDICTED BY IDOCK:   -5.42 KCAL/MOL
REMARK 924 INTRA-LIGAND FREE ENERGY PREDICTED BY IDOCK:   -1.37 KCAL/MOL
REMARK 927      BINDING AFFINITY PREDICTED BY RF-SCORE:    0.00 PKD
ROOT
HETATM    1  O   UNL     1     -13.611   9.027  72.956  1.00  0.00    -0.915 OA 
HETATM    2  H   UNL     1     -14.178   9.621  72.478  1.00  0.00     0.000 HD 
HETATM    3  C   UNL     1     -12.365   8.866  72.298  1.00  0.00    -0.360 C  
HETATM    4  C   UNL     1     -11.456   7.912  73.064  1.00  0.00    -0.230 C  
HETATM    5  C   UNL     1     -10.498   7.432  71.995  1.00  0.00    -0.199 C  
HETATM    6  N   UNL     1     -11.296   7.388  70.781  1.00  0.00    -0.275 N  
HETATM    7  C   UNL     1     -12.510   8.186  70.930  1.00  0.00     0.004 C  
ENDROOT
BRANCH   6   8
HETATM    8  C   UNL     1     -10.827   6.676  69.689  1.00  0.00    -0.286 C  
HETATM    9  O   UNL     1     -11.619   6.081  68.967  1.00  0.00    -0.139 OA 
BRANCH   8  10
HETATM   10  N   UNL     1      -9.459   6.689  69.556  1.00  0.00    -0.148 N  
HETATM   11  H   UNL     1      -8.913   6.713  70.416  1.00  0.00     0.000 HD 
BRANCH  10  12
HETATM   12  C   UNL     1      -8.748   6.673  68.361  1.00  0.00    -0.122 A  
HETATM   13  C   UNL     1      -7.959   7.636  67.745  1.00  0.00    -0.121 A  
HETATM   14  N   UNL     1      -7.572   8.915  68.074  1.00  0.00    -0.092 NA 
HETATM   15  C   UNL     1      -6.879   9.598  67.197  1.00  0.00    -0.084 A  
HETATM   16  C   UNL     1      -8.690   5.557  67.496  1.00  0.00    -0.107 A  
HETATM   17  C   UNL     1      -6.395   9.007  65.902  1.00  0.00    -0.056 A  
HETATM   18  N   UNL     1      -7.974   5.773  66.398  1.00  0.00    -0.101 NA 
HETATM   19  C   UNL     1      -6.749   7.745  65.642  1.00  0.00    -0.045 A  
HETATM   20  N   UNL     1      -7.534   7.048  66.542  1.00  0.00    -0.079 NA 
BRANCH  15  21
HETATM   21  N   UNL     1      -6.531  10.911  67.415  1.00  0.00    -0.062 NA 
HETATM   22  C   UNL     1      -6.541  13.272  67.593  1.00  0.00    -0.172 C  
HETATM   23  C   UNL     1      -5.396  11.292  68.231  1.00  0.00    -0.039 C  
HETATM   24  C   UNL     1      -7.190  12.084  66.838  1.00  0.00    -0.040 C  
HETATM   25  C   UNL     1      -5.819  12.640  68.781  1.00  0.00    -0.068 C  
BRANCH  24  26
HETATM   26  C   UNL     1      -8.697  11.953  66.929  1.00  0.00    -0.191 A  
HETATM   27  C   UNL     1      -9.405  11.771  68.122  1.00  0.00    -0.190 A  
HETATM   28  C   UNL     1     -10.786  11.558  68.128  1.00  0.00    -0.259 A  
HETATM   29  F   UNL     1      -8.774  11.773  69.304  1.00  0.00     0.082 F  
HETATM   30  C   UNL     1     -11.489  11.512  66.926  1.00  0.00    -0.261 A  
HETATM   31  C   UNL     1     -10.803  11.699  65.734  1.00  0.00    -0.281 A  
HETATM   32  C   UNL     1      -9.430  11.921  65.726  1.00  0.00    -0.210 A  
HETATM   33  F   UNL     1     -11.472  11.651  64.574  1.00  0.00    -0.378 F  
ENDBRANCH  24  26
ENDBRANCH  15  21
ENDBRANCH  10  12
ENDBRANCH   8  10
ENDBRANCH   6   8
TORSDOF 5
ENDMDL
MODEL      253
REMARK 921   NORMALIZED FREE ENERGY PREDICTED BY IDOCK:   -3.91 KCAL/MOL
REMARK 922        TOTAL FREE ENERGY PREDICTED BY IDOCK:   -6.78 KCAL/MOL
REMARK 923 INTER-LIGAND FREE ENERGY PREDICTED BY IDOCK:   -5.64 KCAL/MOL
REMARK 924 INTRA-LIGAND FREE ENERGY PREDICTED BY IDOCK:   -1.14 KCAL/MOL
REMARK 927      BINDING AFFINITY PREDICTED BY RF-SCORE:    0.00 PKD
ROOT
HETATM    1  O   UNL     1      -6.560   6.212  72.088  1.00  0.00    -0.056 OA 
HETATM    2  H   UNL     1      -5.782   5.697  72.267  1.00  0.00     0.000 HD 
HETATM    3  C   UNL     1      -7.409   5.554  71.163  1.00  0.00    -0.084 C  
HETATM    4  C   UNL     1      -8.657   6.380  70.875  1.00  0.00    -0.135 C  
HETATM    5  C   UNL     1      -9.105   5.852  69.529  1.00  0.00    -0.132 C  
HETATM    6  N   UNL     1      -7.872   5.520  68.836  1.00  0.00    -0.094 N  
HETATM    7  C   UNL     1      -6.763   5.405  69.779  1.00  0.00    -0.054 C  
ENDROOT
BRANCH   6   8
HETATM    8  C   UNL     1      -7.897   5.328  67.465  1.00  0.00    -0.096 C  
HETATM    9  O   UNL     1      -7.592   4.236  66.998  1.00  0.00    -0.079 OA 
BRANCH   8  10
HETATM   10  N   UNL     1      -8.242   6.449  66.747  1.00  0.00    -0.109 N  
HETATM   11  H   UNL     1      -9.076   6.383  66.163  1.00  0.00     0.000 HD 
BRANCH  10  12
HETATM   12  C   UNL     1      -7.564   7.663  66.739  1.00  0.00    -0.098 A  
HETATM   13  C   UNL     1      -7.911   8.914  67.230  1.00  0.00    -0.096 A  
HETATM   14  N   UNL     1      -9.002   9.414  67.905  1.00  0.00    -0.124 NA 
HETATM   15  C   UNL     1      -9.048  10.702  68.142  1.00  0.00    -0.148 A  
HETATM   16  C   UNL     1      -6.273   7.839  66.192  1.00  0.00    -0.045 A  
HETATM   17  C   UNL     1      -7.915  11.633  67.809  1.00  0.00    -0.131 A  
HETATM   18  N   UNL     1      -5.829   9.088  66.270  1.00  0.00    -0.057 NA 
HETATM   19  C   UNL     1      -6.852  11.100  67.200  1.00  0.00    -0.107 A  
HETATM   20  N   UNL     1      -6.834   9.752  66.895  1.00  0.00    -0.082 NA 
BRANCH  15  21
HETATM   21  N   UNL     1     -10.144  11.289  68.731  1.00  0.00    -0.202 NA 
HETATM   22  C   UNL     1     -11.983  12.692  69.235  1.00  0.00    -0.301 C  
HETATM   23  C   UNL     1     -10.952  10.610  69.725  1.00  0.00    -0.280 C  
HETATM   24  C   UNL     1     -10.617  12.655  68.501  1.00  0.00    -0.243 C  
HETATM   25  C   UNL     1     -12.320  11.231  69.521  1.00  0.00    -0.243 C  
BRANCH  24  26
HETATM   26  C   UNL     1     -10.623  12.980  67.022  1.00  0.00    -0.262 A  
HETATM   27  C   UNL     1     -10.046  14.124  66.461  1.00  0.00    -0.280 A  
HETATM   28  C   UNL     1     -10.172  14.416  65.100  1.00  0.00    -0.420 A  
HETATM   29  F   UNL     1      -9.367  14.996  67.220  1.00  0.00    -0.189 F  
HETATM   30  C   UNL     1     -10.894  13.563  64.269  1.00  0.00    -0.340 A  
HETATM   31  C   UNL     1     -11.466  12.418  64.807  1.00  0.00    -0.325 A  
HETATM   32  C   UNL     1     -11.334  12.121  66.160  1.00  0.00    -0.414 A  
HETATM   33  F   UNL     1     -12.167  11.597  64.015  1.00  0.00    -0.417 F  
ENDBRANCH  24  26
ENDBRANCH  15  21
ENDBRANCH  10  12
ENDBRANCH   8  10
ENDBRANCH   6   8
TORSDOF 5
ENDMDL
MODEL      254
REMARK 921   NORMALIZED FREE ENERGY PREDICTED BY IDOCK:   -3.85 KCAL/MOL
REMARK 922        TOTAL FREE ENERGY PREDICTED BY IDOCK:   -6.71 KCAL/MOL
REMARK 923 INTER-LIGAND FREE ENERGY PREDICTED BY IDOCK:   -6.42 KCAL/MOL
REMARK 924 INTRA-LIGAND FREE ENERGY PREDICTED BY IDOCK:   -0.28 KCAL/MOL
REMARK 927      BINDING AFFINITY PREDICTED BY RF-SCORE:    0.00 PKD
ROOT
HETATM    1  O   UNL     1     -10.360  18.939  66.745  1.00  0.00    -0.365 OA 
HETATM    2  H   UNL     1     -10.941  19.370  66.130  1.00  0.00     0.000 HD 
HETATM    3  C   UNL     1      -9.834  17.740  66.201  1.00  0.00    -0.244 C  
HETATM    4  C   UNL     1      -8.902  17.048  67.189  1.00  0.00    -0.232 C  
HETATM    5  C   UNL     1      -8.918  15.611  66.712  1.00  0.00    -0.261 C  
HETATM    6  N   UNL     1     -10.264  15.407  66.206  1.00  0.00    -0.275 N  
HETATM    7  C   UNL     1     -10.920  16.686  65.949  1.00  0.00     0.060 C  
ENDROOT
BRANCH   6   8
HETATM    8  C   UNL     1     -10.722  14.116  66.004  1.00  0.00    -0.299 C  
HETATM    9  O   UNL     1     -11.507  13.885  65.092  1.00  0.00    -0.305 OA 
BRANCH   8  10
HETATM   10  N   UNL     1     -10.251  13.203  66.918  1.00  0.00    -0.243 N  
HETATM   11  H   UNL     1      -9.317  12.828  66.755  1.00  0.00     0.000 HD 
BRANCH  10  12
HETATM   12  C   UNL     1     -10.924  12.743  68.045  1.00  0.00    -0.239 A  
HETATM   13  C   UNL     1     -10.931  11.505  68.672  1.00  0.00    -0.223 A  
HETATM   14  N   UNL     1     -10.284  10.310  68.448  1.00  0.00    -0.160 NA 
HETATM   15  C   UNL     1     -10.600   9.283  69.198  1.00  0.00    -0.212 A  
HETATM   16  C   UNL     1     -11.787  13.544  68.827  1.00  0.00    -0.355 A  
HETATM   17  C   UNL     1     -11.549   9.384  70.359  1.00  0.00    -0.241 A  
HETATM   18  N   UNL     1     -12.344  12.891  69.841  1.00  0.00    -0.155 NA 
HETATM   19  C   UNL     1     -12.117  10.574  70.576  1.00  0.00    -0.345 A  
HETATM   20  N   UNL     1     -11.830  11.639  69.743  1.00  0.00    -0.334 NA 
BRANCH  15  21
HETATM   21  N   UNL     1     -10.064   8.036  68.978  1.00  0.00    -0.196 NA 
HETATM   22  C   UNL     1      -8.926   6.174  68.059  1.00  0.00    -0.113 C  
HETATM   23  C   UNL     1      -9.892   7.062  70.038  1.00  0.00    -0.177 C  
HETATM   24  C   UNL     1      -9.648   7.493  67.683  1.00  0.00    -0.143 C  
HETATM   25  C   UNL     1      -8.693   6.264  69.565  1.00  0.00    -0.132 C  
BRANCH  24  26
HETATM   26  C   UNL     1      -8.849   8.516  66.902  1.00  0.00    -0.153 A  
HETATM   27  C   UNL     1      -7.588   8.990  67.280  1.00  0.00    -0.088 A  
HETATM   28  C   UNL     1      -6.946  10.008  66.569  1.00  0.00    -0.095 A  
HETATM   29  F   UNL     1      -6.960   8.495  68.355  1.00  0.00    -0.061 F  
HETATM   30  C   UNL     1      -7.566  10.582  65.462  1.00  0.00    -0.120 A  
HETATM   31  C   UNL     1      -8.814  10.118  65.069  1.00  0.00    -0.181 A  
HETATM   32  C   UNL     1      -9.451   9.098  65.769  1.00  0.00    -0.322 A  
HETATM   33  F   UNL     1      -9.418  10.670  64.009  1.00  0.00    -0.215 F  
ENDBRANCH  24  26
ENDBRANCH  15  21
ENDBRANCH  10  12
ENDBRANCH   8  10
ENDBRANCH   6   8
TORSDOF 5
ENDMDL
MODEL      255
REMARK 921   NORMALIZED FREE ENERGY PREDICTED BY IDOCK:   -3.83 KCAL/MOL
REMARK 922        TOTAL FREE ENERGY PREDICTED BY IDOCK:   -6.68 KCAL/MOL
REMARK 923 INTER-LIGAND FREE ENERGY PREDICTED BY IDOCK:   -5.23 KCAL/MOL
REMARK 924 INTRA-LIGAND FREE ENERGY PREDICTED BY IDOCK:   -1.46 KCAL/MOL
REMARK 927      BINDING AFFINITY PREDICTED BY RF-SCORE:    0.00 PKD
ROOT
HETATM    1  O   UNL     1      -7.166  11.081  63.085  1.00  0.00    -0.325 OA 
HETATM    2  H   UNL     1      -6.801  11.451  62.289  1.00  0.00     0.000 HD 
HETATM    3  C   UNL     1      -8.563  10.875  62.961  1.00  0.00    -0.129 C  
HETATM    4  C   UNL     1      -9.149  10.283  64.238  1.00  0.00    -0.278 C  
HETATM    5  C   UNL     1     -10.610  10.668  64.146  1.00  0.00     0.022 C  
HETATM    6  N   UNL     1     -10.607  11.961  63.483  1.00  0.00    -0.425 N  
HETATM    7  C   UNL     1      -9.337  12.190  62.800  1.00  0.00     1.090 C  
ENDROOT
BRANCH   6   8
HETATM    8  C   UNL     1     -11.743  12.752  63.539  1.00  0.00    -0.530 C  
HETATM    9  O   UNL     1     -12.781  12.363  63.015  1.00  0.00    -0.485 OA 
BRANCH   8  10
HETATM   10  N   UNL     1     -11.557  13.957  64.174  1.00  0.00    -0.588 N  
HETATM   11  H   UNL     1     -12.152  14.730  63.876  1.00  0.00     0.000 HD 
BRANCH  10  12
HETATM   12  C   UNL     1     -10.638  14.223  65.182  1.00  0.00    -0.406 A  
HETATM   13  C   UNL     1     -10.390  13.592  66.393  1.00  0.00    -0.289 A  
HETATM   14  N   UNL     1     -10.917  12.491  67.029  1.00  0.00    -0.258 NA 
HETATM   15  C   UNL     1     -10.504  12.217  68.242  1.00  0.00    -0.226 A  
HETATM   16  C   UNL     1      -9.697  15.277  65.130  1.00  0.00    -0.001 A  
HETATM   17  C   UNL     1      -9.403  12.984  68.919  1.00  0.00     0.275 A  
HETATM   18  N   UNL     1      -8.935  15.363  66.214  1.00  0.00    -0.313 NA 
HETATM   19  C   UNL     1      -8.880  14.015  68.249  1.00  0.00    -0.184 A  
HETATM   20  N   UNL     1      -9.363  14.340  66.994  1.00  0.00    -0.231 NA 
BRANCH  15  21
HETATM   21  N   UNL     1     -11.047  11.188  68.975  1.00  0.00    -0.222 NA 
HETATM   22  C   UNL     1     -11.433   9.121  70.064  1.00  0.00    -0.034 C  
HETATM   23  C   UNL     1     -12.115  11.392  69.934  1.00  0.00    -0.330 C  
HETATM   24  C   UNL     1     -10.688   9.773  68.871  1.00  0.00    -0.217 C  
HETATM   25  C   UNL     1     -11.869  10.290  70.945  1.00  0.00    -0.473 C  
BRANCH  24  26
HETATM   26  C   UNL     1      -9.183   9.602  68.824  1.00  0.00    -0.141 A  
HETATM   27  C   UNL     1      -8.337   9.736  69.930  1.00  0.00    -0.184 A  
HETATM   28  C   UNL     1      -6.947   9.664  69.801  1.00  0.00    -0.078 A  
HETATM   29  F   UNL     1      -8.835   9.960  71.154  1.00  0.00     0.049 F  
HETATM   30  C   UNL     1      -6.374   9.464  68.548  1.00  0.00    -0.052 A  
HETATM   31  C   UNL     1      -7.199   9.321  67.441  1.00  0.00    -0.080 A  
HETATM   32  C   UNL     1      -8.583   9.383  67.568  1.00  0.00    -0.122 A  
HETATM   33  F   UNL     1      -6.654   9.135  66.232  1.00  0.00    -0.063 F  
ENDBRANCH  24  26
ENDBRANCH  15  21
ENDBRANCH  10  12
ENDBRANCH   8  10
ENDBRANCH   6   8
TORSDOF 5
ENDMDL
MODEL      256
REMARK 921   NORMALIZED FREE ENERGY PREDICTED BY IDOCK:   -3.81 KCAL/MOL
REMARK 922        TOTAL FREE ENERGY PREDICTED BY IDOCK:   -6.66 KCAL/MOL
REMARK 923 INTER-LIGAND FREE ENERGY PREDICTED BY IDOCK:   -6.01 KCAL/MOL
REMARK 924 INTRA-LIGAND FREE ENERGY PREDICTED BY IDOCK:   -0.65 KCAL/MOL
REMARK 927      BINDING AFFINITY PREDICTED BY RF-SCORE:    0.00 PKD
ROOT
HETATM    1  O   UNL     1     -11.138   2.459  74.026  1.00  0.00    -0.179 OA 
HETATM    2  H   UNL     1     -11.132   2.835  74.898  1.00  0.00     0.000 HD 
HETATM    3  C   UNL     1     -10.202   3.107  73.181  1.00  0.00    -0.148 C  
HETATM    4  C   UNL     1     -10.213   2.504  71.781  1.00  0.00    -0.004 C  
HETATM    5  C   UNL     1      -9.645   3.620  70.931  1.00  0.00    -0.179 C  
HETATM    6  N   UNL     1     -10.120   4.840  71.562  1.00  0.00    -0.192 N  
HETATM    7  C   UNL     1     -10.561   4.577  72.929  1.00  0.00    -0.207 C  
ENDROOT
BRANCH   6   8
HETATM    8  C   UNL     1     -10.067   6.031  70.857  1.00  0.00    -0.196 C  
HETATM    9  O   UNL     1      -9.986   6.010  69.634  1.00  0.00    -0.156 OA 
BRANCH   8  10
HETATM   10  N   UNL     1     -10.075   7.154  71.650  1.00  0.00    -0.185 N  
HETATM   11  H   UNL     1      -9.288   7.272  72.289  1.00  0.00     0.000 HD 
BRANCH  10  12
HETATM   12  C   UNL     1     -11.051   8.144  71.667  1.00  0.00    -0.255 A  
HETATM   13  C   UNL     1     -11.255   9.250  70.853  1.00  0.00    -0.306 A  
HETATM   14  N   UNL     1     -10.612   9.763  69.749  1.00  0.00    -0.239 NA 
HETATM   15  C   UNL     1     -11.025  10.909  69.267  1.00  0.00    -0.244 A  
HETATM   16  C   UNL     1     -12.114   8.184  72.597  1.00  0.00    -0.252 A  
HETATM   17  C   UNL     1     -12.234  11.628  69.798  1.00  0.00    -0.285 A  
HETATM   18  N   UNL     1     -12.914   9.234  72.445  1.00  0.00    -0.398 NA 
HETATM   19  C   UNL     1     -12.861  11.073  70.839  1.00  0.00    -0.301 A  
HETATM   20  N   UNL     1     -12.384   9.895  71.385  1.00  0.00    -0.374 NA 
BRANCH  15  21
HETATM   21  N   UNL     1     -10.379  11.528  68.222  1.00  0.00    -0.190 NA 
HETATM   22  C   UNL     1      -8.798  12.179  66.585  1.00  0.00    -0.182 C  
HETATM   23  C   UNL     1     -11.084  12.298  67.216  1.00  0.00    -0.275 C  
HETATM   24  C   UNL     1      -8.933  11.554  67.997  1.00  0.00    -0.170 C  
HETATM   25  C   UNL     1     -10.204  12.130  65.993  1.00  0.00    -0.265 C  
BRANCH  24  26
HETATM   26  C   UNL     1      -8.333  10.178  68.199  1.00  0.00    -0.117 A  
HETATM   27  C   UNL     1      -7.458   9.841  69.238  1.00  0.00    -0.090 A  
HETATM   28  C   UNL     1      -6.861   8.579  69.312  1.00  0.00    -0.050 A  
HETATM   29  F   UNL     1      -7.146  10.730  70.191  1.00  0.00    -0.156 F  
HETATM   30  C   UNL     1      -7.123   7.626  68.331  1.00  0.00    -0.081 A  
HETATM   31  C   UNL     1      -7.995   7.941  67.298  1.00  0.00    -0.118 A  
HETATM   32  C   UNL     1      -8.598   9.192  67.227  1.00  0.00    -0.118 A  
HETATM   33  F   UNL     1      -8.247   7.031  66.348  1.00  0.00    -0.102 F  
ENDBRANCH  24  26
ENDBRANCH  15  21
ENDBRANCH  10  12
ENDBRANCH   8  10
ENDBRANCH   6   8
TORSDOF 5
ENDMDL
MODEL      257
REMARK 921   NORMALIZED FREE ENERGY PREDICTED BY IDOCK:   -3.80 KCAL/MOL
REMARK 922        TOTAL FREE ENERGY PREDICTED BY IDOCK:   -6.65 KCAL/MOL
REMARK 923 INTER-LIGAND FREE ENERGY PREDICTED BY IDOCK:   -5.71 KCAL/MOL
REMARK 924 INTRA-LIGAND FREE ENERGY PREDICTED BY IDOCK:   -0.94 KCAL/MOL
REMARK 927      BINDING AFFINITY PREDICTED BY RF-SCORE:    0.00 PKD
ROOT
HETATM    1  O   UNL     1     -10.953   3.292  74.034  1.00  0.00    -0.205 OA 
HETATM    2  H   UNL     1     -10.947   3.557  74.946  1.00  0.00     0.000 HD 
HETATM    3  C   UNL     1     -10.054   4.076  73.267  1.00  0.00    -0.140 C  
HETATM    4  C   UNL     1     -10.063   3.651  71.803  1.00  0.00    -0.160 C  
HETATM    5  C   UNL     1      -9.549   4.885  71.093  1.00  0.00    -0.170 C  
HETATM    6  N   UNL     1     -10.061   5.998  71.876  1.00  0.00    -0.189 N  
HETATM    7  C   UNL     1     -10.472   5.551  73.204  1.00  0.00    -0.222 C  
ENDROOT
BRANCH   6   8
HETATM    8  C   UNL     1     -10.063   7.268  71.324  1.00  0.00    -0.189 C  
HETATM    9  O   UNL     1     -11.015   8.015  71.523  1.00  0.00    -0.227 OA 
BRANCH   8  10
HETATM   10  N   UNL     1      -8.963   7.545  70.548  1.00  0.00    -0.151 N  
HETATM   11  H   UNL     1      -8.787   6.923  69.760  1.00  0.00     0.000 HD 
BRANCH  10  12
HETATM   12  C   UNL     1      -8.067   8.593  70.733  1.00  0.00    -0.128 A  
HETATM   13  C   UNL     1      -7.963   9.835  70.123  1.00  0.00    -0.186 A  
HETATM   14  N   UNL     1      -8.687  10.495  69.155  1.00  0.00    -0.160 NA 
HETATM   15  C   UNL     1      -8.246  11.654  68.732  1.00  0.00    -0.055 A  
HETATM   16  C   UNL     1      -7.019   8.572  71.681  1.00  0.00    -0.088 A  
HETATM   17  C   UNL     1      -7.053  12.340  69.336  1.00  0.00     0.133 A  
HETATM   18  N   UNL     1      -6.269   9.668  71.668  1.00  0.00    -0.292 NA 
HETATM   19  C   UNL     1      -6.406  11.691  70.308  1.00  0.00     0.023 A  
HETATM   20  N   UNL     1      -6.838  10.439  70.708  1.00  0.00    -0.296 NA 
BRANCH  15  21
HETATM   21  N   UNL     1      -8.865  12.331  67.707  1.00  0.00    -0.165 NA 
HETATM   22  C   UNL     1     -10.436  13.461  66.343  1.00  0.00    -0.286 C  
HETATM   23  C   UNL     1      -8.124  13.036  66.679  1.00  0.00     0.343 C  
HETATM   24  C   UNL     1     -10.307  12.401  67.468  1.00  0.00    -0.215 C  
HETATM   25  C   UNL     1      -9.075  14.151  66.290  1.00  0.00    -0.072 C  
BRANCH  24  26
HETATM   26  C   UNL     1     -11.054  12.674  68.758  1.00  0.00    -0.307 A  
HETATM   27  C   UNL     1     -11.654  11.688  69.548  1.00  0.00    -0.331 A  
HETATM   28  C   UNL     1     -12.414  12.015  70.675  1.00  0.00    -0.335 A  
HETATM   29  F   UNL     1     -11.538  10.390  69.236  1.00  0.00    -0.264 F  
HETATM   30  C   UNL     1     -12.596  13.350  71.028  1.00  0.00    -0.425 A  
HETATM   31  C   UNL     1     -12.000  14.341  70.260  1.00  0.00    -0.329 A  
HETATM   32  C   UNL     1     -11.235  14.017  69.143  1.00  0.00    -0.308 A  
HETATM   33  F   UNL     1     -12.175  15.627  70.591  1.00  0.00    -0.316 F  
ENDBRANCH  24  26
ENDBRANCH  15  21
ENDBRANCH  10  12
ENDBRANCH   8  10
ENDBRANCH   6   8
TORSDOF 5
ENDMDL
MODEL      258
REMARK 921   NORMALIZED FREE ENERGY PREDICTED BY IDOCK:   -3.80 KCAL/MOL
REMARK 922        TOTAL FREE ENERGY PREDICTED BY IDOCK:   -6.65 KCAL/MOL
REMARK 923 INTER-LIGAND FREE ENERGY PREDICTED BY IDOCK:   -4.85 KCAL/MOL
REMARK 924 INTRA-LIGAND FREE ENERGY PREDICTED BY IDOCK:   -1.79 KCAL/MOL
REMARK 927      BINDING AFFINITY PREDICTED BY RF-SCORE:    0.00 PKD
ROOT
HETATM    1  O   UNL     1      -7.604  12.149  69.067  1.00  0.00    -0.295 OA 
HETATM    2  H   UNL     1      -7.922  12.913  68.602  1.00  0.00     0.000 HD 
HETATM    3  C   UNL     1      -7.168  11.144  68.167  1.00  0.00    -0.080 C  
HETATM    4  C   UNL     1      -6.658   9.917  68.914  1.00  0.00    -0.045 C  
HETATM    5  C   UNL     1      -6.795   8.818  67.883  1.00  0.00    -0.070 C  
HETATM    6  N   UNL     1      -7.978   9.176  67.119  1.00  0.00    -0.105 N  
HETATM    7  C   UNL     1      -8.315  10.583  67.317  1.00  0.00    -0.122 C  
ENDROOT
BRANCH   6   8
HETATM    8  C   UNL     1      -8.582   8.220  66.320  1.00  0.00    -0.138 C  
HETATM    9  O   UNL     1      -9.539   8.530  65.619  1.00  0.00    -0.097 OA 
BRANCH   8  10
HETATM   10  N   UNL     1      -8.037   6.963  66.438  1.00  0.00    -0.109 N  
HETATM   11  H   UNL     1      -7.099   6.830  66.062  1.00  0.00     0.000 HD 
BRANCH  10  12
HETATM   12  C   UNL     1      -8.642   5.855  67.022  1.00  0.00    -0.110 A  
HETATM   13  C   UNL     1      -8.861   5.518  68.351  1.00  0.00    -0.107 A  
HETATM   14  N   UNL     1      -8.598   6.133  69.554  1.00  0.00    -0.126 NA 
HETATM   15  C   UNL     1      -8.860   5.476  70.657  1.00  0.00    -0.133 A  
HETATM   16  C   UNL     1      -9.205   4.788  66.286  1.00  0.00    -0.141 A  
HETATM   17  C   UNL     1      -9.537   4.134  70.664  1.00  0.00    -0.264 A  
HETATM   18  N   UNL     1      -9.705   3.822  67.048  1.00  0.00    -0.179 NA 
HETATM   19  C   UNL     1      -9.823   3.593  69.476  1.00  0.00     0.110 A  
HETATM   20  N   UNL     1      -9.486   4.261  68.313  1.00  0.00    -0.152 NA 
BRANCH  15  21
HETATM   21  N   UNL     1      -8.544   5.987  71.895  1.00  0.00    -0.136 NA 
HETATM   22  C   UNL     1      -8.524   7.227  73.911  1.00  0.00    -0.201 C  
HETATM   23  C   UNL     1      -7.670   5.297  72.823  1.00  0.00    -0.098 C  
HETATM   24  C   UNL     1      -8.976   7.279  72.429  1.00  0.00    -0.127 C  
HETATM   25  C   UNL     1      -8.186   5.761  74.171  1.00  0.00    -0.104 C  
BRANCH  24  26
HETATM   26  C   UNL     1     -10.451   7.504  72.168  1.00  0.00    -0.255 A  
HETATM   27  C   UNL     1     -11.464   6.609  72.529  1.00  0.00    -0.231 A  
HETATM   28  C   UNL     1     -12.797   6.829  72.170  1.00  0.00    -0.093 A  
HETATM   29  F   UNL     1     -11.184   5.493  73.216  1.00  0.00    -0.292 F  
HETATM   30  C   UNL     1     -13.142   7.955  71.427  1.00  0.00    -0.287 A  
HETATM   31  C   UNL     1     -12.150   8.858  71.068  1.00  0.00    -0.233 A  
HETATM   32  C   UNL     1     -10.824   8.646  71.432  1.00  0.00    -0.339 A  
HETATM   33  F   UNL     1     -12.474   9.940  70.348  1.00  0.00    -0.291 F  
ENDBRANCH  24  26
ENDBRANCH  15  21
ENDBRANCH  10  12
ENDBRANCH   8  10
ENDBRANCH   6   8
TORSDOF 5
ENDMDL
MODEL      259
REMARK 921   NORMALIZED FREE ENERGY PREDICTED BY IDOCK:   -3.79 KCAL/MOL
REMARK 922        TOTAL FREE ENERGY PREDICTED BY IDOCK:   -6.63 KCAL/MOL
REMARK 923 INTER-LIGAND FREE ENERGY PREDICTED BY IDOCK:   -6.81 KCAL/MOL
REMARK 924 INTRA-LIGAND FREE ENERGY PREDICTED BY IDOCK:    0.18 KCAL/MOL
REMARK 927      BINDING AFFINITY PREDICTED BY RF-SCORE:    0.00 PKD
ROOT
HETATM    1  O   UNL     1      -9.673  12.471  65.208  1.00  0.00    -0.430 OA 
HETATM    2  H   UNL     1      -9.884  13.189  65.793  1.00  0.00     0.000 HD 
HETATM    3  C   UNL     1      -9.897  11.218  65.833  1.00  0.00    -0.232 C  
HETATM    4  C   UNL     1      -9.558  10.065  64.894  1.00  0.00    -0.375 C  
HETATM    5  C   UNL     1      -9.299   8.921  65.850  1.00  0.00    -0.236 C  
HETATM    6  N   UNL     1      -8.701   9.547  67.018  1.00  0.00    -0.127 N  
HETATM    7  C   UNL     1      -8.960  10.984  67.025  1.00  0.00    -0.148 C  
ENDROOT
BRANCH   6   8
HETATM    8  C   UNL     1      -8.035   8.757  67.941  1.00  0.00    -0.107 C  
HETATM    9  O   UNL     1      -8.089   7.536  67.848  1.00  0.00    -0.117 OA 
BRANCH   8  10
HETATM   10  N   UNL     1      -7.391   9.468  68.926  1.00  0.00    -0.072 N  
HETATM   11  H   UNL     1      -6.812  10.252  68.624  1.00  0.00     0.000 HD 
BRANCH  10  12
HETATM   12  C   UNL     1      -7.450   9.221  70.293  1.00  0.00    -0.113 A  
HETATM   13  C   UNL     1      -8.510   8.883  71.123  1.00  0.00    -0.198 A  
HETATM   14  N   UNL     1      -9.852   8.648  70.921  1.00  0.00    -0.191 NA 
HETATM   15  C   UNL     1     -10.609   8.436  71.970  1.00  0.00    -0.317 A  
HETATM   16  C   UNL     1      -6.326   9.260  71.148  1.00  0.00    -0.083 A  
HETATM   17  C   UNL     1     -10.057   8.328  73.364  1.00  0.00     0.285 A  
HETATM   18  N   UNL     1      -6.617   9.018  72.421  1.00  0.00    -0.302 NA 
HETATM   19  C   UNL     1      -8.743   8.511  73.512  1.00  0.00     0.059 A  
HETATM   20  N   UNL     1      -7.956   8.797  72.411  1.00  0.00    -0.378 NA 
BRANCH  15  21
HETATM   21  N   UNL     1     -11.971   8.282  71.857  1.00  0.00    -0.309 NA 
HETATM   22  C   UNL     1     -14.292   8.658  71.579  1.00  0.00    -0.402 C  
HETATM   23  C   UNL     1     -12.591   7.001  71.585  1.00  0.00    -0.380 C  
HETATM   24  C   UNL     1     -12.975   9.332  72.041  1.00  0.00    -0.425 C  
HETATM   25  C   UNL     1     -13.854   7.394  70.843  1.00  0.00     0.083 C  
BRANCH  24  26
HETATM   26  C   UNL     1     -12.563  10.601  71.323  1.00  0.00    -0.533 A  
HETATM   27  C   UNL     1     -11.853  10.634  70.119  1.00  0.00    -0.337 A  
HETATM   28  C   UNL     1     -11.417  11.838  69.558  1.00  0.00    -0.363 A  
HETATM   29  F   UNL     1     -11.547   9.502  69.469  1.00  0.00    -0.147 F  
HETATM   30  C   UNL     1     -11.679  13.043  70.207  1.00  0.00    -0.192 A  
HETATM   31  C   UNL     1     -12.390  13.029  71.399  1.00  0.00    -0.012 A  
HETATM   32  C   UNL     1     -12.833  11.832  71.954  1.00  0.00    -0.338 A  
HETATM   33  F   UNL     1     -12.639  14.183  72.031  1.00  0.00    -0.377 F  
ENDBRANCH  24  26
ENDBRANCH  15  21
ENDBRANCH  10  12
ENDBRANCH   8  10
ENDBRANCH   6   8
TORSDOF 5
ENDMDL
MODEL      260
REMARK 921   NORMALIZED FREE ENERGY PREDICTED BY IDOCK:   -3.78 KCAL/MOL
REMARK 922        TOTAL FREE ENERGY PREDICTED BY IDOCK:   -6.61 KCAL/MOL
REMARK 923 INTER-LIGAND FREE ENERGY PREDICTED BY IDOCK:   -6.21 KCAL/MOL
REMARK 924 INTRA-LIGAND FREE ENERGY PREDICTED BY IDOCK:   -0.40 KCAL/MOL
REMARK 927      BINDING AFFINITY PREDICTED BY RF-SCORE:    0.00 PKD
ROOT
HETATM    1  O   UNL     1      -9.770   9.641  63.996  1.00  0.00    -0.433 OA 
HETATM    2  H   UNL     1      -8.858   9.378  63.977  1.00  0.00     0.000 HD 
HETATM    3  C   UNL     1      -9.980  10.702  64.913  1.00  0.00    -0.318 C  
HETATM    4  C   UNL     1     -11.444  11.124  64.943  1.00  0.00     0.205 C  
HETATM    5  C   UNL     1     -11.573  11.789  66.296  1.00  0.00    -0.149 C  
HETATM    6  N   UNL     1     -10.667  11.047  67.157  1.00  0.00    -0.250 N  
HETATM    7  C   UNL     1      -9.707  10.284  66.363  1.00  0.00    -0.201 C  
ENDROOT
BRANCH   6   8
HETATM    8  C   UNL     1     -10.785  11.172  68.531  1.00  0.00    -0.201 C  
HETATM    9  O   UNL     1      -9.860  10.822  69.256  1.00  0.00    -0.205 OA 
BRANCH   8  10
HETATM   10  N   UNL     1     -12.000  11.662  68.948  1.00  0.00    -0.327 N  
HETATM   11  H   UNL     1     -12.820  11.377  68.413  1.00  0.00     0.000 HD 
BRANCH  10  12
HETATM   12  C   UNL     1     -12.219  12.510  70.029  1.00  0.00    -0.192 A  
HETATM   13  C   UNL     1     -11.892  13.842  70.236  1.00  0.00    -0.290 A  
HETATM   14  N   UNL     1     -11.271  14.809  69.477  1.00  0.00    -0.267 NA 
HETATM   15  C   UNL     1     -11.031  15.973  70.029  1.00  0.00    -0.365 A  
HETATM   16  C   UNL     1     -12.895  12.121  71.207  1.00  0.00    -0.250 A  
HETATM   17  C   UNL     1     -11.506  16.332  71.410  1.00  0.00    -0.361 A  
HETATM   18  N   UNL     1     -12.968  13.083  72.120  1.00  0.00    -0.298 NA 
HETATM   19  C   UNL     1     -12.150  15.384  72.095  1.00  0.00    -0.407 A  
HETATM   20  N   UNL     1     -12.345  14.135  71.533  1.00  0.00    -0.337 NA 
BRANCH  15  21
HETATM   21  N   UNL     1     -10.337  16.958  69.366  1.00  0.00    -0.284 NA 
HETATM   22  C   UNL     1      -8.805  18.145  68.007  1.00  0.00    -0.286 C  
HETATM   23  C   UNL     1     -10.872  18.290  69.166  1.00  0.00     0.875 C  
HETATM   24  C   UNL     1      -8.981  16.841  68.827  1.00  0.00    -0.254 C  
HETATM   25  C   UNL     1     -10.212  18.722  67.872  1.00  0.00    -0.448 C  
BRANCH  24  26
HETATM   26  C   UNL     1      -8.809  15.533  68.083  1.00  0.00    -0.169 A  
HETATM   27  C   UNL     1      -7.922  14.518  68.460  1.00  0.00    -0.142 A  
HETATM   28  C   UNL     1      -7.739  13.377  67.675  1.00  0.00    -0.179 A  
HETATM   29  F   UNL     1      -7.200  14.619  69.584  1.00  0.00    -0.147 F  
HETATM   30  C   UNL     1      -8.439  13.234  66.479  1.00  0.00     0.270 A  
HETATM   31  C   UNL     1      -9.329  14.227  66.094  1.00  0.00    -0.160 A  
HETATM   32  C   UNL     1      -9.521  15.360  66.879  1.00  0.00    -0.246 A  
HETATM   33  F   UNL     1     -10.001  14.099  64.943  1.00  0.00    -0.398 F  
ENDBRANCH  24  26
ENDBRANCH  15  21
ENDBRANCH  10  12
ENDBRANCH   8  10
ENDBRANCH   6   8
TORSDOF 5
ENDMDL
MODEL      261
REMARK 921   NORMALIZED FREE ENERGY PREDICTED BY IDOCK:   -3.73 KCAL/MOL
REMARK 922        TOTAL FREE ENERGY PREDICTED BY IDOCK:   -6.55 KCAL/MOL
REMARK 923 INTER-LIGAND FREE ENERGY PREDICTED BY IDOCK:   -5.97 KCAL/MOL
REMARK 924 INTRA-LIGAND FREE ENERGY PREDICTED BY IDOCK:   -0.57 KCAL/MOL
REMARK 927      BINDING AFFINITY PREDICTED BY RF-SCORE:    0.00 PKD
ROOT
HETATM    1  O   UNL     1     -10.894   2.268  64.061  1.00  0.00    -0.426 OA 
HETATM    2  H   UNL     1     -10.875   1.652  64.784  1.00  0.00     0.000 HD 
HETATM    3  C   UNL     1      -9.708   3.043  64.016  1.00  0.00    -0.148 C  
HETATM    4  C   UNL     1      -9.740   4.033  62.856  1.00  0.00    -0.147 C  
HETATM    5  C   UNL     1      -8.752   5.092  63.294  1.00  0.00    -0.039 C  
HETATM    6  N   UNL     1      -8.893   5.150  64.740  1.00  0.00    -0.135 N  
HETATM    7  C   UNL     1      -9.554   3.950  65.243  1.00  0.00    -0.185 C  
ENDROOT
BRANCH   6   8
HETATM    8  C   UNL     1      -8.385   6.241  65.426  1.00  0.00    -0.148 C  
HETATM    9  O   UNL     1      -7.804   7.129  64.811  1.00  0.00    -0.115 OA 
BRANCH   8  10
HETATM   10  N   UNL     1      -8.565   6.182  66.787  1.00  0.00    -0.110 N  
HETATM   11  H   UNL     1      -9.092   5.387  67.148  1.00  0.00     0.000 HD 
BRANCH  10  12
HETATM   12  C   UNL     1      -8.099   7.102  67.720  1.00  0.00    -0.115 A  
HETATM   13  C   UNL     1      -8.439   8.426  67.958  1.00  0.00    -0.132 A  
HETATM   14  N   UNL     1      -9.346   9.300  67.402  1.00  0.00    -0.126 NA 
HETATM   15  C   UNL     1      -9.342  10.544  67.815  1.00  0.00    -0.149 A  
HETATM   16  C   UNL     1      -7.115   6.806  68.691  1.00  0.00    -0.082 A  
HETATM   17  C   UNL     1      -8.472  11.025  68.943  1.00  0.00    -0.124 A  
HETATM   18  N   UNL     1      -6.801   7.841  69.462  1.00  0.00    -0.046 NA 
HETATM   19  C   UNL     1      -7.641  10.134  69.490  1.00  0.00    -0.139 A  
HETATM   20  N   UNL     1      -7.603   8.838  69.009  1.00  0.00    -0.088 NA 
BRANCH  15  21
HETATM   21  N   UNL     1     -10.157  11.496  67.247  1.00  0.00    -0.197 NA 
HETATM   22  C   UNL     1     -11.945  12.969  66.760  1.00  0.00    -0.434 C  
HETATM   23  C   UNL     1      -9.661  12.494  66.320  1.00  0.00    -0.245 C  
HETATM   24  C   UNL     1     -11.603  11.616  67.435  1.00  0.00    -0.254 C  
HETATM   25  C   UNL     1     -10.600  13.661  66.554  1.00  0.00    -0.282 C  
BRANCH  24  26
HETATM   26  C   UNL     1     -11.969  11.466  68.898  1.00  0.00    -0.371 A  
HETATM   27  C   UNL     1     -12.244  12.535  69.758  1.00  0.00    -0.132 A  
HETATM   28  C   UNL     1     -12.478  12.335  71.122  1.00  0.00    -0.328 A  
HETATM   29  F   UNL     1     -12.270  13.795  69.304  1.00  0.00    -0.352 F  
HETATM   30  C   UNL     1     -12.430  11.050  71.656  1.00  0.00    -0.310 A  
HETATM   31  C   UNL     1     -12.167   9.977  70.815  1.00  0.00    -0.315 A  
HETATM   32  C   UNL     1     -11.944  10.172  69.456  1.00  0.00    -0.001 A  
HETATM   33  F   UNL     1     -12.115   8.739  71.323  1.00  0.00    -0.299 F  
ENDBRANCH  24  26
ENDBRANCH  15  21
ENDBRANCH  10  12
ENDBRANCH   8  10
ENDBRANCH   6   8
TORSDOF 5
ENDMDL
MODEL      262
REMARK 921   NORMALIZED FREE ENERGY PREDICTED BY IDOCK:   -3.72 KCAL/MOL
REMARK 922        TOTAL FREE ENERGY PREDICTED BY IDOCK:   -6.54 KCAL/MOL
REMARK 923 INTER-LIGAND FREE ENERGY PREDICTED BY IDOCK:   -5.69 KCAL/MOL
REMARK 924 INTRA-LIGAND FREE ENERGY PREDICTED BY IDOCK:   -0.85 KCAL/MOL
REMARK 927      BINDING AFFINITY PREDICTED BY RF-SCORE:    0.00 PKD
ROOT
HETATM    1  O   UNL     1     -12.113  11.057  67.981  1.00  0.00    -0.744 OA 
HETATM    2  H   UNL     1     -11.668  11.648  67.385  1.00  0.00     0.000 HD 
HETATM    3  C   UNL     1     -11.437  10.979  69.225  1.00  0.00    -0.300 C  
HETATM    4  C   UNL     1     -12.151  10.030  70.182  1.00  0.00    -0.164 C  
HETATM    5  C   UNL     1     -11.052   9.640  71.147  1.00  0.00    -0.374 C  
HETATM    6  N   UNL     1      -9.845   9.617  70.338  1.00  0.00    -0.262 N  
HETATM    7  C   UNL     1     -10.041  10.356  69.094  1.00  0.00    -0.222 C  
ENDROOT
BRANCH   6   8
HETATM    8  C   UNL     1      -8.718   8.976  70.824  1.00  0.00    -0.224 C  
HETATM    9  O   UNL     1      -7.758   8.790  70.085  1.00  0.00    -0.073 OA 
BRANCH   8  10
HETATM   10  N   UNL     1      -8.824   8.568  72.133  1.00  0.00    -0.218 N  
HETATM   11  H   UNL     1      -8.576   9.250  72.849  1.00  0.00     0.000 HD 
BRANCH  10  12
HETATM   12  C   UNL     1      -9.236   7.315  72.575  1.00  0.00    -0.139 A  
HETATM   13  C   UNL     1      -9.019   6.042  72.066  1.00  0.00    -0.140 A  
HETATM   14  N   UNL     1      -8.324   5.543  70.988  1.00  0.00    -0.119 NA 
HETATM   15  C   UNL     1      -8.406   4.260  70.737  1.00  0.00    -0.078 A  
HETATM   16  C   UNL     1     -10.007   7.108  73.741  1.00  0.00    -0.331 A  
HETATM   17  C   UNL     1      -9.131   3.298  71.638  1.00  0.00    -0.168 A  
HETATM   18  N   UNL     1     -10.309   5.833  73.958  1.00  0.00    -0.265 NA 
HETATM   19  C   UNL     1      -9.751   3.815  72.702  1.00  0.00    -0.144 A  
HETATM   20  N   UNL     1      -9.715   5.179  72.929  1.00  0.00    -0.147 NA 
BRANCH  15  21
HETATM   21  N   UNL     1      -7.812   3.701  69.629  1.00  0.00    -0.051 NA 
HETATM   22  C   UNL     1      -7.172   3.163  67.414  1.00  0.00    -0.058 C  
HETATM   23  C   UNL     1      -6.579   2.943  69.703  1.00  0.00    -0.033 C  
HETATM   24  C   UNL     1      -8.337   3.733  68.263  1.00  0.00    -0.090 C  
HETATM   25  C   UNL     1      -5.959   3.185  68.341  1.00  0.00    -0.024 C  
BRANCH  24  26
HETATM   26  C   UNL     1      -8.831   5.121  67.909  1.00  0.00    -0.104 A  
HETATM   27  C   UNL     1     -10.043   5.666  68.347  1.00  0.00    -0.173 A  
HETATM   28  C   UNL     1     -10.487   6.915  67.904  1.00  0.00    -0.262 A  
HETATM   29  F   UNL     1     -10.833   4.993  69.195  1.00  0.00    -0.216 F  
HETATM   30  C   UNL     1      -9.722   7.644  66.996  1.00  0.00    -0.255 A  
HETATM   31  C   UNL     1      -8.513   7.122  66.558  1.00  0.00    -0.125 A  
HETATM   32  C   UNL     1      -8.064   5.883  67.005  1.00  0.00    -0.102 A  
HETATM   33  F   UNL     1      -7.775   7.815  65.681  1.00  0.00    -0.084 F  
ENDBRANCH  24  26
ENDBRANCH  15  21
ENDBRANCH  10  12
ENDBRANCH   8  10
ENDBRANCH   6   8
TORSDOF 5
ENDMDL
MODEL      263
REMARK 921   NORMALIZED FREE ENERGY PREDICTED BY IDOCK:   -3.67 KCAL/MOL
REMARK 922        TOTAL FREE ENERGY PREDICTED BY IDOCK:   -6.48 KCAL/MOL
REMARK 923 INTER-LIGAND FREE ENERGY PREDICTED BY IDOCK:   -4.83 KCAL/MOL
REMARK 924 INTRA-LIGAND FREE ENERGY PREDICTED BY IDOCK:   -1.65 KCAL/MOL
REMARK 927      BINDING AFFINITY PREDICTED BY RF-SCORE:    0.00 PKD
ROOT
HETATM    1  O   UNL     1     -11.999  13.556  67.739  1.00  0.00    -0.354 OA 
HETATM    2  H   UNL     1     -12.751  13.930  68.183  1.00  0.00     0.000 HD 
HETATM    3  C   UNL     1     -11.937  12.152  67.927  1.00  0.00    -0.148 C  
HETATM    4  C   UNL     1     -10.730  11.552  67.214  1.00  0.00    -0.286 C  
HETATM    5  C   UNL     1     -10.508  10.258  67.965  1.00  0.00    -0.196 C  
HETATM    6  N   UNL     1     -10.886  10.559  69.335  1.00  0.00    -0.232 N  
HETATM    7  C   UNL     1     -11.701  11.769  69.393  1.00  0.00    -0.341 C  
ENDROOT
BRANCH   6   8
HETATM    8  C   UNL     1     -10.489   9.703  70.350  1.00  0.00    -0.293 C  
HETATM    9  O   UNL     1     -11.328   9.034  70.944  1.00  0.00    -0.267 OA 
BRANCH   8  10
HETATM   10  N   UNL     1      -9.140   9.731  70.613  1.00  0.00    -0.293 N  
HETATM   11  H   UNL     1      -8.699  10.649  70.657  1.00  0.00     0.000 HD 
BRANCH  10  12
HETATM   12  C   UNL     1      -8.319   8.628  70.825  1.00  0.00    -0.152 A  
HETATM   13  C   UNL     1      -8.186   7.433  70.132  1.00  0.00    -0.133 A  
HETATM   14  N   UNL     1      -8.772   6.905  69.003  1.00  0.00    -0.131 NA 
HETATM   15  C   UNL     1      -8.474   5.674  68.668  1.00  0.00    -0.105 A  
HETATM   16  C   UNL     1      -7.378   8.540  71.874  1.00  0.00    -0.093 A  
HETATM   17  C   UNL     1      -7.441   4.859  69.395  1.00  0.00    -0.056 A  
HETATM   18  N   UNL     1      -6.721   7.386  71.903  1.00  0.00    -0.054 NA 
HETATM   19  C   UNL     1      -6.858   5.425  70.455  1.00  0.00    -0.052 A  
HETATM   20  N   UNL     1      -7.221   6.701  70.844  1.00  0.00    -0.072 NA 
BRANCH  15  21
HETATM   21  N   UNL     1      -9.084   5.047  67.606  1.00  0.00    -0.111 NA 
HETATM   22  C   UNL     1      -9.930   4.496  65.464  1.00  0.00    -0.230 C  
HETATM   23  C   UNL     1      -9.401   3.633  67.612  1.00  0.00    -0.200 C  
HETATM   24  C   UNL     1      -9.542   5.690  66.374  1.00  0.00    -0.157 C  
HETATM   25  C   UNL     1      -9.326   3.269  66.142  1.00  0.00    -0.130 C  
BRANCH  24  26
HETATM   26  C   UNL     1      -8.492   6.645  65.843  1.00  0.00    -0.145 A  
HETATM   27  C   UNL     1      -7.152   6.306  65.625  1.00  0.00    -0.065 A  
HETATM   28  C   UNL     1      -6.211   7.260  65.228  1.00  0.00    -0.038 A  
HETATM   29  F   UNL     1      -6.721   5.051  65.811  1.00  0.00    -0.047 F  
HETATM   30  C   UNL     1      -6.596   8.587  65.050  1.00  0.00    -0.064 A  
HETATM   31  C   UNL     1      -7.924   8.939  65.255  1.00  0.00    -0.116 A  
HETATM   32  C   UNL     1      -8.864   7.989  65.640  1.00  0.00    -0.133 A  
HETATM   33  F   UNL     1      -8.300  10.214  65.091  1.00  0.00    -0.135 F  
ENDBRANCH  24  26
ENDBRANCH  15  21
ENDBRANCH  10  12
ENDBRANCH   8  10
ENDBRANCH   6   8
TORSDOF 5
ENDMDL
MODEL      264
REMARK 921   NORMALIZED FREE ENERGY PREDICTED BY IDOCK:   -3.59 KCAL/MOL
REMARK 922        TOTAL FREE ENERGY PREDICTED BY IDOCK:   -6.37 KCAL/MOL
REMARK 923 INTER-LIGAND FREE ENERGY PREDICTED BY IDOCK:   -5.52 KCAL/MOL
REMARK 924 INTRA-LIGAND FREE ENERGY PREDICTED BY IDOCK:   -0.84 KCAL/MOL
REMARK 927      BINDING AFFINITY PREDICTED BY RF-SCORE:    0.00 PKD
ROOT
HETATM    1  O   UNL     1     -12.665  14.541  66.360  1.00  0.00    -0.416 OA 
HETATM    2  H   UNL     1     -12.375  14.415  65.464  1.00  0.00     0.000 HD 
HETATM    3  C   UNL     1     -11.755  13.963  67.280  1.00  0.00    -0.386 C  
HETATM    4  C   UNL     1     -12.221  14.164  68.718  1.00  0.00    -0.234 C  
HETATM    5  C   UNL     1     -11.507  13.054  69.459  1.00  0.00    -0.222 C  
HETATM    6  N   UNL     1     -11.450  11.957  68.509  1.00  0.00    -0.268 N  
HETATM    7  C   UNL     1     -11.679  12.437  67.149  1.00  0.00    -0.345 C  
ENDROOT
BRANCH   6   8
HETATM    8  C   UNL     1     -11.165  10.680  68.966  1.00  0.00    -0.265 C  
HETATM    9  O   UNL     1     -11.141   9.743  68.177  1.00  0.00    -0.215 OA 
BRANCH   8  10
HETATM   10  N   UNL     1     -10.970  10.601  70.325  1.00  0.00    -0.448 N  
HETATM   11  H   UNL     1     -11.107  11.458  70.860  1.00  0.00     0.000 HD 
BRANCH  10  12
HETATM   12  C   UNL     1     -10.604   9.466  71.039  1.00  0.00    -0.330 A  
HETATM   13  C   UNL     1      -9.538   8.589  70.893  1.00  0.00    -0.185 A  
HETATM   14  N   UNL     1      -8.462   8.518  70.037  1.00  0.00    -0.122 NA 
HETATM   15  C   UNL     1      -7.672   7.476  70.118  1.00  0.00    -0.089 A  
HETATM   16  C   UNL     1     -11.319   8.976  72.156  1.00  0.00    -0.241 A  
HETATM   17  C   UNL     1      -7.826   6.418  71.176  1.00  0.00    -0.114 A  
HETATM   18  N   UNL     1     -10.806   7.863  72.669  1.00  0.00    -0.336 NA 
HETATM   19  C   UNL     1      -8.852   6.549  72.020  1.00  0.00    -0.133 A  
HETATM   20  N   UNL     1      -9.721   7.618  71.891  1.00  0.00    -0.161 NA 
BRANCH  15  21
HETATM   21  N   UNL     1      -6.630   7.289  69.240  1.00  0.00    -0.040 NA 
HETATM   22  C   UNL     1      -5.134   6.402  67.634  1.00  0.00    -0.004 C  
HETATM   23  C   UNL     1      -5.828   8.387  68.738  1.00  0.00    -0.043 C  
HETATM   24  C   UNL     1      -6.148   6.002  68.737  1.00  0.00    -0.031 C  
HETATM   25  C   UNL     1      -5.394   7.884  67.375  1.00  0.00    -0.032 C  
BRANCH  24  26
HETATM   26  C   UNL     1      -7.306   5.120  68.318  1.00  0.00    -0.071 A  
HETATM   27  C   UNL     1      -8.435   5.573  67.627  1.00  0.00    -0.102 A  
HETATM   28  C   UNL     1      -9.515   4.728  67.357  1.00  0.00    -0.166 A  
HETATM   29  F   UNL     1      -8.527   6.845  67.216  1.00  0.00    -0.117 F  
HETATM   30  C   UNL     1      -9.489   3.404  67.788  1.00  0.00    -0.229 A  
HETATM   31  C   UNL     1      -8.372   2.936  68.468  1.00  0.00    -0.065 A  
HETATM   32  C   UNL     1      -7.292   3.773  68.730  1.00  0.00    -0.054 A  
HETATM   33  F   UNL     1      -8.343   1.666  68.891  1.00  0.00    -0.059 F  
ENDBRANCH  24  26
ENDBRANCH  15  21
ENDBRANCH  10  12
ENDBRANCH   8  10
ENDBRANCH   6   8
TORSDOF 5
ENDMDL
MODEL      265
REMARK 921   NORMALIZED FREE ENERGY PREDICTED BY IDOCK:   -3.52 KCAL/MOL
REMARK 922        TOTAL FREE ENERGY PREDICTED BY IDOCK:   -6.28 KCAL/MOL
REMARK 923 INTER-LIGAND FREE ENERGY PREDICTED BY IDOCK:   -6.35 KCAL/MOL
REMARK 924 INTRA-LIGAND FREE ENERGY PREDICTED BY IDOCK:    0.06 KCAL/MOL
REMARK 927      BINDING AFFINITY PREDICTED BY RF-SCORE:    0.00 PKD
ROOT
HETATM    1  O   UNL     1     -10.643   8.683  71.729  1.00  0.00    -0.270 OA 
HETATM    2  H   UNL     1     -11.547   8.868  71.502  1.00  0.00     0.000 HD 
HETATM    3  C   UNL     1      -9.800   8.774  70.594  1.00  0.00    -0.194 C  
HETATM    4  C   UNL     1      -8.350   8.476  70.958  1.00  0.00    -0.173 C  
HETATM    5  C   UNL     1      -7.750   8.060  69.633  1.00  0.00    -0.102 C  
HETATM    6  N   UNL     1      -8.830   7.376  68.941  1.00  0.00    -0.132 N  
HETATM    7  C   UNL     1     -10.120   7.707  69.539  1.00  0.00    -0.192 C  
ENDROOT
BRANCH   6   8
HETATM    8  C   UNL     1      -8.534   6.578  67.848  1.00  0.00    -0.118 C  
HETATM    9  O   UNL     1      -8.885   5.403  67.841  1.00  0.00    -0.107 OA 
BRANCH   8  10
HETATM   10  N   UNL     1      -7.813   7.214  66.866  1.00  0.00    -0.106 N  
HETATM   11  H   UNL     1      -6.820   6.991  66.806  1.00  0.00     0.000 HD 
BRANCH  10  12
HETATM   12  C   UNL     1      -8.307   8.133  65.946  1.00  0.00    -0.132 A  
HETATM   13  C   UNL     1      -9.010   9.317  66.113  1.00  0.00    -0.165 A  
HETATM   14  N   UNL     1      -9.454  10.025  67.207  1.00  0.00    -0.152 NA 
HETATM   15  C   UNL     1     -10.191  11.089  67.001  1.00  0.00    -0.211 A  
HETATM   16  C   UNL     1      -8.143   8.009  64.547  1.00  0.00    -0.132 A  
HETATM   17  C   UNL     1     -10.474  11.629  65.627  1.00  0.00    -0.314 A  
HETATM   18  N   UNL     1      -8.719   8.987  63.857  1.00  0.00    -0.140 NA 
HETATM   19  C   UNL     1      -9.983  10.942  64.592  1.00  0.00    -0.310 A  
HETATM   20  N   UNL     1      -9.260   9.784  64.812  1.00  0.00    -0.250 NA 
BRANCH  15  21
HETATM   21  N   UNL     1     -10.744  11.797  68.042  1.00  0.00    -0.200 NA 
HETATM   22  C   UNL     1     -11.523  13.520  69.467  1.00  0.00    -0.318 C  
HETATM   23  C   UNL     1     -11.648  11.195  69.002  1.00  0.00    -0.324 C  
HETATM   24  C   UNL     1     -10.478  13.199  68.368  1.00  0.00    -0.253 C  
HETATM   25  C   UNL     1     -12.519  12.365  69.417  1.00  0.00     0.240 C  
BRANCH  24  26
HETATM   26  C   UNL     1     -10.509  14.057  67.119  1.00  0.00    -0.270 A  
HETATM   27  C   UNL     1      -9.456  14.874  66.694  1.00  0.00    -0.265 A  
HETATM   28  C   UNL     1      -9.585  15.716  65.586  1.00  0.00    -0.319 A  
HETATM   29  F   UNL     1      -8.289  14.891  67.352  1.00  0.00    -0.150 F  
HETATM   30  C   UNL     1     -10.787  15.765  64.884  1.00  0.00    -0.433 A  
HETATM   31  C   UNL     1     -11.839  14.954  65.287  1.00  0.00    -0.217 A  
HETATM   32  C   UNL     1     -11.710  14.107  66.384  1.00  0.00    -0.404 A  
HETATM   33  F   UNL     1     -13.000  14.999  64.620  1.00  0.00    -0.234 F  
ENDBRANCH  24  26
ENDBRANCH  15  21
ENDBRANCH  10  12
ENDBRANCH   8  10
ENDBRANCH   6   8
TORSDOF 5
ENDMDL
MODEL      266
REMARK 921   NORMALIZED FREE ENERGY PREDICTED BY IDOCK:   -3.49 KCAL/MOL
REMARK 922        TOTAL FREE ENERGY PREDICTED BY IDOCK:   -6.24 KCAL/MOL
REMARK 923 INTER-LIGAND FREE ENERGY PREDICTED BY IDOCK:   -5.84 KCAL/MOL
REMARK 924 INTRA-LIGAND FREE ENERGY PREDICTED BY IDOCK:   -0.41 KCAL/MOL
REMARK 927      BINDING AFFINITY PREDICTED BY RF-SCORE:    0.00 PKD
ROOT
HETATM    1  O   UNL     1      -9.037   5.286  74.350  1.00  0.00    -0.116 OA 
HETATM    2  H   UNL     1      -9.662   4.599  74.547  1.00  0.00     0.000 HD 
HETATM    3  C   UNL     1      -9.683   6.430  73.816  1.00  0.00    -0.193 C  
HETATM    4  C   UNL     1      -8.680   7.533  73.500  1.00  0.00    -0.242 C  
HETATM    5  C   UNL     1      -9.411   8.364  72.468  1.00  0.00    -0.275 C  
HETATM    6  N   UNL     1     -10.199   7.403  71.715  1.00  0.00    -0.191 N  
HETATM    7  C   UNL     1     -10.335   6.152  72.456  1.00  0.00    -0.193 C  
ENDROOT
BRANCH   6   8
HETATM    8  C   UNL     1     -10.725   7.772  70.488  1.00  0.00    -0.236 C  
HETATM    9  O   UNL     1     -10.175   7.404  69.456  1.00  0.00    -0.193 OA 
BRANCH   8  10
HETATM   10  N   UNL     1     -11.835   8.579  70.572  1.00  0.00    -0.483 N  
HETATM   11  H   UNL     1     -12.686   8.154  70.937  1.00  0.00     0.000 HD 
BRANCH  10  12
HETATM   12  C   UNL     1     -11.908   9.919  70.207  1.00  0.00    -0.184 A  
HETATM   13  C   UNL     1     -11.027  10.734  69.511  1.00  0.00    -0.266 A  
HETATM   14  N   UNL     1      -9.801  10.537  68.916  1.00  0.00    -0.192 NA 
HETATM   15  C   UNL     1      -9.183  11.575  68.409  1.00  0.00    -0.190 A  
HETATM   16  C   UNL     1     -13.011  10.753  70.499  1.00  0.00    -0.184 A  
HETATM   17  C   UNL     1      -9.803  12.943  68.351  1.00  0.00    -0.197 A  
HETATM   18  N   UNL     1     -12.857  12.004  70.080  1.00  0.00     0.250 NA 
HETATM   19  C   UNL     1     -11.015  13.083  68.894  1.00  0.00    -0.230 A  
HETATM   20  N   UNL     1     -11.638  11.999  69.484  1.00  0.00    -0.313 NA 
BRANCH  15  21
HETATM   21  N   UNL     1      -7.918  11.474  67.878  1.00  0.00    -0.120 NA 
HETATM   22  C   UNL     1      -6.071  11.095  66.446  1.00  0.00    -0.137 C  
HETATM   23  C   UNL     1      -6.776  12.161  68.448  1.00  0.00    -0.062 C  
HETATM   24  C   UNL     1      -7.528  10.650  66.733  1.00  0.00    -0.120 C  
HETATM   25  C   UNL     1      -5.887  12.386  67.240  1.00  0.00    -0.125 C  
BRANCH  24  26
HETATM   26  C   UNL     1      -8.526  10.793  65.602  1.00  0.00    -0.163 A  
HETATM   27  C   UNL     1      -8.730   9.837  64.601  1.00  0.00    -0.194 A  
HETATM   28  C   UNL     1      -9.596  10.073  63.529  1.00  0.00    -0.135 A  
HETATM   29  F   UNL     1      -8.082   8.664  64.627  1.00  0.00    -0.122 F  
HETATM   30  C   UNL     1     -10.271  11.287  63.434  1.00  0.00    -0.454 A  
HETATM   31  C   UNL     1     -10.086  12.243  64.423  1.00  0.00    -0.270 A  
HETATM   32  C   UNL     1      -9.233  12.007  65.496  1.00  0.00     0.044 A  
HETATM   33  F   UNL     1     -10.728  13.415  64.334  1.00  0.00    -0.350 F  
ENDBRANCH  24  26
ENDBRANCH  15  21
ENDBRANCH  10  12
ENDBRANCH   8  10
ENDBRANCH   6   8
TORSDOF 5
ENDMDL
MODEL      267
REMARK 921   NORMALIZED FREE ENERGY PREDICTED BY IDOCK:   -3.46 KCAL/MOL
REMARK 922        TOTAL FREE ENERGY PREDICTED BY IDOCK:   -6.20 KCAL/MOL
REMARK 923 INTER-LIGAND FREE ENERGY PREDICTED BY IDOCK:   -5.25 KCAL/MOL
REMARK 924 INTRA-LIGAND FREE ENERGY PREDICTED BY IDOCK:   -0.95 KCAL/MOL
REMARK 927      BINDING AFFINITY PREDICTED BY RF-SCORE:    0.00 PKD
ROOT
HETATM    1  O   UNL     1     -11.496  14.172  64.683  1.00  0.00    -0.363 OA 
HETATM    2  H   UNL     1     -11.966  14.538  65.424  1.00  0.00     0.000 HD 
HETATM    3  C   UNL     1     -11.105  12.833  64.935  1.00  0.00    -0.292 C  
HETATM    4  C   UNL     1     -10.351  12.246  63.747  1.00  0.00    -0.464 C  
HETATM    5  C   UNL     1      -9.555  11.124  64.377  1.00  0.00    -0.250 C  
HETATM    6  N   UNL     1      -9.223  11.611  65.705  1.00  0.00    -0.208 N  
HETATM    7  C   UNL     1     -10.089  12.726  66.079  1.00  0.00    -0.268 C  
ENDROOT
BRANCH   6   8
HETATM    8  C   UNL     1      -8.221  10.981  66.426  1.00  0.00    -0.166 C  
HETATM    9  O   UNL     1      -7.049  11.144  66.108  1.00  0.00    -0.097 OA 
BRANCH   8  10
HETATM   10  N   UNL     1      -8.681  10.177  67.442  1.00  0.00    -0.125 N  
HETATM   11  H   UNL     1      -9.031  10.645  68.277  1.00  0.00     0.000 HD 
BRANCH  10  12
HETATM   12  C   UNL     1      -8.715   8.786  67.440  1.00  0.00    -0.130 A  
HETATM   13  C   UNL     1      -8.455   7.857  68.438  1.00  0.00    -0.128 A  
HETATM   14  N   UNL     1      -8.100   7.946  69.765  1.00  0.00    -0.114 NA 
HETATM   15  C   UNL     1      -7.833   6.838  70.412  1.00  0.00    -0.109 A  
HETATM   16  C   UNL     1      -9.073   8.011  66.314  1.00  0.00    -0.186 A  
HETATM   17  C   UNL     1      -8.009   5.476  69.800  1.00  0.00    -0.090 A  
HETATM   18  N   UNL     1      -9.012   6.702  66.530  1.00  0.00    -0.140 NA 
HETATM   19  C   UNL     1      -8.404   5.430  68.524  1.00  0.00    -0.097 A  
HETATM   20  N   UNL     1      -8.623   6.604  67.826  1.00  0.00    -0.121 NA 
BRANCH  15  21
HETATM   21  N   UNL     1      -7.387   6.850  71.713  1.00  0.00    -0.083 NA 
HETATM   22  C   UNL     1      -7.216   7.094  74.061  1.00  0.00    -0.099 C  
HETATM   23  C   UNL     1      -6.228   6.096  72.146  1.00  0.00    -0.042 C  
HETATM   24  C   UNL     1      -7.952   7.637  72.810  1.00  0.00    -0.111 C  
HETATM   25  C   UNL     1      -6.548   5.801  73.599  1.00  0.00    -0.074 C  
BRANCH  24  26
HETATM   26  C   UNL     1      -9.465   7.549  72.811  1.00  0.00    -0.223 A  
HETATM   27  C   UNL     1     -10.194   6.454  73.287  1.00  0.00    -0.214 A  
HETATM   28  C   UNL     1     -11.585   6.394  73.168  1.00  0.00     0.233 A  
HETATM   29  F   UNL     1      -9.575   5.411  73.857  1.00  0.00    -0.133 F  
HETATM   30  C   UNL     1     -12.278   7.435  72.555  1.00  0.00    -0.048 A  
HETATM   31  C   UNL     1     -11.570   8.533  72.084  1.00  0.00    -0.377 A  
HETATM   32  C   UNL     1     -10.187   8.600  72.210  1.00  0.00    -0.372 A  
HETATM   33  F   UNL     1     -12.230   9.535  71.488  1.00  0.00    -0.353 F  
ENDBRANCH  24  26
ENDBRANCH  15  21
ENDBRANCH  10  12
ENDBRANCH   8  10
ENDBRANCH   6   8
TORSDOF 5
ENDMDL
MODEL      268
REMARK 921   NORMALIZED FREE ENERGY PREDICTED BY IDOCK:   -3.44 KCAL/MOL
REMARK 922        TOTAL FREE ENERGY PREDICTED BY IDOCK:   -6.17 KCAL/MOL
REMARK 923 INTER-LIGAND FREE ENERGY PREDICTED BY IDOCK:   -5.65 KCAL/MOL
REMARK 924 INTRA-LIGAND FREE ENERGY PREDICTED BY IDOCK:   -0.52 KCAL/MOL
REMARK 927      BINDING AFFINITY PREDICTED BY RF-SCORE:    0.00 PKD
ROOT
HETATM    1  O   UNL     1     -11.349   7.280  66.759  1.00  0.00    -0.399 OA 
HETATM    2  H   UNL     1     -12.265   7.232  67.005  1.00  0.00     0.000 HD 
HETATM    3  C   UNL     1     -10.506   7.015  67.867  1.00  0.00    -0.214 C  
HETATM    4  C   UNL     1      -9.035   7.094  67.473  1.00  0.00    -0.121 C  
HETATM    5  C   UNL     1      -8.348   7.362  68.794  1.00  0.00    -0.129 C  
HETATM    6  N   UNL     1      -9.290   8.182  69.538  1.00  0.00    -0.155 N  
HETATM    7  C   UNL     1     -10.629   8.080  68.964  1.00  0.00    -0.154 C  
ENDROOT
BRANCH   6   8
HETATM    8  C   UNL     1      -8.847   8.883  70.647  1.00  0.00    -0.198 C  
HETATM    9  O   UNL     1      -8.748   8.312  71.727  1.00  0.00    -0.132 OA 
BRANCH   8  10
HETATM   10  N   UNL     1      -8.593  10.213  70.406  1.00  0.00    -0.189 N  
HETATM   11  H   UNL     1      -9.346  10.870  70.610  1.00  0.00     0.000 HD 
BRANCH  10  12
HETATM   12  C   UNL     1      -7.409  10.749  69.912  1.00  0.00     0.005 A  
HETATM   13  C   UNL     1      -7.159  11.878  69.145  1.00  0.00    -0.053 A  
HETATM   14  N   UNL     1      -7.947  12.877  68.618  1.00  0.00    -0.077 NA 
HETATM   15  C   UNL     1      -7.382  13.768  67.842  1.00  0.00    -0.153 A  
HETATM   16  C   UNL     1      -6.134  10.186  70.145  1.00  0.00    -0.077 A  
HETATM   17  C   UNL     1      -5.899  13.812  67.596  1.00  0.00    -0.047 A  
HETATM   18  N   UNL     1      -5.145  10.847  69.556  1.00  0.00    -0.038 NA 
HETATM   19  C   UNL     1      -5.162  12.855  68.166  1.00  0.00    -0.085 A  
HETATM   20  N   UNL     1      -5.770  11.879  68.934  1.00  0.00    -0.050 NA 
BRANCH  15  21
HETATM   21  N   UNL     1      -8.117  14.743  67.208  1.00  0.00    -0.198 NA 
HETATM   22  C   UNL     1      -9.875  16.044  66.300  1.00  0.00    -0.331 C  
HETATM   23  C   UNL     1      -7.582  16.059  66.918  1.00  0.00    -0.233 C  
HETATM   24  C   UNL     1      -9.480  14.597  66.696  1.00  0.00    -0.278 C  
HETATM   25  C   UNL     1      -8.819  16.935  66.950  1.00  0.00    -0.248 C  
BRANCH  24  26
HETATM   26  C   UNL     1     -10.363  13.898  67.710  1.00  0.00    -0.240 A  
HETATM   27  C   UNL     1     -10.718  12.546  67.650  1.00  0.00    -0.218 A  
HETATM   28  C   UNL     1     -11.617  11.984  68.562  1.00  0.00    -0.363 A  
HETATM   29  F   UNL     1     -10.220  11.744  66.698  1.00  0.00    -0.218 F  
HETATM   30  C   UNL     1     -12.191  12.777  69.553  1.00  0.00    -0.161 A  
HETATM   31  C   UNL     1     -11.843  14.119  69.631  1.00  0.00    -0.324 A  
HETATM   32  C   UNL     1     -10.942  14.678  68.731  1.00  0.00    -0.268 A  
HETATM   33  F   UNL     1     -12.396  14.889  70.577  1.00  0.00    -0.306 F  
ENDBRANCH  24  26
ENDBRANCH  15  21
ENDBRANCH  10  12
ENDBRANCH   8  10
ENDBRANCH   6   8
TORSDOF 5
ENDMDL
MODEL      269
REMARK 921   NORMALIZED FREE ENERGY PREDICTED BY IDOCK:   -3.44 KCAL/MOL
REMARK 922        TOTAL FREE ENERGY PREDICTED BY IDOCK:   -6.17 KCAL/MOL
REMARK 923 INTER-LIGAND FREE ENERGY PREDICTED BY IDOCK:   -5.25 KCAL/MOL
REMARK 924 INTRA-LIGAND FREE ENERGY PREDICTED BY IDOCK:   -0.92 KCAL/MOL
REMARK 927      BINDING AFFINITY PREDICTED BY RF-SCORE:    0.00 PKD
ROOT
HETATM    1  O   UNL     1     -11.538  16.305  63.925  1.00  0.00    -1.489 OA 
HETATM    2  H   UNL     1     -11.397  15.434  63.573  1.00  0.00     0.000 HD 
HETATM    3  C   UNL     1     -10.656  16.574  65.002  1.00  0.00    -0.144 C  
HETATM    4  C   UNL     1     -10.884  17.972  65.565  1.00  0.00     0.138 C  
HETATM    5  C   UNL     1     -10.326  17.862  66.968  1.00  0.00    -0.362 C  
HETATM    6  N   UNL     1     -10.617  16.497  67.372  1.00  0.00    -0.317 N  
HETATM    7  C   UNL     1     -10.915  15.665  66.210  1.00  0.00    -0.201 C  
ENDROOT
BRANCH   6   8
HETATM    8  C   UNL     1     -10.546  16.160  68.714  1.00  0.00    -0.279 C  
HETATM    9  O   UNL     1     -11.523  15.670  69.270  1.00  0.00    -0.312 OA 
BRANCH   8  10
HETATM   10  N   UNL     1      -9.343  16.461  69.306  1.00  0.00    -0.222 N  
HETATM   11  H   UNL     1      -9.337  17.237  69.968  1.00  0.00     0.000 HD 
BRANCH  10  12
HETATM   12  C   UNL     1      -8.133  15.811  69.090  1.00  0.00    -0.237 A  
HETATM   13  C   UNL     1      -7.820  14.464  68.964  1.00  0.00    -0.077 A  
HETATM   14  N   UNL     1      -8.556  13.301  68.980  1.00  0.00     0.302 NA 
HETATM   15  C   UNL     1      -7.914  12.160  68.924  1.00  0.00     0.096 A  
HETATM   16  C   UNL     1      -6.899  16.480  68.930  1.00  0.00    -0.186 A  
HETATM   17  C   UNL     1      -6.426  12.071  68.731  1.00  0.00    -0.077 A  
HETATM   18  N   UNL     1      -5.867  15.661  68.761  1.00  0.00    -0.098 NA 
HETATM   19  C   UNL     1      -5.753  13.223  68.670  1.00  0.00    -0.079 A  
HETATM   20  N   UNL     1      -6.426  14.425  68.793  1.00  0.00    -0.083 NA 
BRANCH  15  21
HETATM   21  N   UNL     1      -8.572  10.956  69.024  1.00  0.00    -0.139 NA 
HETATM   22  C   UNL     1      -9.756   8.960  68.555  1.00  0.00    -0.172 C  
HETATM   23  C   UNL     1      -8.443  10.090  70.179  1.00  0.00    -0.017 C  
HETATM   24  C   UNL     1      -9.511  10.404  68.046  1.00  0.00    -0.143 C  
HETATM   25  C   UNL     1      -8.658   8.711  69.586  1.00  0.00    -0.131 C  
BRANCH  24  26
HETATM   26  C   UNL     1      -8.972  10.554  66.638  1.00  0.00    -0.155 A  
HETATM   27  C   UNL     1      -9.766  10.745  65.503  1.00  0.00    -0.239 A  
HETATM   28  C   UNL     1      -9.213  10.777  64.220  1.00  0.00    -0.246 A  
HETATM   29  F   UNL     1     -11.095  10.885  65.608  1.00  0.00    -0.234 F  
HETATM   30  C   UNL     1      -7.842  10.605  64.048  1.00  0.00     0.131 A  
HETATM   31  C   UNL     1      -7.038  10.422  65.165  1.00  0.00    -0.080 A  
HETATM   32  C   UNL     1      -7.584  10.400  66.444  1.00  0.00    -0.123 A  
HETATM   33  F   UNL     1      -5.719  10.250  65.006  1.00  0.00    -0.080 F  
ENDBRANCH  24  26
ENDBRANCH  15  21
ENDBRANCH  10  12
ENDBRANCH   8  10
ENDBRANCH   6   8
TORSDOF 5
ENDMDL
MODEL      270
REMARK 921   NORMALIZED FREE ENERGY PREDICTED BY IDOCK:   -3.28 KCAL/MOL
REMARK 922        TOTAL FREE ENERGY PREDICTED BY IDOCK:   -5.97 KCAL/MOL
REMARK 923 INTER-LIGAND FREE ENERGY PREDICTED BY IDOCK:   -5.52 KCAL/MOL
REMARK 924 INTRA-LIGAND FREE ENERGY PREDICTED BY IDOCK:   -0.45 KCAL/MOL
REMARK 927      BINDING AFFINITY PREDICTED BY RF-SCORE:    0.00 PKD
ROOT
HETATM    1  O   UNL     1      -6.645   7.997  73.356  1.00  0.00    -0.085 OA 
HETATM    2  H   UNL     1      -5.885   8.066  72.789  1.00  0.00     0.000 HD 
HETATM    3  C   UNL     1      -7.155   6.675  73.372  1.00  0.00    -0.077 C  
HETATM    4  C   UNL     1      -8.374   6.565  74.282  1.00  0.00    -0.139 C  
HETATM    5  C   UNL     1      -9.082   5.340  73.744  1.00  0.00    -0.123 C  
HETATM    6  N   UNL     1      -8.828   5.367  72.314  1.00  0.00    -0.129 N  
HETATM    7  C   UNL     1      -7.701   6.242  72.005  1.00  0.00    -0.096 C  
ENDROOT
BRANCH   6   8
HETATM    8  C   UNL     1      -9.604   4.585  71.474  1.00  0.00    -0.163 C  
HETATM    9  O   UNL     1      -9.637   3.370  71.633  1.00  0.00    -0.138 OA 
BRANCH   8  10
HETATM   10  N   UNL     1     -10.251   5.292  70.488  1.00  0.00    -0.249 N  
HETATM   11  H   UNL     1     -11.086   5.808  70.763  1.00  0.00     0.000 HD 
BRANCH  10  12
HETATM   12  C   UNL     1      -9.876   5.371  69.151  1.00  0.00    -0.177 A  
HETATM   13  C   UNL     1      -9.319   6.405  68.410  1.00  0.00    -0.121 A  
HETATM   14  N   UNL     1      -8.917   7.688  68.702  1.00  0.00    -0.133 NA 
HETATM   15  C   UNL     1      -8.508   8.450  67.717  1.00  0.00    -0.131 A  
HETATM   16  C   UNL     1      -9.996   4.301  68.236  1.00  0.00     0.036 A  
HETATM   17  C   UNL     1      -8.353   7.946  66.309  1.00  0.00    -0.126 A  
HETATM   18  N   UNL     1      -9.603   4.607  67.005  1.00  0.00    -0.166 NA 
HETATM   19  C   UNL     1      -8.706   6.679  66.076  1.00  0.00    -0.147 A  
HETATM   20  N   UNL     1      -9.197   5.898  67.106  1.00  0.00    -0.115 NA 
BRANCH  15  21
HETATM   21  N   UNL     1      -8.174   9.769  67.915  1.00  0.00    -0.113 NA 
HETATM   22  C   UNL     1      -8.197  12.063  68.502  1.00  0.00    -0.113 C  
HETATM   23  C   UNL     1      -6.802  10.237  67.902  1.00  0.00    -0.074 C  
HETATM   24  C   UNL     1      -9.113  10.875  68.107  1.00  0.00    -0.155 C  
HETATM   25  C   UNL     1      -6.849  11.430  68.837  1.00  0.00    -0.089 C  
BRANCH  24  26
HETATM   26  C   UNL     1     -10.202  10.492  69.088  1.00  0.00    -0.241 A  
HETATM   27  C   UNL     1     -11.537  10.899  68.987  1.00  0.00    -0.316 A  
HETATM   28  C   UNL     1     -12.472  10.592  69.980  1.00  0.00    -0.294 A  
HETATM   29  F   UNL     1     -11.960  11.618  67.939  1.00  0.00    -0.371 F  
HETATM   30  C   UNL     1     -12.081   9.875  71.108  1.00  0.00    -0.466 A  
HETATM   31  C   UNL     1     -10.763   9.457  71.220  1.00  0.00    -0.350 A  
HETATM   32  C   UNL     1      -9.832   9.752  70.229  1.00  0.00    -0.296 A  
HETATM   33  F   UNL     1     -10.379   8.772  72.305  1.00  0.00    -0.367 F  
ENDBRANCH  24  26
ENDBRANCH  15  21
ENDBRANCH  10  12
ENDBRANCH   8  10
ENDBRANCH   6   8
TORSDOF 5
ENDMDL
MODEL      271
REMARK 921   NORMALIZED FREE ENERGY PREDICTED BY IDOCK:   -3.17 KCAL/MOL
REMARK 922        TOTAL FREE ENERGY PREDICTED BY IDOCK:   -5.83 KCAL/MOL
REMARK 923 INTER-LIGAND FREE ENERGY PREDICTED BY IDOCK:   -4.45 KCAL/MOL
REMARK 924 INTRA-LIGAND FREE ENERGY PREDICTED BY IDOCK:   -1.37 KCAL/MOL
REMARK 927      BINDING AFFINITY PREDICTED BY RF-SCORE:    0.00 PKD
ROOT
HETATM    1  O   UNL     1      -6.204   8.191  72.775  1.00  0.00    -0.062 OA 
HETATM    2  H   UNL     1      -5.456   8.072  72.201  1.00  0.00     0.000 HD 
HETATM    3  C   UNL     1      -7.401   7.754  72.154  1.00  0.00    -0.077 C  
HETATM    4  C   UNL     1      -8.601   7.945  73.074  1.00  0.00    -0.245 C  
HETATM    5  C   UNL     1      -9.762   7.990  72.104  1.00  0.00    -0.221 C  
HETATM    6  N   UNL     1      -9.225   8.634  70.918  1.00  0.00    -0.173 N  
HETATM    7  C   UNL     1      -7.765   8.599  70.926  1.00  0.00    -0.097 C  
ENDROOT
BRANCH   6   8
HETATM    8  C   UNL     1     -10.098   9.136  69.966  1.00  0.00    -0.206 C  
HETATM    9  O   UNL     1     -11.183   8.593  69.791  1.00  0.00    -0.139 OA 
BRANCH   8  10
HETATM   10  N   UNL     1      -9.608  10.214  69.268  1.00  0.00    -0.214 N  
HETATM   11  H   UNL     1      -9.031  10.875  69.787  1.00  0.00     0.000 HD 
BRANCH  10  12
HETATM   12  C   UNL     1      -9.825  10.491  67.922  1.00  0.00    -0.160 A  
HETATM   13  C   UNL     1      -9.204  10.020  66.774  1.00  0.00    -0.148 A  
HETATM   14  N   UNL     1      -8.193   9.119  66.528  1.00  0.00    -0.110 NA 
HETATM   15  C   UNL     1      -7.777   8.974  65.294  1.00  0.00    -0.100 A  
HETATM   16  C   UNL     1     -10.824  11.373  67.453  1.00  0.00    -0.254 A  
HETATM   17  C   UNL     1      -8.431   9.663  64.128  1.00  0.00    -0.186 A  
HETATM   18  N   UNL     1     -10.834  11.509  66.132  1.00  0.00    -0.282 NA 
HETATM   19  C   UNL     1      -9.442  10.491  64.403  1.00  0.00    -0.281 A  
HETATM   20  N   UNL     1      -9.836  10.690  65.713  1.00  0.00    -0.227 NA 
BRANCH  15  21
HETATM   21  N   UNL     1      -6.714   8.159  64.981  1.00  0.00    -0.052 NA 
HETATM   22  C   UNL     1      -5.229   6.326  64.778  1.00  0.00    -0.017 C  
HETATM   23  C   UNL     1      -5.785   8.466  63.911  1.00  0.00    -0.066 C  
HETATM   24  C   UNL     1      -6.332   6.933  65.683  1.00  0.00    -0.043 C  
HETATM   25  C   UNL     1      -5.332   7.091  63.460  1.00  0.00    -0.032 C  
BRANCH  24  26
HETATM   26  C   UNL     1      -7.547   6.070  65.958  1.00  0.00    -0.087 A  
HETATM   27  C   UNL     1      -8.018   5.751  67.236  1.00  0.00    -0.102 A  
HETATM   28  C   UNL     1      -9.086   4.869  67.423  1.00  0.00    -0.124 A  
HETATM   29  F   UNL     1      -7.442   6.268  68.330  1.00  0.00    -0.079 F  
HETATM   30  C   UNL     1      -9.701   4.276  66.323  1.00  0.00    -0.225 A  
HETATM   31  C   UNL     1      -9.252   4.589  65.047  1.00  0.00    -0.157 A  
HETATM   32  C   UNL     1      -8.195   5.474  64.858  1.00  0.00    -0.136 A  
HETATM   33  F   UNL     1      -9.835   4.019  63.985  1.00  0.00    -0.152 F  
ENDBRANCH  24  26
ENDBRANCH  15  21
ENDBRANCH  10  12
ENDBRANCH   8  10
ENDBRANCH   6   8
TORSDOF 5
ENDMDL
MODEL      272
REMARK 921   NORMALIZED FREE ENERGY PREDICTED BY IDOCK:   -3.11 KCAL/MOL
REMARK 922        TOTAL FREE ENERGY PREDICTED BY IDOCK:   -5.74 KCAL/MOL
REMARK 923 INTER-LIGAND FREE ENERGY PREDICTED BY IDOCK:   -4.59 KCAL/MOL
REMARK 924 INTRA-LIGAND FREE ENERGY PREDICTED BY IDOCK:   -1.16 KCAL/MOL
REMARK 927      BINDING AFFINITY PREDICTED BY RF-SCORE:    0.00 PKD
ROOT
HETATM    1  O   UNL     1     -10.932   6.684  71.821  1.00  0.00    -0.228 OA 
HETATM    2  H   UNL     1     -10.515   7.471  72.153  1.00  0.00     0.000 HD 
HETATM    3  C   UNL     1      -9.992   5.835  71.185  1.00  0.00    -0.192 C  
HETATM    4  C   UNL     1     -10.661   4.573  70.652  1.00  0.00     0.313 C  
HETATM    5  C   UNL     1      -9.703   4.118  69.572  1.00  0.00    -0.183 C  
HETATM    6  N   UNL     1      -9.168   5.348  69.014  1.00  0.00    -0.117 N  
HETATM    7  C   UNL     1      -9.389   6.468  69.925  1.00  0.00    -0.152 C  
ENDROOT
BRANCH   6   8
HETATM    8  C   UNL     1      -8.522   5.311  67.789  1.00  0.00    -0.105 C  
HETATM    9  O   UNL     1      -8.498   4.268  67.147  1.00  0.00    -0.100 OA 
BRANCH   8  10
HETATM   10  N   UNL     1      -7.922   6.496  67.434  1.00  0.00    -0.112 N  
HETATM   11  H   UNL     1      -7.316   6.931  68.129  1.00  0.00     0.000 HD 
BRANCH  10  12
HETATM   12  C   UNL     1      -8.062   7.159  66.220  1.00  0.00    -0.118 A  
HETATM   13  C   UNL     1      -8.587   8.405  65.905  1.00  0.00    -0.158 A  
HETATM   14  N   UNL     1      -9.128   9.434  66.643  1.00  0.00    -0.145 NA 
HETATM   15  C   UNL     1      -9.626  10.462  66.001  1.00  0.00    -0.201 A  
HETATM   16  C   UNL     1      -7.635   6.629  64.982  1.00  0.00    -0.099 A  
HETATM   17  C   UNL     1      -9.530  10.615  64.508  1.00  0.00    -0.313 A  
HETATM   18  N   UNL     1      -7.891   7.421  63.947  1.00  0.00    -0.130 NA 
HETATM   19  C   UNL     1      -8.952   9.618  63.833  1.00  0.00    -0.218 A  
HETATM   20  N   UNL     1      -8.484   8.505  64.508  1.00  0.00    -0.134 NA 
BRANCH  15  21
HETATM   21  N   UNL     1     -10.262  11.487  66.662  1.00  0.00    -0.213 NA 
HETATM   22  C   UNL     1     -10.811  13.249  68.145  1.00  0.00    -0.270 C  
HETATM   23  C   UNL     1     -11.385  12.205  66.091  1.00  0.00    -0.361 C  
HETATM   24  C   UNL     1      -9.957  11.961  68.012  1.00  0.00    -0.190 C  
HETATM   25  C   UNL     1     -11.257  13.577  66.722  1.00  0.00    -0.327 C  
BRANCH  24  26
HETATM   26  C   UNL     1      -8.462  12.105  68.207  1.00  0.00    -0.176 A  
HETATM   27  C   UNL     1      -7.696  11.315  69.071  1.00  0.00    -0.095 A  
HETATM   28  C   UNL     1      -6.337  11.564  69.279  1.00  0.00    -0.091 A  
HETATM   29  F   UNL     1      -8.251  10.300  69.748  1.00  0.00    -0.155 F  
HETATM   30  C   UNL     1      -5.715  12.626  68.627  1.00  0.00    -0.059 A  
HETATM   31  C   UNL     1      -6.458  13.415  67.760  1.00  0.00    -0.162 A  
HETATM   32  C   UNL     1      -7.809  13.164  67.543  1.00  0.00    -0.173 A  
HETATM   33  F   UNL     1      -5.868  14.442  67.134  1.00  0.00     0.078 F  
ENDBRANCH  24  26
ENDBRANCH  15  21
ENDBRANCH  10  12
ENDBRANCH   8  10
ENDBRANCH   6   8
TORSDOF 5
ENDMDL
MODEL      273
REMARK 921   NORMALIZED FREE ENERGY PREDICTED BY IDOCK:   -3.03 KCAL/MOL
REMARK 922        TOTAL FREE ENERGY PREDICTED BY IDOCK:   -5.65 KCAL/MOL
REMARK 923 INTER-LIGAND FREE ENERGY PREDICTED BY IDOCK:   -6.10 KCAL/MOL
REMARK 924 INTRA-LIGAND FREE ENERGY PREDICTED BY IDOCK:    0.46 KCAL/MOL
REMARK 927      BINDING AFFINITY PREDICTED BY RF-SCORE:    0.00 PKD
ROOT
HETATM    1  O   UNL     1     -10.894   3.573  73.036  1.00  0.00    -0.166 OA 
HETATM    2  H   UNL     1     -11.702   3.858  73.446  1.00  0.00     0.000 HD 
HETATM    3  C   UNL     1     -10.176   4.671  72.498  1.00  0.00    -0.185 C  
HETATM    4  C   UNL     1      -8.879   4.213  71.840  1.00  0.00    -0.141 C  
HETATM    5  C   UNL     1      -8.576   5.340  70.877  1.00  0.00    -0.128 C  
HETATM    6  N   UNL     1      -9.880   5.806  70.437  1.00  0.00    -0.178 N  
HETATM    7  C   UNL     1     -10.927   5.355  71.349  1.00  0.00    -0.078 C  
ENDROOT
BRANCH   6   8
HETATM    8  C   UNL     1      -9.968   6.600  69.304  1.00  0.00    -0.158 C  
HETATM    9  O   UNL     1     -10.148   6.079  68.210  1.00  0.00    -0.141 OA 
BRANCH   8  10
HETATM   10  N   UNL     1      -9.797   7.942  69.545  1.00  0.00    -0.174 N  
HETATM   11  H   UNL     1      -8.887   8.340  69.311  1.00  0.00     0.000 HD 
BRANCH  10  12
HETATM   12  C   UNL     1     -10.744   8.811  70.077  1.00  0.00    -0.228 A  
HETATM   13  C   UNL     1     -11.119  10.098  69.716  1.00  0.00    -0.279 A  
HETATM   14  N   UNL     1     -10.734  10.968  68.721  1.00  0.00    -0.190 NA 
HETATM   15  C   UNL     1     -11.240  12.176  68.723  1.00  0.00    -0.264 A  
HETATM   16  C   UNL     1     -11.577   8.490  71.172  1.00  0.00    -0.281 A  
HETATM   17  C   UNL     1     -12.302  12.612  69.694  1.00  0.00    -0.045 A  
HETATM   18  N   UNL     1     -12.389   9.478  71.529  1.00  0.00    -0.355 NA 
HETATM   19  C   UNL     1     -12.686  11.722  70.613  1.00  0.00    -0.107 A  
HETATM   20  N   UNL     1     -12.104  10.468  70.646  1.00  0.00    -0.325 NA 
BRANCH  15  21
HETATM   21  N   UNL     1     -10.838  13.130  67.816  1.00  0.00    -0.240 NA 
HETATM   22  C   UNL     1      -9.801  14.275  66.023  1.00  0.00    -0.336 C  
HETATM   23  C   UNL     1     -11.574  14.360  67.601  1.00  0.00    -0.370 C  
HETATM   24  C   UNL     1      -9.626  13.083  66.998  1.00  0.00    -0.236 C  
HETATM   25  C   UNL     1     -11.268  14.680  66.151  1.00  0.00    -0.341 C  
BRANCH  24  26
HETATM   26  C   UNL     1      -9.447  11.711  66.380  1.00  0.00    -0.232 A  
HETATM   27  C   UNL     1     -10.474  10.970  65.787  1.00  0.00    -0.228 A  
HETATM   28  C   UNL     1     -10.264   9.668  65.324  1.00  0.00     0.184 A  
HETATM   29  F   UNL     1     -11.707  11.480  65.662  1.00  0.00    -0.282 F  
HETATM   30  C   UNL     1      -9.011   9.075  65.458  1.00  0.00    -0.252 A  
HETATM   31  C   UNL     1      -7.978   9.799  66.036  1.00  0.00    -0.111 A  
HETATM   32  C   UNL     1      -8.182  11.099  66.490  1.00  0.00    -0.167 A  
HETATM   33  F   UNL     1      -6.772   9.233  66.174  1.00  0.00    -0.069 F  
ENDBRANCH  24  26
ENDBRANCH  15  21
ENDBRANCH  10  12
ENDBRANCH   8  10
ENDBRANCH   6   8
TORSDOF 5
ENDMDL
MODEL      274
REMARK 921   NORMALIZED FREE ENERGY PREDICTED BY IDOCK:   -3.02 KCAL/MOL
REMARK 922        TOTAL FREE ENERGY PREDICTED BY IDOCK:   -5.63 KCAL/MOL
REMARK 923 INTER-LIGAND FREE ENERGY PREDICTED BY IDOCK:   -4.33 KCAL/MOL
REMARK 924 INTRA-LIGAND FREE ENERGY PREDICTED BY IDOCK:   -1.30 KCAL/MOL
REMARK 927      BINDING AFFINITY PREDICTED BY RF-SCORE:    0.00 PKD
ROOT
HETATM    1  O   UNL     1      -7.110  10.359  63.886  1.00  0.00    -0.285 OA 
HETATM    2  H   UNL     1      -7.955  10.681  63.595  1.00  0.00     0.000 HD 
HETATM    3  C   UNL     1      -7.164   9.921  65.233  1.00  0.00    -0.131 C  
HETATM    4  C   UNL     1      -5.808   9.404  65.700  1.00  0.00    -0.054 C  
HETATM    5  C   UNL     1      -5.899   9.538  67.205  1.00  0.00    -0.052 C  
HETATM    6  N   UNL     1      -6.711  10.724  67.419  1.00  0.00    -0.074 N  
HETATM    7  C   UNL     1      -7.456  11.067  66.210  1.00  0.00    -0.105 C  
ENDROOT
BRANCH   6   8
HETATM    8  C   UNL     1      -6.714  11.326  68.667  1.00  0.00    -0.071 C  
HETATM    9  O   UNL     1      -5.676  11.799  69.116  1.00  0.00    -0.054 OA 
BRANCH   8  10
HETATM   10  N   UNL     1      -7.931  11.288  69.306  1.00  0.00    -0.365 N  
HETATM   11  H   UNL     1      -8.043  11.894  70.118  1.00  0.00     0.000 HD 
BRANCH  10  12
HETATM   12  C   UNL     1      -9.023  10.504  68.951  1.00  0.00    -0.172 A  
HETATM   13  C   UNL     1      -9.230   9.133  69.009  1.00  0.00    -0.143 A  
HETATM   14  N   UNL     1      -8.478   8.064  69.441  1.00  0.00    -0.131 NA 
HETATM   15  C   UNL     1      -8.954   6.857  69.261  1.00  0.00    -0.137 A  
HETATM   16  C   UNL     1     -10.232  11.026  68.438  1.00  0.00    -0.185 A  
HETATM   17  C   UNL     1     -10.328   6.597  68.709  1.00  0.00    -0.214 A  
HETATM   18  N   UNL     1     -11.131  10.094  68.143  1.00  0.00    -0.258 NA 
HETATM   19  C   UNL     1     -11.048   7.663  68.348  1.00  0.00     0.285 A  
HETATM   20  N   UNL     1     -10.517   8.933  68.481  1.00  0.00    -0.202 NA 
BRANCH  15  21
HETATM   21  N   UNL     1      -8.223   5.737  69.585  1.00  0.00    -0.107 NA 
HETATM   22  C   UNL     1      -7.167   3.960  70.739  1.00  0.00    -0.037 C  
HETATM   23  C   UNL     1      -7.842   4.743  68.601  1.00  0.00    -0.077 C  
HETATM   24  C   UNL     1      -7.689   5.410  70.908  1.00  0.00    -0.090 C  
HETATM   25  C   UNL     1      -7.771   3.471  69.424  1.00  0.00    -0.051 C  
BRANCH  24  26
HETATM   26  C   UNL     1      -8.732   5.644  71.982  1.00  0.00    -0.134 A  
HETATM   27  C   UNL     1      -8.671   6.666  72.935  1.00  0.00    -0.121 A  
HETATM   28  C   UNL     1      -9.614   6.767  73.961  1.00  0.00    -0.278 A  
HETATM   29  F   UNL     1      -7.686   7.574  72.908  1.00  0.00    -0.086 F  
HETATM   30  C   UNL     1     -10.641   5.831  74.058  1.00  0.00    -0.234 A  
HETATM   31  C   UNL     1     -10.721   4.815  73.115  1.00  0.00    -0.243 A  
HETATM   32  C   UNL     1      -9.789   4.718  72.088  1.00  0.00    -0.228 A  
HETATM   33  F   UNL     1     -11.703   3.908  73.206  1.00  0.00    -0.293 F  
ENDBRANCH  24  26
ENDBRANCH  15  21
ENDBRANCH  10  12
ENDBRANCH   8  10
ENDBRANCH   6   8
TORSDOF 5
ENDMDL
MODEL      275
REMARK 921   NORMALIZED FREE ENERGY PREDICTED BY IDOCK:   -2.98 KCAL/MOL
REMARK 922        TOTAL FREE ENERGY PREDICTED BY IDOCK:   -5.58 KCAL/MOL
REMARK 923 INTER-LIGAND FREE ENERGY PREDICTED BY IDOCK:   -5.35 KCAL/MOL
REMARK 924 INTRA-LIGAND FREE ENERGY PREDICTED BY IDOCK:   -0.23 KCAL/MOL
REMARK 927      BINDING AFFINITY PREDICTED BY RF-SCORE:    0.00 PKD
ROOT
HETATM    1  O   UNL     1     -10.726   8.322  66.576  1.00  0.00    -0.284 OA 
HETATM    2  H   UNL     1     -10.866   9.090  67.117  1.00  0.00     0.000 HD 
HETATM    3  C   UNL     1     -10.328   7.208  67.358  1.00  0.00    -0.254 C  
HETATM    4  C   UNL     1     -10.103   5.976  66.489  1.00  0.00    -0.191 C  
HETATM    5  C   UNL     1      -9.179   5.132  67.340  1.00  0.00    -0.116 C  
HETATM    6  N   UNL     1      -8.351   6.093  68.048  1.00  0.00    -0.117 N  
HETATM    7  C   UNL     1      -8.963   7.419  68.024  1.00  0.00    -0.132 C  
ENDROOT
BRANCH   6   8
HETATM    8  C   UNL     1      -7.181   5.663  68.653  1.00  0.00    -0.078 C  
HETATM    9  O   UNL     1      -6.158   6.329  68.539  1.00  0.00    -0.028 OA 
BRANCH   8  10
HETATM   10  N   UNL     1      -7.298   4.462  69.311  1.00  0.00    -0.051 N  
HETATM   11  H   UNL     1      -7.255   3.618  68.740  1.00  0.00     0.000 HD 
BRANCH  10  12
HETATM   12  C   UNL     1      -7.469   4.286  70.680  1.00  0.00    -0.048 A  
HETATM   13  C   UNL     1      -8.428   4.772  71.558  1.00  0.00    -0.116 A  
HETATM   14  N   UNL     1      -9.546   5.563  71.420  1.00  0.00    -0.152 NA 
HETATM   15  C   UNL     1     -10.194   5.917  72.502  1.00  0.00    -0.187 A  
HETATM   16  C   UNL     1      -6.621   3.489  71.482  1.00  0.00    -0.022 A  
HETATM   17  C   UNL     1      -9.836   5.405  73.870  1.00  0.00    -0.177 A  
HETATM   18  N   UNL     1      -6.955   3.485  72.767  1.00  0.00    -0.042 NA 
HETATM   19  C   UNL     1      -8.775   4.598  73.956  1.00  0.00    -0.104 A  
HETATM   20  N   UNL     1      -8.055   4.278  72.819  1.00  0.00    -0.092 NA 
BRANCH  15  21
HETATM   21  N   UNL     1     -11.267   6.777  72.453  1.00  0.00    -0.255 NA 
HETATM   22  C   UNL     1     -12.648   8.687  72.233  1.00  0.00    -0.457 C  
HETATM   23  C   UNL     1     -12.632   6.313  72.308  1.00  0.00     0.053 C  
HETATM   24  C   UNL     1     -11.210   8.233  72.591  1.00  0.00    -0.340 C  
HETATM   25  C   UNL     1     -13.299   7.467  71.584  1.00  0.00    -0.414 C  
BRANCH  24  26
HETATM   26  C   UNL     1     -10.081   8.808  71.759  1.00  0.00    -0.403 A  
HETATM   27  C   UNL     1     -10.254   9.469  70.538  1.00  0.00    -0.287 A  
HETATM   28  C   UNL     1      -9.164   9.888  69.772  1.00  0.00    -0.252 A  
HETATM   29  F   UNL     1     -11.481   9.703  70.051  1.00  0.00    -0.249 F  
HETATM   30  C   UNL     1      -7.866   9.642  70.214  1.00  0.00    -0.193 A  
HETATM   31  C   UNL     1      -7.676   8.995  71.427  1.00  0.00    -0.037 A  
HETATM   32  C   UNL     1      -8.760   8.585  72.197  1.00  0.00    -0.267 A  
HETATM   33  F   UNL     1      -6.431   8.750  71.855  1.00  0.00    -0.064 F  
ENDBRANCH  24  26
ENDBRANCH  15  21
ENDBRANCH  10  12
ENDBRANCH   8  10
ENDBRANCH   6   8
TORSDOF 5
ENDMDL
MODEL      276
REMARK 921   NORMALIZED FREE ENERGY PREDICTED BY IDOCK:   -2.96 KCAL/MOL
REMARK 922        TOTAL FREE ENERGY PREDICTED BY IDOCK:   -5.56 KCAL/MOL
REMARK 923 INTER-LIGAND FREE ENERGY PREDICTED BY IDOCK:   -4.61 KCAL/MOL
REMARK 924 INTRA-LIGAND FREE ENERGY PREDICTED BY IDOCK:   -0.95 KCAL/MOL
REMARK 927      BINDING AFFINITY PREDICTED BY RF-SCORE:    0.00 PKD
ROOT
HETATM    1  O   UNL     1     -11.423   2.219  63.843  1.00  0.00    -0.526 OA 
HETATM    2  H   UNL     1     -11.556   1.794  64.683  1.00  0.00     0.000 HD 
HETATM    3  C   UNL     1     -10.109   2.741  63.736  1.00  0.00    -0.165 C  
HETATM    4  C   UNL     1      -9.895   3.423  62.389  1.00  0.00    -0.103 C  
HETATM    5  C   UNL     1      -8.745   4.366  62.671  1.00  0.00    -0.111 C  
HETATM    6  N   UNL     1      -8.941   4.782  64.049  1.00  0.00    -0.121 N  
HETATM    7  C   UNL     1      -9.843   3.867  64.743  1.00  0.00    -0.197 C  
ENDROOT
BRANCH   6   8
HETATM    8  C   UNL     1      -8.267   5.896  64.521  1.00  0.00    -0.110 C  
HETATM    9  O   UNL     1      -7.633   6.599  63.742  1.00  0.00    -0.090 OA 
BRANCH   8  10
HETATM   10  N   UNL     1      -8.359   6.074  65.881  1.00  0.00    -0.132 N  
HETATM   11  H   UNL     1      -7.908   5.373  66.469  1.00  0.00     0.000 HD 
BRANCH  10  12
HETATM   12  C   UNL     1      -9.007   7.117  66.534  1.00  0.00    -0.151 A  
HETATM   13  C   UNL     1      -9.527   7.219  67.817  1.00  0.00    -0.131 A  
HETATM   14  N   UNL     1      -9.580   6.375  68.903  1.00  0.00    -0.127 NA 
HETATM   15  C   UNL     1     -10.246   6.766  69.961  1.00  0.00    -0.191 A  
HETATM   16  C   UNL     1      -9.255   8.378  65.946  1.00  0.00    -0.155 A  
HETATM   17  C   UNL     1     -10.856   8.136  70.079  1.00  0.00    -0.233 A  
HETATM   18  N   UNL     1      -9.912   9.215  66.741  1.00  0.00    -0.231 NA 
HETATM   19  C   UNL     1     -10.739   8.945  69.023  1.00  0.00    -0.126 A  
HETATM   20  N   UNL     1     -10.089   8.505  67.884  1.00  0.00    -0.196 NA 
BRANCH  15  21
HETATM   21  N   UNL     1     -10.419   5.944  71.050  1.00  0.00    -0.226 NA 
HETATM   22  C   UNL     1     -10.070   4.531  72.917  1.00  0.00    -0.206 C  
HETATM   23  C   UNL     1     -11.667   5.876  71.786  1.00  0.00    -0.096 C  
HETATM   24  C   UNL     1      -9.433   5.006  71.586  1.00  0.00    -0.151 C  
HETATM   25  C   UNL     1     -11.208   5.514  73.184  1.00  0.00    -0.321 C  
BRANCH  24  26
HETATM   26  C   UNL     1      -8.065   5.653  71.672  1.00  0.00    -0.118 A  
HETATM   27  C   UNL     1      -6.872   5.037  71.280  1.00  0.00    -0.040 A  
HETATM   28  C   UNL     1      -5.632   5.651  71.477  1.00  0.00    -0.020 A  
HETATM   29  F   UNL     1      -6.878   3.820  70.718  1.00  0.00    -0.030 F  
HETATM   30  C   UNL     1      -5.563   6.902  72.086  1.00  0.00    -0.037 A  
HETATM   31  C   UNL     1      -6.739   7.531  72.473  1.00  0.00    -0.060 A  
HETATM   32  C   UNL     1      -7.975   6.926  72.269  1.00  0.00    -0.093 A  
HETATM   33  F   UNL     1      -6.679   8.732  73.064  1.00  0.00    -0.113 F  
ENDBRANCH  24  26
ENDBRANCH  15  21
ENDBRANCH  10  12
ENDBRANCH   8  10
ENDBRANCH   6   8
TORSDOF 5
ENDMDL
MODEL      277
REMARK 921   NORMALIZED FREE ENERGY PREDICTED BY IDOCK:   -2.87 KCAL/MOL
REMARK 922        TOTAL FREE ENERGY PREDICTED BY IDOCK:   -5.43 KCAL/MOL
REMARK 923 INTER-LIGAND FREE ENERGY PREDICTED BY IDOCK:   -4.10 KCAL/MOL
REMARK 924 INTRA-LIGAND FREE ENERGY PREDICTED BY IDOCK:   -1.34 KCAL/MOL
REMARK 927      BINDING AFFINITY PREDICTED BY RF-SCORE:    0.00 PKD
ROOT
HETATM    1  O   UNL     1     -12.409   4.253  73.670  1.00  0.00     0.017 OA 
HETATM    2  H   UNL     1     -13.077   4.906  73.499  1.00  0.00     0.000 HD 
HETATM    3  C   UNL     1     -11.142   4.856  73.871  1.00  0.00    -0.116 C  
HETATM    4  C   UNL     1     -10.069   3.808  74.146  1.00  0.00    -0.205 C  
HETATM    5  C   UNL     1      -8.794   4.527  73.763  1.00  0.00    -0.104 C  
HETATM    6  N   UNL     1      -9.175   5.385  72.654  1.00  0.00    -0.138 N  
HETATM    7  C   UNL     1     -10.624   5.562  72.611  1.00  0.00    -0.226 C  
ENDROOT
BRANCH   6   8
HETATM    8  C   UNL     1      -8.188   5.928  71.848  1.00  0.00    -0.115 C  
HETATM    9  O   UNL     1      -7.356   5.193  71.328  1.00  0.00    -0.072 OA 
BRANCH   8  10
HETATM   10  N   UNL     1      -8.234   7.298  71.750  1.00  0.00    -0.103 N  
HETATM   11  H   UNL     1      -7.694   7.828  72.434  1.00  0.00     0.000 HD 
BRANCH  10  12
HETATM   12  C   UNL     1      -8.946   8.033  70.808  1.00  0.00    -0.144 A  
HETATM   13  C   UNL     1      -9.263   7.770  69.482  1.00  0.00    -0.149 A  
HETATM   14  N   UNL     1      -9.027   6.717  68.628  1.00  0.00    -0.125 NA 
HETATM   15  C   UNL     1      -9.397   6.837  67.377  1.00  0.00    -0.130 A  
HETATM   16  C   UNL     1      -9.539   9.288  71.075  1.00  0.00    -0.259 A  
HETATM   17  C   UNL     1     -10.165   8.025  66.866  1.00  0.00    -0.385 A  
HETATM   18  N   UNL     1     -10.148   9.823  70.022  1.00  0.00    -0.243 NA 
HETATM   19  C   UNL     1     -10.419   9.004  67.738  1.00  0.00    -0.245 A  
HETATM   20  N   UNL     1      -9.971   8.901  69.042  1.00  0.00    -0.184 NA 
BRANCH  15  21
HETATM   21  N   UNL     1      -9.117   5.866  66.444  1.00  0.00    -0.145 NA 
HETATM   22  C   UNL     1      -8.238   4.652  64.611  1.00  0.00    -0.113 C  
HETATM   23  C   UNL     1      -9.430   4.467  66.657  1.00  0.00    -0.179 C  
HETATM   24  C   UNL     1      -8.534   6.086  65.120  1.00  0.00    -0.112 C  
HETATM   25  C   UNL     1      -8.362   3.761  65.845  1.00  0.00    -0.109 C  
BRANCH  24  26
HETATM   26  C   UNL     1      -7.361   7.042  65.201  1.00  0.00    -0.081 A  
HETATM   27  C   UNL     1      -6.270   6.884  66.063  1.00  0.00    -0.039 A  
HETATM   28  C   UNL     1      -5.268   7.854  66.160  1.00  0.00    -0.025 A  
HETATM   29  F   UNL     1      -6.161   5.801  66.844  1.00  0.00    -0.022 F  
HETATM   30  C   UNL     1      -5.347   9.016  65.396  1.00  0.00    -0.037 A  
HETATM   31  C   UNL     1      -6.418   9.184  64.529  1.00  0.00    -0.075 A  
HETATM   32  C   UNL     1      -7.411   8.216  64.424  1.00  0.00    -0.103 A  
HETATM   33  F   UNL     1      -6.503  10.302  63.796  1.00  0.00    -0.126 F  
ENDBRANCH  24  26
ENDBRANCH  15  21
ENDBRANCH  10  12
ENDBRANCH   8  10
ENDBRANCH   6   8
TORSDOF 5
ENDMDL
MODEL      278
REMARK 921   NORMALIZED FREE ENERGY PREDICTED BY IDOCK:   -2.86 KCAL/MOL
REMARK 922        TOTAL FREE ENERGY PREDICTED BY IDOCK:   -5.42 KCAL/MOL
REMARK 923 INTER-LIGAND FREE ENERGY PREDICTED BY IDOCK:   -3.79 KCAL/MOL
REMARK 924 INTRA-LIGAND FREE ENERGY PREDICTED BY IDOCK:   -1.64 KCAL/MOL
REMARK 927      BINDING AFFINITY PREDICTED BY RF-SCORE:    0.00 PKD
ROOT
HETATM    1  O   UNL     1     -10.971   4.386  63.542  1.00  0.00    -0.394 OA 
HETATM    2  H   UNL     1     -11.492   4.963  64.090  1.00  0.00     0.000 HD 
HETATM    3  C   UNL     1     -10.152   3.535  64.326  1.00  0.00    -0.196 C  
HETATM    4  C   UNL     1      -9.317   2.611  63.448  1.00  0.00    -0.096 C  
HETATM    5  C   UNL     1      -8.165   2.237  64.356  1.00  0.00    -0.082 C  
HETATM    6  N   UNL     1      -7.935   3.423  65.163  1.00  0.00    -0.085 N  
HETATM    7  C   UNL     1      -9.094   4.311  65.121  1.00  0.00    -0.145 C  
ENDROOT
BRANCH   6   8
HETATM    8  C   UNL     1      -6.745   3.546  65.860  1.00  0.00    -0.041 C  
HETATM    9  O   UNL     1      -5.829   4.209  65.387  1.00  0.00    -0.021 OA 
BRANCH   8  10
HETATM   10  N   UNL     1      -6.711   2.847  67.043  1.00  0.00    -0.040 N  
HETATM   11  H   UNL     1      -5.923   2.215  67.183  1.00  0.00     0.000 HD 
BRANCH  10  12
HETATM   12  C   UNL     1      -7.648   2.917  68.069  1.00  0.00    -0.056 A  
HETATM   13  C   UNL     1      -7.850   3.857  69.070  1.00  0.00    -0.056 A  
HETATM   14  N   UNL     1      -7.243   5.045  69.409  1.00  0.00    -0.055 NA 
HETATM   15  C   UNL     1      -7.635   5.653  70.502  1.00  0.00    -0.089 A  
HETATM   16  C   UNL     1      -8.664   1.955  68.272  1.00  0.00    -0.087 A  
HETATM   17  C   UNL     1      -8.790   5.168  71.333  1.00  0.00    -0.145 A  
HETATM   18  N   UNL     1      -9.431   2.207  69.327  1.00  0.00    -0.098 NA 
HETATM   19  C   UNL     1      -9.386   4.038  70.942  1.00  0.00    -0.151 A  
HETATM   20  N   UNL     1      -8.928   3.366  69.824  1.00  0.00    -0.097 NA 
BRANCH  15  21
HETATM   21  N   UNL     1      -7.018   6.796  70.954  1.00  0.00    -0.065 NA 
HETATM   22  C   UNL     1      -6.324   9.036  71.276  1.00  0.00    -0.075 C  
HETATM   23  C   UNL     1      -6.353   6.866  72.240  1.00  0.00    -0.049 C  
HETATM   24  C   UNL     1      -6.890   8.054  70.218  1.00  0.00    -0.037 C  
HETATM   25  C   UNL     1      -6.509   8.327  72.615  1.00  0.00    -0.091 C  
BRANCH  24  26
HETATM   26  C   UNL     1      -8.205   8.431  69.566  1.00  0.00    -0.118 A  
HETATM   27  C   UNL     1      -9.359   8.801  70.266  1.00  0.00    -0.174 A  
HETATM   28  C   UNL     1     -10.568   9.041  69.609  1.00  0.00    -0.230 A  
HETATM   29  F   UNL     1      -9.346   8.916  71.602  1.00  0.00    -0.279 F  
HETATM   30  C   UNL     1     -10.648   8.904  68.225  1.00  0.00    -0.203 A  
HETATM   31  C   UNL     1      -9.511   8.547  67.514  1.00  0.00    -0.149 A  
HETATM   32  C   UNL     1      -8.303   8.316  68.165  1.00  0.00    -0.129 A  
HETATM   33  F   UNL     1      -9.582   8.407  66.184  1.00  0.00    -0.253 F  
ENDBRANCH  24  26
ENDBRANCH  15  21
ENDBRANCH  10  12
ENDBRANCH   8  10
ENDBRANCH   6   8
TORSDOF 5
ENDMDL
MODEL      279
REMARK 921   NORMALIZED FREE ENERGY PREDICTED BY IDOCK:   -2.84 KCAL/MOL
REMARK 922        TOTAL FREE ENERGY PREDICTED BY IDOCK:   -5.41 KCAL/MOL
REMARK 923 INTER-LIGAND FREE ENERGY PREDICTED BY IDOCK:   -4.66 KCAL/MOL
REMARK 924 INTRA-LIGAND FREE ENERGY PREDICTED BY IDOCK:   -0.75 KCAL/MOL
REMARK 927      BINDING AFFINITY PREDICTED BY RF-SCORE:    0.00 PKD
ROOT
HETATM    1  O   UNL     1     -10.933   7.028  72.106  1.00  0.00    -0.223 OA 
HETATM    2  H   UNL     1     -10.939   7.838  72.602  1.00  0.00     0.000 HD 
HETATM    3  C   UNL     1      -9.611   6.559  71.903  1.00  0.00    -0.150 C  
HETATM    4  C   UNL     1      -9.603   5.260  71.105  1.00  0.00    -0.218 C  
HETATM    5  C   UNL     1      -8.209   5.238  70.516  1.00  0.00    -0.108 C  
HETATM    6  N   UNL     1      -7.894   6.635  70.268  1.00  0.00    -0.105 N  
HETATM    7  C   UNL     1      -8.781   7.509  71.030  1.00  0.00    -0.134 C  
ENDROOT
BRANCH   6   8
HETATM    8  C   UNL     1      -6.839   6.951  69.428  1.00  0.00    -0.054 C  
HETATM    9  O   UNL     1      -6.081   6.067  69.044  1.00  0.00    -0.028 OA 
BRANCH   8  10
HETATM   10  N   UNL     1      -6.735   8.290  69.137  1.00  0.00    -0.047 N  
HETATM   11  H   UNL     1      -6.268   8.877  69.828  1.00  0.00     0.000 HD 
BRANCH  10  12
HETATM   12  C   UNL     1      -7.204   8.923  67.990  1.00  0.00    -0.083 A  
HETATM   13  C   UNL     1      -8.150   9.923  67.812  1.00  0.00    -0.109 A  
HETATM   14  N   UNL     1      -8.941  10.661  68.663  1.00  0.00    -0.162 NA 
HETATM   15  C   UNL     1      -9.818  11.482  68.140  1.00  0.00    -0.194 A  
HETATM   16  C   UNL     1      -6.736   8.637  66.688  1.00  0.00    -0.068 A  
HETATM   17  C   UNL     1      -9.917  11.733  66.661  1.00  0.00    -0.224 A  
HETATM   18  N   UNL     1      -7.343   9.341  65.739  1.00  0.00    -0.093 NA 
HETATM   19  C   UNL     1      -9.097  11.034  65.871  1.00  0.00    -0.197 A  
HETATM   20  N   UNL     1      -8.217  10.122  66.423  1.00  0.00    -0.119 NA 
BRANCH  15  21
HETATM   21  N   UNL     1     -10.704  12.187  68.921  1.00  0.00    -0.206 NA 
HETATM   22  C   UNL     1     -11.955  13.904  69.966  1.00  0.00    -0.404 C  
HETATM   23  C   UNL     1     -11.859  11.570  69.541  1.00  0.00    -0.351 C  
HETATM   24  C   UNL     1     -10.596  13.601  69.283  1.00  0.00     0.041 C  
HETATM   25  C   UNL     1     -12.848  12.717  69.616  1.00  0.00     0.823 C  
BRANCH  24  26
HETATM   26  C   UNL     1     -10.233  14.439  68.074  1.00  0.00    -0.228 A  
HETATM   27  C   UNL     1     -11.052  14.607  66.952  1.00  0.00    -0.333 A  
HETATM   28  C   UNL     1     -10.617  15.313  65.827  1.00  0.00    -0.359 A  
HETATM   29  F   UNL     1     -12.282  14.075  66.912  1.00  0.00    -0.422 F  
HETATM   30  C   UNL     1      -9.336  15.860  65.800  1.00  0.00    -0.280 A  
HETATM   31  C   UNL     1      -8.513  15.710  66.908  1.00  0.00    -0.251 A  
HETATM   32  C   UNL     1      -8.948  15.016  68.033  1.00  0.00    -0.173 A  
HETATM   33  F   UNL     1      -7.279  16.228  66.887  1.00  0.00    -0.199 F  
ENDBRANCH  24  26
ENDBRANCH  15  21
ENDBRANCH  10  12
ENDBRANCH   8  10
ENDBRANCH   6   8
TORSDOF 5
ENDMDL
MODEL      280
REMARK 921   NORMALIZED FREE ENERGY PREDICTED BY IDOCK:   -2.82 KCAL/MOL
REMARK 922        TOTAL FREE ENERGY PREDICTED BY IDOCK:   -5.37 KCAL/MOL
REMARK 923 INTER-LIGAND FREE ENERGY PREDICTED BY IDOCK:   -3.79 KCAL/MOL
REMARK 924 INTRA-LIGAND FREE ENERGY PREDICTED BY IDOCK:   -1.58 KCAL/MOL
REMARK 927      BINDING AFFINITY PREDICTED BY RF-SCORE:    0.00 PKD
ROOT
HETATM    1  O   UNL     1     -10.402  12.535  64.068  1.00  0.00    -0.377 OA 
HETATM    2  H   UNL     1     -10.533  13.463  64.225  1.00  0.00     0.000 HD 
HETATM    3  C   UNL     1      -9.996  11.867  65.250  1.00  0.00    -0.251 C  
HETATM    4  C   UNL     1      -9.786  10.378  64.998  1.00  0.00    -0.362 C  
HETATM    5  C   UNL     1      -8.852   9.978  66.120  1.00  0.00    -0.148 C  
HETATM    6  N   UNL     1      -8.013  11.145  66.332  1.00  0.00    -0.161 N  
HETATM    7  C   UNL     1      -8.621  12.334  65.744  1.00  0.00     0.597 C  
ENDROOT
BRANCH   6   8
HETATM    8  C   UNL     1      -6.836  11.009  67.050  1.00  0.00    -0.109 C  
HETATM    9  O   UNL     1      -5.920  10.333  66.595  1.00  0.00    -0.057 OA 
BRANCH   8  10
HETATM   10  N   UNL     1      -6.843  11.649  68.267  1.00  0.00    -0.064 N  
HETATM   11  H   UNL     1      -7.062  12.645  68.263  1.00  0.00     0.000 HD 
BRANCH  10  12
HETATM   12  C   UNL     1      -6.581  11.069  69.504  1.00  0.00    -0.118 A  
HETATM   13  C   UNL     1      -7.091   9.932  70.115  1.00  0.00    -0.145 A  
HETATM   14  N   UNL     1      -7.998   8.966  69.743  1.00  0.00    -0.095 NA 
HETATM   15  C   UNL     1      -8.331   8.054  70.624  1.00  0.00    -0.123 A  
HETATM   16  C   UNL     1      -5.646  11.583  70.430  1.00  0.00    -0.144 A  
HETATM   17  C   UNL     1      -7.683   7.956  71.977  1.00  0.00    -0.106 A  
HETATM   18  N   UNL     1      -5.576  10.886  71.558  1.00  0.00    -0.336 NA 
HETATM   19  C   UNL     1      -6.770   8.882  72.282  1.00  0.00     0.069 A  
HETATM   20  N   UNL     1      -6.468   9.880  71.373  1.00  0.00    -0.318 NA 
BRANCH  15  21
HETATM   21  N   UNL     1      -9.294   7.110  70.358  1.00  0.00    -0.159 NA 
HETATM   22  C   UNL     1     -10.565   5.360  69.395  1.00  0.00    -0.295 C  
HETATM   23  C   UNL     1     -10.237   6.653  71.359  1.00  0.00    -0.199 C  
HETATM   24  C   UNL     1      -9.548   6.480  69.061  1.00  0.00    -0.132 C  
HETATM   25  C   UNL     1     -10.530   5.233  70.916  1.00  0.00    -0.285 C  
BRANCH  24  26
HETATM   26  C   UNL     1      -8.249   6.056  68.405  1.00  0.00    -0.110 A  
HETATM   27  C   UNL     1      -7.276   5.261  69.020  1.00  0.00    -0.061 A  
HETATM   28  C   UNL     1      -6.055   4.987  68.398  1.00  0.00    -0.030 A  
HETATM   29  F   UNL     1      -7.475   4.750  70.243  1.00  0.00    -0.048 F  
HETATM   30  C   UNL     1      -5.779   5.519  67.140  1.00  0.00    -0.017 A  
HETATM   31  C   UNL     1      -6.737   6.303  66.513  1.00  0.00    -0.060 A  
HETATM   32  C   UNL     1      -7.957   6.569  67.126  1.00  0.00    -0.112 A  
HETATM   33  F   UNL     1      -6.477   6.822  65.306  1.00  0.00    -0.038 F  
ENDBRANCH  24  26
ENDBRANCH  15  21
ENDBRANCH  10  12
ENDBRANCH   8  10
ENDBRANCH   6   8
TORSDOF 5
ENDMDL
MODEL      281
REMARK 921   NORMALIZED FREE ENERGY PREDICTED BY IDOCK:   -2.75 KCAL/MOL
REMARK 922        TOTAL FREE ENERGY PREDICTED BY IDOCK:   -5.28 KCAL/MOL
REMARK 923 INTER-LIGAND FREE ENERGY PREDICTED BY IDOCK:   -4.56 KCAL/MOL
REMARK 924 INTRA-LIGAND FREE ENERGY PREDICTED BY IDOCK:   -0.72 KCAL/MOL
REMARK 927      BINDING AFFINITY PREDICTED BY RF-SCORE:    0.00 PKD
ROOT
HETATM    1  O   UNL     1      -5.716   9.767  73.243  1.00  0.00    -0.309 OA 
HETATM    2  H   UNL     1      -4.992   9.764  72.627  1.00  0.00     0.000 HD 
HETATM    3  C   UNL     1      -6.406   8.529  73.229  1.00  0.00    -0.094 C  
HETATM    4  C   UNL     1      -7.568   8.534  74.217  1.00  0.00    -0.185 C  
HETATM    5  C   UNL     1      -8.475   7.453  73.671  1.00  0.00    -0.161 C  
HETATM    6  N   UNL     1      -8.311   7.529  72.230  1.00  0.00    -0.100 N  
HETATM    7  C   UNL     1      -7.094   8.257  71.885  1.00  0.00    -0.087 C  
ENDROOT
BRANCH   6   8
HETATM    8  C   UNL     1      -9.243   6.913  71.410  1.00  0.00    -0.156 C  
HETATM    9  O   UNL     1      -9.999   6.069  71.876  1.00  0.00    -0.168 OA 
BRANCH   8  10
HETATM   10  N   UNL     1      -9.184   7.310  70.095  1.00  0.00    -0.152 N  
HETATM   11  H   UNL     1      -9.033   8.304  69.920  1.00  0.00     0.000 HD 
BRANCH  10  12
HETATM   12  C   UNL     1      -9.309   6.489  68.980  1.00  0.00    -0.128 A  
HETATM   13  C   UNL     1      -8.817   6.609  67.687  1.00  0.00    -0.116 A  
HETATM   14  N   UNL     1      -8.029   7.534  67.041  1.00  0.00    -0.115 NA 
HETATM   15  C   UNL     1      -7.826   7.386  65.755  1.00  0.00    -0.108 A  
HETATM   16  C   UNL     1     -10.015   5.265  68.981  1.00  0.00    -0.189 A  
HETATM   17  C   UNL     1      -8.321   6.193  64.984  1.00  0.00    -0.112 A  
HETATM   18  N   UNL     1     -10.029   4.658  67.800  1.00  0.00    -0.128 NA 
HETATM   19  C   UNL     1      -9.040   5.291  65.659  1.00  0.00    -0.153 A  
HETATM   20  N   UNL     1      -9.305   5.484  67.002  1.00  0.00    -0.115 NA 
BRANCH  15  21
HETATM   21  N   UNL     1      -7.124   8.315  65.022  1.00  0.00    -0.074 NA 
HETATM   22  C   UNL     1      -6.362  10.314  64.008  1.00  0.00    -0.097 C  
HETATM   23  C   UNL     1      -5.776   8.077  64.547  1.00  0.00    -0.045 C  
HETATM   24  C   UNL     1      -7.625   9.616  64.576  1.00  0.00    -0.127 C  
HETATM   25  C   UNL     1      -5.188   9.474  64.503  1.00  0.00    -0.054 C  
BRANCH  24  26
HETATM   26  C   UNL     1      -8.354  10.325  65.699  1.00  0.00    -0.159 A  
HETATM   27  C   UNL     1      -9.724  10.610  65.697  1.00  0.00    -0.230 A  
HETATM   28  C   UNL     1     -10.318  11.355  66.719  1.00  0.00    -0.271 A  
HETATM   29  F   UNL     1     -10.512  10.193  64.696  1.00  0.00    -0.372 F  
HETATM   30  C   UNL     1      -9.542  11.842  67.768  1.00  0.00    -0.190 A  
HETATM   31  C   UNL     1      -8.183  11.561  67.790  1.00  0.00    -0.135 A  
HETATM   32  C   UNL     1      -7.590  10.812  66.779  1.00  0.00    -0.129 A  
HETATM   33  F   UNL     1      -7.429  12.031  68.792  1.00  0.00    -0.104 F  
ENDBRANCH  24  26
ENDBRANCH  15  21
ENDBRANCH  10  12
ENDBRANCH   8  10
ENDBRANCH   6   8
TORSDOF 5
ENDMDL
MODEL      282
REMARK 921   NORMALIZED FREE ENERGY PREDICTED BY IDOCK:   -2.65 KCAL/MOL
REMARK 922        TOTAL FREE ENERGY PREDICTED BY IDOCK:   -5.16 KCAL/MOL
REMARK 923 INTER-LIGAND FREE ENERGY PREDICTED BY IDOCK:   -3.72 KCAL/MOL
REMARK 924 INTRA-LIGAND FREE ENERGY PREDICTED BY IDOCK:   -1.43 KCAL/MOL
REMARK 927      BINDING AFFINITY PREDICTED BY RF-SCORE:    0.00 PKD
ROOT
HETATM    1  O   UNL     1      -5.833   9.731  73.664  1.00  0.00    -0.305 OA 
HETATM    2  H   UNL     1      -4.905   9.836  73.492  1.00  0.00     0.000 HD 
HETATM    3  C   UNL     1      -6.290   8.454  73.250  1.00  0.00    -0.103 C  
HETATM    4  C   UNL     1      -7.780   8.286  73.526  1.00  0.00    -0.193 C  
HETATM    5  C   UNL     1      -8.180   7.200  72.551  1.00  0.00    -0.107 C  
HETATM    6  N   UNL     1      -7.337   7.422  71.388  1.00  0.00    -0.078 N  
HETATM    7  C   UNL     1      -6.193   8.262  71.731  1.00  0.00    -0.050 C  
ENDROOT
BRANCH   6   8
HETATM    8  C   UNL     1      -7.671   6.822  70.185  1.00  0.00    -0.101 C  
HETATM    9  O   UNL     1      -8.850   6.648  69.900  1.00  0.00    -0.142 OA 
BRANCH   8  10
HETATM   10  N   UNL     1      -6.589   6.436  69.430  1.00  0.00    -0.042 N  
HETATM   11  H   UNL     1      -5.906   5.829  69.881  1.00  0.00     0.000 HD 
BRANCH  10  12
HETATM   12  C   UNL     1      -6.336   6.795  68.110  1.00  0.00    -0.037 A  
HETATM   13  C   UNL     1      -6.164   8.035  67.510  1.00  0.00    -0.052 A  
HETATM   14  N   UNL     1      -6.154   9.333  67.969  1.00  0.00    -0.049 NA 
HETATM   15  C   UNL     1      -6.054  10.301  67.092  1.00  0.00    -0.055 A  
HETATM   16  C   UNL     1      -6.180   5.864  67.059  1.00  0.00    -0.030 A  
HETATM   17  C   UNL     1      -5.837  10.051  65.625  1.00  0.00    -0.074 A  
HETATM   18  N   UNL     1      -5.971   6.429  65.875  1.00  0.00    -0.025 NA 
HETATM   19  C   UNL     1      -5.802   8.777  65.225  1.00  0.00    -0.048 A  
HETATM   20  N   UNL     1      -5.972   7.759  66.146  1.00  0.00    -0.037 NA 
BRANCH  15  21
HETATM   21  N   UNL     1      -6.126  11.623  67.464  1.00  0.00    -0.068 NA 
HETATM   22  C   UNL     1      -6.866  13.824  67.923  1.00  0.00    -0.159 C  
HETATM   23  C   UNL     1      -5.132  12.249  68.314  1.00  0.00    -0.056 C  
HETATM   24  C   UNL     1      -7.142  12.585  67.035  1.00  0.00     0.039 C  
HETATM   25  C   UNL     1      -5.933  13.324  69.023  1.00  0.00    -0.083 C  
BRANCH  24  26
HETATM   26  C   UNL     1      -8.527  11.976  67.117  1.00  0.00    -0.180 A  
HETATM   27  C   UNL     1      -9.128  11.235  66.093  1.00  0.00    -0.204 A  
HETATM   28  C   UNL     1     -10.447  10.784  66.193  1.00  0.00    -0.278 A  
HETATM   29  F   UNL     1      -8.460  10.950  64.966  1.00  0.00    -0.176 F  
HETATM   30  C   UNL     1     -11.200  11.079  67.328  1.00  0.00    -0.330 A  
HETATM   31  C   UNL     1     -10.616  11.806  68.356  1.00  0.00    -0.216 A  
HETATM   32  C   UNL     1      -9.300  12.247  68.263  1.00  0.00    -0.199 A  
HETATM   33  F   UNL     1     -11.336  12.098  69.448  1.00  0.00    -0.285 F  
ENDBRANCH  24  26
ENDBRANCH  15  21
ENDBRANCH  10  12
ENDBRANCH   8  10
ENDBRANCH   6   8
TORSDOF 5
ENDMDL
MODEL      283
REMARK 921   NORMALIZED FREE ENERGY PREDICTED BY IDOCK:   -2.65 KCAL/MOL
REMARK 922        TOTAL FREE ENERGY PREDICTED BY IDOCK:   -5.15 KCAL/MOL
REMARK 923 INTER-LIGAND FREE ENERGY PREDICTED BY IDOCK:   -3.43 KCAL/MOL
REMARK 924 INTRA-LIGAND FREE ENERGY PREDICTED BY IDOCK:   -1.73 KCAL/MOL
REMARK 927      BINDING AFFINITY PREDICTED BY RF-SCORE:    0.00 PKD
ROOT
HETATM    1  O   UNL     1      -8.810   9.396  66.635  1.00  0.00    -0.131 OA 
HETATM    2  H   UNL     1      -8.653  10.333  66.630  1.00  0.00     0.000 HD 
HETATM    3  C   UNL     1      -9.999   9.080  67.339  1.00  0.00    -0.209 C  
HETATM    4  C   UNL     1     -10.252   7.576  67.347  1.00  0.00    -0.318 C  
HETATM    5  C   UNL     1     -11.149   7.395  68.553  1.00  0.00     0.187 C  
HETATM    6  N   UNL     1     -10.696   8.398  69.501  1.00  0.00    -0.210 N  
HETATM    7  C   UNL     1      -9.906   9.426  68.830  1.00  0.00    -0.171 C  
ENDROOT
BRANCH   6   8
HETATM    8  C   UNL     1     -11.072   8.290  70.830  1.00  0.00    -0.261 C  
HETATM    9  O   UNL     1     -12.127   7.737  71.121  1.00  0.00    -0.306 OA 
BRANCH   8  10
HETATM   10  N   UNL     1     -10.196   8.878  71.711  1.00  0.00    -0.330 N  
HETATM   11  H   UNL     1     -10.530   9.700  72.214  1.00  0.00     0.000 HD 
BRANCH  10  12
HETATM   12  C   UNL     1      -8.897   8.461  71.984  1.00  0.00    -0.211 A  
HETATM   13  C   UNL     1      -8.373   7.207  72.266  1.00  0.00    -0.109 A  
HETATM   14  N   UNL     1      -8.905   5.941  72.361  1.00  0.00    -0.134 NA 
HETATM   15  C   UNL     1      -8.121   4.966  72.748  1.00  0.00    -0.101 A  
HETATM   16  C   UNL     1      -7.782   9.328  72.003  1.00  0.00     0.676 A  
HETATM   17  C   UNL     1      -6.648   5.149  72.983  1.00  0.00    -0.066 A  
HETATM   18  N   UNL     1      -6.642   8.720  72.312  1.00  0.00    -0.220 NA 
HETATM   19  C   UNL     1      -6.159   6.383  72.832  1.00  0.00    -0.054 A  
HETATM   20  N   UNL     1      -7.002   7.423  72.485  1.00  0.00    -0.066 NA 
BRANCH  15  21
HETATM   21  N   UNL     1      -8.600   3.692  72.951  1.00  0.00    -0.093 NA 
HETATM   22  C   UNL     1      -9.514   1.527  72.661  1.00  0.00    -0.118 C  
HETATM   23  C   UNL     1      -8.301   2.928  74.146  1.00  0.00    -0.069 C  
HETATM   24  C   UNL     1      -9.495   2.955  72.058  1.00  0.00    -0.127 C  
HETATM   25  C   UNL     1      -8.347   1.497  73.646  1.00  0.00    -0.046 C  
BRANCH  24  26
HETATM   26  C   UNL     1      -9.044   3.087  70.617  1.00  0.00    -0.192 A  
HETATM   27  C   UNL     1      -9.695   3.862  69.651  1.00  0.00    -0.138 A  
HETATM   28  C   UNL     1      -9.286   3.862  68.315  1.00  0.00    -0.209 A  
HETATM   29  F   UNL     1     -10.754   4.618  69.975  1.00  0.00    -0.198 F  
HETATM   30  C   UNL     1      -8.212   3.070  67.915  1.00  0.00    -0.088 A  
HETATM   31  C   UNL     1      -7.549   2.301  68.862  1.00  0.00    -0.043 A  
HETATM   32  C   UNL     1      -7.949   2.307  70.195  1.00  0.00    -0.053 A  
HETATM   33  F   UNL     1      -6.520   1.533  68.484  1.00  0.00    -0.024 F  
ENDBRANCH  24  26
ENDBRANCH  15  21
ENDBRANCH  10  12
ENDBRANCH   8  10
ENDBRANCH   6   8
TORSDOF 5
ENDMDL
MODEL      284
REMARK 921   NORMALIZED FREE ENERGY PREDICTED BY IDOCK:   -2.64 KCAL/MOL
REMARK 922        TOTAL FREE ENERGY PREDICTED BY IDOCK:   -5.14 KCAL/MOL
REMARK 923 INTER-LIGAND FREE ENERGY PREDICTED BY IDOCK:   -3.57 KCAL/MOL
REMARK 924 INTRA-LIGAND FREE ENERGY PREDICTED BY IDOCK:   -1.57 KCAL/MOL
REMARK 927      BINDING AFFINITY PREDICTED BY RF-SCORE:    0.00 PKD
ROOT
HETATM    1  O   UNL     1     -11.347   4.156  62.927  1.00  0.00    -0.088 OA 
HETATM    2  H   UNL     1     -12.062   4.681  63.267  1.00  0.00     0.000 HD 
HETATM    3  C   UNL     1     -10.353   3.941  63.915  1.00  0.00    -0.210 C  
HETATM    4  C   UNL     1      -9.205   3.099  63.368  1.00  0.00    -0.095 C  
HETATM    5  C   UNL     1      -8.060   3.456  64.291  1.00  0.00    -0.086 C  
HETATM    6  N   UNL     1      -8.282   4.852  64.628  1.00  0.00    -0.118 N  
HETATM    7  C   UNL     1      -9.659   5.242  64.339  1.00  0.00     0.605 C  
ENDROOT
BRANCH   6   8
HETATM    8  C   UNL     1      -7.246   5.588  65.180  1.00  0.00    -0.067 C  
HETATM    9  O   UNL     1      -6.486   6.211  64.448  1.00  0.00    -0.032 OA 
BRANCH   8  10
HETATM   10  N   UNL     1      -7.162   5.499  66.549  1.00  0.00    -0.076 N  
HETATM   11  H   UNL     1      -6.344   5.024  66.931  1.00  0.00     0.000 HD 
BRANCH  10  12
HETATM   12  C   UNL     1      -8.084   5.995  67.465  1.00  0.00    -0.102 A  
HETATM   13  C   UNL     1      -8.241   7.256  68.022  1.00  0.00    -0.120 A  
HETATM   14  N   UNL     1      -7.590   8.461  67.875  1.00  0.00    -0.097 NA 
HETATM   15  C   UNL     1      -7.949   9.458  68.646  1.00  0.00    -0.092 A  
HETATM   16  C   UNL     1      -9.128   5.225  68.023  1.00  0.00    -0.110 A  
HETATM   17  C   UNL     1      -9.109   9.375  69.598  1.00  0.00    -0.190 A  
HETATM   18  N   UNL     1      -9.874   5.893  68.896  1.00  0.00    -0.137 NA 
HETATM   19  C   UNL     1      -9.748   8.205  69.675  1.00  0.00    -0.170 A  
HETATM   20  N   UNL     1      -9.326   7.135  68.906  1.00  0.00    -0.140 NA 
BRANCH  15  21
HETATM   21  N   UNL     1      -7.288  10.664  68.620  1.00  0.00    -0.088 NA 
HETATM   22  C   UNL     1      -6.557  12.852  68.086  1.00  0.00    -0.093 C  
HETATM   23  C   UNL     1      -6.508  11.150  69.742  1.00  0.00    -0.137 C  
HETATM   24  C   UNL     1      -7.222  11.586  67.486  1.00  0.00    -0.111 C  
HETATM   25  C   UNL     1      -6.624  12.655  69.598  1.00  0.00     0.010 C  
BRANCH  24  26
HETATM   26  C   UNL     1      -8.589  11.762  66.855  1.00  0.00    -0.177 A  
HETATM   27  C   UNL     1      -9.708  12.273  67.522  1.00  0.00    -0.190 A  
HETATM   28  C   UNL     1     -10.965  12.317  66.913  1.00  0.00    -0.312 A  
HETATM   29  F   UNL     1      -9.614  12.721  68.781  1.00  0.00    -0.166 F  
HETATM   30  C   UNL     1     -11.128  11.835  65.616  1.00  0.00    -0.340 A  
HETATM   31  C   UNL     1     -10.027  11.332  64.938  1.00  0.00    -0.274 A  
HETATM   32  C   UNL     1      -8.772  11.296  65.538  1.00  0.00    -0.038 A  
HETATM   33  F   UNL     1     -10.178  10.861  63.693  1.00  0.00    -0.333 F  
ENDBRANCH  24  26
ENDBRANCH  15  21
ENDBRANCH  10  12
ENDBRANCH   8  10
ENDBRANCH   6   8
TORSDOF 5
ENDMDL
MODEL      285
REMARK 921   NORMALIZED FREE ENERGY PREDICTED BY IDOCK:   -2.62 KCAL/MOL
REMARK 922        TOTAL FREE ENERGY PREDICTED BY IDOCK:   -5.12 KCAL/MOL
REMARK 923 INTER-LIGAND FREE ENERGY PREDICTED BY IDOCK:   -4.54 KCAL/MOL
REMARK 924 INTRA-LIGAND FREE ENERGY PREDICTED BY IDOCK:   -0.58 KCAL/MOL
REMARK 927      BINDING AFFINITY PREDICTED BY RF-SCORE:    0.00 PKD
ROOT
HETATM    1  O   UNL     1     -11.130   3.747  73.121  1.00  0.00    -0.169 OA 
HETATM    2  H   UNL     1     -12.055   3.856  72.932  1.00  0.00     0.000 HD 
HETATM    3  C   UNL     1     -10.431   4.973  72.986  1.00  0.00    -0.202 C  
HETATM    4  C   UNL     1      -8.947   4.798  73.288  1.00  0.00    -0.113 C  
HETATM    5  C   UNL     1      -8.319   5.970  72.566  1.00  0.00    -0.116 C  
HETATM    6  N   UNL     1      -9.144   6.158  71.384  1.00  0.00    -0.143 N  
HETATM    7  C   UNL     1     -10.434   5.494  71.543  1.00  0.00    -0.235 C  
ENDROOT
BRANCH   6   8
HETATM    8  C   UNL     1      -8.660   6.923  70.336  1.00  0.00    -0.143 C  
HETATM    9  O   UNL     1      -8.186   6.372  69.349  1.00  0.00    -0.115 OA 
BRANCH   8  10
HETATM   10  N   UNL     1      -8.735   8.279  70.549  1.00  0.00    -0.136 N  
HETATM   11  H   UNL     1      -7.856   8.768  70.720  1.00  0.00     0.000 HD 
BRANCH  10  12
HETATM   12  C   UNL     1      -9.893   9.050  70.553  1.00  0.00    -0.216 A  
HETATM   13  C   UNL     1     -10.464   9.860  69.582  1.00  0.00    -0.249 A  
HETATM   14  N   UNL     1     -10.134  10.185  68.285  1.00  0.00    -0.151 NA 
HETATM   15  C   UNL     1     -10.862  11.080  67.665  1.00  0.00    -0.256 A  
HETATM   16  C   UNL     1     -10.779   9.130  71.651  1.00  0.00    -0.371 A  
HETATM   17  C   UNL     1     -12.103  11.679  68.267  1.00  0.00    -0.067 A  
HETATM   18  N   UNL     1     -11.807   9.946  71.446  1.00  0.00    -0.391 NA 
HETATM   19  C   UNL     1     -12.418  11.300  69.508  1.00  0.00    -0.061 A  
HETATM   20  N   UNL     1     -11.611  10.403  70.183  1.00  0.00    -0.289 NA 
BRANCH  15  21
HETATM   21  N   UNL     1     -10.544  11.521  66.401  1.00  0.00    -0.250 NA 
HETATM   22  C   UNL     1      -9.393  12.234  64.459  1.00  0.00     0.384 C  
HETATM   23  C   UNL     1     -11.472  11.445  65.291  1.00  0.00     0.083 C  
HETATM   24  C   UNL     1      -9.289  12.163  66.004  1.00  0.00    -0.170 C  
HETATM   25  C   UNL     1     -10.550  11.306  64.096  1.00  0.00    -0.437 C  
BRANCH  24  26
HETATM   26  C   UNL     1      -8.100  11.421  66.580  1.00  0.00    -0.155 A  
HETATM   27  C   UNL     1      -7.673  10.159  66.154  1.00  0.00    -0.113 A  
HETATM   28  C   UNL     1      -6.628   9.485  66.793  1.00  0.00    -0.068 A  
HETATM   29  F   UNL     1      -8.269   9.542  65.124  1.00  0.00    -0.116 F  
HETATM   30  C   UNL     1      -5.994  10.065  67.889  1.00  0.00    -0.038 A  
HETATM   31  C   UNL     1      -6.400  11.320  68.320  1.00  0.00    -0.049 A  
HETATM   32  C   UNL     1      -7.432  11.997  67.679  1.00  0.00    -0.132 A  
HETATM   33  F   UNL     1      -5.798  11.881  69.377  1.00  0.00    -0.056 F  
ENDBRANCH  24  26
ENDBRANCH  15  21
ENDBRANCH  10  12
ENDBRANCH   8  10
ENDBRANCH   6   8
TORSDOF 5
ENDMDL
MODEL      286
REMARK 921   NORMALIZED FREE ENERGY PREDICTED BY IDOCK:   -2.52 KCAL/MOL
REMARK 922        TOTAL FREE ENERGY PREDICTED BY IDOCK:   -4.99 KCAL/MOL
REMARK 923 INTER-LIGAND FREE ENERGY PREDICTED BY IDOCK:   -4.93 KCAL/MOL
REMARK 924 INTRA-LIGAND FREE ENERGY PREDICTED BY IDOCK:   -0.06 KCAL/MOL
REMARK 927      BINDING AFFINITY PREDICTED BY RF-SCORE:    0.00 PKD
ROOT
HETATM    1  O   UNL     1     -12.226   4.279  73.401  1.00  0.00    -0.012 OA 
HETATM    2  H   UNL     1     -13.066   4.714  73.315  1.00  0.00     0.000 HD 
HETATM    3  C   UNL     1     -11.204   5.202  73.741  1.00  0.00     0.004 C  
HETATM    4  C   UNL     1      -9.855   4.505  73.878  1.00  0.00    -0.175 C  
HETATM    5  C   UNL     1      -8.872   5.634  73.661  1.00  0.00    -0.121 C  
HETATM    6  N   UNL     1      -9.520   6.504  72.695  1.00  0.00    -0.148 N  
HETATM    7  C   UNL     1     -10.953   6.231  72.631  1.00  0.00    -0.252 C  
ENDROOT
BRANCH   6   8
HETATM    8  C   UNL     1      -8.764   7.450  72.023  1.00  0.00    -0.110 C  
HETATM    9  O   UNL     1      -7.694   7.127  71.520  1.00  0.00    -0.087 OA 
BRANCH   8  10
HETATM   10  N   UNL     1      -9.308   8.713  72.030  1.00  0.00    -0.280 N  
HETATM   11  H   UNL     1      -9.066   9.314  72.817  1.00  0.00     0.000 HD 
BRANCH  10  12
HETATM   12  C   UNL     1     -10.156   9.250  71.067  1.00  0.00    -0.303 A  
HETATM   13  C   UNL     1      -9.983   9.470  69.707  1.00  0.00    -0.213 A  
HETATM   14  N   UNL     1      -8.960   9.232  68.817  1.00  0.00    -0.132 NA 
HETATM   15  C   UNL     1      -9.096   9.662  67.586  1.00  0.00    -0.131 A  
HETATM   16  C   UNL     1     -11.472   9.689  71.336  1.00  0.00    -0.385 A  
HETATM   17  C   UNL     1     -10.361  10.298  67.081  1.00  0.00    -0.292 A  
HETATM   18  N   UNL     1     -12.092  10.191  70.274  1.00  0.00    -0.237 NA 
HETATM   19  C   UNL     1     -11.350  10.465  67.964  1.00  0.00    -0.204 A  
HETATM   20  N   UNL     1     -11.179  10.068  69.277  1.00  0.00    -0.201 NA 
BRANCH  15  21
HETATM   21  N   UNL     1      -8.084   9.541  66.663  1.00  0.00    -0.108 NA 
HETATM   22  C   UNL     1      -6.418   8.704  65.203  1.00  0.00    -0.064 C  
HETATM   23  C   UNL     1      -7.746  10.600  65.734  1.00  0.00    -0.130 C  
HETATM   24  C   UNL     1      -7.187   8.394  66.514  1.00  0.00    -0.076 C  
HETATM   25  C   UNL     1      -7.202   9.836  64.543  1.00  0.00    -0.128 C  
BRANCH  24  26
HETATM   26  C   UNL     1      -7.963   7.094  66.564  1.00  0.00    -0.112 A  
HETATM   27  C   UNL     1      -7.383   5.823  66.498  1.00  0.00    -0.079 A  
HETATM   28  C   UNL     1      -8.162   4.664  66.450  1.00  0.00    -0.107 A  
HETATM   29  F   UNL     1      -6.051   5.675  66.459  1.00  0.00    -0.025 F  
HETATM   30  C   UNL     1      -9.552   4.758  66.455  1.00  0.00    -0.181 A  
HETATM   31  C   UNL     1     -10.144   6.012  66.528  1.00  0.00    -0.137 A  
HETATM   32  C   UNL     1      -9.370   7.166  66.586  1.00  0.00    -0.207 A  
HETATM   33  F   UNL     1     -11.480   6.110  66.528  1.00  0.00    -0.294 F  
ENDBRANCH  24  26
ENDBRANCH  15  21
ENDBRANCH  10  12
ENDBRANCH   8  10
ENDBRANCH   6   8
TORSDOF 5
ENDMDL
MODEL      287
REMARK 921   NORMALIZED FREE ENERGY PREDICTED BY IDOCK:   -2.42 KCAL/MOL
REMARK 922        TOTAL FREE ENERGY PREDICTED BY IDOCK:   -4.86 KCAL/MOL
REMARK 923 INTER-LIGAND FREE ENERGY PREDICTED BY IDOCK:   -3.92 KCAL/MOL
REMARK 924 INTRA-LIGAND FREE ENERGY PREDICTED BY IDOCK:   -0.93 KCAL/MOL
REMARK 927      BINDING AFFINITY PREDICTED BY RF-SCORE:    0.00 PKD
ROOT
HETATM    1  O   UNL     1     -10.954  17.198  70.485  1.00  0.00    -0.213 OA 
HETATM    2  H   UNL     1     -11.237  16.411  70.936  1.00  0.00     0.000 HD 
HETATM    3  C   UNL     1     -10.977  17.018  69.079  1.00  0.00    -0.103 C  
HETATM    4  C   UNL     1     -10.521  18.280  68.354  1.00  0.00    -0.292 C  
HETATM    5  C   UNL     1     -10.068  17.749  67.011  1.00  0.00    -0.337 C  
HETATM    6  N   UNL     1      -9.514  16.437  67.304  1.00  0.00    -0.225 N  
HETATM    7  C   UNL     1      -9.968  15.962  68.607  1.00  0.00    -0.214 C  
ENDROOT
BRANCH   6   8
HETATM    8  C   UNL     1      -8.709  15.818  66.362  1.00  0.00    -0.337 C  
HETATM    9  O   UNL     1      -9.182  15.485  65.282  1.00  0.00    -0.025 OA 
BRANCH   8  10
HETATM   10  N   UNL     1      -7.417  15.604  66.781  1.00  0.00    -0.191 N  
HETATM   11  H   UNL     1      -6.757  16.370  66.649  1.00  0.00     0.000 HD 
BRANCH  10  12
HETATM   12  C   UNL     1      -6.923  14.444  67.368  1.00  0.00    -0.064 A  
HETATM   13  C   UNL     1      -7.566  13.338  67.907  1.00  0.00    -0.152 A  
HETATM   14  N   UNL     1      -8.884  12.964  68.042  1.00  0.00    -0.188 NA 
HETATM   15  C   UNL     1      -9.153  11.864  68.702  1.00  0.00    -0.042 A  
HETATM   16  C   UNL     1      -5.546  14.162  67.514  1.00  0.00     0.182 A  
HETATM   17  C   UNL     1      -8.082  10.942  69.216  1.00  0.00    -0.062 A  
HETATM   18  N   UNL     1      -5.301  13.010  68.127  1.00  0.00    -0.083 NA 
HETATM   19  C   UNL     1      -6.815  11.314  69.020  1.00  0.00    -0.099 A  
HETATM   20  N   UNL     1      -6.536  12.507  68.378  1.00  0.00    -0.064 NA 
BRANCH  15  21
HETATM   21  N   UNL     1     -10.446  11.472  68.956  1.00  0.00    -0.183 NA 
HETATM   22  C   UNL     1     -12.509  10.311  68.995  1.00  0.00     0.909 C  
HETATM   23  C   UNL     1     -11.204  11.967  70.087  1.00  0.00     0.325 C  
HETATM   24  C   UNL     1     -11.250  10.571  68.129  1.00  0.00    -0.293 C  
HETATM   25  C   UNL     1     -12.142  10.815  70.389  1.00  0.00    -0.443 C  
BRANCH  24  26
HETATM   26  C   UNL     1     -10.442   9.359  67.710  1.00  0.00    -0.310 A  
HETATM   27  C   UNL     1     -10.025   9.100  66.400  1.00  0.00    -0.288 A  
HETATM   28  C   UNL     1      -9.366   7.914  66.063  1.00  0.00    -0.129 A  
HETATM   29  F   UNL     1     -10.263   9.978  65.416  1.00  0.00    -0.362 F  
HETATM   30  C   UNL     1      -9.121   6.952  67.039  1.00  0.00    -0.146 A  
HETATM   31  C   UNL     1      -9.522   7.196  68.346  1.00  0.00    -0.138 A  
HETATM   32  C   UNL     1     -10.168   8.380  68.686  1.00  0.00    -0.220 A  
HETATM   33  F   UNL     1      -9.294   6.272  69.289  1.00  0.00    -0.134 F  
ENDBRANCH  24  26
ENDBRANCH  15  21
ENDBRANCH  10  12
ENDBRANCH   8  10
ENDBRANCH   6   8
TORSDOF 5
ENDMDL
MODEL      288
REMARK 921   NORMALIZED FREE ENERGY PREDICTED BY IDOCK:   -2.38 KCAL/MOL
REMARK 922        TOTAL FREE ENERGY PREDICTED BY IDOCK:   -4.81 KCAL/MOL
REMARK 923 INTER-LIGAND FREE ENERGY PREDICTED BY IDOCK:   -4.09 KCAL/MOL
REMARK 924 INTRA-LIGAND FREE ENERGY PREDICTED BY IDOCK:   -0.72 KCAL/MOL
REMARK 927      BINDING AFFINITY PREDICTED BY RF-SCORE:    0.00 PKD
ROOT
HETATM    1  O   UNL     1     -11.741  10.676  67.693  1.00  0.00    -0.636 OA 
HETATM    2  H   UNL     1     -11.505  11.294  67.011  1.00  0.00     0.000 HD 
HETATM    3  C   UNL     1     -10.832  10.741  68.780  1.00  0.00    -0.221 C  
HETATM    4  C   UNL     1     -11.210   9.750  69.875  1.00  0.00    -0.271 C  
HETATM    5  C   UNL     1      -9.903   9.549  70.609  1.00  0.00    -0.262 C  
HETATM    6  N   UNL     1      -8.883   9.650  69.579  1.00  0.00    -0.174 N  
HETATM    7  C   UNL     1      -9.416  10.302  68.386  1.00  0.00    -0.146 C  
ENDROOT
BRANCH   6   8
HETATM    8  C   UNL     1      -7.606   9.184  69.843  1.00  0.00    -0.080 C  
HETATM    9  O   UNL     1      -6.899   8.792  68.921  1.00  0.00    -0.059 OA 
BRANCH   8  10
HETATM   10  N   UNL     1      -7.274   9.180  71.177  1.00  0.00    -0.099 N  
HETATM   11  H   UNL     1      -6.874  10.038  71.555  1.00  0.00     0.000 HD 
BRANCH  10  12
HETATM   12  C   UNL     1      -7.432   8.118  72.061  1.00  0.00    -0.097 A  
HETATM   13  C   UNL     1      -7.286   6.748  71.891  1.00  0.00    -0.080 A  
HETATM   14  N   UNL     1      -6.921   5.944  70.835  1.00  0.00    -0.065 NA 
HETATM   15  C   UNL     1      -6.978   4.645  70.995  1.00  0.00    -0.037 A  
HETATM   16  C   UNL     1      -7.786   8.273  73.420  1.00  0.00    -0.127 A  
HETATM   17  C   UNL     1      -7.312   4.001  72.312  1.00  0.00    -0.058 A  
HETATM   18  N   UNL     1      -7.907   7.122  74.073  1.00  0.00    -0.107 NA 
HETATM   19  C   UNL     1      -7.611   4.816  73.327  1.00  0.00    -0.091 A  
HETATM   20  N   UNL     1      -7.612   6.186  73.136  1.00  0.00    -0.097 NA 
BRANCH  15  21
HETATM   21  N   UNL     1      -6.715   3.777  69.961  1.00  0.00    -0.033 NA 
HETATM   22  C   UNL     1      -6.779   2.576  67.921  1.00  0.00    -0.040 C  
HETATM   23  C   UNL     1      -5.435   3.116  69.803  1.00  0.00    -0.016 C  
HETATM   24  C   UNL     1      -7.663   3.356  68.928  1.00  0.00    -0.051 C  
HETATM   25  C   UNL     1      -5.342   2.926  68.301  1.00  0.00    -0.013 C  
BRANCH  24  26
HETATM   26  C   UNL     1      -8.434   4.544  68.389  1.00  0.00    -0.100 A  
HETATM   27  C   UNL     1      -8.105   5.235  67.218  1.00  0.00    -0.101 A  
HETATM   28  C   UNL     1      -8.798   6.385  66.828  1.00  0.00    -0.124 A  
HETATM   29  F   UNL     1      -7.094   4.827  66.439  1.00  0.00    -0.067 F  
HETATM   30  C   UNL     1      -9.836   6.874  67.617  1.00  0.00    -0.164 A  
HETATM   31  C   UNL     1     -10.181   6.195  68.778  1.00  0.00    -0.184 A  
HETATM   32  C   UNL     1      -9.500   5.045  69.163  1.00  0.00    -0.196 A  
HETATM   33  F   UNL     1     -11.175   6.663  69.544  1.00  0.00    -0.301 F  
ENDBRANCH  24  26
ENDBRANCH  15  21
ENDBRANCH  10  12
ENDBRANCH   8  10
ENDBRANCH   6   8
TORSDOF 5
ENDMDL
MODEL      289
REMARK 921   NORMALIZED FREE ENERGY PREDICTED BY IDOCK:   -2.36 KCAL/MOL
REMARK 922        TOTAL FREE ENERGY PREDICTED BY IDOCK:   -4.78 KCAL/MOL
REMARK 923 INTER-LIGAND FREE ENERGY PREDICTED BY IDOCK:   -3.95 KCAL/MOL
REMARK 924 INTRA-LIGAND FREE ENERGY PREDICTED BY IDOCK:   -0.83 KCAL/MOL
REMARK 927      BINDING AFFINITY PREDICTED BY RF-SCORE:    0.00 PKD
ROOT
HETATM    1  O   UNL     1      -6.575   6.607  71.938  1.00  0.00    -0.053 OA 
HETATM    2  H   UNL     1      -5.702   6.309  71.710  1.00  0.00     0.000 HD 
HETATM    3  C   UNL     1      -7.566   5.735  71.422  1.00  0.00    -0.105 C  
HETATM    4  C   UNL     1      -8.967   6.215  71.787  1.00  0.00    -0.141 C  
HETATM    5  C   UNL     1      -9.830   5.559  70.732  1.00  0.00    -0.188 C  
HETATM    6  N   UNL     1      -8.998   5.532  69.541  1.00  0.00    -0.112 N  
HETATM    7  C   UNL     1      -7.592   5.721  69.888  1.00  0.00    -0.080 C  
ENDROOT
BRANCH   6   8
HETATM    8  C   UNL     1      -9.588   5.307  68.308  1.00  0.00    -0.130 C  
HETATM    9  O   UNL     1      -9.895   4.167  67.980  1.00  0.00    -0.122 OA 
BRANCH   8  10
HETATM   10  N   UNL     1      -9.735   6.439  67.542  1.00  0.00    -0.118 N  
HETATM   11  H   UNL     1     -10.457   7.099  67.828  1.00  0.00     0.000 HD 
BRANCH  10  12
HETATM   12  C   UNL     1      -8.993   6.770  66.413  1.00  0.00    -0.149 A  
HETATM   13  C   UNL     1      -8.168   7.852  66.138  1.00  0.00    -0.117 A  
HETATM   14  N   UNL     1      -7.761   8.956  66.852  1.00  0.00    -0.097 NA 
HETATM   15  C   UNL     1      -7.030   9.856  66.240  1.00  0.00    -0.100 A  
HETATM   16  C   UNL     1      -8.938   5.974  65.247  1.00  0.00     0.082 A  
HETATM   17  C   UNL     1      -6.526   9.677  64.835  1.00  0.00    -0.092 A  
HETATM   18  N   UNL     1      -8.190   6.495  64.281  1.00  0.00    -0.047 NA 
HETATM   19  C   UNL     1      -6.901   8.568  64.193  1.00  0.00    -0.075 A  
HETATM   20  N   UNL     1      -7.725   7.651  64.820  1.00  0.00    -0.109 NA 
BRANCH  15  21
HETATM   21  N   UNL     1      -6.658  11.027  66.859  1.00  0.00    -0.102 NA 
HETATM   22  C   UNL     1      -6.590  12.963  68.219  1.00  0.00    -0.091 C  
HETATM   23  C   UNL     1      -5.288  11.498  66.878  1.00  0.00    -0.118 C  
HETATM   24  C   UNL     1      -7.557  11.973  67.521  1.00  0.00    -0.147 C  
HETATM   25  C   UNL     1      -5.224  12.281  68.175  1.00  0.00    -0.061 C  
BRANCH  24  26
HETATM   26  C   UNL     1      -8.550  11.245  68.404  1.00  0.00    -0.155 A  
HETATM   27  C   UNL     1      -8.196  10.380  69.446  1.00  0.00    -0.151 A  
HETATM   28  C   UNL     1      -9.160   9.662  70.159  1.00  0.00    -0.280 A  
HETATM   29  F   UNL     1      -6.912  10.196  69.781  1.00  0.00    -0.061 F  
HETATM   30  C   UNL     1     -10.507   9.789  69.832  1.00  0.00    -0.298 A  
HETATM   31  C   UNL     1     -10.876  10.650  68.807  1.00  0.00    -0.229 A  
HETATM   32  C   UNL     1      -9.920  11.373  68.101  1.00  0.00    -0.196 A  
HETATM   33  F   UNL     1     -12.170  10.773  68.483  1.00  0.00    -0.306 F  
ENDBRANCH  24  26
ENDBRANCH  15  21
ENDBRANCH  10  12
ENDBRANCH   8  10
ENDBRANCH   6   8
TORSDOF 5
ENDMDL
MODEL      290
REMARK 921   NORMALIZED FREE ENERGY PREDICTED BY IDOCK:   -2.23 KCAL/MOL
REMARK 922        TOTAL FREE ENERGY PREDICTED BY IDOCK:   -4.62 KCAL/MOL
REMARK 923 INTER-LIGAND FREE ENERGY PREDICTED BY IDOCK:   -3.53 KCAL/MOL
REMARK 924 INTRA-LIGAND FREE ENERGY PREDICTED BY IDOCK:   -1.09 KCAL/MOL
REMARK 927      BINDING AFFINITY PREDICTED BY RF-SCORE:    0.00 PKD
ROOT
HETATM    1  O   UNL     1      -9.545   9.470  67.652  1.00  0.00    -0.133 OA 
HETATM    2  H   UNL     1     -10.446   9.721  67.820  1.00  0.00     0.000 HD 
HETATM    3  C   UNL     1      -8.746   9.618  68.813  1.00  0.00    -0.126 C  
HETATM    4  C   UNL     1      -7.300   9.217  68.543  1.00  0.00    -0.077 C  
HETATM    5  C   UNL     1      -6.541   9.954  69.626  1.00  0.00    -0.056 C  
HETATM    6  N   UNL     1      -7.279  11.191  69.813  1.00  0.00    -0.025 N  
HETATM    7  C   UNL     1      -8.624  11.082  69.257  1.00  0.00     0.087 C  
ENDROOT
BRANCH   6   8
HETATM    8  C   UNL     1      -6.676  12.243  70.484  1.00  0.00     1.244 C  
HETATM    9  O   UNL     1      -5.882  12.011  71.389  1.00  0.00    -0.326 OA 
BRANCH   8  10
HETATM   10  N   UNL     1      -7.086  13.486  70.064  1.00  0.00    -0.137 N  
HETATM   11  H   UNL     1      -7.835  13.928  70.596  1.00  0.00     0.000 HD 
BRANCH  10  12
HETATM   12  C   UNL     1      -6.577  14.199  68.984  1.00  0.00    -0.104 A  
HETATM   13  C   UNL     1      -6.992  15.379  68.382  1.00  0.00    -0.111 A  
HETATM   14  N   UNL     1      -8.008  16.276  68.622  1.00  0.00    -0.201 NA 
HETATM   15  C   UNL     1      -8.177  17.265  67.779  1.00  0.00    -0.203 A  
HETATM   16  C   UNL     1      -5.428  13.812  68.257  1.00  0.00    -0.109 A  
HETATM   17  C   UNL     1      -7.241  17.523  66.631  1.00  0.00    -0.269 A  
HETATM   18  N   UNL     1      -5.138  14.626  67.249  1.00  0.00    -0.141 NA 
HETATM   19  C   UNL     1      -6.236  16.660  66.461  1.00  0.00     0.135 A  
HETATM   20  N   UNL     1      -6.100  15.581  67.315  1.00  0.00    -0.324 NA 
BRANCH  15  21
HETATM   21  N   UNL     1      -9.223  18.149  67.902  1.00  0.00    -0.264 NA 
HETATM   22  C   UNL     1     -11.371  19.125  68.097  1.00  0.00     0.860 C  
HETATM   23  C   UNL     1      -9.044  19.509  68.368  1.00  0.00    -0.356 C  
HETATM   24  C   UNL     1     -10.618  17.887  67.545  1.00  0.00    -0.376 C  
HETATM   25  C   UNL     1     -10.375  19.813  69.027  1.00  0.00    -0.240 C  
BRANCH  24  26
HETATM   26  C   UNL     1     -11.059  16.530  68.056  1.00  0.00    -0.275 A  
HETATM   27  C   UNL     1     -11.466  15.471  67.239  1.00  0.00    -0.102 A  
HETATM   28  C   UNL     1     -11.955  14.277  67.777  1.00  0.00    -0.384 A  
HETATM   29  F   UNL     1     -11.420  15.574  65.903  1.00  0.00    -0.254 F  
HETATM   30  C   UNL     1     -12.057  14.126  69.158  1.00  0.00    -0.362 A  
HETATM   31  C   UNL     1     -11.649  15.164  69.984  1.00  0.00    -0.294 A  
HETATM   32  C   UNL     1     -11.152  16.349  69.451  1.00  0.00    -0.300 A  
HETATM   33  F   UNL     1     -11.749  15.027  71.312  1.00  0.00    -0.307 F  
ENDBRANCH  24  26
ENDBRANCH  15  21
ENDBRANCH  10  12
ENDBRANCH   8  10
ENDBRANCH   6   8
TORSDOF 5
ENDMDL
MODEL      291
REMARK 921   NORMALIZED FREE ENERGY PREDICTED BY IDOCK:   -2.21 KCAL/MOL
REMARK 922        TOTAL FREE ENERGY PREDICTED BY IDOCK:   -4.58 KCAL/MOL
REMARK 923 INTER-LIGAND FREE ENERGY PREDICTED BY IDOCK:   -3.37 KCAL/MOL
REMARK 924 INTRA-LIGAND FREE ENERGY PREDICTED BY IDOCK:   -1.21 KCAL/MOL
REMARK 927      BINDING AFFINITY PREDICTED BY RF-SCORE:    0.00 PKD
ROOT
HETATM    1  O   UNL     1      -9.325   9.675  66.588  1.00  0.00    -0.146 OA 
HETATM    2  H   UNL     1      -9.317  10.599  66.808  1.00  0.00     0.000 HD 
HETATM    3  C   UNL     1     -10.431   9.016  67.182  1.00  0.00    -0.263 C  
HETATM    4  C   UNL     1     -10.444   7.533  66.830  1.00  0.00    -0.385 C  
HETATM    5  C   UNL     1     -11.269   6.931  67.947  1.00  0.00    -0.019 C  
HETATM    6  N   UNL     1     -10.955   7.740  69.112  1.00  0.00    -0.038 N  
HETATM    7  C   UNL     1     -10.354   9.010  68.714  1.00  0.00    -0.215 C  
ENDROOT
BRANCH   6   8
HETATM    8  C   UNL     1     -11.274   7.262  70.373  1.00  0.00    -0.276 C  
HETATM    9  O   UNL     1     -12.246   6.529  70.517  1.00  0.00    -0.325 OA 
BRANCH   8  10
HETATM   10  N   UNL     1     -10.447   7.718  71.372  1.00  0.00    -0.208 N  
HETATM   11  H   UNL     1     -10.834   8.415  72.008  1.00  0.00     0.000 HD 
BRANCH  10  12
HETATM   12  C   UNL     1      -9.134   7.320  71.599  1.00  0.00    -0.135 A  
HETATM   13  C   UNL     1      -8.358   6.327  71.018  1.00  0.00    -0.124 A  
HETATM   14  N   UNL     1      -8.569   5.405  70.017  1.00  0.00    -0.120 NA 
HETATM   15  C   UNL     1      -7.626   4.528  69.774  1.00  0.00    -0.054 A  
HETATM   16  C   UNL     1      -8.280   7.934  72.543  1.00  0.00    -0.139 A  
HETATM   17  C   UNL     1      -6.289   4.558  70.459  1.00  0.00    -0.026 A  
HETATM   18  N   UNL     1      -7.076   7.376  72.613  1.00  0.00    -0.067 NA 
HETATM   19  C   UNL     1      -6.105   5.500  71.388  1.00  0.00    -0.033 A  
HETATM   20  N   UNL     1      -7.125   6.384  71.687  1.00  0.00    -0.079 NA 
BRANCH  15  21
HETATM   21  N   UNL     1      -7.798   3.521  68.852  1.00  0.00    -0.052 NA 
HETATM   22  C   UNL     1      -7.964   2.268  66.850  1.00  0.00    -0.072 C  
HETATM   23  C   UNL     1      -7.735   2.117  69.209  1.00  0.00    -0.042 C  
HETATM   24  C   UNL     1      -8.113   3.696  67.434  1.00  0.00    -0.090 C  
HETATM   25  C   UNL     1      -7.236   1.472  67.931  1.00  0.00    -0.039 C  
BRANCH  24  26
HETATM   26  C   UNL     1      -7.250   4.781  66.821  1.00  0.00    -0.080 A  
HETATM   27  C   UNL     1      -5.868   4.894  67.010  1.00  0.00    -0.026 A  
HETATM   28  C   UNL     1      -5.146   5.976  66.498  1.00  0.00    -0.005 A  
HETATM   29  F   UNL     1      -5.191   3.973  67.710  1.00  0.00    -0.009 F  
HETATM   30  C   UNL     1      -5.802   6.979  65.790  1.00  0.00    -0.035 A  
HETATM   31  C   UNL     1      -7.172   6.879  65.587  1.00  0.00    -0.073 A  
HETATM   32  C   UNL     1      -7.892   5.798  66.087  1.00  0.00    -0.101 A  
HETATM   33  F   UNL     1      -7.811   7.843  64.912  1.00  0.00    -0.095 F  
ENDBRANCH  24  26
ENDBRANCH  15  21
ENDBRANCH  10  12
ENDBRANCH   8  10
ENDBRANCH   6   8
TORSDOF 5
ENDMDL
MODEL      292
REMARK 921   NORMALIZED FREE ENERGY PREDICTED BY IDOCK:   -1.95 KCAL/MOL
REMARK 922        TOTAL FREE ENERGY PREDICTED BY IDOCK:   -4.25 KCAL/MOL
REMARK 923 INTER-LIGAND FREE ENERGY PREDICTED BY IDOCK:   -2.55 KCAL/MOL
REMARK 924 INTRA-LIGAND FREE ENERGY PREDICTED BY IDOCK:   -1.70 KCAL/MOL
REMARK 927      BINDING AFFINITY PREDICTED BY RF-SCORE:    0.00 PKD
ROOT
HETATM    1  O   UNL     1     -11.277   7.493  69.877  1.00  0.00    -0.397 OA 
HETATM    2  H   UNL     1     -11.572   7.077  69.075  1.00  0.00     0.000 HD 
HETATM    3  C   UNL     1     -10.512   8.654  69.600  1.00  0.00    -0.220 C  
HETATM    4  C   UNL     1     -10.037   9.321  70.887  1.00  0.00    -0.373 C  
HETATM    5  C   UNL     1      -8.838  10.120  70.426  1.00  0.00     0.465 C  
HETATM    6  N   UNL     1      -8.246   9.317  69.369  1.00  0.00    -0.108 N  
HETATM    7  C   UNL     1      -9.201   8.331  68.871  1.00  0.00    -0.147 C  
ENDROOT
BRANCH   6   8
HETATM    8  C   UNL     1      -6.950   9.586  68.960  1.00  0.00    -0.058 C  
HETATM    9  O   UNL     1      -6.373   8.803  68.214  1.00  0.00    -0.053 OA 
BRANCH   8  10
HETATM   10  N   UNL     1      -6.420  10.737  69.494  1.00  0.00    -0.075 N  
HETATM   11  H   UNL     1      -6.037  10.674  70.437  1.00  0.00     0.000 HD 
BRANCH  10  12
HETATM   12  C   UNL     1      -6.357  11.980  68.872  1.00  0.00    -0.081 A  
HETATM   13  C   UNL     1      -7.350  12.822  68.392  1.00  0.00    -0.118 A  
HETATM   14  N   UNL     1      -8.726  12.768  68.365  1.00  0.00    -0.158 NA 
HETATM   15  C   UNL     1      -9.372  13.717  67.733  1.00  0.00    -0.218 A  
HETATM   16  C   UNL     1      -5.150  12.669  68.616  1.00  0.00    -0.057 A  
HETATM   17  C   UNL     1      -8.683  14.913  67.138  1.00  0.00    -0.240 A  
HETATM   18  N   UNL     1      -5.322  13.827  67.989  1.00  0.00    -0.112 NA 
HETATM   19  C   UNL     1      -7.351  14.954  67.228  1.00  0.00    -0.140 A  
HETATM   20  N   UNL     1      -6.668  13.919  67.841  1.00  0.00    -0.143 NA 
BRANCH  15  21
HETATM   21  N   UNL     1     -10.739  13.686  67.587  1.00  0.00    -0.244 NA 
HETATM   22  C   UNL     1     -12.940  13.286  66.811  1.00  0.00     1.330 C  
HETATM   23  C   UNL     1     -11.647  13.981  68.678  1.00  0.00    -0.325 C  
HETATM   24  C   UNL     1     -11.466  13.417  66.346  1.00  0.00    -0.329 C  
HETATM   25  C   UNL     1     -12.865  13.148  68.330  1.00  0.00     1.654 C  
BRANCH  24  26
HETATM   26  C   UNL     1     -10.868  12.230  65.618  1.00  0.00    -0.321 A  
HETATM   27  C   UNL     1     -10.799  10.934  66.141  1.00  0.00    -0.098 A  
HETATM   28  C   UNL     1     -10.145   9.904  65.460  1.00  0.00    -0.297 A  
HETATM   29  F   UNL     1     -11.343  10.642  67.331  1.00  0.00    -0.362 F  
HETATM   30  C   UNL     1      -9.533  10.158  64.235  1.00  0.00    -0.366 A  
HETATM   31  C   UNL     1      -9.599  11.437  63.697  1.00  0.00    -0.257 A  
HETATM   32  C   UNL     1     -10.258  12.461  64.369  1.00  0.00    -0.342 A  
HETATM   33  F   UNL     1      -9.008  11.689  62.522  1.00  0.00    -0.358 F  
ENDBRANCH  24  26
ENDBRANCH  15  21
ENDBRANCH  10  12
ENDBRANCH   8  10
ENDBRANCH   6   8
TORSDOF 5
ENDMDL
MODEL      293
REMARK 921   NORMALIZED FREE ENERGY PREDICTED BY IDOCK:   -1.70 KCAL/MOL
REMARK 922        TOTAL FREE ENERGY PREDICTED BY IDOCK:   -3.93 KCAL/MOL
REMARK 923 INTER-LIGAND FREE ENERGY PREDICTED BY IDOCK:   -3.31 KCAL/MOL
REMARK 924 INTRA-LIGAND FREE ENERGY PREDICTED BY IDOCK:   -0.61 KCAL/MOL
REMARK 927      BINDING AFFINITY PREDICTED BY RF-SCORE:    0.00 PKD
ROOT
HETATM    1  O   UNL     1      -6.556  11.021  64.361  1.00  0.00    -0.186 OA 
HETATM    2  H   UNL     1      -7.386  10.880  63.920  1.00  0.00     0.000 HD 
HETATM    3  C   UNL     1      -6.501  10.313  65.588  1.00  0.00    -0.118 C  
HETATM    4  C   UNL     1      -5.170  10.540  66.296  1.00  0.00    -0.063 C  
HETATM    5  C   UNL     1      -5.502  10.229  67.740  1.00  0.00    -0.041 C  
HETATM    6  N   UNL     1      -6.877  10.671  67.903  1.00  0.00    -0.072 N  
HETATM    7  C   UNL     1      -7.529  10.826  66.605  1.00  0.00    -0.135 C  
ENDROOT
BRANCH   6   8
HETATM    8  C   UNL     1      -7.384  10.844  69.180  1.00  0.00    -0.126 C  
HETATM    9  O   UNL     1      -6.827  11.611  69.957  1.00  0.00    -0.004 OA 
BRANCH   8  10
HETATM   10  N   UNL     1      -8.487  10.071  69.456  1.00  0.00    -0.164 N  
HETATM   11  H   UNL     1      -8.868  10.132  70.400  1.00  0.00     0.000 HD 
BRANCH  10  12
HETATM   12  C   UNL     1      -9.132   9.212  68.573  1.00  0.00    -0.132 A  
HETATM   13  C   UNL     1      -8.882   7.893  68.223  1.00  0.00    -0.129 A  
HETATM   14  N   UNL     1      -7.952   6.954  68.611  1.00  0.00    -0.118 NA 
HETATM   15  C   UNL     1      -7.941   5.799  67.994  1.00  0.00    -0.101 A  
HETATM   16  C   UNL     1     -10.276   9.570  67.824  1.00  0.00    -0.216 A  
HETATM   17  C   UNL     1      -8.966   5.417  66.963  1.00  0.00    -0.112 A  
HETATM   18  N   UNL     1     -10.711   8.603  67.025  1.00  0.00    -0.216 NA 
HETATM   19  C   UNL     1      -9.883   6.336  66.649  1.00  0.00    -0.154 A  
HETATM   20  N   UNL     1      -9.853   7.578  67.258  1.00  0.00    -0.163 NA 
BRANCH  15  21
HETATM   21  N   UNL     1      -6.988   4.845  68.264  1.00  0.00    -0.056 NA 
HETATM   22  C   UNL     1      -5.562   3.286  69.333  1.00  0.00    -0.017 C  
HETATM   23  C   UNL     1      -6.429   3.988  67.237  1.00  0.00    -0.041 C  
HETATM   24  C   UNL     1      -6.370   4.589  69.566  1.00  0.00    -0.028 C  
HETATM   25  C   UNL     1      -6.078   2.731  68.008  1.00  0.00    -0.024 C  
BRANCH  24  26
HETATM   26  C   UNL     1      -7.416   4.562  70.661  1.00  0.00    -0.053 A  
HETATM   27  C   UNL     1      -8.624   3.860  70.585  1.00  0.00    -0.071 A  
HETATM   28  C   UNL     1      -9.591   3.956  71.590  1.00  0.00    -0.232 A  
HETATM   29  F   UNL     1      -8.903   3.083  69.529  1.00  0.00    -0.096 F  
HETATM   30  C   UNL     1      -9.368   4.774  72.695  1.00  0.00    -0.150 A  
HETATM   31  C   UNL     1      -8.171   5.471  72.790  1.00  0.00    -0.109 A  
HETATM   32  C   UNL     1      -7.203   5.370  71.797  1.00  0.00    -0.085 A  
HETATM   33  F   UNL     1      -7.953   6.264  73.847  1.00  0.00    -0.099 F  
ENDBRANCH  24  26
ENDBRANCH  15  21
ENDBRANCH  10  12
ENDBRANCH   8  10
ENDBRANCH   6   8
TORSDOF 5
ENDMDL
MODEL      294
REMARK 921   NORMALIZED FREE ENERGY PREDICTED BY IDOCK:   -1.56 KCAL/MOL
REMARK 922        TOTAL FREE ENERGY PREDICTED BY IDOCK:   -3.75 KCAL/MOL
REMARK 923 INTER-LIGAND FREE ENERGY PREDICTED BY IDOCK:   -3.89 KCAL/MOL
REMARK 924 INTRA-LIGAND FREE ENERGY PREDICTED BY IDOCK:    0.14 KCAL/MOL
REMARK 927      BINDING AFFINITY PREDICTED BY RF-SCORE:    0.00 PKD
ROOT
HETATM    1  O   UNL     1     -12.266  12.875  67.251  1.00  0.00    -0.353 OA 
HETATM    2  H   UNL     1     -12.097  12.984  66.322  1.00  0.00     0.000 HD 
HETATM    3  C   UNL     1     -11.208  12.176  67.886  1.00  0.00    -0.272 C  
HETATM    4  C   UNL     1     -11.479  12.001  69.376  1.00  0.00    -0.361 C  
HETATM    5  C   UNL     1     -10.615  10.811  69.735  1.00  0.00    -0.140 C  
HETATM    6  N   UNL     1     -10.636   9.972  68.549  1.00  0.00    -0.205 N  
HETATM    7  C   UNL     1     -11.076  10.733  67.384  1.00  0.00    -0.296 C  
ENDROOT
BRANCH   6   8
HETATM    8  C   UNL     1     -10.228   8.652  68.648  1.00  0.00    -0.194 C  
HETATM    9  O   UNL     1     -11.028   7.750  68.428  1.00  0.00     0.000 OA 
BRANCH   8  10
HETATM   10  N   UNL     1      -8.919   8.496  69.038  1.00  0.00    -0.145 N  
HETATM   11  H   UNL     1      -8.366   9.346  69.144  1.00  0.00     0.000 HD 
BRANCH  10  12
HETATM   12  C   UNL     1      -8.275   7.292  69.302  1.00  0.00    -0.131 A  
HETATM   13  C   UNL     1      -7.510   6.461  68.495  1.00  0.00    -0.088 A  
HETATM   14  N   UNL     1      -7.089   6.513  67.186  1.00  0.00    -0.074 NA 
HETATM   15  C   UNL     1      -6.437   5.485  66.702  1.00  0.00    -0.050 A  
HETATM   16  C   UNL     1      -8.279   6.659  70.565  1.00  0.00    -0.118 A  
HETATM   17  C   UNL     1      -6.033   4.307  67.544  1.00  0.00    -0.024 A  
HETATM   18  N   UNL     1      -7.623   5.504  70.583  1.00  0.00    -0.087 NA 
HETATM   19  C   UNL     1      -6.417   4.316  68.823  1.00  0.00    -0.037 A  
HETATM   20  N   UNL     1      -7.160   5.374  69.314  1.00  0.00    -0.059 NA 
BRANCH  15  21
HETATM   21  N   UNL     1      -6.061   5.425  65.380  1.00  0.00    -0.025 NA 
HETATM   22  C   UNL     1      -5.946   4.954  63.062  1.00  0.00    -0.017 C  
HETATM   23  C   UNL     1      -5.140   6.374  64.787  1.00  0.00    -0.017 C  
HETATM   24  C   UNL     1      -6.470   4.404  64.414  1.00  0.00    -0.038 C  
HETATM   25  C   UNL     1      -5.589   6.413  63.339  1.00  0.00    -0.019 C  
BRANCH  24  26
HETATM   26  C   UNL     1      -7.958   4.134  64.514  1.00  0.00    -0.086 A  
HETATM   27  C   UNL     1      -8.650   3.211  63.722  1.00  0.00    -0.089 A  
HETATM   28  C   UNL     1     -10.039   3.080  63.796  1.00  0.00    -0.173 A  
HETATM   29  F   UNL     1      -8.000   2.433  62.846  1.00  0.00    -0.062 F  
HETATM   30  C   UNL     1     -10.770   3.887  64.666  1.00  0.00    -0.136 A  
HETATM   31  C   UNL     1     -10.098   4.802  65.465  1.00  0.00    -0.136 A  
HETATM   32  C   UNL     1      -8.714   4.927  65.400  1.00  0.00    -0.143 A  
HETATM   33  F   UNL     1     -10.795   5.584  66.299  1.00  0.00    -0.312 F  
ENDBRANCH  24  26
ENDBRANCH  15  21
ENDBRANCH  10  12
ENDBRANCH   8  10
ENDBRANCH   6   8
TORSDOF 5
ENDMDL
MODEL      295
REMARK 921   NORMALIZED FREE ENERGY PREDICTED BY IDOCK:   -1.54 KCAL/MOL
REMARK 922        TOTAL FREE ENERGY PREDICTED BY IDOCK:   -3.72 KCAL/MOL
REMARK 923 INTER-LIGAND FREE ENERGY PREDICTED BY IDOCK:   -3.80 KCAL/MOL
REMARK 924 INTRA-LIGAND FREE ENERGY PREDICTED BY IDOCK:    0.08 KCAL/MOL
REMARK 927      BINDING AFFINITY PREDICTED BY RF-SCORE:    0.00 PKD
ROOT
HETATM    1  O   UNL     1     -11.473   2.068  64.078  1.00  0.00    -0.340 OA 
HETATM    2  H   UNL     1     -11.621   1.893  65.000  1.00  0.00     0.000 HD 
HETATM    3  C   UNL     1     -10.104   2.329  63.818  1.00  0.00    -0.130 C  
HETATM    4  C   UNL     1      -9.867   2.611  62.339  1.00  0.00    -0.091 C  
HETATM    5  C   UNL     1      -8.573   3.395  62.351  1.00  0.00    -0.074 C  
HETATM    6  N   UNL     1      -8.624   4.167  63.581  1.00  0.00    -0.100 N  
HETATM    7  C   UNL     1      -9.613   3.612  64.500  1.00  0.00    -0.168 C  
ENDROOT
BRANCH   6   8
HETATM    8  C   UNL     1      -7.763   5.240  63.742  1.00  0.00    -0.081 C  
HETATM    9  O   UNL     1      -7.005   5.553  62.831  1.00  0.00    -0.035 OA 
BRANCH   8  10
HETATM   10  N   UNL     1      -7.834   5.837  64.978  1.00  0.00    -0.100 N  
HETATM   11  H   UNL     1      -8.306   5.314  65.715  1.00  0.00     0.000 HD 
BRANCH  10  12
HETATM   12  C   UNL     1      -7.325   7.085  65.321  1.00  0.00    -0.077 A  
HETATM   13  C   UNL     1      -7.649   7.962  66.346  1.00  0.00    -0.091 A  
HETATM   14  N   UNL     1      -8.546   7.931  67.391  1.00  0.00    -0.125 NA 
HETATM   15  C   UNL     1      -8.663   8.999  68.141  1.00  0.00    -0.130 A  
HETATM   16  C   UNL     1      -6.275   7.724  64.623  1.00  0.00    -0.045 A  
HETATM   17  C   UNL     1      -7.784  10.208  67.979  1.00  0.00    -0.089 A  
HETATM   18  N   UNL     1      -5.967   8.922  65.107  1.00  0.00    -0.058 NA 
HETATM   19  C   UNL     1      -6.891  10.180  66.985  1.00  0.00    -0.083 A  
HETATM   20  N   UNL     1      -6.814   9.076  66.156  1.00  0.00    -0.080 NA 
BRANCH  15  21
HETATM   21  N   UNL     1      -9.598   9.077  69.146  1.00  0.00    -0.159 NA 
HETATM   22  C   UNL     1     -10.727   8.950  71.224  1.00  0.00    -0.357 C  
HETATM   23  C   UNL     1     -10.765   9.933  69.062  1.00  0.00    -0.222 C  
HETATM   24  C   UNL     1      -9.596   8.299  70.386  1.00  0.00    -0.168 C  
HETATM   25  C   UNL     1     -11.037  10.267  70.516  1.00  0.00    -0.381 C  
BRANCH  24  26
HETATM   26  C   UNL     1      -8.212   8.275  71.003  1.00  0.00    -0.123 A  
HETATM   27  C   UNL     1      -7.717   7.234  71.795  1.00  0.00    -0.087 A  
HETATM   28  C   UNL     1      -6.467   7.317  72.417  1.00  0.00    -0.051 A  
HETATM   29  F   UNL     1      -8.438   6.123  72.002  1.00  0.00    -0.118 F  
HETATM   30  C   UNL     1      -5.688   8.461  72.263  1.00  0.00    -0.049 A  
HETATM   31  C   UNL     1      -6.161   9.500  71.474  1.00  0.00    -0.000 A  
HETATM   32  C   UNL     1      -7.399   9.416  70.846  1.00  0.00    -0.095 A  
HETATM   33  F   UNL     1      -5.419  10.606  71.327  1.00  0.00    -0.093 F  
ENDBRANCH  24  26
ENDBRANCH  15  21
ENDBRANCH  10  12
ENDBRANCH   8  10
ENDBRANCH   6   8
TORSDOF 5
ENDMDL
MODEL      296
REMARK 921   NORMALIZED FREE ENERGY PREDICTED BY IDOCK:   -0.91 KCAL/MOL
REMARK 922        TOTAL FREE ENERGY PREDICTED BY IDOCK:   -2.90 KCAL/MOL
REMARK 923 INTER-LIGAND FREE ENERGY PREDICTED BY IDOCK:   -2.41 KCAL/MOL
REMARK 924 INTRA-LIGAND FREE ENERGY PREDICTED BY IDOCK:   -0.49 KCAL/MOL
REMARK 927      BINDING AFFINITY PREDICTED BY RF-SCORE:    0.00 PKD
ROOT
HETATM    1  O   UNL     1      -7.632  10.272  67.757  1.00  0.00    -0.089 OA 
HETATM    2  H   UNL     1      -8.425  10.591  67.343  1.00  0.00     0.000 HD 
HETATM    3  C   UNL     1      -7.568  10.665  69.117  1.00  0.00    -0.131 C  
HETATM    4  C   UNL     1      -6.294  10.154  69.780  1.00  0.00    -0.064 C  
HETATM    5  C   UNL     1      -6.123  11.100  70.949  1.00  0.00     0.195 C  
HETATM    6  N   UNL     1      -6.627  12.374  70.467  1.00  0.00     0.653 N  
HETATM    7  C   UNL     1      -7.461  12.186  69.282  1.00  0.00     0.222 C  
ENDROOT
BRANCH   6   8
HETATM    8  C   UNL     1      -6.312  13.532  71.159  1.00  0.00     0.684 C  
HETATM    9  O   UNL     1      -5.820  13.456  72.279  1.00  0.00    -0.344 OA 
BRANCH   8  10
HETATM   10  N   UNL     1      -6.639  14.690  70.494  1.00  0.00    -0.279 N  
HETATM   11  H   UNL     1      -7.186  15.379  71.010  1.00  0.00     0.000 HD 
BRANCH  10  12
HETATM   12  C   UNL     1      -6.295  15.014  69.186  1.00  0.00    -0.108 A  
HETATM   13  C   UNL     1      -6.768  15.994  68.325  1.00  0.00    -0.117 A  
HETATM   14  N   UNL     1      -7.705  16.997  68.432  1.00  0.00    -0.219 NA 
HETATM   15  C   UNL     1      -7.981  17.706  67.365  1.00  0.00    -0.206 A  
HETATM   16  C   UNL     1      -5.293  14.344  68.448  1.00  0.00    -0.108 A  
HETATM   17  C   UNL     1      -7.241  17.543  66.066  1.00  0.00    -0.298 A  
HETATM   18  N   UNL     1      -5.150  14.801  67.209  1.00  0.00    -0.163 NA 
HETATM   19  C   UNL     1      -6.304  16.593  66.017  1.00  0.00     1.045 A  
HETATM   20  N   UNL     1      -6.059  15.805  67.127  1.00  0.00    -0.320 NA 
BRANCH  15  21
HETATM   21  N   UNL     1      -8.967  18.665  67.369  1.00  0.00    -0.271 NA 
HETATM   22  C   UNL     1     -11.010  19.834  67.121  1.00  0.00    -0.351 C  
HETATM   23  C   UNL     1      -8.888  19.860  68.186  1.00  0.00    -0.248 C  
HETATM   24  C   UNL     1     -10.176  18.661  66.545  1.00  0.00    -0.412 C  
HETATM   25  C   UNL     1     -10.347  20.176  68.453  1.00  0.00    -0.401 C  
BRANCH  24  26
HETATM   26  C   UNL     1     -10.824  17.291  66.546  1.00  0.00     0.059 A  
HETATM   27  C   UNL     1     -11.306  16.645  67.690  1.00  0.00     0.114 A  
HETATM   28  C   UNL     1     -11.803  15.340  67.638  1.00  0.00    -0.076 A  
HETATM   29  F   UNL     1     -11.288  17.254  68.884  1.00  0.00    -0.094 F  
HETATM   30  C   UNL     1     -11.816  14.647  66.430  1.00  0.00    -0.304 A  
HETATM   31  C   UNL     1     -11.349  15.276  65.284  1.00  0.00    -0.282 A  
HETATM   32  C   UNL     1     -10.863  16.579  65.331  1.00  0.00    -0.216 A  
HETATM   33  F   UNL     1     -11.354  14.614  64.121  1.00  0.00    -0.282 F  
ENDBRANCH  24  26
ENDBRANCH  15  21
ENDBRANCH  10  12
ENDBRANCH   8  10
ENDBRANCH   6   8
TORSDOF 5
ENDMDL
MODEL      297
REMARK 921   NORMALIZED FREE ENERGY PREDICTED BY IDOCK:   -0.78 KCAL/MOL
REMARK 922        TOTAL FREE ENERGY PREDICTED BY IDOCK:   -2.73 KCAL/MOL
REMARK 923 INTER-LIGAND FREE ENERGY PREDICTED BY IDOCK:   -3.22 KCAL/MOL
REMARK 924 INTRA-LIGAND FREE ENERGY PREDICTED BY IDOCK:    0.49 KCAL/MOL
REMARK 927      BINDING AFFINITY PREDICTED BY RF-SCORE:    0.00 PKD
ROOT
HETATM    1  O   UNL     1     -10.336   5.919  65.026  1.00  0.00     0.765 OA 
HETATM    2  H   UNL     1     -10.794   6.564  65.552  1.00  0.00     0.000 HD 
HETATM    3  C   UNL     1      -9.512   5.092  65.830  1.00  0.00    -0.157 C  
HETATM    4  C   UNL     1      -8.777   4.058  64.985  1.00  0.00    -0.117 C  
HETATM    5  C   UNL     1      -7.591   3.698  65.853  1.00  0.00    -0.081 C  
HETATM    6  N   UNL     1      -7.256   4.931  66.546  1.00  0.00    -0.075 N  
HETATM    7  C   UNL     1      -8.372   5.872  66.496  1.00  0.00    -0.112 C  
ENDROOT
BRANCH   6   8
HETATM    8  C   UNL     1      -6.021   5.047  67.161  1.00  0.00    -0.026 C  
HETATM    9  O   UNL     1      -5.231   5.905  66.782  1.00  0.00    -0.005 OA 
BRANCH   8  10
HETATM   10  N   UNL     1      -5.796   4.119  68.149  1.00  0.00    -0.025 N  
HETATM   11  H   UNL     1      -4.829   3.981  68.442  1.00  0.00     0.000 HD 
BRANCH  10  12
HETATM   12  C   UNL     1      -6.761   3.348  68.790  1.00  0.00    -0.045 A  
HETATM   13  C   UNL     1      -7.584   3.616  69.874  1.00  0.00    -0.048 A  
HETATM   14  N   UNL     1      -7.775   4.710  70.688  1.00  0.00    -0.053 NA 
HETATM   15  C   UNL     1      -8.590   4.590  71.708  1.00  0.00    -0.116 A  
HETATM   16  C   UNL     1      -7.110   2.037  68.392  1.00  0.00    -0.043 A  
HETATM   17  C   UNL     1      -9.405   3.352  71.957  1.00  0.00    -0.186 A  
HETATM   18  N   UNL     1      -8.036   1.477  69.162  1.00  0.00    -0.045 NA 
HETATM   19  C   UNL     1      -9.229   2.330  71.115  1.00  0.00    -0.117 A  
HETATM   20  N   UNL     1      -8.321   2.438  70.077  1.00  0.00    -0.041 NA 
BRANCH  15  21
HETATM   21  N   UNL     1      -8.765   5.608  72.616  1.00  0.00    -0.124 NA 
HETATM   22  C   UNL     1      -9.106   7.715  73.640  1.00  0.00    -0.327 C  
HETATM   23  C   UNL     1      -9.149   5.367  73.993  1.00  0.00    -0.118 C  
HETATM   24  C   UNL     1      -8.547   7.033  72.365  1.00  0.00    -0.120 C  
HETATM   25  C   UNL     1      -9.910   6.629  74.351  1.00  0.00    -0.349 C  
BRANCH  24  26
HETATM   26  C   UNL     1      -9.159   7.446  71.041  1.00  0.00    -0.152 A  
HETATM   27  C   UNL     1      -8.920   8.669  70.406  1.00  0.00    -0.158 A  
HETATM   28  C   UNL     1      -9.593   9.029  69.235  1.00  0.00    -0.162 A  
HETATM   29  F   UNL     1      -8.048   9.550  70.915  1.00  0.00    -0.193 F  
HETATM   30  C   UNL     1     -10.535   8.167  68.679  1.00  0.00    -0.195 A  
HETATM   31  C   UNL     1     -10.778   6.945  69.292  1.00  0.00    -0.238 A  
HETATM   32  C   UNL     1     -10.102   6.580  70.452  1.00  0.00    -0.213 A  
HETATM   33  F   UNL     1     -11.686   6.113  68.766  1.00  0.00    -0.346 F  
ENDBRANCH  24  26
ENDBRANCH  15  21
ENDBRANCH  10  12
ENDBRANCH   8  10
ENDBRANCH   6   8
TORSDOF 5
ENDMDL
MODEL      298
REMARK 921   NORMALIZED FREE ENERGY PREDICTED BY IDOCK:   -0.36 KCAL/MOL
REMARK 922        TOTAL FREE ENERGY PREDICTED BY IDOCK:   -2.19 KCAL/MOL
REMARK 923 INTER-LIGAND FREE ENERGY PREDICTED BY IDOCK:   -2.49 KCAL/MOL
REMARK 924 INTRA-LIGAND FREE ENERGY PREDICTED BY IDOCK:    0.30 KCAL/MOL
REMARK 927      BINDING AFFINITY PREDICTED BY RF-SCORE:    0.00 PKD
ROOT
HETATM    1  O   UNL     1      -8.201   3.816  73.764  1.00  0.00    -0.085 OA 
HETATM    2  H   UNL     1      -8.942   3.280  74.021  1.00  0.00     0.000 HD 
HETATM    3  C   UNL     1      -8.383   4.351  72.464  1.00  0.00    -0.109 C  
HETATM    4  C   UNL     1      -7.194   5.212  72.051  1.00  0.00    -0.085 C  
HETATM    5  C   UNL     1      -7.281   5.198  70.540  1.00  0.00    -0.061 C  
HETATM    6  N   UNL     1      -7.797   3.880  70.214  1.00  0.00    -0.048 N  
HETATM    7  C   UNL     1      -8.417   3.263  71.383  1.00  0.00    -0.068 C  
ENDROOT
BRANCH   6   8
HETATM    8  C   UNL     1      -7.683   3.411  68.915  1.00  0.00    -0.051 C  
HETATM    9  O   UNL     1      -6.698   2.757  68.589  1.00  0.00    -0.036 OA 
BRANCH   8  10
HETATM   10  N   UNL     1      -8.719   3.782  68.091  1.00  0.00    -0.097 N  
HETATM   11  H   UNL     1      -9.014   3.103  67.390  1.00  0.00     0.000 HD 
BRANCH  10  12
HETATM   12  C   UNL     1      -9.402   4.993  68.121  1.00  0.00    -0.126 A  
HETATM   13  C   UNL     1      -9.144   6.211  67.509  1.00  0.00    -0.109 A  
HETATM   14  N   UNL     1      -8.168   6.670  66.654  1.00  0.00    -0.110 NA 
HETATM   15  C   UNL     1      -8.171   7.940  66.333  1.00  0.00    -0.121 A  
HETATM   16  C   UNL     1     -10.602   5.200  68.838  1.00  0.00     0.023 A  
HETATM   17  C   UNL     1      -9.255   8.887  66.767  1.00  0.00    -0.201 A  
HETATM   18  N   UNL     1     -11.068   6.440  68.748  1.00  0.00    -0.334 NA 
HETATM   19  C   UNL     1     -10.213   8.392  67.556  1.00  0.00    -0.243 A  
HETATM   20  N   UNL     1     -10.171   7.065  67.944  1.00  0.00    -0.172 NA 
BRANCH  15  21
HETATM   21  N   UNL     1      -7.179   8.491  65.555  1.00  0.00    -0.082 NA 
HETATM   22  C   UNL     1      -5.978   9.721  63.927  1.00  0.00    -0.112 C  
HETATM   23  C   UNL     1      -5.791   8.526  65.971  1.00  0.00    -0.047 C  
HETATM   24  C   UNL     1      -7.349   9.058  64.216  1.00  0.00    -0.103 C  
HETATM   25  C   UNL     1      -5.268   9.769  65.278  1.00  0.00    -0.046 C  
BRANCH  24  26
HETATM   26  C   UNL     1      -8.570   9.954  64.162  1.00  0.00    -0.201 A  
HETATM   27  C   UNL     1      -9.618   9.809  63.246  1.00  0.00     0.272 A  
HETATM   28  C   UNL     1     -10.668  10.729  63.185  1.00  0.00     0.354 A  
HETATM   29  F   UNL     1      -9.637   8.788  62.378  1.00  0.00     0.235 F  
HETATM   30  C   UNL     1     -10.684  11.827  64.041  1.00  0.00    -0.434 A  
HETATM   31  C   UNL     1      -9.656  11.981  64.962  1.00  0.00    -0.046 A  
HETATM   32  C   UNL     1      -8.615  11.062  65.032  1.00  0.00     0.021 A  
HETATM   33  F   UNL     1      -9.662  13.038  65.785  1.00  0.00    -0.266 F  
ENDBRANCH  24  26
ENDBRANCH  15  21
ENDBRANCH  10  12
ENDBRANCH   8  10
ENDBRANCH   6   8
TORSDOF 5
ENDMDL
MODEL      299
REMARK 921   NORMALIZED FREE ENERGY PREDICTED BY IDOCK:   -0.06 KCAL/MOL
REMARK 922        TOTAL FREE ENERGY PREDICTED BY IDOCK:   -1.81 KCAL/MOL
REMARK 923 INTER-LIGAND FREE ENERGY PREDICTED BY IDOCK:   -2.83 KCAL/MOL
REMARK 924 INTRA-LIGAND FREE ENERGY PREDICTED BY IDOCK:    1.02 KCAL/MOL
REMARK 927      BINDING AFFINITY PREDICTED BY RF-SCORE:    0.00 PKD
ROOT
HETATM    1  O   UNL     1     -11.191   7.532  69.834  1.00  0.00    -0.397 OA 
HETATM    2  H   UNL     1     -11.723   7.192  69.124  1.00  0.00     0.000 HD 
HETATM    3  C   UNL     1     -10.570   8.753  69.472  1.00  0.00    -0.219 C  
HETATM    4  C   UNL     1      -9.717   9.298  70.612  1.00  0.00    -0.334 C  
HETATM    5  C   UNL     1      -8.739  10.203  69.895  1.00  0.00    -0.061 C  
HETATM    6  N   UNL     1      -8.507   9.552  68.616  1.00  0.00    -0.117 N  
HETATM    7  C   UNL     1      -9.559   8.580  68.332  1.00  0.00    -0.147 C  
ENDROOT
BRANCH   6   8
HETATM    8  C   UNL     1      -7.415   9.930  67.853  1.00  0.00    -0.089 C  
HETATM    9  O   UNL     1      -6.733  10.888  68.201  1.00  0.00    -0.062 OA 
BRANCH   8  10
HETATM   10  N   UNL     1      -7.234   9.176  66.718  1.00  0.00    -0.085 N  
HETATM   11  H   UNL     1      -7.541   9.588  65.837  1.00  0.00     0.000 HD 
BRANCH  10  12
HETATM   12  C   UNL     1      -6.673   7.905  66.655  1.00  0.00    -0.063 A  
HETATM   13  C   UNL     1      -7.024   6.711  67.271  1.00  0.00    -0.078 A  
HETATM   14  N   UNL     1      -8.032   6.332  68.128  1.00  0.00    -0.107 NA 
HETATM   15  C   UNL     1      -8.015   5.112  68.605  1.00  0.00    -0.086 A  
HETATM   16  C   UNL     1      -5.550   7.580  65.861  1.00  0.00    -0.032 A  
HETATM   17  C   UNL     1      -7.011   4.081  68.170  1.00  0.00    -0.051 A  
HETATM   18  N   UNL     1      -5.168   6.313  65.974  1.00  0.00    -0.013 NA 
HETATM   19  C   UNL     1      -6.078   4.474  67.298  1.00  0.00    -0.027 A  
HETATM   20  N   UNL     1      -6.062   5.781  66.845  1.00  0.00    -0.025 NA 
BRANCH  15  21
HETATM   21  N   UNL     1      -8.937   4.686  69.534  1.00  0.00    -0.087 NA 
HETATM   22  C   UNL     1      -9.990   3.870  71.490  1.00  0.00    -0.209 C  
HETATM   23  C   UNL     1     -10.348   5.002  69.434  1.00  0.00    -0.144 C  
HETATM   24  C   UNL     1      -8.661   3.835  70.692  1.00  0.00    -0.073 C  
HETATM   25  C   UNL     1     -10.786   5.024  70.886  1.00  0.00    -0.053 C  
BRANCH  24  26
HETATM   26  C   UNL     1      -7.413   4.298  71.415  1.00  0.00    -0.059 A  
HETATM   27  C   UNL     1      -6.506   3.445  72.053  1.00  0.00    -0.015 A  
HETATM   28  C   UNL     1      -5.426   3.943  72.788  1.00  0.00     0.000 A  
HETATM   29  F   UNL     1      -6.656   2.114  71.997  1.00  0.00    -0.014 F  
HETATM   30  C   UNL     1      -5.239   5.318  72.907  1.00  0.00    -0.017 A  
HETATM   31  C   UNL     1      -6.126   6.178  72.274  1.00  0.00    -0.042 A  
HETATM   32  C   UNL     1      -7.196   5.685  71.534  1.00  0.00    -0.081 A  
HETATM   33  F   UNL     1      -5.955   7.501  72.389  1.00  0.00    -0.040 F  
ENDBRANCH  24  26
ENDBRANCH  15  21
ENDBRANCH  10  12
ENDBRANCH   8  10
ENDBRANCH   6   8
TORSDOF 5
ENDMDL
MODEL      300
REMARK 921   NORMALIZED FREE ENERGY PREDICTED BY IDOCK:    0.05 KCAL/MOL
REMARK 922        TOTAL FREE ENERGY PREDICTED BY IDOCK:   -1.67 KCAL/MOL
REMARK 923 INTER-LIGAND FREE ENERGY PREDICTED BY IDOCK:   -1.40 KCAL/MOL
REMARK 924 INTRA-LIGAND FREE ENERGY PREDICTED BY IDOCK:   -0.27 KCAL/MOL
REMARK 927      BINDING AFFINITY PREDICTED BY RF-SCORE:    0.00 PKD
ROOT
HETATM    1  O   UNL     1     -10.439   7.520  71.174  1.00  0.00    -0.206 OA 
HETATM    2  H   UNL     1     -10.645   8.077  71.915  1.00  0.00     0.000 HD 
HETATM    3  C   UNL     1      -9.061   7.592  70.846  1.00  0.00    -0.153 C  
HETATM    4  C   UNL     1      -8.730   6.699  69.656  1.00  0.00    -0.140 C  
HETATM    5  C   UNL     1      -7.458   7.317  69.118  1.00  0.00    -0.093 C  
HETATM    6  N   UNL     1      -7.610   8.741  69.363  1.00  0.00    -0.086 N  
HETATM    7  C   UNL     1      -8.647   8.987  70.361  1.00  0.00    -0.193 C  
ENDROOT
BRANCH   6   8
HETATM    8  C   UNL     1      -6.786   9.634  68.698  1.00  0.00    -0.056 C  
HETATM    9  O   UNL     1      -6.006   9.222  67.847  1.00  0.00    -0.048 OA 
BRANCH   8  10
HETATM   10  N   UNL     1      -6.918  10.938  69.114  1.00  0.00    -0.085 N  
HETATM   11  H   UNL     1      -7.252  11.085  70.066  1.00  0.00     0.000 HD 
BRANCH  10  12
HETATM   12  C   UNL     1      -6.640  12.074  68.363  1.00  0.00    -0.058 A  
HETATM   13  C   UNL     1      -7.465  13.070  67.859  1.00  0.00    -0.137 A  
HETATM   14  N   UNL     1      -8.817  13.322  67.923  1.00  0.00    -0.182 NA 
HETATM   15  C   UNL     1      -9.294  14.331  67.236  1.00  0.00    -0.213 A  
HETATM   16  C   UNL     1      -5.338  12.452  67.961  1.00  0.00    -0.073 A  
HETATM   17  C   UNL     1      -8.415  15.286  66.476  1.00  0.00    -0.202 A  
HETATM   18  N   UNL     1      -5.309  13.559  67.228  1.00  0.00    -0.303 NA 
HETATM   19  C   UNL     1      -7.103  15.037  66.480  1.00  0.00     1.648 A  
HETATM   20  N   UNL     1      -6.611  13.934  67.154  1.00  0.00    -0.057 NA 
BRANCH  15  21
HETATM   21  N   UNL     1     -10.643  14.592  67.178  1.00  0.00    -0.279 NA 
HETATM   22  C   UNL     1     -12.766  15.638  67.239  1.00  0.00     2.288 C  
HETATM   23  C   UNL     1     -11.578  13.722  66.493  1.00  0.00    -0.365 C  
HETATM   24  C   UNL     1     -11.330  15.714  67.819  1.00  0.00    -0.261 C  
HETATM   25  C   UNL     1     -12.664  14.683  66.052  1.00  0.00     0.152 C  
BRANCH  24  26
HETATM   26  C   UNL     1     -10.570  17.007  67.601  1.00  0.00    -0.333 A  
HETATM   27  C   UNL     1     -10.447  17.654  66.367  1.00  0.00    -0.286 A  
HETATM   28  C   UNL     1      -9.649  18.791  66.213  1.00  0.00    -0.316 A  
HETATM   29  F   UNL     1     -11.079  17.190  65.280  1.00  0.00    -0.309 F  
HETATM   30  C   UNL     1      -8.943  19.299  67.301  1.00  0.00    -0.338 A  
HETATM   31  C   UNL     1      -9.060  18.673  68.535  1.00  0.00    -0.329 A  
HETATM   32  C   UNL     1      -9.861  17.547  68.693  1.00  0.00    -0.338 A  
HETATM   33  F   UNL     1      -8.379  19.152  69.584  1.00  0.00    -0.052 F  
ENDBRANCH  24  26
ENDBRANCH  15  21
ENDBRANCH  10  12
ENDBRANCH   8  10
ENDBRANCH   6   8
TORSDOF 5
ENDMDL
MODEL      301
REMARK 921   NORMALIZED FREE ENERGY PREDICTED BY IDOCK:    1.88 KCAL/MOL
REMARK 922        TOTAL FREE ENERGY PREDICTED BY IDOCK:    0.69 KCAL/MOL
REMARK 923 INTER-LIGAND FREE ENERGY PREDICTED BY IDOCK:    0.20 KCAL/MOL
REMARK 924 INTRA-LIGAND FREE ENERGY PREDICTED BY IDOCK:    0.49 KCAL/MOL
REMARK 927      BINDING AFFINITY PREDICTED BY RF-SCORE:    0.00 PKD
ROOT
HETATM    1  O   UNL     1      -7.113  20.835  68.767  1.00  0.00     0.075 OA 
HETATM    2  H   UNL     1      -7.499  21.443  68.148  1.00  0.00     0.000 HD 
HETATM    3  C   UNL     1      -7.018  19.532  68.216  1.00  0.00    -0.293 C  
HETATM    4  C   UNL     1      -6.399  18.556  69.210  1.00  0.00    -0.272 C  
HETATM    5  C   UNL     1      -6.895  17.215  68.715  1.00  0.00    -0.209 C  
HETATM    6  N   UNL     1      -8.220  17.487  68.184  1.00  0.00    -0.242 N  
HETATM    7  C   UNL     1      -8.394  18.915  67.932  1.00  0.00    -0.281 C  
ENDROOT
BRANCH   6   8
HETATM    8  C   UNL     1      -9.088  16.432  67.958  1.00  0.00    -0.200 C  
HETATM    9  O   UNL     1      -8.669  15.397  67.452  1.00  0.00    -0.164 OA 
BRANCH   8  10
HETATM   10  N   UNL     1     -10.392  16.691  68.310  1.00  0.00    -0.287 N  
HETATM   11  H   UNL     1     -10.985  17.117  67.598  1.00  0.00     0.000 HD 
BRANCH  10  12
HETATM   12  C   UNL     1     -10.980  16.429  69.543  1.00  0.00    -0.317 A  
HETATM   13  C   UNL     1     -11.523  15.269  70.076  1.00  0.00    -0.292 A  
HETATM   14  N   UNL     1     -11.664  13.977  69.623  1.00  0.00    -0.292 NA 
HETATM   15  C   UNL     1     -12.328  13.127  70.367  1.00  0.00    -0.279 A  
HETATM   16  C   UNL     1     -11.122  17.393  70.566  1.00  0.00     1.348 A  
HETATM   17  C   UNL     1     -12.840  13.472  71.738  1.00  0.00    -0.399 A  
HETATM   18  N   UNL     1     -11.737  16.932  71.649  1.00  0.00     0.277 NA 
HETATM   19  C   UNL     1     -12.639  14.722  72.163  1.00  0.00    -0.334 A  
HETATM   20  N   UNL     1     -11.994  15.634  71.348  1.00  0.00    -0.374 NA 
BRANCH  15  21
HETATM   21  N   UNL     1     -12.587  11.844  69.943  1.00  0.00     0.050 NA 
HETATM   22  C   UNL     1     -12.592   9.790  68.765  1.00  0.00     2.926 C  
HETATM   23  C   UNL     1     -13.227  10.857  70.790  1.00  0.00     0.032 C  
HETATM   24  C   UNL     1     -12.321  11.308  68.607  1.00  0.00     0.277 C  
HETATM   25  C   UNL     1     -12.651   9.553  70.272  1.00  0.00     0.308 C  
BRANCH  24  26
HETATM   26  C   UNL     1     -10.942  11.714  68.130  1.00  0.00    -0.275 A  
HETATM   27  C   UNL     1      -9.785  11.659  68.915  1.00  0.00    -0.013 A  
HETATM   28  C   UNL     1      -8.559  12.142  68.447  1.00  0.00    -0.141 A  
HETATM   29  F   UNL     1      -9.820  11.158  70.157  1.00  0.00     0.364 F  
HETATM   30  C   UNL     1      -8.472  12.703  67.175  1.00  0.00    -0.186 A  
HETATM   31  C   UNL     1      -9.608  12.758  66.380  1.00  0.00    -0.254 A  
HETATM   32  C   UNL     1     -10.827  12.270  66.839  1.00  0.00    -0.290 A  
HETATM   33  F   UNL     1      -9.532  13.302  65.158  1.00  0.00    -0.061 F  
ENDBRANCH  24  26
ENDBRANCH  15  21
ENDBRANCH  10  12
ENDBRANCH   8  10
ENDBRANCH   6   8
TORSDOF 5
ENDMDL
MODEL      302
REMARK 921   NORMALIZED FREE ENERGY PREDICTED BY IDOCK:    1.90 KCAL/MOL
REMARK 922        TOTAL FREE ENERGY PREDICTED BY IDOCK:    0.73 KCAL/MOL
REMARK 923 INTER-LIGAND FREE ENERGY PREDICTED BY IDOCK:   -2.85 KCAL/MOL
REMARK 924 INTRA-LIGAND FREE ENERGY PREDICTED BY IDOCK:    3.58 KCAL/MOL
REMARK 927      BINDING AFFINITY PREDICTED BY RF-SCORE:    0.00 PKD
ROOT
HETATM    1  O   UNL     1     -11.639   5.636  65.751  1.00  0.00    -0.238 OA 
HETATM    2  H   UNL     1     -12.114   6.259  66.288  1.00  0.00     0.000 HD 
HETATM    3  C   UNL     1     -10.412   5.266  66.358  1.00  0.00    -0.292 C  
HETATM    4  C   UNL     1      -9.649   4.267  65.496  1.00  0.00    -0.188 C  
HETATM    5  C   UNL     1      -8.222   4.441  65.967  1.00  0.00    -0.109 C  
HETATM    6  N   UNL     1      -8.114   5.851  66.299  1.00  0.00    -0.102 N  
HETATM    7  C   UNL     1      -9.437   6.445  66.471  1.00  0.00    -0.156 C  
ENDROOT
BRANCH   6   8
HETATM    8  C   UNL     1      -6.858   6.419  66.442  1.00  0.00    -0.061 C  
HETATM    9  O   UNL     1      -6.674   7.581  66.099  1.00  0.00    -0.051 OA 
BRANCH   8  10
HETATM   10  N   UNL     1      -5.908   5.560  66.941  1.00  0.00    -0.017 N  
HETATM   11  H   UNL     1      -4.945   5.896  66.952  1.00  0.00     0.000 HD 
BRANCH  10  12
HETATM   12  C   UNL     1      -6.132   4.278  67.431  1.00  0.00    -0.031 A  
HETATM   13  C   UNL     1      -6.363   3.811  68.717  1.00  0.00    -0.033 A  
HETATM   14  N   UNL     1      -6.480   4.411  69.951  1.00  0.00    -0.031 NA 
HETATM   15  C   UNL     1      -6.610   3.643  71.005  1.00  0.00    -0.031 A  
HETATM   16  C   UNL     1      -6.182   3.124  66.618  1.00  0.00    -0.025 A  
HETATM   17  C   UNL     1      -6.750   2.149  70.911  1.00  0.00    -0.031 A  
HETATM   18  N   UNL     1      -6.381   2.001  67.300  1.00  0.00    -0.024 NA 
HETATM   19  C   UNL     1      -6.683   1.609  69.691  1.00  0.00    -0.029 A  
HETATM   20  N   UNL     1      -6.482   2.418  68.587  1.00  0.00    -0.029 NA 
BRANCH  15  21
HETATM   21  N   UNL     1      -6.644   4.162  72.278  1.00  0.00    -0.021 NA 
HETATM   22  C   UNL     1      -6.886   5.590  74.151  1.00  0.00    -0.081 C  
HETATM   23  C   UNL     1      -6.690   3.326  73.461  1.00  0.00    -0.034 C  
HETATM   24  C   UNL     1      -6.585   5.582  72.631  1.00  0.00    -0.066 C  
HETATM   25  C   UNL     1      -7.433   4.197  74.454  1.00  0.00    -0.075 C  
BRANCH  24  26
HETATM   26  C   UNL     1      -7.506   6.395  71.744  1.00  0.00    -0.093 A  
HETATM   27  C   UNL     1      -7.530   7.793  71.699  1.00  0.00    -0.075 A  
HETATM   28  C   UNL     1      -8.472   8.484  70.932  1.00  0.00    -0.176 A  
HETATM   29  F   UNL     1      -6.657   8.520  72.410  1.00  0.00    -0.077 F  
HETATM   30  C   UNL     1      -9.424   7.781  70.198  1.00  0.00    -0.160 A  
HETATM   31  C   UNL     1      -9.410   6.393  70.225  1.00  0.00    -0.158 A  
HETATM   32  C   UNL     1      -8.467   5.703  70.980  1.00  0.00    -0.122 A  
HETATM   33  F   UNL     1     -10.326   5.711  69.526  1.00  0.00    -0.236 F  
ENDBRANCH  24  26
ENDBRANCH  15  21
ENDBRANCH  10  12
ENDBRANCH   8  10
ENDBRANCH   6   8
TORSDOF 5
ENDMDL
MODEL      303
REMARK 921   NORMALIZED FREE ENERGY PREDICTED BY IDOCK:    4.64 KCAL/MOL
REMARK 922        TOTAL FREE ENERGY PREDICTED BY IDOCK:    4.26 KCAL/MOL
REMARK 923 INTER-LIGAND FREE ENERGY PREDICTED BY IDOCK:    5.62 KCAL/MOL
REMARK 924 INTRA-LIGAND FREE ENERGY PREDICTED BY IDOCK:   -1.35 KCAL/MOL
REMARK 927      BINDING AFFINITY PREDICTED BY RF-SCORE:    0.00 PKD
ROOT
HETATM    1  O   UNL     1     -11.254  17.524  68.344  1.00  0.00    -0.129 OA 
HETATM    2  H   UNL     1     -10.489  18.075  68.231  1.00  0.00     0.000 HD 
HETATM    3  C   UNL     1     -10.952  16.164  68.083  1.00  0.00    -0.341 C  
HETATM    4  C   UNL     1     -12.181  15.281  68.264  1.00  0.00     0.146 C  
HETATM    5  C   UNL     1     -11.846  14.066  67.426  1.00  0.00    -0.409 C  
HETATM    6  N   UNL     1     -11.074  14.590  66.312  1.00  0.00    -0.327 N  
HETATM    7  C   UNL     1     -10.562  15.923  66.619  1.00  0.00    -0.305 C  
ENDROOT
BRANCH   6   8
HETATM    8  C   UNL     1     -10.894  13.805  65.185  1.00  0.00    -0.345 C  
HETATM    9  O   UNL     1     -11.473  14.095  64.144  1.00  0.00    -0.304 OA 
BRANCH   8  10
HETATM   10  N   UNL     1     -10.077  12.718  65.382  1.00  0.00    -0.352 N  
HETATM   11  H   UNL     1      -9.084  12.906  65.515  1.00  0.00     0.000 HD 
BRANCH  10  12
HETATM   12  C   UNL     1     -10.474  11.385  65.420  1.00  0.00    -0.280 A  
HETATM   13  C   UNL     1      -9.833  10.246  65.886  1.00  0.00    -0.237 A  
HETATM   14  N   UNL     1      -8.619  10.004  66.487  1.00  0.00    -0.125 NA 
HETATM   15  C   UNL     1      -8.278   8.760  66.721  1.00  0.00    -0.108 A  
HETATM   16  C   UNL     1     -11.729  10.926  64.958  1.00  0.00     1.166 A  
HETATM   17  C   UNL     1      -9.201   7.602  66.464  1.00  0.00    -0.220 A  
HETATM   18  N   UNL     1     -11.885   9.611  65.065  1.00  0.00     6.381 NA 
HETATM   19  C   UNL     1     -10.392   7.882  65.926  1.00  0.00     1.274 A  
HETATM   20  N   UNL     1     -10.722   9.190  65.623  1.00  0.00     1.277 NA 
BRANCH  15  21
HETATM   21  N   UNL     1      -7.046   8.433  67.237  1.00  0.00    -0.078 NA 
HETATM   22  C   UNL     1      -5.222   8.005  68.684  1.00  0.00    -0.027 C  
HETATM   23  C   UNL     1      -6.061   7.679  66.487  1.00  0.00    -0.044 C  
HETATM   24  C   UNL     1      -6.530   8.825  68.549  1.00  0.00    -0.055 C  
HETATM   25  C   UNL     1      -5.296   6.955  67.578  1.00  0.00    -0.012 C  
BRANCH  24  26
HETATM   26  C   UNL     1      -7.581   8.623  69.622  1.00  0.00    -0.080 A  
HETATM   27  C   UNL     1      -8.323   9.655  70.207  1.00  0.00    -0.186 A  
HETATM   28  C   UNL     1      -9.207   9.414  71.262  1.00  0.00    -0.010 A  
HETATM   29  F   UNL     1      -8.193  10.921  69.786  1.00  0.00    -0.055 F  
HETATM   30  C   UNL     1      -9.358   8.123  71.763  1.00  0.00    -0.241 A  
HETATM   31  C   UNL     1      -8.636   7.086  71.188  1.00  0.00    -0.133 A  
HETATM   32  C   UNL     1      -7.763   7.322  70.131  1.00  0.00    -0.091 A  
HETATM   33  F   UNL     1      -8.772   5.843  71.668  1.00  0.00    -0.131 F  
ENDBRANCH  24  26
ENDBRANCH  15  21
ENDBRANCH  10  12
ENDBRANCH   8  10
ENDBRANCH   6   8
TORSDOF 5
ENDMDL
MODEL      304
REMARK 921   NORMALIZED FREE ENERGY PREDICTED BY IDOCK:    5.27 KCAL/MOL
REMARK 922        TOTAL FREE ENERGY PREDICTED BY IDOCK:    5.08 KCAL/MOL
REMARK 923 INTER-LIGAND FREE ENERGY PREDICTED BY IDOCK:    5.11 KCAL/MOL
REMARK 924 INTRA-LIGAND FREE ENERGY PREDICTED BY IDOCK:   -0.03 KCAL/MOL
REMARK 927      BINDING AFFINITY PREDICTED BY RF-SCORE:    0.00 PKD
ROOT
HETATM    1  O   UNL     1     -13.700  13.907  63.521  1.00  0.00     2.582 OA 
HETATM    2  H   UNL     1     -14.440  13.509  63.077  1.00  0.00     0.000 HD 
HETATM    3  C   UNL     1     -12.494  13.223  63.222  1.00  0.00    -0.121 C  
HETATM    4  C   UNL     1     -11.307  13.861  63.936  1.00  0.00     0.033 C  
HETATM    5  C   UNL     1     -10.299  12.733  63.980  1.00  0.00    -0.368 C  
HETATM    6  N   UNL     1     -11.101  11.530  64.127  1.00  0.00    -0.359 N  
HETATM    7  C   UNL     1     -12.490  11.785  63.756  1.00  0.00    -0.327 C  
ENDROOT
BRANCH   6   8
HETATM    8  C   UNL     1     -10.490  10.355  64.535  1.00  0.00     0.076 C  
HETATM    9  O   UNL     1      -9.823   9.707  63.736  1.00  0.00     0.270 OA 
BRANCH   8  10
HETATM   10  N   UNL     1     -10.744  10.015  65.842  1.00  0.00     0.081 N  
HETATM   11  H   UNL     1     -11.144   9.092  66.009  1.00  0.00     0.000 HD 
BRANCH  10  12
HETATM   12  C   UNL     1     -10.510  10.808  66.961  1.00  0.00    -0.247 A  
HETATM   13  C   UNL     1      -9.616  10.673  68.015  1.00  0.00    -0.157 A  
HETATM   14  N   UNL     1      -8.642   9.756  68.338  1.00  0.00    -0.118 NA 
HETATM   15  C   UNL     1      -8.029   9.882  69.489  1.00  0.00    -0.148 A  
HETATM   16  C   UNL     1     -11.199  12.013  67.228  1.00  0.00    -0.311 A  
HETATM   17  C   UNL     1      -8.263  11.043  70.414  1.00  0.00     2.254 A  
HETATM   18  N   UNL     1     -10.833  12.593  68.366  1.00  0.00    -0.235 NA 
HETATM   19  C   UNL     1      -9.180  11.940  70.041  1.00  0.00     2.931 A  
HETATM   20  N   UNL     1      -9.871  11.770  68.855  1.00  0.00    -0.075 NA 
BRANCH  15  21
HETATM   21  N   UNL     1      -7.108   8.956  69.921  1.00  0.00    -0.052 NA 
HETATM   22  C   UNL     1      -5.491   7.230  70.033  1.00  0.00    -0.023 C  
HETATM   23  C   UNL     1      -6.471   9.037  71.221  1.00  0.00    -0.085 C  
HETATM   24  C   UNL     1      -6.681   7.760  69.193  1.00  0.00    -0.048 C  
HETATM   25  C   UNL     1      -5.130   8.375  70.976  1.00  0.00    -0.025 C  
BRANCH  24  26
HETATM   26  C   UNL     1      -6.404   8.086  67.739  1.00  0.00    -0.052 A  
HETATM   27  C   UNL     1      -5.725   9.228  67.300  1.00  0.00    -0.041 A  
HETATM   28  C   UNL     1      -5.588   9.520  65.940  1.00  0.00    -0.045 A  
HETATM   29  F   UNL     1      -5.197  10.094  68.175  1.00  0.00    -0.036 F  
HETATM   30  C   UNL     1      -6.145   8.672  64.986  1.00  0.00    -0.060 A  
HETATM   31  C   UNL     1      -6.816   7.531  65.404  1.00  0.00    -0.048 A  
HETATM   32  C   UNL     1      -6.944   7.232  66.757  1.00  0.00    -0.074 A  
HETATM   33  F   UNL     1      -7.359   6.714  64.492  1.00  0.00    -0.065 F  
ENDBRANCH  24  26
ENDBRANCH  15  21
ENDBRANCH  10  12
ENDBRANCH   8  10
ENDBRANCH   6   8
TORSDOF 5
ENDMDL
MODEL      305
REMARK 921   NORMALIZED FREE ENERGY PREDICTED BY IDOCK:    6.35 KCAL/MOL
REMARK 922        TOTAL FREE ENERGY PREDICTED BY IDOCK:    6.47 KCAL/MOL
REMARK 923 INTER-LIGAND FREE ENERGY PREDICTED BY IDOCK:    4.52 KCAL/MOL
REMARK 924 INTRA-LIGAND FREE ENERGY PREDICTED BY IDOCK:    1.95 KCAL/MOL
REMARK 927      BINDING AFFINITY PREDICTED BY RF-SCORE:    0.00 PKD
ROOT
HETATM    1  O   UNL     1      -7.926  12.841  65.282  1.00  0.00     2.170 OA 
HETATM    2  H   UNL     1      -7.535  13.574  64.820  1.00  0.00     0.000 HD 
HETATM    3  C   UNL     1      -9.215  12.543  64.773  1.00  0.00     0.699 C  
HETATM    4  C   UNL     1      -9.843  11.369  65.515  1.00  0.00    -0.271 C  
HETATM    5  C   UNL     1     -11.322  11.570  65.269  1.00  0.00    -0.081 C  
HETATM    6  N   UNL     1     -11.495  13.012  65.231  1.00  0.00    -0.301 N  
HETATM    7  C   UNL     1     -10.216  13.681  65.013  1.00  0.00    -0.334 C  
ENDROOT
BRANCH   6   8
HETATM    8  C   UNL     1     -12.768  13.544  65.359  1.00  0.00    -0.442 C  
HETATM    9  O   UNL     1     -13.741  12.877  65.030  1.00  0.00     0.084 OA 
BRANCH   8  10
HETATM   10  N   UNL     1     -12.791  14.837  65.827  1.00  0.00    -0.024 N  
HETATM   11  H   UNL     1     -13.407  15.491  65.344  1.00  0.00     0.000 HD 
BRANCH  10  12
HETATM   12  C   UNL     1     -12.057  15.339  66.897  1.00  0.00     0.418 A  
HETATM   13  C   UNL     1     -12.071  15.029  68.250  1.00  0.00    -0.075 A  
HETATM   14  N   UNL     1     -12.768  14.128  69.023  1.00  0.00     0.330 NA 
HETATM   15  C   UNL     1     -12.600  14.163  70.322  1.00  0.00    -0.306 A  
HETATM   16  C   UNL     1     -11.064  16.336  66.769  1.00  0.00     0.081 A  
HETATM   17  C   UNL     1     -11.598  15.065  70.988  1.00  0.00    -0.367 A  
HETATM   18  N   UNL     1     -10.509  16.684  67.924  1.00  0.00    -0.310 NA 
HETATM   19  C   UNL     1     -10.904  15.889  70.199  1.00  0.00    -0.353 A  
HETATM   20  N   UNL     1     -11.131  15.893  68.834  1.00  0.00    -0.294 NA 
BRANCH  15  21
HETATM   21  N   UNL     1     -13.326  13.357  71.167  1.00  0.00    -0.108 NA 
HETATM   22  C   UNL     1     -14.335  11.503  72.240  1.00  0.00     1.258 C  
HETATM   23  C   UNL     1     -13.785  13.802  72.467  1.00  0.00    -0.561 C  
HETATM   24  C   UNL     1     -13.780  11.995  70.879  1.00  0.00     1.661 C  
HETATM   25  C   UNL     1     -13.824  12.513  73.265  1.00  0.00     3.168 C  
BRANCH  24  26
HETATM   26  C   UNL     1     -12.667  11.178  70.255  1.00  0.00    -0.213 A  
HETATM   27  C   UNL     1     -12.213  11.332  68.940  1.00  0.00    -0.093 A  
HETATM   28  C   UNL     1     -11.250  10.479  68.394  1.00  0.00    -0.339 A  
HETATM   29  F   UNL     1     -12.706  12.296  68.150  1.00  0.00     0.315 F  
HETATM   30  C   UNL     1     -10.726   9.439  69.158  1.00  0.00    -0.216 A  
HETATM   31  C   UNL     1     -11.159   9.277  70.467  1.00  0.00    -0.265 A  
HETATM   32  C   UNL     1     -12.110  10.131  71.017  1.00  0.00    -0.476 A  
HETATM   33  F   UNL     1     -10.664   8.276  71.206  1.00  0.00    -0.234 F  
ENDBRANCH  24  26
ENDBRANCH  15  21
ENDBRANCH  10  12
ENDBRANCH   8  10
ENDBRANCH   6   8
TORSDOF 5
ENDMDL
MODEL      306
REMARK 921   NORMALIZED FREE ENERGY PREDICTED BY IDOCK:    6.36 KCAL/MOL
REMARK 922        TOTAL FREE ENERGY PREDICTED BY IDOCK:    6.49 KCAL/MOL
REMARK 923 INTER-LIGAND FREE ENERGY PREDICTED BY IDOCK:    3.74 KCAL/MOL
REMARK 924 INTRA-LIGAND FREE ENERGY PREDICTED BY IDOCK:    2.75 KCAL/MOL
REMARK 927      BINDING AFFINITY PREDICTED BY RF-SCORE:    0.00 PKD
ROOT
HETATM    1  O   UNL     1      -9.258  11.711  65.267  1.00  0.00    -0.380 OA 
HETATM    2  H   UNL     1      -9.572  12.243  65.988  1.00  0.00     0.000 HD 
HETATM    3  C   UNL     1      -9.628  10.352  65.433  1.00  0.00    -0.246 C  
HETATM    4  C   UNL     1      -9.123   9.498  64.276  1.00  0.00    -0.220 C  
HETATM    5  C   UNL     1      -9.087   8.109  64.877  1.00  0.00     0.496 C  
HETATM    6  N   UNL     1      -8.732   8.321  66.270  1.00  0.00    -0.143 N  
HETATM    7  C   UNL     1      -8.961   9.710  66.657  1.00  0.00    -0.146 C  
ENDROOT
BRANCH   6   8
HETATM    8  C   UNL     1      -8.285   7.249  67.025  1.00  0.00    -0.117 C  
HETATM    9  O   UNL     1      -8.545   6.105  66.670  1.00  0.00    -0.113 OA 
BRANCH   8  10
HETATM   10  N   UNL     1      -7.600   7.609  68.162  1.00  0.00    -0.111 N  
HETATM   11  H   UNL     1      -7.568   8.604  68.384  1.00  0.00     0.000 HD 
BRANCH  10  12
HETATM   12  C   UNL     1      -6.948   6.748  69.038  1.00  0.00    -0.082 A  
HETATM   13  C   UNL     1      -7.432   5.861  69.989  1.00  0.00    -0.079 A  
HETATM   14  N   UNL     1      -8.691   5.487  70.402  1.00  0.00    -0.129 NA 
HETATM   15  C   UNL     1      -8.792   4.668  71.420  1.00  0.00    -0.123 A  
HETATM   16  C   UNL     1      -5.543   6.606  69.099  1.00  0.00    -0.017 A  
HETATM   17  C   UNL     1      -7.598   4.034  72.077  1.00  0.00    -0.066 A  
HETATM   18  N   UNL     1      -5.136   5.748  70.027  1.00  0.00    -0.004 NA 
HETATM   19  C   UNL     1      -6.394   4.383  71.614  1.00  0.00    -0.018 A  
HETATM   20  N   UNL     1      -6.290   5.298  70.582  1.00  0.00    -0.023 NA 
BRANCH  15  21
HETATM   21  N   UNL     1     -10.014   4.318  71.946  1.00  0.00    -0.182 NA 
HETATM   22  C   UNL     1     -12.171   4.357  72.921  1.00  0.00     0.503 C  
HETATM   23  C   UNL     1     -10.621   3.022  71.714  1.00  0.00     0.618 C  
HETATM   24  C   UNL     1     -10.837   5.141  72.834  1.00  0.00    -0.268 C  
HETATM   25  C   UNL     1     -12.104   3.332  71.791  1.00  0.00     5.291 C  
BRANCH  24  26
HETATM   26  C   UNL     1     -10.910   6.568  72.329  1.00  0.00    -0.262 A  
HETATM   27  C   UNL     1     -12.020   7.406  72.483  1.00  0.00    -0.132 A  
HETATM   28  C   UNL     1     -12.061   8.679  71.907  1.00  0.00    -0.422 A  
HETATM   29  F   UNL     1     -13.095   7.004  73.175  1.00  0.00     0.998 F  
HETATM   30  C   UNL     1     -10.986   9.136  71.150  1.00  0.00    -0.390 A  
HETATM   31  C   UNL     1      -9.873   8.320  70.994  1.00  0.00    -0.187 A  
HETATM   32  C   UNL     1      -9.825   7.057  71.574  1.00  0.00    -0.176 A  
HETATM   33  F   UNL     1      -8.838   8.752  70.262  1.00  0.00    -0.129 F  
ENDBRANCH  24  26
ENDBRANCH  15  21
ENDBRANCH  10  12
ENDBRANCH   8  10
ENDBRANCH   6   8
TORSDOF 5
ENDMDL
MODEL      307
REMARK 921   NORMALIZED FREE ENERGY PREDICTED BY IDOCK:    6.67 KCAL/MOL
REMARK 922        TOTAL FREE ENERGY PREDICTED BY IDOCK:    6.89 KCAL/MOL
REMARK 923 INTER-LIGAND FREE ENERGY PREDICTED BY IDOCK:    7.26 KCAL/MOL
REMARK 924 INTRA-LIGAND FREE ENERGY PREDICTED BY IDOCK:   -0.36 KCAL/MOL
REMARK 927      BINDING AFFINITY PREDICTED BY RF-SCORE:    0.00 PKD
ROOT
HETATM    1  O   UNL     1      -7.644  10.273  67.751  1.00  0.00    -0.089 OA 
HETATM    2  H   UNL     1      -8.545  10.464  67.517  1.00  0.00     0.000 HD 
HETATM    3  C   UNL     1      -7.338  10.753  69.049  1.00  0.00    -0.109 C  
HETATM    4  C   UNL     1      -5.892  10.448  69.424  1.00  0.00    -0.038 C  
HETATM    5  C   UNL     1      -5.600  11.476  70.494  1.00  0.00    -0.149 C  
HETATM    6  N   UNL     1      -6.367  12.645  70.099  1.00  0.00    -0.022 N  
HETATM    7  C   UNL     1      -7.406  12.282  69.140  1.00  0.00     0.091 C  
ENDROOT
BRANCH   6   8
HETATM    8  C   UNL     1      -6.070  13.873  70.667  1.00  0.00    -0.131 C  
HETATM    9  O   UNL     1      -5.145  13.965  71.466  1.00  0.00    -0.125 OA 
BRANCH   8  10
HETATM   10  N   UNL     1      -6.910  14.890  70.280  1.00  0.00    -0.220 N  
HETATM   11  H   UNL     1      -7.885  14.818  70.572  1.00  0.00     0.000 HD 
BRANCH  10  12
HETATM   12  C   UNL     1      -6.561  16.006  69.528  1.00  0.00    -0.201 A  
HETATM   13  C   UNL     1      -7.332  16.916  68.816  1.00  0.00    -0.227 A  
HETATM   14  N   UNL     1      -8.683  17.074  68.607  1.00  0.00    -0.259 NA 
HETATM   15  C   UNL     1      -9.077  18.012  67.781  1.00  0.00    -0.262 A  
HETATM   16  C   UNL     1      -5.232  16.456  69.359  1.00  0.00    -0.129 A  
HETATM   17  C   UNL     1      -8.127  18.990  67.146  1.00  0.00    -0.280 A  
HETATM   18  N   UNL     1      -5.127  17.526  68.579  1.00  0.00    -0.139 NA 
HETATM   19  C   UNL     1      -6.828  18.835  67.415  1.00  0.00    -0.204 A  
HETATM   20  N   UNL     1      -6.410  17.804  68.236  1.00  0.00    -0.185 NA 
BRANCH  15  21
HETATM   21  N   UNL     1     -10.403  18.175  67.452  1.00  0.00    -0.373 NA 
HETATM   22  C   UNL     1     -12.697  17.816  66.990  1.00  0.00     6.435 C  
HETATM   23  C   UNL     1     -11.062  19.466  67.484  1.00  0.00    -0.136 C  
HETATM   24  C   UNL     1     -11.309  17.125  66.985  1.00  0.00     0.629 C  
HETATM   25  C   UNL     1     -12.499  19.097  67.796  1.00  0.00     4.683 C  
BRANCH  24  26
HETATM   26  C   UNL     1     -11.161  15.873  67.825  1.00  0.00    -0.258 A  
HETATM   27  C   UNL     1     -11.416  15.808  69.200  1.00  0.00    -0.380 A  
HETATM   28  C   UNL     1     -11.165  14.647  69.936  1.00  0.00    -0.271 A  
HETATM   29  F   UNL     1     -11.892  16.872  69.862  1.00  0.00     0.301 F  
HETATM   30  C   UNL     1     -10.640  13.522  69.306  1.00  0.00     0.033 A  
HETATM   31  C   UNL     1     -10.389  13.567  67.941  1.00  0.00    -0.249 A  
HETATM   32  C   UNL     1     -10.646  14.718  67.204  1.00  0.00    -0.285 A  
HETATM   33  F   UNL     1      -9.878  12.490  67.330  1.00  0.00    -0.193 F  
ENDBRANCH  24  26
ENDBRANCH  15  21
ENDBRANCH  10  12
ENDBRANCH   8  10
ENDBRANCH   6   8
TORSDOF 5
ENDMDL
MODEL      308
REMARK 921   NORMALIZED FREE ENERGY PREDICTED BY IDOCK:    8.19 KCAL/MOL
REMARK 922        TOTAL FREE ENERGY PREDICTED BY IDOCK:    8.86 KCAL/MOL
REMARK 923 INTER-LIGAND FREE ENERGY PREDICTED BY IDOCK:    8.45 KCAL/MOL
REMARK 924 INTRA-LIGAND FREE ENERGY PREDICTED BY IDOCK:    0.41 KCAL/MOL
REMARK 927      BINDING AFFINITY PREDICTED BY RF-SCORE:    0.00 PKD
ROOT
HETATM    1  O   UNL     1      -7.639  10.268  67.740  1.00  0.00    -0.089 OA 
HETATM    2  H   UNL     1      -8.445  10.521  67.306  1.00  0.00     0.000 HD 
HETATM    3  C   UNL     1      -7.565  10.815  69.046  1.00  0.00    -0.126 C  
HETATM    4  C   UNL     1      -6.270  10.410  69.742  1.00  0.00    -0.067 C  
HETATM    5  C   UNL     1      -6.105  11.486  70.792  1.00  0.00     0.203 C  
HETATM    6  N   UNL     1      -6.644  12.686  70.176  1.00  0.00     0.185 N  
HETATM    7  C   UNL     1      -7.490  12.347  69.035  1.00  0.00     0.075 C  
ENDROOT
BRANCH   6   8
HETATM    8  C   UNL     1      -6.346  13.922  70.727  1.00  0.00     0.067 C  
HETATM    9  O   UNL     1      -5.848  13.985  71.845  1.00  0.00    -0.314 OA 
BRANCH   8  10
HETATM   10  N   UNL     1      -6.696  14.989  69.934  1.00  0.00    -0.177 N  
HETATM   11  H   UNL     1      -7.234  15.735  70.376  1.00  0.00     0.000 HD 
BRANCH  10  12
HETATM   12  C   UNL     1      -6.387  15.151  68.587  1.00  0.00    -0.088 A  
HETATM   13  C   UNL     1      -6.887  16.018  67.625  1.00  0.00    -0.159 A  
HETATM   14  N   UNL     1      -7.826  17.025  67.633  1.00  0.00    -0.169 NA 
HETATM   15  C   UNL     1      -8.132  17.597  66.495  1.00  0.00    -0.270 A  
HETATM   16  C   UNL     1      -5.402  14.397  67.911  1.00  0.00    -0.069 A  
HETATM   17  C   UNL     1      -7.425  17.278  65.207  1.00  0.00     1.931 A  
HETATM   18  N   UNL     1      -5.292  14.700  66.623  1.00  0.00     1.585 NA 
HETATM   19  C   UNL     1      -6.484  16.330  65.250  1.00  0.00     5.628 A  
HETATM   20  N   UNL     1      -6.208  15.685  66.442  1.00  0.00     1.069 NA 
BRANCH  15  21
HETATM   21  N   UNL     1      -9.122  18.548  66.408  1.00  0.00    -0.382 NA 
HETATM   22  C   UNL     1     -11.106  19.806  66.702  1.00  0.00    -0.105 C  
HETATM   23  C   UNL     1      -8.893  19.862  65.841  1.00  0.00    -0.130 C  
HETATM   24  C   UNL     1     -10.520  18.374  66.805  1.00  0.00    -0.385 C  
HETATM   25  C   UNL     1      -9.891  20.724  66.590  1.00  0.00    -0.113 C  
BRANCH  24  26
HETATM   26  C   UNL     1     -10.615  17.689  68.153  1.00  0.00    -0.359 A  
HETATM   27  C   UNL     1     -10.092  18.206  69.343  1.00  0.00     0.075 A  
HETATM   28  C   UNL     1     -10.126  17.478  70.535  1.00  0.00     1.939 A  
HETATM   29  F   UNL     1      -9.518  19.417  69.373  1.00  0.00    -0.370 F  
HETATM   30  C   UNL     1     -10.681  16.200  70.555  1.00  0.00    -0.078 A  
HETATM   31  C   UNL     1     -11.212  15.675  69.385  1.00  0.00    -0.313 A  
HETATM   32  C   UNL     1     -11.189  16.402  68.200  1.00  0.00    -0.273 A  
HETATM   33  F   UNL     1     -11.742  14.445  69.397  1.00  0.00    -0.271 F  
ENDBRANCH  24  26
ENDBRANCH  15  21
ENDBRANCH  10  12
ENDBRANCH   8  10
ENDBRANCH   6   8
TORSDOF 5
ENDMDL
MODEL      309
REMARK 921   NORMALIZED FREE ENERGY PREDICTED BY IDOCK:   11.93 KCAL/MOL
REMARK 922        TOTAL FREE ENERGY PREDICTED BY IDOCK:   13.68 KCAL/MOL
REMARK 923 INTER-LIGAND FREE ENERGY PREDICTED BY IDOCK:   12.50 KCAL/MOL
REMARK 924 INTRA-LIGAND FREE ENERGY PREDICTED BY IDOCK:    1.19 KCAL/MOL
REMARK 927      BINDING AFFINITY PREDICTED BY RF-SCORE:    0.00 PKD
ROOT
HETATM    1  O   UNL     1     -11.725  19.967  64.947  1.00  0.00     0.798 OA 
HETATM    2  H   UNL     1     -12.662  19.818  64.903  1.00  0.00     0.000 HD 
HETATM    3  C   UNL     1     -11.131  19.190  65.974  1.00  0.00     0.186 C  
HETATM    4  C   UNL     1      -9.627  19.428  66.046  1.00  0.00    -0.291 C  
HETATM    5  C   UNL     1      -9.291  19.018  67.464  1.00  0.00    -0.298 C  
HETATM    6  N   UNL     1     -10.461  19.393  68.240  1.00  0.00    -0.376 N  
HETATM    7  C   UNL     1     -11.616  19.598  67.371  1.00  0.00     0.992 C  
ENDROOT
BRANCH   6   8
HETATM    8  C   UNL     1     -10.361  19.468  69.620  1.00  0.00     0.408 C  
HETATM    9  O   UNL     1     -11.219  18.945  70.321  1.00  0.00     2.872 OA 
BRANCH   8  10
HETATM   10  N   UNL     1      -9.277  20.188  70.066  1.00  0.00     0.773 N  
HETATM   11  H   UNL     1      -9.454  21.144  70.372  1.00  0.00     0.000 HD 
BRANCH  10  12
HETATM   12  C   UNL     1      -7.963  19.738  70.139  1.00  0.00     0.939 A  
HETATM   13  C   UNL     1      -7.418  18.466  70.035  1.00  0.00     1.147 A  
HETATM   14  N   UNL     1      -7.938  17.213  69.805  1.00  0.00     0.776 NA 
HETATM   15  C   UNL     1      -7.129  16.184  69.864  1.00  0.00     0.205 A  
HETATM   16  C   UNL     1      -6.852  20.589  70.334  1.00  0.00     0.649 A  
HETATM   17  C   UNL     1      -5.645  16.326  70.058  1.00  0.00    -0.183 A  
HETATM   18  N   UNL     1      -5.693  19.943  70.399  1.00  0.00    -0.271 NA 
HETATM   19  C   UNL     1      -5.171  17.564  70.226  1.00  0.00    -0.234 A  
HETATM   20  N   UNL     1      -6.037  18.641  70.227  1.00  0.00    -0.114 NA 
BRANCH  15  21
HETATM   21  N   UNL     1      -7.589  14.894  69.734  1.00  0.00    -0.111 NA 
HETATM   22  C   UNL     1      -8.645  12.917  68.972  1.00  0.00     0.475 C  
HETATM   23  C   UNL     1      -7.005  13.781  70.456  1.00  0.00     0.869 C  
HETATM   24  C   UNL     1      -8.729  14.464  68.924  1.00  0.00    -0.067 C  
HETATM   25  C   UNL     1      -7.253  12.613  69.522  1.00  0.00     0.376 C  
BRANCH  24  26
HETATM   26  C   UNL     1      -8.691  15.112  67.554  1.00  0.00    -0.188 A  
HETATM   27  C   UNL     1      -7.521  15.522  66.905  1.00  0.00    -0.082 A  
HETATM   28  C   UNL     1      -7.561  16.204  65.686  1.00  0.00     2.225 A  
HETATM   29  F   UNL     1      -6.317  15.291  67.446  1.00  0.00    -0.171 F  
HETATM   30  C   UNL     1      -8.786  16.500  65.094  1.00  0.00     2.127 A  
HETATM   31  C   UNL     1      -9.956  16.093  65.720  1.00  0.00    -0.340 A  
HETATM   32  C   UNL     1      -9.919  15.406  66.929  1.00  0.00    -0.247 A  
HETATM   33  F   UNL     1     -11.138  16.380  65.159  1.00  0.00    -0.345 F  
ENDBRANCH  24  26
ENDBRANCH  15  21
ENDBRANCH  10  12
ENDBRANCH   8  10
ENDBRANCH   6   8
TORSDOF 5
ENDMDL
MODEL      310
REMARK 921   NORMALIZED FREE ENERGY PREDICTED BY IDOCK:   12.60 KCAL/MOL
REMARK 922        TOTAL FREE ENERGY PREDICTED BY IDOCK:   14.55 KCAL/MOL
REMARK 923 INTER-LIGAND FREE ENERGY PREDICTED BY IDOCK:    1.20 KCAL/MOL
REMARK 924 INTRA-LIGAND FREE ENERGY PREDICTED BY IDOCK:   13.35 KCAL/MOL
REMARK 927      BINDING AFFINITY PREDICTED BY RF-SCORE:    0.00 PKD
ROOT
HETATM    1  O   UNL     1     -11.438  11.497  72.036  1.00  0.00     2.198 OA 
HETATM    2  H   UNL     1     -12.302  11.849  71.858  1.00  0.00     0.000 HD 
HETATM    3  C   UNL     1     -10.853  10.955  70.864  1.00  0.00     1.191 C  
HETATM    4  C   UNL     1      -9.466  10.390  71.150  1.00  0.00     2.700 C  
HETATM    5  C   UNL     1      -9.270   9.399  70.023  1.00  0.00    -0.220 C  
HETATM    6  N   UNL     1     -10.598   8.867  69.767  1.00  0.00    -0.223 N  
HETATM    7  C   UNL     1     -11.623   9.738  70.336  1.00  0.00    -0.258 C  
ENDROOT
BRANCH   6   8
HETATM    8  C   UNL     1     -10.729   7.700  69.033  1.00  0.00    -0.119 C  
HETATM    9  O   UNL     1     -11.405   6.777  69.474  1.00  0.00    -0.282 OA 
BRANCH   8  10
HETATM   10  N   UNL     1     -10.021   7.695  67.855  1.00  0.00    -0.161 N  
HETATM   11  H   UNL     1      -9.812   6.784  67.447  1.00  0.00     0.000 HD 
BRANCH  10  12
HETATM   12  C   UNL     1      -9.562   8.812  67.165  1.00  0.00    -0.175 A  
HETATM   13  C   UNL     1      -9.775  10.169  67.364  1.00  0.00    -0.161 A  
HETATM   14  N   UNL     1     -10.472  10.906  68.293  1.00  0.00    -0.170 NA 
HETATM   15  C   UNL     1     -10.543  12.204  68.129  1.00  0.00    -0.216 A  
HETATM   16  C   UNL     1      -8.703   8.745  66.045  1.00  0.00    -0.167 A  
HETATM   17  C   UNL     1      -9.805  12.929  67.038  1.00  0.00    -0.233 A  
HETATM   18  N   UNL     1      -8.413   9.932  65.526  1.00  0.00    -0.134 NA 
HETATM   19  C   UNL     1      -9.097  12.182  66.186  1.00  0.00    -0.101 A  
HETATM   20  N   UNL     1      -9.076  10.806  66.325  1.00  0.00    -0.169 NA 
BRANCH  15  21
HETATM   21  N   UNL     1     -11.295  12.998  68.964  1.00  0.00    -0.275 NA 
HETATM   22  C   UNL     1     -12.329  14.836  70.040  1.00  0.00    -0.365 C  
HETATM   23  C   UNL     1     -12.395  12.480  69.752  1.00  0.00    -0.020 C  
HETATM   24  C   UNL     1     -11.078  14.423  69.223  1.00  0.00    -0.271 C  
HETATM   25  C   UNL     1     -13.313  13.681  69.871  1.00  0.00     1.336 C  
BRANCH  24  26
HETATM   26  C   UNL     1     -10.824  15.172  67.931  1.00  0.00    -0.291 A  
HETATM   27  C   UNL     1     -10.319  16.475  67.858  1.00  0.00    -0.294 A  
HETATM   28  C   UNL     1     -10.200  17.146  66.638  1.00  0.00    -0.319 A  
HETATM   29  F   UNL     1      -9.951  17.133  68.965  1.00  0.00    -0.261 F  
HETATM   30  C   UNL     1     -10.599  16.522  65.458  1.00  0.00    -0.310 A  
HETATM   31  C   UNL     1     -11.094  15.227  65.512  1.00  0.00    -0.327 A  
HETATM   32  C   UNL     1     -11.204  14.552  66.723  1.00  0.00    -0.336 A  
HETATM   33  F   UNL     1     -11.484  14.623  64.381  1.00  0.00    -0.368 F  
ENDBRANCH  24  26
ENDBRANCH  15  21
ENDBRANCH  10  12
ENDBRANCH   8  10
ENDBRANCH   6   8
TORSDOF 5
ENDMDL
MODEL      311
REMARK 921   NORMALIZED FREE ENERGY PREDICTED BY IDOCK:   14.35 KCAL/MOL
REMARK 922        TOTAL FREE ENERGY PREDICTED BY IDOCK:   16.82 KCAL/MOL
REMARK 923 INTER-LIGAND FREE ENERGY PREDICTED BY IDOCK:   15.00 KCAL/MOL
REMARK 924 INTRA-LIGAND FREE ENERGY PREDICTED BY IDOCK:    1.82 KCAL/MOL
REMARK 927      BINDING AFFINITY PREDICTED BY RF-SCORE:    0.00 PKD
ROOT
HETATM    1  O   UNL     1      -7.676  13.371  65.121  1.00  0.00     4.542 OA 
HETATM    2  H   UNL     1      -7.551  14.055  64.473  1.00  0.00     0.000 HD 
HETATM    3  C   UNL     1      -8.939  12.745  64.969  1.00  0.00     1.268 C  
HETATM    4  C   UNL     1      -9.139  11.648  66.010  1.00  0.00    -0.188 C  
HETATM    5  C   UNL     1     -10.645  11.520  66.075  1.00  0.00    -0.261 C  
HETATM    6  N   UNL     1     -11.138  12.868  65.849  1.00  0.00    -0.278 N  
HETATM    7  C   UNL     1     -10.104  13.703  65.245  1.00  0.00    -0.275 C  
ENDROOT
BRANCH   6   8
HETATM    8  C   UNL     1     -12.450  13.171  66.175  1.00  0.00    -0.203 C  
HETATM    9  O   UNL     1     -13.178  12.302  66.640  1.00  0.00     2.519 OA 
BRANCH   8  10
HETATM   10  N   UNL     1     -12.814  14.466  65.890  1.00  0.00    -0.386 N  
HETATM   11  H   UNL     1     -13.578  14.594  65.226  1.00  0.00     0.000 HD 
BRANCH  10  12
HETATM   12  C   UNL     1     -12.242  15.618  66.420  1.00  0.00     1.157 A  
HETATM   13  C   UNL     1     -12.108  16.062  67.728  1.00  0.00     0.744 A  
HETATM   14  N   UNL     1     -12.452  15.548  68.958  1.00  0.00     0.020 NA 
HETATM   15  C   UNL     1     -12.257  16.293  70.018  1.00  0.00     0.383 A  
HETATM   16  C   UNL     1     -11.626  16.621  65.637  1.00  0.00     1.021 A  
HETATM   17  C   UNL     1     -11.575  17.631  69.959  1.00  0.00     3.103 A  
HETATM   18  N   UNL     1     -11.171  17.646  66.349  1.00  0.00     0.557 NA 
HETATM   19  C   UNL     1     -11.210  18.073  68.753  1.00  0.00     1.125 A  
HETATM   20  N   UNL     1     -11.474  17.312  67.629  1.00  0.00     0.364 NA 
BRANCH  15  21
HETATM   21  N   UNL     1     -12.656  15.885  71.270  1.00  0.00    -0.434 NA 
HETATM   22  C   UNL     1     -13.233  14.598  73.172  1.00  0.00    -0.515 C  
HETATM   23  C   UNL     1     -12.671  16.777  72.413  1.00  0.00     1.287 C  
HETATM   24  C   UNL     1     -13.160  14.557  71.624  1.00  0.00    -0.343 C  
HETATM   25  C   UNL     1     -12.430  15.833  73.574  1.00  0.00    -0.666 C  
BRANCH  24  26
HETATM   26  C   UNL     1     -12.301  13.473  71.005  1.00  0.00    -0.422 A  
HETATM   27  C   UNL     1     -12.399  12.113  71.315  1.00  0.00    -0.070 A  
HETATM   28  C   UNL     1     -11.510  11.175  70.782  1.00  0.00     0.119 A  
HETATM   29  F   UNL     1     -13.342  11.664  72.156  1.00  0.00    -0.592 F  
HETATM   30  C   UNL     1     -10.490  11.589  69.929  1.00  0.00     0.611 A  
HETATM   31  C   UNL     1     -10.384  12.934  69.604  1.00  0.00     0.920 A  
HETATM   32  C   UNL     1     -11.273  13.868  70.125  1.00  0.00     0.045 A  
HETATM   33  F   UNL     1      -9.402  13.340  68.788  1.00  0.00    -0.154 F  
ENDBRANCH  24  26
ENDBRANCH  15  21
ENDBRANCH  10  12
ENDBRANCH   8  10
ENDBRANCH   6   8
TORSDOF 5
ENDMDL
MODEL      312
REMARK 921   NORMALIZED FREE ENERGY PREDICTED BY IDOCK:   17.80 KCAL/MOL
REMARK 922        TOTAL FREE ENERGY PREDICTED BY IDOCK:   21.27 KCAL/MOL
REMARK 923 INTER-LIGAND FREE ENERGY PREDICTED BY IDOCK:   15.63 KCAL/MOL
REMARK 924 INTRA-LIGAND FREE ENERGY PREDICTED BY IDOCK:    5.65 KCAL/MOL
REMARK 927      BINDING AFFINITY PREDICTED BY RF-SCORE:    0.00 PKD
ROOT
HETATM    1  O   UNL     1      -5.369   8.910  71.589  1.00  0.00    -0.037 OA 
HETATM    2  H   UNL     1      -5.093   8.630  70.724  1.00  0.00     0.000 HD 
HETATM    3  C   UNL     1      -6.735   8.603  71.816  1.00  0.00    -0.082 C  
HETATM    4  C   UNL     1      -7.178   9.051  73.204  1.00  0.00     0.447 C  
HETATM    5  C   UNL     1      -8.678   9.182  73.050  1.00  0.00     1.477 C  
HETATM    6  N   UNL     1      -8.868   9.631  71.681  1.00  0.00     0.934 N  
HETATM    7  C   UNL     1      -7.671   9.381  70.883  1.00  0.00    -0.054 C  
ENDROOT
BRANCH   6   8
HETATM    8  C   UNL     1     -10.089  10.171  71.310  1.00  0.00     1.314 C  
HETATM    9  O   UNL     1     -10.283  11.375  71.432  1.00  0.00     4.651 OA 
BRANCH   8  10
HETATM   10  N   UNL     1     -10.999   9.245  70.861  1.00  0.00    -0.272 N  
HETATM   11  H   UNL     1     -11.918   9.250  71.303  1.00  0.00     0.000 HD 
BRANCH  10  12
HETATM   12  C   UNL     1     -10.789   8.300  69.861  1.00  0.00    -0.213 A  
HETATM   13  C   UNL     1     -10.179   8.395  68.618  1.00  0.00    -0.201 A  
HETATM   14  N   UNL     1      -9.551   9.408  67.930  1.00  0.00    -0.133 NA 
HETATM   15  C   UNL     1      -9.157   9.174  66.702  1.00  0.00    -0.148 A  
HETATM   16  C   UNL     1     -11.187   6.948  69.962  1.00  0.00    -0.299 A  
HETATM   17  C   UNL     1      -9.261   7.819  66.059  1.00  0.00    -0.139 A  
HETATM   18  N   UNL     1     -10.910   6.230  68.880  1.00  0.00    -0.300 NA 
HETATM   19  C   UNL     1      -9.831   6.848  66.778  1.00  0.00    -0.181 A  
HETATM   20  N   UNL     1     -10.302   7.116  68.050  1.00  0.00    -0.185 NA 
BRANCH  15  21
HETATM   21  N   UNL     1      -8.603  10.161  65.921  1.00  0.00    -0.142 NA 
HETATM   22  C   UNL     1      -7.434  12.069  65.148  1.00  0.00     2.784 C  
HETATM   23  C   UNL     1      -8.427  10.015  64.489  1.00  0.00    -0.174 C  
HETATM   24  C   UNL     1      -8.172  11.482  66.379  1.00  0.00    -0.092 C  
HETATM   25  C   UNL     1      -7.213  10.882  64.215  1.00  0.00     0.564 C  
BRANCH  24  26
HETATM   26  C   UNL     1      -7.380  11.372  67.667  1.00  0.00    -0.102 A  
HETATM   27  C   UNL     1      -6.149  10.718  67.785  1.00  0.00    -0.047 A  
HETATM   28  C   UNL     1      -5.517  10.567  69.023  1.00  0.00    -0.041 A  
HETATM   29  F   UNL     1      -5.542  10.193  66.712  1.00  0.00    -0.043 F  
HETATM   30  C   UNL     1      -6.118  11.064  70.177  1.00  0.00    -0.138 A  
HETATM   31  C   UNL     1      -7.335  11.723  70.076  1.00  0.00     1.076 A  
HETATM   32  C   UNL     1      -7.961  11.884  68.844  1.00  0.00     0.040 A  
HETATM   33  F   UNL     1      -7.921  12.198  71.183  1.00  0.00     5.360 F  
ENDBRANCH  24  26
ENDBRANCH  15  21
ENDBRANCH  10  12
ENDBRANCH   8  10
ENDBRANCH   6   8
TORSDOF 5
ENDMDL
MODEL      313
REMARK 921   NORMALIZED FREE ENERGY PREDICTED BY IDOCK:   22.73 KCAL/MOL
REMARK 922        TOTAL FREE ENERGY PREDICTED BY IDOCK:   27.64 KCAL/MOL
REMARK 923 INTER-LIGAND FREE ENERGY PREDICTED BY IDOCK:   21.37 KCAL/MOL
REMARK 924 INTRA-LIGAND FREE ENERGY PREDICTED BY IDOCK:    6.27 KCAL/MOL
REMARK 927      BINDING AFFINITY PREDICTED BY RF-SCORE:    0.00 PKD
ROOT
HETATM    1  O   UNL     1     -13.391  18.821  68.765  1.00  0.00     9.943 OA 
HETATM    2  H   UNL     1     -12.928  19.411  69.348  1.00  0.00     0.000 HD 
HETATM    3  C   UNL     1     -12.797  17.534  68.758  1.00  0.00     6.550 C  
HETATM    4  C   UNL     1     -13.541  16.588  67.822  1.00  0.00     6.891 C  
HETATM    5  C   UNL     1     -12.496  15.540  67.507  1.00  0.00     1.301 C  
HETATM    6  N   UNL     1     -11.238  16.267  67.497  1.00  0.00    -0.136 N  
HETATM    7  C   UNL     1     -11.376  17.550  68.180  1.00  0.00     0.441 C  
ENDROOT
BRANCH   6   8
HETATM    8  C   UNL     1     -10.124  15.684  66.914  1.00  0.00    -0.263 C  
HETATM    9  O   UNL     1      -9.624  16.191  65.917  1.00  0.00    -0.320 OA 
BRANCH   8  10
HETATM   10  N   UNL     1      -9.711  14.526  67.529  1.00  0.00    -0.209 N  
HETATM   11  H   UNL     1      -8.802  14.548  67.990  1.00  0.00     0.000 HD 
BRANCH  10  12
HETATM   12  C   UNL     1     -10.412  13.326  67.582  1.00  0.00    -0.229 A  
HETATM   13  C   UNL     1      -9.980  12.009  67.650  1.00  0.00    -0.191 A  
HETATM   14  N   UNL     1      -8.745  11.404  67.711  1.00  0.00    -0.132 NA 
HETATM   15  C   UNL     1      -8.691  10.095  67.670  1.00  0.00    -0.121 A  
HETATM   16  C   UNL     1     -11.823  13.240  67.595  1.00  0.00    -0.357 A  
HETATM   17  C   UNL     1      -9.921   9.230  67.673  1.00  0.00    -0.245 A  
HETATM   18  N   UNL     1     -12.279  11.993  67.622  1.00  0.00    -0.374 NA 
HETATM   19  C   UNL     1     -11.102   9.854  67.665  1.00  0.00    -0.101 A  
HETATM   20  N   UNL     1     -11.153  11.236  67.645  1.00  0.00    -0.257 NA 
BRANCH  15  21
HETATM   21  N   UNL     1      -7.492   9.422  67.637  1.00  0.00    -0.087 NA 
HETATM   22  C   UNL     1      -5.819   7.751  67.514  1.00  0.00    -0.037 C  
HETATM   23  C   UNL     1      -6.232  10.085  67.364  1.00  0.00    -0.059 C  
HETATM   24  C   UNL     1      -7.296   7.998  67.916  1.00  0.00    -0.093 C  
HETATM   25  C   UNL     1      -5.414   8.986  66.714  1.00  0.00    -0.040 C  
BRANCH  24  26
HETATM   26  C   UNL     1      -8.348   7.163  67.214  1.00  0.00    -0.119 A  
HETATM   27  C   UNL     1      -8.152   6.504  65.995  1.00  0.00    -0.121 A  
HETATM   28  C   UNL     1      -9.194   5.831  65.351  1.00  0.00     0.077 A  
HETATM   29  F   UNL     1      -6.955   6.515  65.392  1.00  0.00    -0.047 F  
HETATM   30  C   UNL     1     -10.467   5.815  65.916  1.00  0.00     0.243 A  
HETATM   31  C   UNL     1     -10.677   6.457  67.129  1.00  0.00    -0.361 A  
HETATM   32  C   UNL     1      -9.639   7.120  67.777  1.00  0.00    -0.146 A  
HETATM   33  F   UNL     1     -11.900   6.451  67.674  1.00  0.00    -0.033 F  
ENDBRANCH  24  26
ENDBRANCH  15  21
ENDBRANCH  10  12
ENDBRANCH   8  10
ENDBRANCH   6   8
TORSDOF 5
ENDMDL
MODEL      314
REMARK 921   NORMALIZED FREE ENERGY PREDICTED BY IDOCK:   23.95 KCAL/MOL
REMARK 922        TOTAL FREE ENERGY PREDICTED BY IDOCK:   29.22 KCAL/MOL
REMARK 923 INTER-LIGAND FREE ENERGY PREDICTED BY IDOCK:   21.43 KCAL/MOL
REMARK 924 INTRA-LIGAND FREE ENERGY PREDICTED BY IDOCK:    7.80 KCAL/MOL
REMARK 927      BINDING AFFINITY PREDICTED BY RF-SCORE:    0.00 PKD
ROOT
HETATM    1  O   UNL     1     -11.177  12.984  72.297  1.00  0.00     3.843 OA 
HETATM    2  H   UNL     1     -11.919  13.576  72.291  1.00  0.00     0.000 HD 
HETATM    3  C   UNL     1     -11.129  12.210  71.110  1.00  0.00     3.314 C  
HETATM    4  C   UNL     1      -9.938  11.258  71.120  1.00  0.00     5.720 C  
HETATM    5  C   UNL     1     -10.360  10.184  70.141  1.00  0.00    -0.224 C  
HETATM    6  N   UNL     1     -11.799  10.080  70.309  1.00  0.00    -0.241 N  
HETATM    7  C   UNL     1     -12.329  11.263  70.980  1.00  0.00    -0.366 C  
ENDROOT
BRANCH   6   8
HETATM    8  C   UNL     1     -12.459   8.967  69.815  1.00  0.00     1.605 C  
HETATM    9  O   UNL     1     -13.260   8.369  70.525  1.00  0.00     0.539 OA 
BRANCH   8  10
HETATM   10  N   UNL     1     -12.095   8.620  68.535  1.00  0.00     2.177 N  
HETATM   11  H   UNL     1     -12.445   7.730  68.182  1.00  0.00     0.000 HD 
BRANCH  10  12
HETATM   12  C   UNL     1     -11.295   9.366  67.676  1.00  0.00     0.648 A  
HETATM   13  C   UNL     1     -11.035  10.728  67.609  1.00  0.00    -0.306 A  
HETATM   14  N   UNL     1     -11.431  11.820  68.348  1.00  0.00    -0.268 NA 
HETATM   15  C   UNL     1     -11.063  13.010  67.943  1.00  0.00    -0.255 A  
HETATM   16  C   UNL     1     -10.523   8.804  66.634  1.00  0.00    -0.170 A  
HETATM   17  C   UNL     1     -10.138  13.223  66.777  1.00  0.00    -0.258 A  
HETATM   18  N   UNL     1      -9.857   9.704  65.921  1.00  0.00    -0.278 NA 
HETATM   19  C   UNL     1      -9.734  12.135  66.116  1.00  0.00    -0.240 A  
HETATM   20  N   UNL     1     -10.176  10.885  66.508  1.00  0.00    -0.225 NA 
BRANCH  15  21
HETATM   21  N   UNL     1     -11.492  14.154  68.576  1.00  0.00    -0.281 NA 
HETATM   22  C   UNL     1     -11.934  16.404  69.164  1.00  0.00     0.219 C  
HETATM   23  C   UNL     1     -12.546  14.146  69.571  1.00  0.00     0.029 C  
HETATM   24  C   UNL     1     -10.939  15.497  68.396  1.00  0.00    -0.297 C  
HETATM   25  C   UNL     1     -13.157  15.525  69.419  1.00  0.00     0.925 C  
BRANCH  24  26
HETATM   26  C   UNL     1     -10.728  15.799  66.926  1.00  0.00    -0.299 A  
HETATM   27  C   UNL     1     -11.630  15.461  65.912  1.00  0.00     0.098 A  
HETATM   28  C   UNL     1     -11.331  15.679  64.564  1.00  0.00    -0.327 A  
HETATM   29  F   UNL     1     -12.810  14.893  66.200  1.00  0.00    -0.019 F  
HETATM   30  C   UNL     1     -10.107  16.236  64.203  1.00  0.00     3.441 A  
HETATM   31  C   UNL     1      -9.203  16.585  65.198  1.00  0.00     1.531 A  
HETATM   32  C   UNL     1      -9.502  16.378  66.541  1.00  0.00    -0.296 A  
HETATM   33  F   UNL     1      -8.021  17.115  64.858  1.00  0.00     1.688 F  
ENDBRANCH  24  26
ENDBRANCH  15  21
ENDBRANCH  10  12
ENDBRANCH   8  10
ENDBRANCH   6   8
TORSDOF 5
ENDMDL
MODEL      315
REMARK 921   NORMALIZED FREE ENERGY PREDICTED BY IDOCK:   31.19 KCAL/MOL
REMARK 922        TOTAL FREE ENERGY PREDICTED BY IDOCK:   38.58 KCAL/MOL
REMARK 923 INTER-LIGAND FREE ENERGY PREDICTED BY IDOCK:   -1.21 KCAL/MOL
REMARK 924 INTRA-LIGAND FREE ENERGY PREDICTED BY IDOCK:   39.78 KCAL/MOL
REMARK 927      BINDING AFFINITY PREDICTED BY RF-SCORE:    0.00 PKD
ROOT
HETATM    1  O   UNL     1     -10.968   8.803  69.142  1.00  0.00    -0.419 OA 
HETATM    2  H   UNL     1     -11.362   8.465  68.346  1.00  0.00     0.000 HD 
HETATM    3  C   UNL     1     -10.536  10.143  68.971  1.00  0.00    -0.219 C  
HETATM    4  C   UNL     1      -9.903  10.685  70.247  1.00  0.00     0.693 C  
HETATM    5  C   UNL     1      -9.031  11.812  69.736  1.00  0.00     1.891 C  
HETATM    6  N   UNL     1      -8.569  11.357  68.435  1.00  0.00    -0.152 N  
HETATM    7  C   UNL     1      -9.405  10.266  67.942  1.00  0.00    -0.138 C  
ENDROOT
BRANCH   6   8
HETATM    8  C   UNL     1      -7.490  11.991  67.841  1.00  0.00    -0.114 C  
HETATM    9  O   UNL     1      -6.935  12.918  68.421  1.00  0.00    -0.080 OA 
BRANCH   8  10
HETATM   10  N   UNL     1      -7.175  11.511  66.593  1.00  0.00    -0.298 N  
HETATM   11  H   UNL     1      -6.780  12.177  65.929  1.00  0.00     0.000 HD 
BRANCH  10  12
HETATM   12  C   UNL     1      -7.341  10.204  66.146  1.00  0.00    -0.115 A  
HETATM   13  C   UNL     1      -8.167   9.179  66.585  1.00  0.00    -0.115 A  
HETATM   14  N   UNL     1      -9.119   9.068  67.574  1.00  0.00    -0.132 NA 
HETATM   15  C   UNL     1      -9.661   7.893  67.785  1.00  0.00    -0.147 A  
HETATM   16  C   UNL     1      -6.638   9.652  65.052  1.00  0.00    -0.091 A  
HETATM   17  C   UNL     1      -9.371   6.696  66.922  1.00  0.00    -0.171 A  
HETATM   18  N   UNL     1      -6.934   8.379  64.818  1.00  0.00    -0.071 NA 
HETATM   19  C   UNL     1      -8.479   6.858  65.941  1.00  0.00    -0.144 A  
HETATM   20  N   UNL     1      -7.862   8.082  65.762  1.00  0.00    -0.093 NA 
BRANCH  15  21
HETATM   21  N   UNL     1     -10.552   7.683  68.811  1.00  0.00    -0.183 NA 
HETATM   22  C   UNL     1     -11.664   6.855  70.730  1.00  0.00    -0.417 C  
HETATM   23  C   UNL     1     -11.528   8.677  69.213  1.00  0.00     0.591 C  
HETATM   24  C   UNL     1     -10.691   6.453  69.592  1.00  0.00    -0.282 C  
HETATM   25  C   UNL     1     -11.714   8.381  70.688  1.00  0.00    -0.159 C  
BRANCH  24  26
HETATM   26  C   UNL     1      -9.334   5.921  70.004  1.00  0.00    -0.171 A  
HETATM   27  C   UNL     1      -9.025   4.564  70.145  1.00  0.00    -0.090 A  
HETATM   28  C   UNL     1      -7.782   4.142  70.624  1.00  0.00    -0.048 A  
HETATM   29  F   UNL     1      -9.925   3.618  69.842  1.00  0.00    -0.254 F  
HETATM   30  C   UNL     1      -6.819   5.082  70.986  1.00  0.00    -0.043 A  
HETATM   31  C   UNL     1      -7.106   6.433  70.845  1.00  0.00    -0.070 A  
HETATM   32  C   UNL     1      -8.339   6.855  70.358  1.00  0.00    -0.130 A  
HETATM   33  F   UNL     1      -6.187   7.342  71.196  1.00  0.00    -0.035 F  
ENDBRANCH  24  26
ENDBRANCH  15  21
ENDBRANCH  10  12
ENDBRANCH   8  10
ENDBRANCH   6   8
TORSDOF 5
ENDMDL
MODEL      316
REMARK 921   NORMALIZED FREE ENERGY PREDICTED BY IDOCK:   44.26 KCAL/MOL
REMARK 922        TOTAL FREE ENERGY PREDICTED BY IDOCK:   55.46 KCAL/MOL
REMARK 923 INTER-LIGAND FREE ENERGY PREDICTED BY IDOCK:   52.27 KCAL/MOL
REMARK 924 INTRA-LIGAND FREE ENERGY PREDICTED BY IDOCK:    3.19 KCAL/MOL
REMARK 927      BINDING AFFINITY PREDICTED BY RF-SCORE:    0.00 PKD
ROOT
HETATM    1  O   UNL     1      -8.108  18.877  62.625  1.00  0.00    12.279 OA 
HETATM    2  H   UNL     1      -7.910  19.720  62.232  1.00  0.00     0.000 HD 
HETATM    3  C   UNL     1      -9.326  18.924  63.350  1.00  0.00    17.736 C  
HETATM    4  C   UNL     1      -9.644  17.572  63.979  1.00  0.00     9.398 C  
HETATM    5  C   UNL     1     -10.575  17.943  65.113  1.00  0.00     0.538 C  
HETATM    6  N   UNL     1     -10.100  19.238  65.570  1.00  0.00     0.079 N  
HETATM    7  C   UNL     1      -9.250  19.863  64.560  1.00  0.00     4.010 C  
ENDROOT
BRANCH   6   8
HETATM    8  C   UNL     1     -10.510  19.712  66.805  1.00  0.00    -0.490 C  
HETATM    9  O   UNL     1     -10.368  20.898  67.079  1.00  0.00     0.038 OA 
BRANCH   8  10
HETATM   10  N   UNL     1     -11.021  18.743  67.637  1.00  0.00    -0.310 N  
HETATM   11  H   UNL     1     -12.036  18.661  67.679  1.00  0.00     0.000 HD 
BRANCH  10  12
HETATM   12  C   UNL     1     -10.287  17.865  68.426  1.00  0.00    -0.374 A  
HETATM   13  C   UNL     1      -9.643  16.673  68.123  1.00  0.00    -0.228 A  
HETATM   14  N   UNL     1      -9.469  15.940  66.971  1.00  0.00    -0.218 NA 
HETATM   15  C   UNL     1      -8.869  14.778  67.059  1.00  0.00    -0.237 A  
HETATM   16  C   UNL     1     -10.034  18.068  69.801  1.00  0.00     0.573 A  
HETATM   17  C   UNL     1      -8.267  14.268  68.339  1.00  0.00    -0.144 A  
HETATM   18  N   UNL     1      -9.334  17.089  70.363  1.00  0.00     2.237 NA 
HETATM   19  C   UNL     1      -8.413  15.031  69.425  1.00  0.00    -0.125 A  
HETATM   20  N   UNL     1      -9.102  16.228  69.341  1.00  0.00    -0.169 NA 
BRANCH  15  21
HETATM   21  N   UNL     1      -8.736  13.950  65.969  1.00  0.00     0.551 NA 
HETATM   22  C   UNL     1      -8.075  12.233  64.478  1.00  0.00     3.282 C  
HETATM   23  C   UNL     1      -9.734  13.874  64.920  1.00  0.00     0.220 C  
HETATM   24  C   UNL     1      -7.590  13.088  65.677  1.00  0.00     4.133 C  
HETATM   25  C   UNL     1      -9.586  12.450  64.423  1.00  0.00     0.135 C  
BRANCH  24  26
HETATM   26  C   UNL     1      -7.149  12.340  66.919  1.00  0.00     0.047 A  
HETATM   27  C   UNL     1      -7.585  11.058  67.268  1.00  0.00    -0.111 A  
HETATM   28  C   UNL     1      -7.217  10.463  68.478  1.00  0.00    -0.084 A  
HETATM   29  F   UNL     1      -8.392  10.361  66.456  1.00  0.00    -0.121 F  
HETATM   30  C   UNL     1      -6.406  11.154  69.375  1.00  0.00    -0.088 A  
HETATM   31  C   UNL     1      -5.957  12.424  69.041  1.00  0.00    -0.071 A  
HETATM   32  C   UNL     1      -6.314  13.015  67.833  1.00  0.00    -0.134 A  
HETATM   33  F   UNL     1      -5.182  13.096  69.902  1.00  0.00    -0.080 F  
ENDBRANCH  24  26
ENDBRANCH  15  21
ENDBRANCH  10  12
ENDBRANCH   8  10
ENDBRANCH   6   8
TORSDOF 5
ENDMDL
MODEL      317
REMARK 921   NORMALIZED FREE ENERGY PREDICTED BY IDOCK:   64.85 KCAL/MOL
REMARK 922        TOTAL FREE ENERGY PREDICTED BY IDOCK:   82.08 KCAL/MOL
REMARK 923 INTER-LIGAND FREE ENERGY PREDICTED BY IDOCK:   79.51 KCAL/MOL
REMARK 924 INTRA-LIGAND FREE ENERGY PREDICTED BY IDOCK:    2.57 KCAL/MOL
REMARK 927      BINDING AFFINITY PREDICTED BY RF-SCORE:    0.00 PKD
ROOT
HETATM    1  O   UNL     1      -8.154  18.873  62.581  1.00  0.00    12.279 OA 
HETATM    2  H   UNL     1      -7.741  19.675  62.283  1.00  0.00     0.000 HD 
HETATM    3  C   UNL     1      -9.506  19.097  62.944  1.00  0.00    22.618 C  
HETATM    4  C   UNL     1     -10.170  17.811  63.421  1.00  0.00    12.782 C  
HETATM    5  C   UNL     1     -11.318  18.320  64.265  1.00  0.00     4.900 C  
HETATM    6  N   UNL     1     -10.814  19.540  64.873  1.00  0.00     0.817 N  
HETATM    7  C   UNL     1      -9.640  20.029  64.155  1.00  0.00     6.033 C  
ENDROOT
BRANCH   6   8
HETATM    8  C   UNL     1     -11.480  20.079  65.961  1.00  0.00     1.054 C  
HETATM    9  O   UNL     1     -11.674  21.288  66.017  1.00  0.00     4.747 OA 
BRANCH   8  10
HETATM   10  N   UNL     1     -11.832  19.157  66.918  1.00  0.00     1.525 N  
HETATM   11  H   UNL     1     -12.745  18.714  66.817  1.00  0.00     0.000 HD 
BRANCH  10  12
HETATM   12  C   UNL     1     -11.063  18.768  68.009  1.00  0.00     0.265 A  
HETATM   13  C   UNL     1     -10.066  17.811  68.139  1.00  0.00    -0.362 A  
HETATM   14  N   UNL     1      -9.460  16.929  67.273  1.00  0.00    -0.239 NA 
HETATM   15  C   UNL     1      -8.594  16.076  67.760  1.00  0.00    -0.163 A  
HETATM   16  C   UNL     1     -11.166  19.352  69.292  1.00  0.00     2.595 A  
HETATM   17  C   UNL     1      -8.153  16.095  69.198  1.00  0.00    -0.230 A  
HETATM   18  N   UNL     1     -10.355  18.808  70.191  1.00  0.00     1.033 NA 
HETATM   19  C   UNL     1      -8.726  16.999  69.996  1.00  0.00     1.854 A  
HETATM   20  N   UNL     1      -9.687  17.856  69.491  1.00  0.00     0.185 NA 
BRANCH  15  21
HETATM   21  N   UNL     1      -8.014  15.107  66.975  1.00  0.00    -0.213 NA 
HETATM   22  C   UNL     1      -6.631  13.376  66.140  1.00  0.00     4.388 C  
HETATM   23  C   UNL     1      -8.687  14.524  65.831  1.00  0.00     0.822 C  
HETATM   24  C   UNL     1      -6.661  14.570  67.128  1.00  0.00     0.541 C  
HETATM   25  C   UNL     1      -8.092  13.130  65.771  1.00  0.00     2.440 C  
BRANCH  24  26
HETATM   26  C   UNL     1      -6.363  14.267  68.582  1.00  0.00    -0.088 A  
HETATM   27  C   UNL     1      -6.547  13.017  69.183  1.00  0.00    -0.104 A  
HETATM   28  C   UNL     1      -6.348  12.827  70.553  1.00  0.00     0.379 A  
HETATM   29  F   UNL     1      -6.943  11.958  68.463  1.00  0.00    -0.064 F  
HETATM   30  C   UNL     1      -5.968  13.899  71.357  1.00  0.00    -0.073 A  
HETATM   31  C   UNL     1      -5.773  15.145  70.775  1.00  0.00    -0.065 A  
HETATM   32  C   UNL     1      -5.961  15.334  69.410  1.00  0.00    -0.110 A  
HETATM   33  F   UNL     1      -5.414  16.182  71.543  1.00  0.00    -0.041 F  
ENDBRANCH  24  26
ENDBRANCH  15  21
ENDBRANCH  10  12
ENDBRANCH   8  10
ENDBRANCH   6   8
TORSDOF 5
ENDMDL
MODEL      318
REMARK 921   NORMALIZED FREE ENERGY PREDICTED BY IDOCK:   69.61 KCAL/MOL
REMARK 922        TOTAL FREE ENERGY PREDICTED BY IDOCK:   88.22 KCAL/MOL
REMARK 923 INTER-LIGAND FREE ENERGY PREDICTED BY IDOCK:   87.73 KCAL/MOL
REMARK 924 INTRA-LIGAND FREE ENERGY PREDICTED BY IDOCK:    0.49 KCAL/MOL
REMARK 927      BINDING AFFINITY PREDICTED BY RF-SCORE:    0.00 PKD
ROOT
HETATM    1  O   UNL     1     -10.890  19.541  64.812  1.00  0.00    -0.043 OA 
HETATM    2  H   UNL     1     -11.824  19.482  64.648  1.00  0.00     0.000 HD 
HETATM    3  C   UNL     1     -10.494  18.653  65.843  1.00  0.00    -0.356 C  
HETATM    4  C   UNL     1      -8.995  18.748  66.108  1.00  0.00    -0.150 C  
HETATM    5  C   UNL     1      -8.872  18.224  67.522  1.00  0.00    -0.253 C  
HETATM    6  N   UNL     1     -10.093  18.656  68.181  1.00  0.00    -0.360 N  
HETATM    7  C   UNL     1     -11.111  19.018  67.200  1.00  0.00    -0.065 C  
ENDROOT
BRANCH   6   8
HETATM    8  C   UNL     1     -10.157  18.638  69.565  1.00  0.00     0.293 C  
HETATM    9  O   UNL     1     -11.165  18.218  70.121  1.00  0.00     2.168 OA 
BRANCH   8  10
HETATM   10  N   UNL     1      -9.043  19.153  70.186  1.00  0.00     1.155 N  
HETATM   11  H   UNL     1      -9.151  20.054  70.651  1.00  0.00     0.000 HD 
BRANCH  10  12
HETATM   12  C   UNL     1      -7.784  18.565  70.240  1.00  0.00     2.041 A  
HETATM   13  C   UNL     1      -7.351  17.366  70.790  1.00  0.00     3.821 A  
HETATM   14  N   UNL     1      -7.974  16.328  71.445  1.00  0.00     5.692 NA 
HETATM   15  C   UNL     1      -7.230  15.363  71.927  1.00  0.00     3.806 A  
HETATM   16  C   UNL     1      -6.624  19.138  69.674  1.00  0.00    -0.220 A  
HETATM   17  C   UNL     1      -5.746  15.286  71.698  1.00  0.00     0.381 A  
HETATM   18  N   UNL     1      -5.525  18.417  69.869  1.00  0.00    -0.217 NA 
HETATM   19  C   UNL     1      -5.186  16.287  71.014  1.00  0.00    -0.104 A  
HETATM   20  N   UNL     1      -5.965  17.336  70.561  1.00  0.00     0.078 NA 
BRANCH  15  21
HETATM   21  N   UNL     1      -7.769  14.338  72.670  1.00  0.00     4.875 NA 
HETATM   22  C   UNL     1      -9.033  12.475  73.403  1.00  0.00    22.933 C  
HETATM   23  C   UNL     1      -7.130  13.819  73.863  1.00  0.00     4.092 C  
HETATM   24  C   UNL     1      -9.047  13.671  72.417  1.00  0.00    13.583 C  
HETATM   25  C   UNL     1      -7.587  12.374  73.882  1.00  0.00    12.115 C  
BRANCH  24  26
HETATM   26  C   UNL     1      -9.203  13.346  70.945  1.00  0.00     7.768 A  
HETATM   27  C   UNL     1      -8.139  13.075  70.078  1.00  0.00     2.691 A  
HETATM   28  C   UNL     1      -8.342  12.880  68.709  1.00  0.00     0.140 A  
HETATM   29  F   UNL     1      -6.879  13.013  70.532  1.00  0.00     0.297 F  
HETATM   30  C   UNL     1      -9.626  12.964  68.177  1.00  0.00    -0.223 A  
HETATM   31  C   UNL     1     -10.694  13.225  69.024  1.00  0.00    -0.121 A  
HETATM   32  C   UNL     1     -10.496  13.409  70.389  1.00  0.00     2.259 A  
HETATM   33  F   UNL     1     -11.931  13.313  68.518  1.00  0.00    -0.338 F  
ENDBRANCH  24  26
ENDBRANCH  15  21
ENDBRANCH  10  12
ENDBRANCH   8  10
ENDBRANCH   6   8
TORSDOF 5
ENDMDL
