MODEL        1
REMARK 921   NORMALIZED FREE ENERGY PREDICTED BY IDOCK:   -7.91 KCAL/MOL
REMARK 922        TOTAL FREE ENERGY PREDICTED BY IDOCK:  -10.11 KCAL/MOL
REMARK 923 INTER-LIGAND FREE ENERGY PREDICTED BY IDOCK:   -9.75 KCAL/MOL
REMARK 924 INTRA-LIGAND FREE ENERGY PREDICTED BY IDOCK:   -0.35 KCAL/MOL
REMARK 927      BINDING AFFINITY PREDICTED BY RF-SCORE:    0.00 PKD
ROOT
HETATM    1  C   UNL     1      -9.705  11.043  63.024  1.00  0.00    -0.354 C  
HETATM    2  N   UNL     1     -10.718  11.167  64.067  1.00  0.00    -0.375 NA 
HETATM    3  C   UNL     1     -10.199  11.822  65.275  1.00  0.00    -0.267 C  
HETATM    4  C   UNL     1     -10.042  13.345  65.159  1.00  0.00    -0.266 C  
HETATM    5  C   UNL     1     -11.328  14.029  64.665  1.00  0.00    -0.378 C  
HETATM    6  C   UNL     1     -11.789  13.328  63.382  1.00  0.00    -0.415 C  
HETATM    7  C   UNL     1     -11.937  11.822  63.582  1.00  0.00    -0.385 C  
ENDROOT
BRANCH   5   8
HETATM    8  C   UNL     1     -12.397  14.070  65.772  1.00  0.00    -0.480 C  
HETATM    9  O   UNL     1     -13.590  13.857  65.554  1.00  0.00    -0.579 OA 
BRANCH   8  10
HETATM   10  C   UNL     1     -11.971  14.313  67.181  1.00  0.00    -0.417 A  
HETATM   11  C   UNL     1     -11.654  15.591  67.615  1.00  0.00    -0.147 A  
HETATM   12  C   UNL     1     -11.267  15.754  68.941  1.00  0.00    -0.332 A  
HETATM   13  C   UNL     1     -11.203  14.638  69.775  1.00  0.00    -0.296 A  
HETATM   14  C   UNL     1     -11.537  13.390  69.258  1.00  0.00    -0.310 A  
HETATM   15  N   UNL     1     -11.929  13.235  67.987  1.00  0.00    -0.345 NA 
BRANCH  14  16
HETATM   16  N   UNL     1     -11.454  12.273  70.102  1.00  0.00    -0.518 N  
HETATM   17  H   UNL     1     -11.319  12.438  71.100  1.00  0.00     0.000 HD 
HETATM   18  C   UNL     1     -11.543  10.959  69.670  1.00  0.00    -0.322 C  
HETATM   19  O   UNL     1     -11.687  10.605  68.504  1.00  0.00    -0.364 OA 
BRANCH  18  20
HETATM   20  C   UNL     1     -11.462   9.898  70.714  1.00  0.00    -0.433 A  
HETATM   21  C   UNL     1     -12.595   9.371  71.342  1.00  0.00    -0.348 A  
HETATM   22  C   UNL     1     -12.495   8.364  72.300  1.00  0.00    -0.417 A  
HETATM   23  F   UNL     1     -13.824   9.820  71.041  1.00  0.00    -0.399 F  
HETATM   24  C   UNL     1     -11.243   7.874  72.639  1.00  0.00    -0.398 A  
HETATM   25  C   UNL     1     -10.097   8.374  72.044  1.00  0.00    -0.364 A  
HETATM   26  F   UNL     1     -11.140   6.902  73.555  1.00  0.00    -0.291 F  
HETATM   27  C   UNL     1     -10.213   9.382  71.086  1.00  0.00    -0.291 A  
HETATM   28  F   UNL     1      -9.072   9.833  70.546  1.00  0.00    -0.264 F  
ENDBRANCH  18  20
ENDBRANCH  14  16
ENDBRANCH   8  10
ENDBRANCH   5   8
TORSDOF 4
ENDMDL
MODEL        2
REMARK 921   NORMALIZED FREE ENERGY PREDICTED BY IDOCK:   -7.80 KCAL/MOL
REMARK 922        TOTAL FREE ENERGY PREDICTED BY IDOCK:   -9.98 KCAL/MOL
REMARK 923 INTER-LIGAND FREE ENERGY PREDICTED BY IDOCK:   -9.35 KCAL/MOL
REMARK 924 INTRA-LIGAND FREE ENERGY PREDICTED BY IDOCK:   -0.63 KCAL/MOL
REMARK 927      BINDING AFFINITY PREDICTED BY RF-SCORE:    0.00 PKD
ROOT
HETATM    1  C   UNL     1      -7.911  20.218  67.377  1.00  0.00    -0.329 C  
HETATM    2  N   UNL     1      -8.489  19.584  66.196  1.00  0.00    -0.368 NA 
HETATM    3  C   UNL     1      -8.052  18.190  66.040  1.00  0.00    -0.083 C  
HETATM    4  C   UNL     1      -8.738  17.195  66.988  1.00  0.00    -0.244 C  
HETATM    5  C   UNL     1     -10.271  17.305  66.941  1.00  0.00    -0.322 C  
HETATM    6  C   UNL     1     -10.660  18.772  67.155  1.00  0.00    -0.491 C  
HETATM    7  C   UNL     1      -9.951  19.694  66.166  1.00  0.00    -0.463 C  
ENDROOT
BRANCH   5   8
HETATM    8  C   UNL     1     -10.833  16.692  65.645  1.00  0.00    -0.137 C  
HETATM    9  O   UNL     1     -11.141  17.373  64.666  1.00  0.00    -1.029 OA 
BRANCH   8  10
HETATM   10  C   UNL     1     -10.950  15.209  65.536  1.00  0.00    -0.365 A  
HETATM   11  C   UNL     1     -10.672  14.563  64.341  1.00  0.00    -0.008 A  
HETATM   12  C   UNL     1     -10.796  13.178  64.302  1.00  0.00    -0.430 A  
HETATM   13  C   UNL     1     -11.200  12.497  65.450  1.00  0.00    -0.343 A  
HETATM   14  C   UNL     1     -11.461  13.223  66.608  1.00  0.00    -0.347 A  
HETATM   15  N   UNL     1     -11.322  14.554  66.652  1.00  0.00    -0.347 NA 
BRANCH  14  16
HETATM   16  N   UNL     1     -11.881  12.528  67.752  1.00  0.00    -0.350 N  
HETATM   17  H   UNL     1     -12.880  12.357  67.866  1.00  0.00     0.000 HD 
HETATM   18  C   UNL     1     -11.027  12.060  68.738  1.00  0.00    -0.239 C  
HETATM   19  O   UNL     1      -9.809  12.204  68.748  1.00  0.00    -0.145 OA 
BRANCH  18  20
HETATM   20  C   UNL     1     -11.648  11.316  69.871  1.00  0.00    -0.413 A  
HETATM   21  C   UNL     1     -12.451  11.939  70.831  1.00  0.00    -0.300 A  
HETATM   22  C   UNL     1     -13.038  11.219  71.870  1.00  0.00    -0.510 A  
HETATM   23  F   UNL     1     -12.686  13.261  70.784  1.00  0.00    -0.385 F  
HETATM   24  C   UNL     1     -12.819   9.852  71.954  1.00  0.00    -0.429 A  
HETATM   25  C   UNL     1     -12.026   9.200  71.026  1.00  0.00    -0.344 A  
HETATM   26  F   UNL     1     -13.386   9.152  72.946  1.00  0.00    -0.489 F  
HETATM   27  C   UNL     1     -11.444   9.934  69.992  1.00  0.00    -0.217 A  
HETATM   28  F   UNL     1     -10.681   9.253  69.125  1.00  0.00    -0.222 F  
ENDBRANCH  18  20
ENDBRANCH  14  16
ENDBRANCH   8  10
ENDBRANCH   5   8
TORSDOF 4
ENDMDL
MODEL        3
REMARK 921   NORMALIZED FREE ENERGY PREDICTED BY IDOCK:   -7.66 KCAL/MOL
REMARK 922        TOTAL FREE ENERGY PREDICTED BY IDOCK:   -9.80 KCAL/MOL
REMARK 923 INTER-LIGAND FREE ENERGY PREDICTED BY IDOCK:   -9.22 KCAL/MOL
REMARK 924 INTRA-LIGAND FREE ENERGY PREDICTED BY IDOCK:   -0.58 KCAL/MOL
REMARK 927      BINDING AFFINITY PREDICTED BY RF-SCORE:    0.00 PKD
ROOT
HETATM    1  C   UNL     1      -7.848  19.859  67.535  1.00  0.00    -0.290 C  
HETATM    2  N   UNL     1      -8.445  19.306  66.323  1.00  0.00    -0.339 NA 
HETATM    3  C   UNL     1      -8.064  17.904  66.102  1.00  0.00    -0.173 C  
HETATM    4  C   UNL     1      -8.794  16.893  66.999  1.00  0.00    -0.231 C  
HETATM    5  C   UNL     1     -10.322  17.068  66.952  1.00  0.00    -0.303 C  
HETATM    6  C   UNL     1     -10.652  18.538  67.234  1.00  0.00    -0.453 C  
HETATM    7  C   UNL     1      -9.901  19.477  66.293  1.00  0.00    -0.429 C  
ENDROOT
BRANCH   5   8
HETATM    8  C   UNL     1     -10.900  16.541  65.626  1.00  0.00    -0.160 C  
HETATM    9  O   UNL     1     -11.112  17.270  64.656  1.00  0.00    -1.052 OA 
BRANCH   8  10
HETATM   10  C   UNL     1     -11.157  15.079  65.477  1.00  0.00    -0.357 A  
HETATM   11  C   UNL     1     -11.087  14.472  64.232  1.00  0.00    -0.024 A  
HETATM   12  C   UNL     1     -11.334  13.105  64.158  1.00  0.00    -0.440 A  
HETATM   13  C   UNL     1     -11.648  12.403  65.322  1.00  0.00    -0.419 A  
HETATM   14  C   UNL     1     -11.698  13.091  66.530  1.00  0.00    -0.382 A  
HETATM   15  N   UNL     1     -11.442  14.403  66.606  1.00  0.00    -0.351 NA 
BRANCH  14  16
HETATM   16  N   UNL     1     -12.030  12.378  67.692  1.00  0.00    -0.278 N  
HETATM   17  H   UNL     1     -13.010  12.139  67.841  1.00  0.00     0.000 HD 
HETATM   18  C   UNL     1     -11.113  11.979  68.651  1.00  0.00    -0.250 C  
HETATM   19  O   UNL     1      -9.908  12.209  68.619  1.00  0.00    -0.188 OA 
BRANCH  18  20
HETATM   20  C   UNL     1     -11.642  11.203  69.809  1.00  0.00    -0.409 A  
HETATM   21  C   UNL     1     -11.361   9.847  69.999  1.00  0.00    -0.249 A  
HETATM   22  C   UNL     1     -11.850   9.148  71.101  1.00  0.00    -0.374 A  
HETATM   23  F   UNL     1     -10.604   9.168  69.121  1.00  0.00    -0.215 F  
HETATM   24  C   UNL     1     -12.635   9.813  72.030  1.00  0.00    -0.347 A  
HETATM   25  C   UNL     1     -12.941  11.155  71.874  1.00  0.00    -0.477 A  
HETATM   26  F   UNL     1     -13.103   9.149  73.095  1.00  0.00    -0.359 F  
HETATM   27  C   UNL     1     -12.444  11.841  70.766  1.00  0.00    -0.312 A  
HETATM   28  F   UNL     1     -12.776  13.136  70.661  1.00  0.00    -0.361 F  
ENDBRANCH  18  20
ENDBRANCH  14  16
ENDBRANCH   8  10
ENDBRANCH   5   8
TORSDOF 4
ENDMDL
MODEL        4
REMARK 921   NORMALIZED FREE ENERGY PREDICTED BY IDOCK:   -7.53 KCAL/MOL
REMARK 922        TOTAL FREE ENERGY PREDICTED BY IDOCK:   -9.64 KCAL/MOL
REMARK 923 INTER-LIGAND FREE ENERGY PREDICTED BY IDOCK:   -9.62 KCAL/MOL
REMARK 924 INTRA-LIGAND FREE ENERGY PREDICTED BY IDOCK:   -0.02 KCAL/MOL
REMARK 927      BINDING AFFINITY PREDICTED BY RF-SCORE:    0.00 PKD
ROOT
HETATM    1  C   UNL     1     -10.456  13.958  64.601  1.00  0.00    -0.396 C  
HETATM    2  N   UNL     1     -11.253  14.821  65.468  1.00  0.00    -0.337 NA 
HETATM    3  C   UNL     1     -12.265  14.072  66.226  1.00  0.00    -0.462 C  
HETATM    4  C   UNL     1     -11.712  13.278  67.418  1.00  0.00    -0.419 C  
HETATM    5  C   UNL     1     -10.851  14.147  68.351  1.00  0.00    -0.266 C  
HETATM    6  C   UNL     1      -9.791  14.863  67.506  1.00  0.00    -0.217 C  
HETATM    7  C   UNL     1     -10.419  15.641  66.352  1.00  0.00    -0.305 C  
ENDROOT
BRANCH   5   8
HETATM    8  C   UNL     1     -11.726  15.095  69.191  1.00  0.00    -0.325 C  
HETATM    9  O   UNL     1     -11.845  16.294  68.933  1.00  0.00    -0.284 OA 
BRANCH   8  10
HETATM   10  C   UNL     1     -12.517  14.537  70.326  1.00  0.00    -0.348 A  
HETATM   11  C   UNL     1     -13.399  15.339  71.035  1.00  0.00    -0.537 A  
HETATM   12  C   UNL     1     -14.111  14.760  72.081  1.00  0.00    -0.604 A  
HETATM   13  C   UNL     1     -13.907  13.414  72.382  1.00  0.00    -0.665 A  
HETATM   14  C   UNL     1     -13.001  12.682  71.621  1.00  0.00    -0.299 A  
HETATM   15  N   UNL     1     -12.330  13.232  70.601  1.00  0.00    -0.360 NA 
BRANCH  14  16
HETATM   16  N   UNL     1     -12.793  11.333  71.943  1.00  0.00    -0.361 N  
HETATM   17  H   UNL     1     -13.097  11.009  72.861  1.00  0.00     0.000 HD 
HETATM   18  C   UNL     1     -12.201  10.410  71.094  1.00  0.00    -0.394 C  
HETATM   19  O   UNL     1     -11.771  10.653  69.972  1.00  0.00    -0.270 OA 
BRANCH  18  20
HETATM   20  C   UNL     1     -12.088   9.010  71.594  1.00  0.00    -0.422 A  
HETATM   21  C   UNL     1     -13.164   8.116  71.584  1.00  0.00    -0.332 A  
HETATM   22  C   UNL     1     -13.027   6.805  72.036  1.00  0.00    -0.156 A  
HETATM   23  F   UNL     1     -14.371   8.494  71.133  1.00  0.00    -0.411 F  
HETATM   24  C   UNL     1     -11.797   6.378  72.510  1.00  0.00    -0.135 A  
HETATM   25  C   UNL     1     -10.709   7.234  72.542  1.00  0.00    -0.301 A  
HETATM   26  F   UNL     1     -11.657   5.117  72.941  1.00  0.00    -0.329 F  
HETATM   27  C   UNL     1     -10.860   8.544  72.086  1.00  0.00    -0.357 A  
HETATM   28  F   UNL     1      -9.777   9.331  72.145  1.00  0.00    -0.325 F  
ENDBRANCH  18  20
ENDBRANCH  14  16
ENDBRANCH   8  10
ENDBRANCH   5   8
TORSDOF 4
ENDMDL
MODEL        5
REMARK 921   NORMALIZED FREE ENERGY PREDICTED BY IDOCK:   -7.34 KCAL/MOL
REMARK 922        TOTAL FREE ENERGY PREDICTED BY IDOCK:   -9.41 KCAL/MOL
REMARK 923 INTER-LIGAND FREE ENERGY PREDICTED BY IDOCK:   -8.58 KCAL/MOL
REMARK 924 INTRA-LIGAND FREE ENERGY PREDICTED BY IDOCK:   -0.83 KCAL/MOL
REMARK 927      BINDING AFFINITY PREDICTED BY RF-SCORE:    0.00 PKD
ROOT
HETATM    1  C   UNL     1      -5.724  17.783  68.675  1.00  0.00    -0.173 C  
HETATM    2  N   UNL     1      -7.152  17.584  68.899  1.00  0.00    -0.250 NA 
HETATM    3  C   UNL     1      -7.945  18.765  68.533  1.00  0.00    -0.345 C  
HETATM    4  C   UNL     1      -8.146  18.959  67.023  1.00  0.00    -0.272 C  
HETATM    5  C   UNL     1      -8.687  17.692  66.339  1.00  0.00    -0.263 C  
HETATM    6  C   UNL     1      -7.791  16.510  66.725  1.00  0.00    -0.296 C  
HETATM    7  C   UNL     1      -7.654  16.375  68.239  1.00  0.00    -0.163 C  
ENDROOT
BRANCH   5   8
HETATM    8  C   UNL     1     -10.177  17.478  66.664  1.00  0.00    -0.332 C  
HETATM    9  O   UNL     1     -10.875  18.349  67.185  1.00  0.00    -0.373 OA 
BRANCH   8  10
HETATM   10  C   UNL     1     -10.826  16.193  66.276  1.00  0.00    -0.135 A  
HETATM   11  C   UNL     1     -11.067  15.896  64.943  1.00  0.00    -0.400 A  
HETATM   12  C   UNL     1     -11.673  14.680  64.643  1.00  0.00    -0.431 A  
HETATM   13  C   UNL     1     -12.022  13.817  65.682  1.00  0.00    -0.410 A  
HETATM   14  C   UNL     1     -11.747  14.195  66.993  1.00  0.00    -0.405 A  
HETATM   15  N   UNL     1     -11.145  15.356  67.281  1.00  0.00    -0.322 NA 
BRANCH  14  16
HETATM   16  N   UNL     1     -12.116  13.326  68.030  1.00  0.00    -0.295 N  
HETATM   17  H   UNL     1     -13.108  13.242  68.251  1.00  0.00     0.000 HD 
HETATM   18  C   UNL     1     -11.221  12.575  68.776  1.00  0.00    -0.273 C  
HETATM   19  O   UNL     1     -10.002  12.585  68.639  1.00  0.00    -0.196 OA 
BRANCH  18  20
HETATM   20  C   UNL     1     -11.796  11.682  69.822  1.00  0.00    -0.428 A  
HETATM   21  C   UNL     1     -11.637  10.293  69.798  1.00  0.00    -0.227 A  
HETATM   22  C   UNL     1     -12.166   9.481  70.800  1.00  0.00    -0.269 A  
HETATM   23  F   UNL     1     -10.962   9.691  68.804  1.00  0.00    -0.243 F  
HETATM   24  C   UNL     1     -12.868  10.064  71.843  1.00  0.00    -0.426 A  
HETATM   25  C   UNL     1     -13.053  11.435  71.899  1.00  0.00    -0.505 A  
HETATM   26  F   UNL     1     -13.375   9.291  72.812  1.00  0.00    -0.484 F  
HETATM   27  C   UNL     1     -12.518  12.236  70.889  1.00  0.00    -0.276 A  
HETATM   28  F   UNL     1     -12.731  13.555  70.990  1.00  0.00    -0.386 F  
ENDBRANCH  18  20
ENDBRANCH  14  16
ENDBRANCH   8  10
ENDBRANCH   5   8
TORSDOF 4
ENDMDL
MODEL        6
REMARK 921   NORMALIZED FREE ENERGY PREDICTED BY IDOCK:   -7.33 KCAL/MOL
REMARK 922        TOTAL FREE ENERGY PREDICTED BY IDOCK:   -9.40 KCAL/MOL
REMARK 923 INTER-LIGAND FREE ENERGY PREDICTED BY IDOCK:   -9.48 KCAL/MOL
REMARK 924 INTRA-LIGAND FREE ENERGY PREDICTED BY IDOCK:    0.08 KCAL/MOL
REMARK 927      BINDING AFFINITY PREDICTED BY RF-SCORE:    0.00 PKD
ROOT
HETATM    1  C   UNL     1     -10.728  13.621  64.458  1.00  0.00    -0.407 C  
HETATM    2  N   UNL     1     -11.477  14.515  65.336  1.00  0.00    -0.340 NA 
HETATM    3  C   UNL     1     -12.411  13.789  66.208  1.00  0.00    -0.391 C  
HETATM    4  C   UNL     1     -11.753  13.073  67.395  1.00  0.00    -0.427 C  
HETATM    5  C   UNL     1     -10.844  14.008  68.211  1.00  0.00    -0.268 C  
HETATM    6  C   UNL     1      -9.868  14.696  67.251  1.00  0.00    -0.231 C  
HETATM    7  C   UNL     1     -10.598  15.398  66.109  1.00  0.00    -0.316 C  
ENDROOT
BRANCH   5   8
HETATM    8  C   UNL     1     -11.674  14.984  69.064  1.00  0.00    -0.325 C  
HETATM    9  O   UNL     1     -11.799  16.176  68.780  1.00  0.00    -0.339 OA 
BRANCH   8  10
HETATM   10  C   UNL     1     -12.416  14.462  70.248  1.00  0.00    -0.354 A  
HETATM   11  C   UNL     1     -13.230  15.297  70.998  1.00  0.00    -0.546 A  
HETATM   12  C   UNL     1     -13.899  14.751  72.089  1.00  0.00    -0.578 A  
HETATM   13  C   UNL     1     -13.722  13.401  72.392  1.00  0.00    -0.698 A  
HETATM   14  C   UNL     1     -12.885  12.634  71.587  1.00  0.00    -0.264 A  
HETATM   15  N   UNL     1     -12.256  13.154  70.525  1.00  0.00    -0.361 NA 
BRANCH  14  16
HETATM   16  N   UNL     1     -12.703  11.282  71.911  1.00  0.00    -0.274 N  
HETATM   17  H   UNL     1     -13.126  10.936  72.771  1.00  0.00     0.000 HD 
HETATM   18  C   UNL     1     -11.984  10.384  71.137  1.00  0.00    -0.362 C  
HETATM   19  O   UNL     1     -11.405  10.656  70.090  1.00  0.00    -0.286 OA 
BRANCH  18  20
HETATM   20  C   UNL     1     -11.919   8.975  71.622  1.00  0.00    -0.426 A  
HETATM   21  C   UNL     1     -10.758   8.419  72.168  1.00  0.00    -0.337 A  
HETATM   22  C   UNL     1     -10.728   7.106  72.635  1.00  0.00    -0.303 A  
HETATM   23  F   UNL     1      -9.627   9.137  72.265  1.00  0.00    -0.328 F  
HETATM   24  C   UNL     1     -11.876   6.333  72.552  1.00  0.00    -0.156 A  
HETATM   25  C   UNL     1     -13.043   6.845  72.012  1.00  0.00    -0.153 A  
HETATM   26  F   UNL     1     -11.856   5.072  73.004  1.00  0.00    -0.374 F  
HETATM   27  C   UNL     1     -13.058   8.161  71.549  1.00  0.00    -0.287 A  
HETATM   28  F   UNL     1     -14.212   8.604  71.031  1.00  0.00    -0.350 F  
ENDBRANCH  18  20
ENDBRANCH  14  16
ENDBRANCH   8  10
ENDBRANCH   5   8
TORSDOF 4
ENDMDL
MODEL        7
REMARK 921   NORMALIZED FREE ENERGY PREDICTED BY IDOCK:   -7.32 KCAL/MOL
REMARK 922        TOTAL FREE ENERGY PREDICTED BY IDOCK:   -9.39 KCAL/MOL
REMARK 923 INTER-LIGAND FREE ENERGY PREDICTED BY IDOCK:   -9.27 KCAL/MOL
REMARK 924 INTRA-LIGAND FREE ENERGY PREDICTED BY IDOCK:   -0.12 KCAL/MOL
REMARK 927      BINDING AFFINITY PREDICTED BY RF-SCORE:    0.00 PKD
ROOT
HETATM    1  C   UNL     1      -7.837  20.256  67.530  1.00  0.00    -0.305 C  
HETATM    2  N   UNL     1      -8.339  19.304  68.515  1.00  0.00    -0.357 NA 
HETATM    3  C   UNL     1      -9.778  19.461  68.762  1.00  0.00    -0.449 C  
HETATM    4  C   UNL     1     -10.683  18.892  67.660  1.00  0.00    -0.469 C  
HETATM    5  C   UNL     1     -10.334  17.434  67.313  1.00  0.00    -0.336 C  
HETATM    6  C   UNL     1      -8.832  17.349  67.024  1.00  0.00    -0.248 C  
HETATM    7  C   UNL     1      -8.002  17.919  68.171  1.00  0.00    -0.265 C  
ENDROOT
BRANCH   5   8
HETATM    8  C   UNL     1     -10.814  16.471  68.415  1.00  0.00    -0.348 C  
HETATM    9  O   UNL     1     -10.948  16.819  69.590  1.00  0.00    -0.287 OA 
BRANCH   8  10
HETATM   10  C   UNL     1     -11.196  15.078  68.045  1.00  0.00    -0.316 A  
HETATM   11  C   UNL     1     -11.637  14.782  66.764  1.00  0.00    -0.333 A  
HETATM   12  C   UNL     1     -11.977  13.464  66.478  1.00  0.00    -0.452 A  
HETATM   13  C   UNL     1     -11.872  12.499  67.480  1.00  0.00    -0.389 A  
HETATM   14  C   UNL     1     -11.423  12.883  68.740  1.00  0.00    -0.303 A  
HETATM   15  N   UNL     1     -11.076  14.148  69.011  1.00  0.00    -0.256 NA 
BRANCH  14  16
HETATM   16  N   UNL     1     -11.336  11.907  69.745  1.00  0.00    -0.478 N  
HETATM   17  H   UNL     1     -11.594  12.176  70.694  1.00  0.00     0.000 HD 
HETATM   18  C   UNL     1     -10.922  10.602  69.531  1.00  0.00    -0.272 C  
HETATM   19  O   UNL     1     -10.565  10.139  68.453  1.00  0.00    -0.193 OA 
BRANCH  18  20
HETATM   20  C   UNL     1     -10.919   9.693  70.713  1.00  0.00    -0.397 A  
HETATM   21  C   UNL     1     -12.094   9.287  71.354  1.00  0.00    -0.348 A  
HETATM   22  C   UNL     1     -12.067   8.419  72.445  1.00  0.00    -0.443 A  
HETATM   23  F   UNL     1     -13.295   9.720  70.937  1.00  0.00    -0.400 F  
HETATM   24  C   UNL     1     -10.846   7.950  72.905  1.00  0.00    -0.386 A  
HETATM   25  C   UNL     1      -9.661   8.333  72.301  1.00  0.00    -0.362 A  
HETATM   26  F   UNL     1     -10.813   7.111  73.949  1.00  0.00    -0.399 F  
HETATM   27  C   UNL     1      -9.704   9.202  71.211  1.00  0.00    -0.281 A  
HETATM   28  F   UNL     1      -8.527   9.546  70.668  1.00  0.00    -0.199 F  
ENDBRANCH  18  20
ENDBRANCH  14  16
ENDBRANCH   8  10
ENDBRANCH   5   8
TORSDOF 4
ENDMDL
MODEL        8
REMARK 921   NORMALIZED FREE ENERGY PREDICTED BY IDOCK:   -7.27 KCAL/MOL
REMARK 922        TOTAL FREE ENERGY PREDICTED BY IDOCK:   -9.33 KCAL/MOL
REMARK 923 INTER-LIGAND FREE ENERGY PREDICTED BY IDOCK:   -8.97 KCAL/MOL
REMARK 924 INTRA-LIGAND FREE ENERGY PREDICTED BY IDOCK:   -0.35 KCAL/MOL
REMARK 927      BINDING AFFINITY PREDICTED BY RF-SCORE:    0.00 PKD
ROOT
HETATM    1  C   UNL     1      -6.389   8.230  66.547  1.00  0.00    -0.054 C  
HETATM    2  N   UNL     1      -7.039   8.903  65.427  1.00  0.00    -0.080 NA 
HETATM    3  C   UNL     1      -8.365   8.343  65.131  1.00  0.00    -0.167 C  
HETATM    4  C   UNL     1      -9.471   8.765  66.109  1.00  0.00    -0.315 C  
HETATM    5  C   UNL     1      -9.540  10.292  66.288  1.00  0.00    -0.238 C  
HETATM    6  C   UNL     1      -8.139  10.804  66.638  1.00  0.00    -0.142 C  
HETATM    7  C   UNL     1      -7.100  10.356  65.613  1.00  0.00    -0.142 C  
ENDROOT
BRANCH   5   8
HETATM    8  C   UNL     1     -10.162  10.968  65.053  1.00  0.00    -0.299 C  
HETATM    9  O   UNL     1     -10.008  10.537  63.909  1.00  0.00    -0.325 OA 
BRANCH   8  10
HETATM   10  C   UNL     1     -11.043  12.157  65.244  1.00  0.00    -0.321 A  
HETATM   11  C   UNL     1     -11.556  12.840  64.152  1.00  0.00    -0.456 A  
HETATM   12  C   UNL     1     -12.374  13.939  64.394  1.00  0.00    -0.400 A  
HETATM   13  C   UNL     1     -12.639  14.316  65.710  1.00  0.00    -0.405 A  
HETATM   14  C   UNL     1     -12.082  13.575  66.748  1.00  0.00    -0.375 A  
HETATM   15  N   UNL     1     -11.311  12.505  66.517  1.00  0.00    -0.314 NA 
BRANCH  14  16
HETATM   16  N   UNL     1     -12.343  13.972  68.068  1.00  0.00    -0.500 N  
HETATM   17  H   UNL     1     -13.310  14.171  68.324  1.00  0.00     0.000 HD 
HETATM   18  C   UNL     1     -11.372  14.112  69.048  1.00  0.00    -0.275 C  
HETATM   19  O   UNL     1     -10.171  13.926  68.886  1.00  0.00    -0.213 OA 
BRANCH  18  20
HETATM   20  C   UNL     1     -11.837  14.516  70.406  1.00  0.00    -0.378 A  
HETATM   21  C   UNL     1     -12.546  13.653  71.248  1.00  0.00    -0.351 A  
HETATM   22  C   UNL     1     -12.951  14.047  72.522  1.00  0.00    -0.480 A  
HETATM   23  F   UNL     1     -12.859  12.408  70.855  1.00  0.00    -0.363 F  
HETATM   24  C   UNL     1     -12.646  15.325  72.963  1.00  0.00    -0.430 A  
HETATM   25  C   UNL     1     -11.952  16.211  72.157  1.00  0.00    -0.623 A  
HETATM   26  F   UNL     1     -13.027  15.709  74.189  1.00  0.00    -0.587 F  
HETATM   27  C   UNL     1     -11.552  15.803  70.884  1.00  0.00    -0.405 A  
HETATM   28  F   UNL     1     -10.889  16.702  70.144  1.00  0.00    -0.333 F  
ENDBRANCH  18  20
ENDBRANCH  14  16
ENDBRANCH   8  10
ENDBRANCH   5   8
TORSDOF 4
ENDMDL
MODEL        9
REMARK 921   NORMALIZED FREE ENERGY PREDICTED BY IDOCK:   -7.27 KCAL/MOL
REMARK 922        TOTAL FREE ENERGY PREDICTED BY IDOCK:   -9.32 KCAL/MOL
REMARK 923 INTER-LIGAND FREE ENERGY PREDICTED BY IDOCK:   -8.85 KCAL/MOL
REMARK 924 INTRA-LIGAND FREE ENERGY PREDICTED BY IDOCK:   -0.47 KCAL/MOL
REMARK 927      BINDING AFFINITY PREDICTED BY RF-SCORE:    0.00 PKD
ROOT
HETATM    1  C   UNL     1     -10.871   6.428  71.295  1.00  0.00    -0.257 C  
HETATM    2  N   UNL     1     -11.617   7.344  70.438  1.00  0.00    -0.230 NA 
HETATM    3  C   UNL     1     -12.715   8.011  71.153  1.00  0.00    -0.131 C  
HETATM    4  C   UNL     1     -12.273   9.146  72.088  1.00  0.00    -0.408 C  
HETATM    5  C   UNL     1     -11.369  10.169  71.379  1.00  0.00    -0.134 C  
HETATM    6  C   UNL     1     -10.224   9.414  70.694  1.00  0.00    -0.353 C  
HETATM    7  C   UNL     1     -10.744   8.315  69.771  1.00  0.00    -0.221 C  
ENDROOT
BRANCH   5   8
HETATM    8  C   UNL     1     -12.185  11.064  70.428  1.00  0.00    -0.373 C  
HETATM    9  O   UNL     1     -12.627  10.661  69.351  1.00  0.00    -0.279 OA 
BRANCH   8  10
HETATM   10  C   UNL     1     -12.514  12.457  70.848  1.00  0.00    -0.274 A  
HETATM   11  C   UNL     1     -13.165  12.699  72.048  1.00  0.00    -0.531 A  
HETATM   12  C   UNL     1     -13.442  14.019  72.386  1.00  0.00    -0.639 A  
HETATM   13  C   UNL     1     -13.070  15.041  71.512  1.00  0.00    -0.454 A  
HETATM   14  C   UNL     1     -12.421  14.709  70.326  1.00  0.00    -0.346 A  
HETATM   15  N   UNL     1     -12.136  13.440  70.009  1.00  0.00    -0.339 NA 
BRANCH  14  16
HETATM   16  N   UNL     1     -12.065  15.743  69.448  1.00  0.00    -0.485 N  
HETATM   17  H   UNL     1     -12.807  16.191  68.911  1.00  0.00     0.000 HD 
HETATM   18  C   UNL     1     -10.768  16.197  69.262  1.00  0.00    -0.295 C  
HETATM   19  O   UNL     1      -9.773  15.747  69.821  1.00  0.00    -0.275 OA 
BRANCH  18  20
HETATM   20  C   UNL     1     -10.578  17.327  68.308  1.00  0.00    -0.383 A  
HETATM   21  C   UNL     1     -10.341  18.638  68.730  1.00  0.00    -0.155 A  
HETATM   22  C   UNL     1     -10.146  19.674  67.818  1.00  0.00    -0.538 A  
HETATM   23  F   UNL     1     -10.292  18.946  70.036  1.00  0.00     0.052 F  
HETATM   24  C   UNL     1     -10.190  19.397  66.460  1.00  0.00    -0.450 A  
HETATM   25  C   UNL     1     -10.429  18.112  66.002  1.00  0.00    -0.346 A  
HETATM   26  F   UNL     1      -9.998  20.387  65.578  1.00  0.00    -0.491 F  
HETATM   27  C   UNL     1     -10.622  17.086  66.927  1.00  0.00    -0.208 A  
HETATM   28  F   UNL     1     -10.855  15.863  66.429  1.00  0.00    -0.309 F  
ENDBRANCH  18  20
ENDBRANCH  14  16
ENDBRANCH   8  10
ENDBRANCH   5   8
TORSDOF 4
ENDMDL
MODEL       10
REMARK 921   NORMALIZED FREE ENERGY PREDICTED BY IDOCK:   -7.24 KCAL/MOL
REMARK 922        TOTAL FREE ENERGY PREDICTED BY IDOCK:   -9.29 KCAL/MOL
REMARK 923 INTER-LIGAND FREE ENERGY PREDICTED BY IDOCK:   -8.48 KCAL/MOL
REMARK 924 INTRA-LIGAND FREE ENERGY PREDICTED BY IDOCK:   -0.81 KCAL/MOL
REMARK 927      BINDING AFFINITY PREDICTED BY RF-SCORE:    0.00 PKD
ROOT
HETATM    1  C   UNL     1      -8.394   7.587  66.547  1.00  0.00    -0.126 C  
HETATM    2  N   UNL     1      -9.702   8.217  66.401  1.00  0.00    -0.243 NA 
HETATM    3  C   UNL     1     -10.365   8.436  67.695  1.00  0.00    -0.252 C  
HETATM    4  C   UNL     1      -9.814   9.620  68.503  1.00  0.00    -0.170 C  
HETATM    5  C   UNL     1      -9.764  10.918  67.678  1.00  0.00    -0.188 C  
HETATM    6  C   UNL     1      -9.023  10.631  66.366  1.00  0.00    -0.176 C  
HETATM    7  C   UNL     1      -9.639   9.453  65.615  1.00  0.00    -0.274 C  
ENDROOT
BRANCH   5   8
HETATM    8  C   UNL     1     -11.173  11.507  67.483  1.00  0.00    -0.298 C  
HETATM    9  O   UNL     1     -12.145  11.138  68.143  1.00  0.00    -0.633 OA 
BRANCH   8  10
HETATM   10  C   UNL     1     -11.366  12.617  66.505  1.00  0.00    -0.326 A  
HETATM   11  C   UNL     1     -12.234  12.472  65.434  1.00  0.00    -0.475 A  
HETATM   12  C   UNL     1     -12.374  13.544  64.558  1.00  0.00    -0.406 A  
HETATM   13  C   UNL     1     -11.638  14.708  64.779  1.00  0.00    -0.418 A  
HETATM   14  C   UNL     1     -10.787  14.768  65.879  1.00  0.00    -0.330 A  
HETATM   15  N   UNL     1     -10.667  13.745  66.735  1.00  0.00    -0.276 NA 
BRANCH  14  16
HETATM   16  N   UNL     1     -10.041  15.938  66.083  1.00  0.00    -0.293 N  
HETATM   17  H   UNL     1      -9.335  16.181  65.388  1.00  0.00     0.000 HD 
HETATM   18  C   UNL     1     -10.199  16.785  67.169  1.00  0.00    -0.295 C  
HETATM   19  O   UNL     1     -10.990  16.615  68.091  1.00  0.00    -0.352 OA 
BRANCH  18  20
HETATM   20  C   UNL     1      -9.336  18.000  67.208  1.00  0.00    -0.256 A  
HETATM   21  C   UNL     1      -9.576  19.120  66.406  1.00  0.00    -0.361 A  
HETATM   22  C   UNL     1      -8.767  20.254  66.476  1.00  0.00    -0.280 A  
HETATM   23  F   UNL     1     -10.600  19.142  65.537  1.00  0.00    -0.494 F  
HETATM   24  C   UNL     1      -7.700  20.270  67.360  1.00  0.00    -0.317 A  
HETATM   25  C   UNL     1      -7.426  19.178  68.167  1.00  0.00    -0.316 A  
HETATM   26  F   UNL     1      -6.922  21.358  67.436  1.00  0.00    -0.419 F  
HETATM   27  C   UNL     1      -8.244  18.051  68.086  1.00  0.00    -0.271 A  
HETATM   28  F   UNL     1      -7.930  17.021  68.885  1.00  0.00    -0.232 F  
ENDBRANCH  18  20
ENDBRANCH  14  16
ENDBRANCH   8  10
ENDBRANCH   5   8
TORSDOF 4
ENDMDL
MODEL       11
REMARK 921   NORMALIZED FREE ENERGY PREDICTED BY IDOCK:   -7.23 KCAL/MOL
REMARK 922        TOTAL FREE ENERGY PREDICTED BY IDOCK:   -9.28 KCAL/MOL
REMARK 923 INTER-LIGAND FREE ENERGY PREDICTED BY IDOCK:   -9.10 KCAL/MOL
REMARK 924 INTRA-LIGAND FREE ENERGY PREDICTED BY IDOCK:   -0.17 KCAL/MOL
REMARK 927      BINDING AFFINITY PREDICTED BY RF-SCORE:    0.00 PKD
ROOT
HETATM    1  C   UNL     1      -7.689  20.123  67.429  1.00  0.00    -0.306 C  
HETATM    2  N   UNL     1      -8.180  19.176  68.424  1.00  0.00    -0.336 NA 
HETATM    3  C   UNL     1      -9.600  19.384  68.741  1.00  0.00    -0.432 C  
HETATM    4  C   UNL     1     -10.575  18.865  67.674  1.00  0.00    -0.501 C  
HETATM    5  C   UNL     1     -10.300  17.400  67.293  1.00  0.00    -0.336 C  
HETATM    6  C   UNL     1      -8.816  17.263  66.932  1.00  0.00    -0.259 C  
HETATM    7  C   UNL     1      -7.913  17.785  68.047  1.00  0.00    -0.244 C  
ENDROOT
BRANCH   5   8
HETATM    8  C   UNL     1     -10.764  16.440  68.404  1.00  0.00    -0.327 C  
HETATM    9  O   UNL     1     -10.876  16.789  69.580  1.00  0.00    -0.333 OA 
BRANCH   8  10
HETATM   10  C   UNL     1     -11.158  15.048  68.041  1.00  0.00    -0.300 A  
HETATM   11  C   UNL     1     -11.645  14.758  66.775  1.00  0.00    -0.333 A  
HETATM   12  C   UNL     1     -11.993  13.441  66.496  1.00  0.00    -0.452 A  
HETATM   13  C   UNL     1     -11.852  12.471  67.489  1.00  0.00    -0.389 A  
HETATM   14  C   UNL     1     -11.358  12.850  68.733  1.00  0.00    -0.290 A  
HETATM   15  N   UNL     1     -11.003  14.113  68.998  1.00  0.00    -0.256 NA 
BRANCH  14  16
HETATM   16  N   UNL     1     -11.234  11.869  69.729  1.00  0.00    -0.483 N  
HETATM   17  H   UNL     1     -11.480  12.127  70.685  1.00  0.00     0.000 HD 
HETATM   18  C   UNL     1     -10.800  10.573  69.499  1.00  0.00    -0.256 C  
HETATM   19  O   UNL     1     -10.454  10.124  68.412  1.00  0.00    -0.187 OA 
BRANCH  18  20
HETATM   20  C   UNL     1     -10.758   9.657  70.675  1.00  0.00    -0.388 A  
HETATM   21  C   UNL     1      -9.560   9.209  71.239  1.00  0.00    -0.261 A  
HETATM   22  C   UNL     1      -9.546   8.370  72.352  1.00  0.00    -0.373 A  
HETATM   23  F   UNL     1      -8.374   9.577  70.726  1.00  0.00    -0.203 F  
HETATM   24  C   UNL     1     -10.750   7.968  72.910  1.00  0.00    -0.333 A  
HETATM   25  C   UNL     1     -11.957   8.384  72.377  1.00  0.00    -0.451 A  
HETATM   26  F   UNL     1     -10.745   7.165  73.983  1.00  0.00    -0.406 F  
HETATM   27  C   UNL     1     -11.955   9.225  71.263  1.00  0.00    -0.340 A  
HETATM   28  F   UNL     1     -13.152   9.593  70.784  1.00  0.00    -0.331 F  
ENDBRANCH  18  20
ENDBRANCH  14  16
ENDBRANCH   8  10
ENDBRANCH   5   8
TORSDOF 4
ENDMDL
MODEL       12
REMARK 921   NORMALIZED FREE ENERGY PREDICTED BY IDOCK:   -7.22 KCAL/MOL
REMARK 922        TOTAL FREE ENERGY PREDICTED BY IDOCK:   -9.26 KCAL/MOL
REMARK 923 INTER-LIGAND FREE ENERGY PREDICTED BY IDOCK:   -8.54 KCAL/MOL
REMARK 924 INTRA-LIGAND FREE ENERGY PREDICTED BY IDOCK:   -0.72 KCAL/MOL
REMARK 927      BINDING AFFINITY PREDICTED BY RF-SCORE:    0.00 PKD
ROOT
HETATM    1  C   UNL     1      -9.522   4.368  67.908  1.00  0.00    -0.161 C  
HETATM    2  N   UNL     1      -9.175   5.663  68.485  1.00  0.00    -0.120 NA 
HETATM    3  C   UNL     1     -10.314   6.590  68.505  1.00  0.00    -0.192 C  
HETATM    4  C   UNL     1     -11.350   6.307  69.603  1.00  0.00    -0.492 C  
HETATM    5  C   UNL     1     -10.707   6.188  70.996  1.00  0.00    -0.317 C  
HETATM    6  C   UNL     1      -9.559   5.175  70.915  1.00  0.00    -0.235 C  
HETATM    7  C   UNL     1      -8.565   5.533  69.813  1.00  0.00    -0.112 C  
ENDROOT
BRANCH   5   8
HETATM    8  C   UNL     1     -10.287   7.567  71.534  1.00  0.00    -0.196 C  
HETATM    9  O   UNL     1      -9.142   7.812  71.916  1.00  0.00    -0.126 OA 
BRANCH   8  10
HETATM   10  C   UNL     1     -11.282   8.679  71.534  1.00  0.00    -0.290 A  
HETATM   11  C   UNL     1     -12.476   8.558  72.229  1.00  0.00    -0.448 A  
HETATM   12  C   UNL     1     -13.363   9.630  72.194  1.00  0.00    -0.545 A  
HETATM   13  C   UNL     1     -13.027  10.770  71.464  1.00  0.00    -0.562 A  
HETATM   14  C   UNL     1     -11.808  10.807  70.794  1.00  0.00    -0.339 A  
HETATM   15  N   UNL     1     -10.945   9.784  70.843  1.00  0.00    -0.326 NA 
BRANCH  14  16
HETATM   16  N   UNL     1     -11.488  11.952  70.050  1.00  0.00    -0.516 N  
HETATM   17  H   UNL     1     -11.056  12.735  70.542  1.00  0.00     0.000 HD 
HETATM   18  C   UNL     1     -11.721  12.091  68.691  1.00  0.00    -0.326 C  
HETATM   19  O   UNL     1     -12.247  11.247  67.973  1.00  0.00    -0.621 OA 
BRANCH  18  20
HETATM   20  C   UNL     1     -11.288  13.370  68.059  1.00  0.00    -0.320 A  
HETATM   21  C   UNL     1     -11.693  14.621  68.536  1.00  0.00    -0.316 A  
HETATM   22  C   UNL     1     -11.258  15.804  67.941  1.00  0.00    -0.313 A  
HETATM   23  F   UNL     1     -12.517  14.724  69.591  1.00  0.00    -0.331 F  
HETATM   24  C   UNL     1     -10.406  15.738  66.849  1.00  0.00    -0.295 A  
HETATM   25  C   UNL     1      -9.988  14.519  66.343  1.00  0.00    -0.304 A  
HETATM   26  F   UNL     1      -9.980  16.872  66.276  1.00  0.00    -0.256 F  
HETATM   27  C   UNL     1     -10.432  13.343  66.949  1.00  0.00    -0.273 A  
HETATM   28  F   UNL     1     -10.001  12.192  66.415  1.00  0.00    -0.213 F  
ENDBRANCH  18  20
ENDBRANCH  14  16
ENDBRANCH   8  10
ENDBRANCH   5   8
TORSDOF 4
ENDMDL
MODEL       13
REMARK 921   NORMALIZED FREE ENERGY PREDICTED BY IDOCK:   -7.22 KCAL/MOL
REMARK 922        TOTAL FREE ENERGY PREDICTED BY IDOCK:   -9.26 KCAL/MOL
REMARK 923 INTER-LIGAND FREE ENERGY PREDICTED BY IDOCK:   -8.42 KCAL/MOL
REMARK 924 INTRA-LIGAND FREE ENERGY PREDICTED BY IDOCK:   -0.84 KCAL/MOL
REMARK 927      BINDING AFFINITY PREDICTED BY RF-SCORE:    0.00 PKD
ROOT
HETATM    1  C   UNL     1      -9.485   4.666  67.653  1.00  0.00    -0.153 C  
HETATM    2  N   UNL     1      -9.179   5.900  68.370  1.00  0.00    -0.117 NA 
HETATM    3  C   UNL     1     -10.349   6.779  68.496  1.00  0.00    -0.190 C  
HETATM    4  C   UNL     1     -11.367   6.340  69.559  1.00  0.00    -0.475 C  
HETATM    5  C   UNL     1     -10.710   6.089  70.928  1.00  0.00    -0.329 C  
HETATM    6  C   UNL     1      -9.529   5.132  70.731  1.00  0.00    -0.224 C  
HETATM    7  C   UNL     1      -8.556   5.645  69.672  1.00  0.00    -0.110 C  
ENDROOT
BRANCH   5   8
HETATM    8  C   UNL     1     -10.334   7.414  71.614  1.00  0.00    -0.196 C  
HETATM    9  O   UNL     1      -9.223   7.616  72.108  1.00  0.00    -0.132 OA 
BRANCH   8  10
HETATM   10  C   UNL     1     -11.324   8.529  71.631  1.00  0.00    -0.295 A  
HETATM   11  C   UNL     1     -12.536   8.389  72.290  1.00  0.00    -0.401 A  
HETATM   12  C   UNL     1     -13.418   9.466  72.272  1.00  0.00    -0.539 A  
HETATM   13  C   UNL     1     -13.060  10.630  71.593  1.00  0.00    -0.555 A  
HETATM   14  C   UNL     1     -11.824  10.685  70.956  1.00  0.00    -0.296 A  
HETATM   15  N   UNL     1     -10.966   9.658  70.989  1.00  0.00    -0.341 NA 
BRANCH  14  16
HETATM   16  N   UNL     1     -11.481  11.856  70.263  1.00  0.00    -0.506 N  
HETATM   17  H   UNL     1     -11.023  12.603  70.786  1.00  0.00     0.000 HD 
HETATM   18  C   UNL     1     -11.724  12.064  68.914  1.00  0.00    -0.326 C  
HETATM   19  O   UNL     1     -12.280  11.270  68.164  1.00  0.00    -0.622 OA 
BRANCH  18  20
HETATM   20  C   UNL     1     -11.264  13.360  68.338  1.00  0.00    -0.311 A  
HETATM   21  C   UNL     1     -10.341  13.434  67.291  1.00  0.00    -0.244 A  
HETATM   22  C   UNL     1      -9.943  14.658  66.755  1.00  0.00    -0.265 A  
HETATM   23  F   UNL     1      -9.806  12.322  66.761  1.00  0.00    -0.197 F  
HETATM   24  C   UNL     1     -10.473  15.828  67.274  1.00  0.00    -0.308 A  
HETATM   25  C   UNL     1     -11.384  15.797  68.315  1.00  0.00    -0.354 A  
HETATM   26  F   UNL     1     -10.099  17.008  66.760  1.00  0.00    -0.261 F  
HETATM   27  C   UNL     1     -11.774  14.566  68.842  1.00  0.00    -0.319 A  
HETATM   28  F   UNL     1     -12.654  14.594  69.853  1.00  0.00    -0.354 F  
ENDBRANCH  18  20
ENDBRANCH  14  16
ENDBRANCH   8  10
ENDBRANCH   5   8
TORSDOF 4
ENDMDL
MODEL       14
REMARK 921   NORMALIZED FREE ENERGY PREDICTED BY IDOCK:   -7.21 KCAL/MOL
REMARK 922        TOTAL FREE ENERGY PREDICTED BY IDOCK:   -9.25 KCAL/MOL
REMARK 923 INTER-LIGAND FREE ENERGY PREDICTED BY IDOCK:   -9.01 KCAL/MOL
REMARK 924 INTRA-LIGAND FREE ENERGY PREDICTED BY IDOCK:   -0.24 KCAL/MOL
REMARK 927      BINDING AFFINITY PREDICTED BY RF-SCORE:    0.00 PKD
ROOT
HETATM    1  C   UNL     1      -8.556   6.612  67.602  1.00  0.00    -0.120 C  
HETATM    2  N   UNL     1      -9.198   7.193  66.427  1.00  0.00    -0.168 NA 
HETATM    3  C   UNL     1     -10.423   7.930  66.767  1.00  0.00    -0.247 C  
HETATM    4  C   UNL     1     -10.185   9.310  67.396  1.00  0.00    -0.304 C  
HETATM    5  C   UNL     1      -9.229  10.177  66.559  1.00  0.00    -0.182 C  
HETATM    6  C   UNL     1      -7.958   9.367  66.280  1.00  0.00    -0.111 C  
HETATM    7  C   UNL     1      -8.276   8.018  65.641  1.00  0.00    -0.135 C  
ENDROOT
BRANCH   5   8
HETATM    8  C   UNL     1      -9.924  10.706  65.292  1.00  0.00    -0.294 C  
HETATM    9  O   UNL     1      -9.834  10.143  64.200  1.00  0.00    -0.305 OA 
BRANCH   8  10
HETATM   10  C   UNL     1     -10.798  11.911  65.393  1.00  0.00    -0.294 A  
HETATM   11  C   UNL     1     -11.268  12.541  64.251  1.00  0.00    -0.407 A  
HETATM   12  C   UNL     1     -12.082  13.658  64.410  1.00  0.00    -0.470 A  
HETATM   13  C   UNL     1     -12.384  14.105  65.696  1.00  0.00    -0.473 A  
HETATM   14  C   UNL     1     -11.868  13.415  66.788  1.00  0.00    -0.403 A  
HETATM   15  N   UNL     1     -11.101  12.327  66.637  1.00  0.00    -0.281 NA 
BRANCH  14  16
HETATM   16  N   UNL     1     -12.166  13.882  68.076  1.00  0.00    -0.489 N  
HETATM   17  H   UNL     1     -13.145  14.050  68.308  1.00  0.00     0.000 HD 
HETATM   18  C   UNL     1     -11.217  14.131  69.056  1.00  0.00    -0.271 C  
HETATM   19  O   UNL     1     -10.006  13.993  68.920  1.00  0.00    -0.196 OA 
BRANCH  18  20
HETATM   20  C   UNL     1     -11.720  14.598  70.379  1.00  0.00    -0.355 A  
HETATM   21  C   UNL     1     -11.515  15.900  70.847  1.00  0.00    -0.409 A  
HETATM   22  C   UNL     1     -12.013  16.319  72.079  1.00  0.00    -0.544 A  
HETATM   23  F   UNL     1     -10.828  16.796  70.119  1.00  0.00    -0.330 F  
HETATM   24  C   UNL     1     -12.727  15.423  72.860  1.00  0.00    -0.427 A  
HETATM   25  C   UNL     1     -12.946  14.124  72.435  1.00  0.00    -0.478 A  
HETATM   26  F   UNL     1     -13.214  15.821  74.043  1.00  0.00    -0.549 F  
HETATM   27  C   UNL     1     -12.441  13.718  71.200  1.00  0.00    -0.370 A  
HETATM   28  F   UNL     1     -12.677  12.449  70.840  1.00  0.00    -0.400 F  
ENDBRANCH  18  20
ENDBRANCH  14  16
ENDBRANCH   8  10
ENDBRANCH   5   8
TORSDOF 4
ENDMDL
MODEL       15
REMARK 921   NORMALIZED FREE ENERGY PREDICTED BY IDOCK:   -7.18 KCAL/MOL
REMARK 922        TOTAL FREE ENERGY PREDICTED BY IDOCK:   -9.21 KCAL/MOL
REMARK 923 INTER-LIGAND FREE ENERGY PREDICTED BY IDOCK:   -8.66 KCAL/MOL
REMARK 924 INTRA-LIGAND FREE ENERGY PREDICTED BY IDOCK:   -0.55 KCAL/MOL
REMARK 927      BINDING AFFINITY PREDICTED BY RF-SCORE:    0.00 PKD
ROOT
HETATM    1  C   UNL     1      -7.587  19.967  67.963  1.00  0.00    -0.278 C  
HETATM    2  N   UNL     1      -8.329  18.942  68.689  1.00  0.00    -0.354 NA 
HETATM    3  C   UNL     1      -9.778  19.187  68.679  1.00  0.00    -0.417 C  
HETATM    4  C   UNL     1     -10.475  18.843  67.355  1.00  0.00    -0.520 C  
HETATM    5  C   UNL     1     -10.150  17.417  66.876  1.00  0.00    -0.314 C  
HETATM    6  C   UNL     1      -8.627  17.244  66.868  1.00  0.00    -0.263 C  
HETATM    7  C   UNL     1      -8.011  17.589  68.221  1.00  0.00    -0.259 C  
ENDROOT
BRANCH   5   8
HETATM    8  C   UNL     1     -10.893  16.365  67.718  1.00  0.00    -0.306 C  
HETATM    9  O   UNL     1     -11.267  16.579  68.872  1.00  0.00    -0.319 OA 
BRANCH   8  10
HETATM   10  C   UNL     1     -11.239  15.053  67.098  1.00  0.00    -0.336 A  
HETATM   11  C   UNL     1     -11.405  14.940  65.726  1.00  0.00    -0.314 A  
HETATM   12  C   UNL     1     -11.724  13.690  65.207  1.00  0.00    -0.349 A  
HETATM   13  C   UNL     1     -11.873  12.608  66.075  1.00  0.00    -0.492 A  
HETATM   14  C   UNL     1     -11.691  12.809  67.440  1.00  0.00    -0.366 A  
HETATM   15  N   UNL     1     -11.364  14.008  67.939  1.00  0.00    -0.276 NA 
BRANCH  14  16
HETATM   16  N   UNL     1     -11.858  11.718  68.305  1.00  0.00    -0.306 N  
HETATM   17  H   UNL     1     -12.804  11.367  68.453  1.00  0.00     0.000 HD 
HETATM   18  C   UNL     1     -10.821  11.084  68.972  1.00  0.00    -0.229 C  
HETATM   19  O   UNL     1      -9.638  11.403  68.908  1.00  0.00    -0.170 OA 
BRANCH  18  20
HETATM   20  C   UNL     1     -11.182   9.920  69.830  1.00  0.00    -0.298 A  
HETATM   21  C   UNL     1     -10.772   8.615  69.541  1.00  0.00    -0.182 A  
HETATM   22  C   UNL     1     -11.105   7.545  70.371  1.00  0.00    -0.277 A  
HETATM   23  F   UNL     1     -10.039   8.346  68.448  1.00  0.00    -0.181 F  
HETATM   24  C   UNL     1     -11.862   7.781  71.508  1.00  0.00    -0.293 A  
HETATM   25  C   UNL     1     -12.292   9.058  71.825  1.00  0.00    -0.438 A  
HETATM   26  F   UNL     1     -12.180   6.759  72.313  1.00  0.00    -0.316 F  
HETATM   27  C   UNL     1     -11.951  10.119  70.986  1.00  0.00    -0.378 A  
HETATM   28  F   UNL     1     -12.399  11.333  71.337  1.00  0.00    -0.426 F  
ENDBRANCH  18  20
ENDBRANCH  14  16
ENDBRANCH   8  10
ENDBRANCH   5   8
TORSDOF 4
ENDMDL
MODEL       16
REMARK 921   NORMALIZED FREE ENERGY PREDICTED BY IDOCK:   -7.16 KCAL/MOL
REMARK 922        TOTAL FREE ENERGY PREDICTED BY IDOCK:   -9.19 KCAL/MOL
REMARK 923 INTER-LIGAND FREE ENERGY PREDICTED BY IDOCK:   -8.75 KCAL/MOL
REMARK 924 INTRA-LIGAND FREE ENERGY PREDICTED BY IDOCK:   -0.44 KCAL/MOL
REMARK 927      BINDING AFFINITY PREDICTED BY RF-SCORE:    0.00 PKD
ROOT
HETATM    1  C   UNL     1     -10.302   6.242  70.956  1.00  0.00    -0.211 C  
HETATM    2  N   UNL     1     -11.128   7.102  70.116  1.00  0.00    -0.270 NA 
HETATM    3  C   UNL     1     -12.238   7.713  70.861  1.00  0.00    -0.168 C  
HETATM    4  C   UNL     1     -11.832   8.883  71.768  1.00  0.00    -0.429 C  
HETATM    5  C   UNL     1     -11.014   9.948  71.017  1.00  0.00    -0.360 C  
HETATM    6  C   UNL     1      -9.850   9.253  70.302  1.00  0.00    -0.265 C  
HETATM    7  C   UNL     1     -10.336   8.114  69.409  1.00  0.00    -0.218 C  
ENDROOT
BRANCH   5   8
HETATM    8  C   UNL     1     -11.911  10.783  70.085  1.00  0.00    -0.349 C  
HETATM    9  O   UNL     1     -12.362  10.343  69.027  1.00  0.00    -0.146 OA 
BRANCH   8  10
HETATM   10  C   UNL     1     -12.311  12.157  70.504  1.00  0.00    -0.272 A  
HETATM   11  C   UNL     1     -13.002  12.364  71.688  1.00  0.00    -0.409 A  
HETATM   12  C   UNL     1     -13.344  13.669  72.025  1.00  0.00    -0.548 A  
HETATM   13  C   UNL     1     -12.993  14.711  71.167  1.00  0.00    -0.415 A  
HETATM   14  C   UNL     1     -12.302  14.415  69.996  1.00  0.00    -0.336 A  
HETATM   15  N   UNL     1     -11.954  13.161  69.680  1.00  0.00    -0.317 NA 
BRANCH  14  16
HETATM   16  N   UNL     1     -11.967  15.469  69.133  1.00  0.00    -0.509 N  
HETATM   17  H   UNL     1     -12.725  15.941  68.641  1.00  0.00     0.000 HD 
HETATM   18  C   UNL     1     -10.673  15.910  68.905  1.00  0.00    -0.254 C  
HETATM   19  O   UNL     1      -9.662  15.432  69.408  1.00  0.00    -0.244 OA 
BRANCH  18  20
HETATM   20  C   UNL     1     -10.508  17.064  67.975  1.00  0.00    -0.353 A  
HETATM   21  C   UNL     1     -10.592  16.930  66.586  1.00  0.00    -0.189 A  
HETATM   22  C   UNL     1     -10.455  18.028  65.738  1.00  0.00    -0.202 A  
HETATM   23  F   UNL     1     -10.812  15.733  66.018  1.00  0.00    -0.318 F  
HETATM   24  C   UNL     1     -10.228  19.281  66.285  1.00  0.00    -0.464 A  
HETATM   25  C   UNL     1     -10.132  19.454  67.655  1.00  0.00    -0.505 A  
HETATM   26  F   UNL     1     -10.101  20.342  65.476  1.00  0.00    -0.520 F  
HETATM   27  C   UNL     1     -10.271  18.346  68.492  1.00  0.00    -0.364 A  
HETATM   28  F   UNL     1     -10.163  18.569  69.809  1.00  0.00    -0.116 F  
ENDBRANCH  18  20
ENDBRANCH  14  16
ENDBRANCH   8  10
ENDBRANCH   5   8
TORSDOF 4
ENDMDL
MODEL       17
REMARK 921   NORMALIZED FREE ENERGY PREDICTED BY IDOCK:   -7.16 KCAL/MOL
REMARK 922        TOTAL FREE ENERGY PREDICTED BY IDOCK:   -9.19 KCAL/MOL
REMARK 923 INTER-LIGAND FREE ENERGY PREDICTED BY IDOCK:   -8.35 KCAL/MOL
REMARK 924 INTRA-LIGAND FREE ENERGY PREDICTED BY IDOCK:   -0.83 KCAL/MOL
REMARK 927      BINDING AFFINITY PREDICTED BY RF-SCORE:    0.00 PKD
ROOT
HETATM    1  C   UNL     1      -8.585   7.823  66.495  1.00  0.00    -0.143 C  
HETATM    2  N   UNL     1      -9.852   8.519  66.293  1.00  0.00    -0.246 NA 
HETATM    3  C   UNL     1     -10.654   8.588  67.522  1.00  0.00    -0.214 C  
HETATM    4  C   UNL     1     -10.173   9.629  68.543  1.00  0.00    -0.216 C  
HETATM    5  C   UNL     1      -9.995  11.023  67.917  1.00  0.00    -0.192 C  
HETATM    6  C   UNL     1      -9.114  10.886  66.670  1.00  0.00    -0.175 C  
HETATM    7  C   UNL     1      -9.667   9.847  65.698  1.00  0.00    -0.279 C  
ENDROOT
BRANCH   5   8
HETATM    8  C   UNL     1     -11.357  11.689  67.650  1.00  0.00    -0.295 C  
HETATM    9  O   UNL     1     -12.381  11.376  68.259  1.00  0.00    -0.506 OA 
BRANCH   8  10
HETATM   10  C   UNL     1     -11.437  12.806  66.665  1.00  0.00    -0.350 A  
HETATM   11  C   UNL     1     -12.255  12.707  65.549  1.00  0.00    -0.501 A  
HETATM   12  C   UNL     1     -12.289  13.783  64.668  1.00  0.00    -0.410 A  
HETATM   13  C   UNL     1     -11.503  14.905  64.928  1.00  0.00    -0.407 A  
HETATM   14  C   UNL     1     -10.708  14.920  66.071  1.00  0.00    -0.323 A  
HETATM   15  N   UNL     1     -10.689  13.894  66.931  1.00  0.00    -0.283 NA 
BRANCH  14  16
HETATM   16  N   UNL     1      -9.910  16.047  66.315  1.00  0.00    -0.286 N  
HETATM   17  H   UNL     1      -9.098  16.195  65.716  1.00  0.00     0.000 HD 
HETATM   18  C   UNL     1     -10.152  16.973  67.318  1.00  0.00    -0.295 C  
HETATM   19  O   UNL     1     -11.074  16.919  68.124  1.00  0.00    -0.347 OA 
BRANCH  18  20
HETATM   20  C   UNL     1      -9.212  18.127  67.412  1.00  0.00    -0.257 A  
HETATM   21  C   UNL     1      -7.985  18.047  68.078  1.00  0.00    -0.255 A  
HETATM   22  C   UNL     1      -7.114  19.134  68.134  1.00  0.00    -0.289 A  
HETATM   23  F   UNL     1      -7.602  16.913  68.687  1.00  0.00    -0.187 F  
HETATM   24  C   UNL     1      -7.474  20.322  67.517  1.00  0.00    -0.312 A  
HETATM   25  C   UNL     1      -8.683  20.443  66.854  1.00  0.00    -0.345 A  
HETATM   26  F   UNL     1      -6.639  21.369  67.562  1.00  0.00    -0.397 F  
HETATM   27  C   UNL     1      -9.545  19.347  66.805  1.00  0.00    -0.346 A  
HETATM   28  F   UNL     1     -10.704  19.520  66.155  1.00  0.00    -0.499 F  
ENDBRANCH  18  20
ENDBRANCH  14  16
ENDBRANCH   8  10
ENDBRANCH   5   8
TORSDOF 4
ENDMDL
MODEL       18
REMARK 921   NORMALIZED FREE ENERGY PREDICTED BY IDOCK:   -7.14 KCAL/MOL
REMARK 922        TOTAL FREE ENERGY PREDICTED BY IDOCK:   -9.16 KCAL/MOL
REMARK 923 INTER-LIGAND FREE ENERGY PREDICTED BY IDOCK:   -8.55 KCAL/MOL
REMARK 924 INTRA-LIGAND FREE ENERGY PREDICTED BY IDOCK:   -0.61 KCAL/MOL
REMARK 927      BINDING AFFINITY PREDICTED BY RF-SCORE:    0.00 PKD
ROOT
HETATM    1  C   UNL     1      -7.745  19.769  67.697  1.00  0.00    -0.282 C  
HETATM    2  N   UNL     1      -8.392  18.721  68.480  1.00  0.00    -0.339 NA 
HETATM    3  C   UNL     1      -9.841  18.932  68.607  1.00  0.00    -0.407 C  
HETATM    4  C   UNL     1     -10.651  18.581  67.351  1.00  0.00    -0.463 C  
HETATM    5  C   UNL     1     -10.339  17.168  66.830  1.00  0.00    -0.308 C  
HETATM    6  C   UNL     1      -8.820  17.030  66.678  1.00  0.00    -0.282 C  
HETATM    7  C   UNL     1      -8.088  17.380  67.971  1.00  0.00    -0.227 C  
ENDROOT
BRANCH   5   8
HETATM    8  C   UNL     1     -10.977  16.092  67.728  1.00  0.00    -0.307 C  
HETATM    9  O   UNL     1     -11.287  16.303  68.901  1.00  0.00    -0.342 OA 
BRANCH   8  10
HETATM   10  C   UNL     1     -11.296  14.757  67.145  1.00  0.00    -0.356 A  
HETATM   11  C   UNL     1     -11.461  14.604  65.776  1.00  0.00    -0.338 A  
HETATM   12  C   UNL     1     -11.754  13.333  65.292  1.00  0.00    -0.357 A  
HETATM   13  C   UNL     1     -11.880  12.273  66.189  1.00  0.00    -0.398 A  
HETATM   14  C   UNL     1     -11.701  12.515  67.547  1.00  0.00    -0.374 A  
HETATM   15  N   UNL     1     -11.398  13.733  68.014  1.00  0.00    -0.272 NA 
BRANCH  14  16
HETATM   16  N   UNL     1     -11.845  11.444  68.442  1.00  0.00    -0.304 N  
HETATM   17  H   UNL     1     -12.786  11.087  68.612  1.00  0.00     0.000 HD 
HETATM   18  C   UNL     1     -10.793  10.837  69.110  1.00  0.00    -0.237 C  
HETATM   19  O   UNL     1      -9.615  11.166  69.022  1.00  0.00    -0.175 OA 
BRANCH  18  20
HETATM   20  C   UNL     1     -11.130   9.692  70.002  1.00  0.00    -0.293 A  
HETATM   21  C   UNL     1     -11.811   9.854  71.213  1.00  0.00    -0.395 A  
HETATM   22  C   UNL     1     -12.134   8.764  72.020  1.00  0.00    -0.447 A  
HETATM   23  F   UNL     1     -12.180  11.073  71.641  1.00  0.00    -0.375 F  
HETATM   24  C   UNL     1     -11.770   7.490  71.613  1.00  0.00    -0.282 A  
HETATM   25  C   UNL     1     -11.090   7.289  70.424  1.00  0.00    -0.291 A  
HETATM   26  F   UNL     1     -12.083   6.437  72.381  1.00  0.00    -0.321 F  
HETATM   27  C   UNL     1     -10.773   8.389  69.627  1.00  0.00    -0.198 A  
HETATM   28  F   UNL     1     -10.109   8.137  68.490  1.00  0.00    -0.180 F  
ENDBRANCH  18  20
ENDBRANCH  14  16
ENDBRANCH   8  10
ENDBRANCH   5   8
TORSDOF 4
ENDMDL
MODEL       19
REMARK 921   NORMALIZED FREE ENERGY PREDICTED BY IDOCK:   -7.14 KCAL/MOL
REMARK 922        TOTAL FREE ENERGY PREDICTED BY IDOCK:   -9.16 KCAL/MOL
REMARK 923 INTER-LIGAND FREE ENERGY PREDICTED BY IDOCK:   -8.48 KCAL/MOL
REMARK 924 INTRA-LIGAND FREE ENERGY PREDICTED BY IDOCK:   -0.68 KCAL/MOL
REMARK 927      BINDING AFFINITY PREDICTED BY RF-SCORE:    0.00 PKD
ROOT
HETATM    1  C   UNL     1      -9.957  14.401  65.151  1.00  0.00    -0.233 C  
HETATM    2  N   UNL     1      -9.665  14.328  66.579  1.00  0.00    -0.281 NA 
HETATM    3  C   UNL     1      -9.445  15.654  67.174  1.00  0.00    -0.217 C  
HETATM    4  C   UNL     1     -10.724  16.468  67.413  1.00  0.00    -0.260 C  
HETATM    5  C   UNL     1     -11.783  15.676  68.199  1.00  0.00    -0.209 C  
HETATM    6  C   UNL     1     -11.997  14.327  67.503  1.00  0.00    -0.411 C  
HETATM    7  C   UNL     1     -10.683  13.572  67.316  1.00  0.00    -0.267 C  
ENDROOT
BRANCH   5   8
HETATM    8  C   UNL     1     -11.398  15.557  69.685  1.00  0.00    -0.315 C  
HETATM    9  O   UNL     1     -10.412  16.120  70.164  1.00  0.00    -0.255 OA 
BRANCH   8  10
HETATM   10  C   UNL     1     -12.283  14.785  70.604  1.00  0.00    -0.319 A  
HETATM   11  C   UNL     1     -13.336  15.406  71.259  1.00  0.00    -0.598 A  
HETATM   12  C   UNL     1     -14.129  14.632  72.101  1.00  0.00    -0.604 A  
HETATM   13  C   UNL     1     -13.834  13.278  72.263  1.00  0.00    -0.637 A  
HETATM   14  C   UNL     1     -12.757  12.736  71.569  1.00  0.00    -0.229 A  
HETATM   15  N   UNL     1     -12.005  13.475  70.743  1.00  0.00    -0.258 NA 
BRANCH  14  16
HETATM   16  N   UNL     1     -12.460  11.377  71.752  1.00  0.00    -0.118 N  
HETATM   17  H   UNL     1     -12.295  11.048  72.703  1.00  0.00     0.000 HD 
HETATM   18  C   UNL     1     -12.378  10.451  70.723  1.00  0.00    -0.367 C  
HETATM   19  O   UNL     1     -12.533  10.700  69.532  1.00  0.00    -0.261 OA 
BRANCH  18  20
HETATM   20  C   UNL     1     -12.080   9.041  71.106  1.00  0.00    -0.345 A  
HETATM   21  C   UNL     1     -10.782   8.522  71.119  1.00  0.00    -0.234 A  
HETATM   22  C   UNL     1     -10.527   7.206  71.501  1.00  0.00    -0.221 A  
HETATM   23  F   UNL     1      -9.731   9.278  70.762  1.00  0.00    -0.245 F  
HETATM   24  C   UNL     1     -11.585   6.393  71.877  1.00  0.00    -0.318 A  
HETATM   25  C   UNL     1     -12.886   6.869  71.872  1.00  0.00    -0.290 A  
HETATM   26  F   UNL     1     -11.347   5.129  72.251  1.00  0.00    -0.265 F  
HETATM   27  C   UNL     1     -13.126   8.188  71.486  1.00  0.00    -0.287 A  
HETATM   28  F   UNL     1     -14.403   8.594  71.494  1.00  0.00    -0.439 F  
ENDBRANCH  18  20
ENDBRANCH  14  16
ENDBRANCH   8  10
ENDBRANCH   5   8
TORSDOF 4
ENDMDL
MODEL       20
REMARK 921   NORMALIZED FREE ENERGY PREDICTED BY IDOCK:   -7.08 KCAL/MOL
REMARK 922        TOTAL FREE ENERGY PREDICTED BY IDOCK:   -9.09 KCAL/MOL
REMARK 923 INTER-LIGAND FREE ENERGY PREDICTED BY IDOCK:   -8.48 KCAL/MOL
REMARK 924 INTRA-LIGAND FREE ENERGY PREDICTED BY IDOCK:   -0.61 KCAL/MOL
REMARK 927      BINDING AFFINITY PREDICTED BY RF-SCORE:    0.00 PKD
ROOT
HETATM    1  C   UNL     1      -8.078  10.204  63.773  1.00  0.00    -0.160 C  
HETATM    2  N   UNL     1      -9.399  10.129  64.388  1.00  0.00    -0.271 NA 
HETATM    3  C   UNL     1      -9.382  10.529  65.802  1.00  0.00    -0.188 C  
HETATM    4  C   UNL     1      -9.289  12.044  66.036  1.00  0.00    -0.196 C  
HETATM    5  C   UNL     1     -10.358  12.824  65.252  1.00  0.00    -0.313 C  
HETATM    6  C   UNL     1     -10.292  12.393  63.782  1.00  0.00    -0.454 C  
HETATM    7  C   UNL     1     -10.407  10.878  63.631  1.00  0.00    -0.298 C  
ENDROOT
BRANCH   5   8
HETATM    8  C   UNL     1     -11.749  12.655  65.890  1.00  0.00    -0.420 C  
HETATM    9  O   UNL     1     -12.774  12.507  65.223  1.00  0.00    -0.654 OA 
BRANCH   8  10
HETATM   10  C   UNL     1     -11.862  12.602  67.377  1.00  0.00    -0.328 A  
HETATM   11  C   UNL     1     -12.022  13.764  68.116  1.00  0.00    -0.394 A  
HETATM   12  C   UNL     1     -12.125  13.650  69.499  1.00  0.00    -0.368 A  
HETATM   13  C   UNL     1     -12.055  12.387  70.086  1.00  0.00    -0.366 A  
HETATM   14  C   UNL     1     -11.891  11.273  69.270  1.00  0.00    -0.354 A  
HETATM   15  N   UNL     1     -11.812  11.379  67.937  1.00  0.00    -0.632 NA 
BRANCH  14  16
HETATM   16  N   UNL     1     -11.807  10.009  69.873  1.00  0.00    -0.450 N  
HETATM   17  H   UNL     1     -12.662   9.604  70.254  1.00  0.00     0.000 HD 
HETATM   18  C   UNL     1     -10.637   9.274  69.986  1.00  0.00    -0.228 C  
HETATM   19  O   UNL     1      -9.533   9.636  69.593  1.00  0.00    -0.182 OA 
BRANCH  18  20
HETATM   20  C   UNL     1     -10.741   7.935  70.633  1.00  0.00    -0.230 A  
HETATM   21  C   UNL     1     -10.393   6.751  69.975  1.00  0.00    -0.199 A  
HETATM   22  C   UNL     1     -10.479   5.512  70.609  1.00  0.00    -0.342 A  
HETATM   23  F   UNL     1      -9.961   6.768  68.703  1.00  0.00    -0.138 F  
HETATM   24  C   UNL     1     -10.921   5.453  71.921  1.00  0.00    -0.151 A  
HETATM   25  C   UNL     1     -11.280   6.602  72.605  1.00  0.00    -0.285 A  
HETATM   26  F   UNL     1     -11.000   4.267  72.538  1.00  0.00    -0.224 F  
HETATM   27  C   UNL     1     -11.189   7.835  71.958  1.00  0.00    -0.278 A  
HETATM   28  F   UNL     1     -11.555   8.914  72.664  1.00  0.00    -0.377 F  
ENDBRANCH  18  20
ENDBRANCH  14  16
ENDBRANCH   8  10
ENDBRANCH   5   8
TORSDOF 4
ENDMDL
MODEL       21
REMARK 921   NORMALIZED FREE ENERGY PREDICTED BY IDOCK:   -7.01 KCAL/MOL
REMARK 922        TOTAL FREE ENERGY PREDICTED BY IDOCK:   -9.01 KCAL/MOL
REMARK 923 INTER-LIGAND FREE ENERGY PREDICTED BY IDOCK:   -8.30 KCAL/MOL
REMARK 924 INTRA-LIGAND FREE ENERGY PREDICTED BY IDOCK:   -0.70 KCAL/MOL
REMARK 927      BINDING AFFINITY PREDICTED BY RF-SCORE:    0.00 PKD
ROOT
HETATM    1  C   UNL     1      -8.426   5.406  74.344  1.00  0.00    -0.109 C  
HETATM    2  N   UNL     1      -9.735   5.629  73.739  1.00  0.00    -0.150 NA 
HETATM    3  C   UNL     1     -10.143   7.040  73.793  1.00  0.00    -0.352 C  
HETATM    4  C   UNL     1      -9.445   7.947  72.770  1.00  0.00    -0.304 C  
HETATM    5  C   UNL     1      -9.543   7.395  71.337  1.00  0.00    -0.167 C  
HETATM    6  C   UNL     1      -9.062   5.940  71.343  1.00  0.00    -0.148 C  
HETATM    7  C   UNL     1      -9.813   5.101  72.374  1.00  0.00    -0.167 C  
ENDROOT
BRANCH   5   8
HETATM    8  C   UNL     1     -10.960   7.582  70.765  1.00  0.00    -0.252 C  
HETATM    9  O   UNL     1     -11.564   6.685  70.177  1.00  0.00    -0.382 OA 
BRANCH   8  10
HETATM   10  C   UNL     1     -11.665   8.879  70.985  1.00  0.00    -0.289 A  
HETATM   11  C   UNL     1     -12.721   8.967  71.879  1.00  0.00    -0.436 A  
HETATM   12  C   UNL     1     -13.337  10.204  72.043  1.00  0.00    -0.492 A  
HETATM   13  C   UNL     1     -12.882  11.296  71.304  1.00  0.00    -0.491 A  
HETATM   14  C   UNL     1     -11.817  11.119  70.427  1.00  0.00    -0.369 A  
HETATM   15  N   UNL     1     -11.210   9.934  70.283  1.00  0.00    -0.280 NA 
BRANCH  14  16
HETATM   16  N   UNL     1     -11.378  12.221  69.677  1.00  0.00    -0.471 N  
HETATM   17  H   UNL     1     -10.847  12.945  70.161  1.00  0.00     0.000 HD 
HETATM   18  C   UNL     1     -11.619  12.390  68.323  1.00  0.00    -0.333 C  
HETATM   19  O   UNL     1     -12.255  11.616  67.615  1.00  0.00    -0.544 OA 
BRANCH  18  20
HETATM   20  C   UNL     1     -11.051  13.611  67.683  1.00  0.00    -0.293 A  
HETATM   21  C   UNL     1     -10.137  13.552  66.626  1.00  0.00    -0.277 A  
HETATM   22  C   UNL     1      -9.636  14.708  66.031  1.00  0.00    -0.322 A  
HETATM   23  F   UNL     1      -9.710  12.373  66.146  1.00  0.00    -0.229 F  
HETATM   24  C   UNL     1     -10.052  15.945  66.499  1.00  0.00    -0.282 A  
HETATM   25  C   UNL     1     -10.950  16.045  67.547  1.00  0.00    -0.261 A  
HETATM   26  F   UNL     1      -9.579  17.061  65.927  1.00  0.00    -0.283 F  
HETATM   27  C   UNL     1     -11.444  14.879  68.134  1.00  0.00    -0.330 A  
HETATM   28  F   UNL     1     -12.306  15.034  69.148  1.00  0.00    -0.290 F  
ENDBRANCH  18  20
ENDBRANCH  14  16
ENDBRANCH   8  10
ENDBRANCH   5   8
TORSDOF 4
ENDMDL
MODEL       22
REMARK 921   NORMALIZED FREE ENERGY PREDICTED BY IDOCK:   -6.93 KCAL/MOL
REMARK 922        TOTAL FREE ENERGY PREDICTED BY IDOCK:   -8.90 KCAL/MOL
REMARK 923 INTER-LIGAND FREE ENERGY PREDICTED BY IDOCK:   -8.40 KCAL/MOL
REMARK 924 INTRA-LIGAND FREE ENERGY PREDICTED BY IDOCK:   -0.50 KCAL/MOL
REMARK 927      BINDING AFFINITY PREDICTED BY RF-SCORE:    0.00 PKD
ROOT
HETATM    1  C   UNL     1     -11.087   5.749  72.536  1.00  0.00    -0.279 C  
HETATM    2  N   UNL     1     -11.880   6.811  71.927  1.00  0.00    -0.311 NA 
HETATM    3  C   UNL     1     -11.568   8.133  72.488  1.00  0.00    -0.404 C  
HETATM    4  C   UNL     1     -10.251   8.745  71.989  1.00  0.00    -0.401 C  
HETATM    5  C   UNL     1     -10.158   8.757  70.453  1.00  0.00    -0.223 C  
HETATM    6  C   UNL     1     -10.448   7.342  69.938  1.00  0.00    -0.238 C  
HETATM    7  C   UNL     1     -11.779   6.812  70.465  1.00  0.00    -0.375 C  
ENDROOT
BRANCH   5   8
HETATM    8  C   UNL     1     -11.068   9.841  69.849  1.00  0.00    -0.254 C  
HETATM    9  O   UNL     1     -12.098  10.229  70.402  1.00  0.00    -0.279 OA 
BRANCH   8  10
HETATM   10  C   UNL     1     -10.661  10.502  68.575  1.00  0.00    -0.224 A  
HETATM   11  C   UNL     1     -10.417   9.750  67.436  1.00  0.00    -0.319 A  
HETATM   12  C   UNL     1     -10.044  10.424  66.277  1.00  0.00    -0.292 A  
HETATM   13  C   UNL     1      -9.921  11.813  66.304  1.00  0.00    -0.246 A  
HETATM   14  C   UNL     1     -10.184  12.489  67.492  1.00  0.00    -0.217 A  
HETATM   15  N   UNL     1     -10.562  11.844  68.602  1.00  0.00    -0.230 NA 
BRANCH  14  16
HETATM   16  N   UNL     1     -10.042  13.885  67.511  1.00  0.00    -0.242 N  
HETATM   17  H   UNL     1      -9.131  14.269  67.761  1.00  0.00     0.000 HD 
HETATM   18  C   UNL     1     -11.061  14.777  67.214  1.00  0.00    -0.332 C  
HETATM   19  O   UNL     1     -12.210  14.467  66.916  1.00  0.00    -0.415 OA 
BRANCH  18  20
HETATM   20  C   UNL     1     -10.722  16.228  67.258  1.00  0.00    -0.265 A  
HETATM   21  C   UNL     1     -10.509  16.988  66.104  1.00  0.00    -0.271 A  
HETATM   22  C   UNL     1     -10.214  18.348  66.171  1.00  0.00    -0.408 A  
HETATM   23  F   UNL     1     -10.584  16.429  64.885  1.00  0.00    -0.369 F  
HETATM   24  C   UNL     1     -10.127  18.962  67.411  1.00  0.00    -0.361 A  
HETATM   25  C   UNL     1     -10.325  18.243  68.577  1.00  0.00    -0.341 A  
HETATM   26  F   UNL     1      -9.849  20.271  67.482  1.00  0.00    -0.478 F  
HETATM   27  C   UNL     1     -10.620  16.881  68.495  1.00  0.00    -0.367 A  
HETATM   28  F   UNL     1     -10.796  16.233  69.655  1.00  0.00    -0.256 F  
ENDBRANCH  18  20
ENDBRANCH  14  16
ENDBRANCH   8  10
ENDBRANCH   5   8
TORSDOF 4
ENDMDL
MODEL       23
REMARK 921   NORMALIZED FREE ENERGY PREDICTED BY IDOCK:   -6.90 KCAL/MOL
REMARK 922        TOTAL FREE ENERGY PREDICTED BY IDOCK:   -8.87 KCAL/MOL
REMARK 923 INTER-LIGAND FREE ENERGY PREDICTED BY IDOCK:   -8.11 KCAL/MOL
REMARK 924 INTRA-LIGAND FREE ENERGY PREDICTED BY IDOCK:   -0.76 KCAL/MOL
REMARK 927      BINDING AFFINITY PREDICTED BY RF-SCORE:    0.00 PKD
ROOT
HETATM    1  C   UNL     1     -10.467   8.206  70.374  1.00  0.00    -0.215 C  
HETATM    2  N   UNL     1      -9.627   9.111  69.597  1.00  0.00    -0.169 NA 
HETATM    3  C   UNL     1      -9.241   8.540  68.299  1.00  0.00    -0.138 C  
HETATM    4  C   UNL     1     -10.351   8.558  67.238  1.00  0.00    -0.372 C  
HETATM    5  C   UNL     1     -10.974   9.954  67.067  1.00  0.00    -0.098 C  
HETATM    6  C   UNL     1     -11.394  10.470  68.448  1.00  0.00    -0.328 C  
HETATM    7  C   UNL     1     -10.234  10.436  69.441  1.00  0.00    -0.234 C  
ENDROOT
BRANCH   5   8
HETATM    8  C   UNL     1     -10.023  10.898  66.309  1.00  0.00    -0.227 C  
HETATM    9  O   UNL     1      -8.822  10.663  66.172  1.00  0.00    -0.156 OA 
BRANCH   8  10
HETATM   10  C   UNL     1     -10.581  12.117  65.656  1.00  0.00    -0.262 A  
HETATM   11  C   UNL     1     -11.610  12.016  64.732  1.00  0.00    -0.344 A  
HETATM   12  C   UNL     1     -12.091  13.189  64.158  1.00  0.00    -0.496 A  
HETATM   13  C   UNL     1     -11.521  14.409  64.521  1.00  0.00    -0.352 A  
HETATM   14  C   UNL     1     -10.490  14.420  65.455  1.00  0.00    -0.373 A  
HETATM   15  N   UNL     1     -10.040  13.294  66.023  1.00  0.00    -0.294 NA 
BRANCH  14  16
HETATM   16  N   UNL     1      -9.914  15.652  65.800  1.00  0.00    -0.336 N  
HETATM   17  H   UNL     1      -9.126  15.982  65.245  1.00  0.00     0.000 HD 
HETATM   18  C   UNL     1     -10.348  16.449  66.848  1.00  0.00    -0.300 C  
HETATM   19  O   UNL     1     -11.268  16.177  67.612  1.00  0.00    -0.266 OA 
BRANCH  18  20
HETATM   20  C   UNL     1      -9.634  17.742  67.052  1.00  0.00    -0.284 A  
HETATM   21  C   UNL     1      -8.638  17.909  68.020  1.00  0.00    -0.256 A  
HETATM   22  C   UNL     1      -7.970  19.123  68.177  1.00  0.00    -0.339 A  
HETATM   23  F   UNL     1      -8.289  16.900  68.834  1.00  0.00    -0.232 F  
HETATM   24  C   UNL     1      -8.302  20.189  67.356  1.00  0.00    -0.338 A  
HETATM   25  C   UNL     1      -9.287  20.065  66.390  1.00  0.00    -0.481 A  
HETATM   26  F   UNL     1      -7.660  21.356  67.497  1.00  0.00    -0.358 F  
HETATM   27  C   UNL     1      -9.947  18.845  66.244  1.00  0.00    -0.388 A  
HETATM   28  F   UNL     1     -10.895  18.782  65.298  1.00  0.00    -0.472 F  
ENDBRANCH  18  20
ENDBRANCH  14  16
ENDBRANCH   8  10
ENDBRANCH   5   8
TORSDOF 4
ENDMDL
MODEL       24
REMARK 921   NORMALIZED FREE ENERGY PREDICTED BY IDOCK:   -6.89 KCAL/MOL
REMARK 922        TOTAL FREE ENERGY PREDICTED BY IDOCK:   -8.85 KCAL/MOL
REMARK 923 INTER-LIGAND FREE ENERGY PREDICTED BY IDOCK:   -8.00 KCAL/MOL
REMARK 924 INTRA-LIGAND FREE ENERGY PREDICTED BY IDOCK:   -0.85 KCAL/MOL
REMARK 927      BINDING AFFINITY PREDICTED BY RF-SCORE:    0.00 PKD
ROOT
HETATM    1  C   UNL     1      -8.394  17.730  68.421  1.00  0.00    -0.295 C  
HETATM    2  N   UNL     1      -9.412  16.706  68.630  1.00  0.00    -0.241 NA 
HETATM    3  C   UNL     1     -10.635  16.967  67.858  1.00  0.00    -0.361 C  
HETATM    4  C   UNL     1     -10.527  16.643  66.360  1.00  0.00    -0.266 C  
HETATM    5  C   UNL     1     -10.003  15.219  66.106  1.00  0.00    -0.325 C  
HETATM    6  C   UNL     1      -8.707  15.030  66.903  1.00  0.00    -0.285 C  
HETATM    7  C   UNL     1      -8.899  15.355  68.382  1.00  0.00    -0.177 C  
ENDROOT
BRANCH   5   8
HETATM    8  C   UNL     1     -11.084  14.167  66.412  1.00  0.00    -0.320 C  
HETATM    9  O   UNL     1     -12.214  14.467  66.800  1.00  0.00    -0.420 OA 
BRANCH   8  10
HETATM   10  C   UNL     1     -10.782  12.726  66.168  1.00  0.00    -0.275 A  
HETATM   11  C   UNL     1     -10.214  12.315  64.972  1.00  0.00    -0.312 A  
HETATM   12  C   UNL     1      -9.953  10.959  64.805  1.00  0.00    -0.366 A  
HETATM   13  C   UNL     1     -10.278  10.070  65.830  1.00  0.00    -0.270 A  
HETATM   14  C   UNL     1     -10.849  10.567  66.997  1.00  0.00    -0.225 A  
HETATM   15  N   UNL     1     -11.082  11.875  67.168  1.00  0.00    -0.275 NA 
BRANCH  14  16
HETATM   16  N   UNL     1     -11.186   9.662  68.015  1.00  0.00    -0.513 N  
HETATM   17  H   UNL     1     -12.053   9.135  67.916  1.00  0.00     0.000 HD 
HETATM   18  C   UNL     1     -10.417   9.439  69.147  1.00  0.00    -0.217 C  
HETATM   19  O   UNL     1      -9.364  10.009  69.412  1.00  0.00    -0.197 OA 
BRANCH  18  20
HETATM   20  C   UNL     1     -10.917   8.417  70.111  1.00  0.00    -0.216 A  
HETATM   21  C   UNL     1     -10.779   7.043  69.892  1.00  0.00    -0.240 A  
HETATM   22  C   UNL     1     -11.236   6.108  70.819  1.00  0.00    -0.373 A  
HETATM   23  F   UNL     1     -10.197   6.576  68.775  1.00  0.00    -0.145 F  
HETATM   24  C   UNL     1     -11.843   6.551  71.984  1.00  0.00    -0.329 A  
HETATM   25  C   UNL     1     -12.003   7.903  72.235  1.00  0.00    -0.387 A  
HETATM   26  F   UNL     1     -12.279   5.657  72.882  1.00  0.00    -0.246 F  
HETATM   27  C   UNL     1     -11.541   8.828  71.298  1.00  0.00    -0.292 A  
HETATM   28  F   UNL     1     -11.727  10.123  71.588  1.00  0.00    -0.431 F  
ENDBRANCH  18  20
ENDBRANCH  14  16
ENDBRANCH   8  10
ENDBRANCH   5   8
TORSDOF 4
ENDMDL
MODEL       25
REMARK 921   NORMALIZED FREE ENERGY PREDICTED BY IDOCK:   -6.88 KCAL/MOL
REMARK 922        TOTAL FREE ENERGY PREDICTED BY IDOCK:   -8.84 KCAL/MOL
REMARK 923 INTER-LIGAND FREE ENERGY PREDICTED BY IDOCK:   -8.41 KCAL/MOL
REMARK 924 INTRA-LIGAND FREE ENERGY PREDICTED BY IDOCK:   -0.43 KCAL/MOL
REMARK 927      BINDING AFFINITY PREDICTED BY RF-SCORE:    0.00 PKD
ROOT
HETATM    1  C   UNL     1      -8.230  19.222  68.596  1.00  0.00    -0.373 C  
HETATM    2  N   UNL     1      -8.900  18.998  67.319  1.00  0.00    -0.279 NA 
HETATM    3  C   UNL     1      -8.207  18.000  66.493  1.00  0.00    -0.271 C  
HETATM    4  C   UNL     1      -8.422  16.545  66.932  1.00  0.00    -0.244 C  
HETATM    5  C   UNL     1      -9.912  16.196  67.092  1.00  0.00    -0.251 C  
HETATM    6  C   UNL     1     -10.562  17.248  67.999  1.00  0.00    -0.394 C  
HETATM    7  C   UNL     1     -10.318  18.665  67.487  1.00  0.00    -0.411 C  
ENDROOT
BRANCH   5   8
HETATM    8  C   UNL     1     -10.597  16.044  65.722  1.00  0.00    -0.353 C  
HETATM    9  O   UNL     1     -10.618  16.947  64.885  1.00  0.00    -0.702 OA 
BRANCH   8  10
HETATM   10  C   UNL     1     -11.205  14.732  65.357  1.00  0.00    -0.347 A  
HETATM   11  C   UNL     1     -11.803  14.549  64.119  1.00  0.00    -0.290 A  
HETATM   12  C   UNL     1     -12.350  13.301  63.836  1.00  0.00    -0.422 A  
HETATM   13  C   UNL     1     -12.288  12.294  64.799  1.00  0.00    -0.416 A  
HETATM   14  C   UNL     1     -11.671  12.564  66.017  1.00  0.00    -0.417 A  
HETATM   15  N   UNL     1     -11.126  13.758  66.283  1.00  0.00    -0.300 NA 
BRANCH  14  16
HETATM   16  N   UNL     1     -11.628  11.548  66.984  1.00  0.00    -0.215 N  
HETATM   17  H   UNL     1     -12.479  11.355  67.511  1.00  0.00     0.000 HD 
HETATM   18  C   UNL     1     -10.503  10.790  67.269  1.00  0.00    -0.237 C  
HETATM   19  O   UNL     1      -9.408  10.918  66.733  1.00  0.00    -0.162 OA 
BRANCH  18  20
HETATM   20  C   UNL     1     -10.649   9.732  68.310  1.00  0.00    -0.271 A  
HETATM   21  C   UNL     1     -10.514   8.370  68.024  1.00  0.00    -0.184 A  
HETATM   22  C   UNL     1     -10.634   7.400  69.018  1.00  0.00    -0.203 A  
HETATM   23  F   UNL     1     -10.261   7.947  66.774  1.00  0.00    -0.293 F  
HETATM   24  C   UNL     1     -10.895   7.796  70.321  1.00  0.00    -0.249 A  
HETATM   25  C   UNL     1     -11.041   9.135  70.643  1.00  0.00    -0.320 A  
HETATM   26  F   UNL     1     -11.005   6.870  71.283  1.00  0.00    -0.247 F  
HETATM   27  C   UNL     1     -10.919  10.094  69.637  1.00  0.00    -0.264 A  
HETATM   28  F   UNL     1     -11.076  11.374  70.003  1.00  0.00    -0.290 F  
ENDBRANCH  18  20
ENDBRANCH  14  16
ENDBRANCH   8  10
ENDBRANCH   5   8
TORSDOF 4
ENDMDL
MODEL       26
REMARK 921   NORMALIZED FREE ENERGY PREDICTED BY IDOCK:   -6.87 KCAL/MOL
REMARK 922        TOTAL FREE ENERGY PREDICTED BY IDOCK:   -8.83 KCAL/MOL
REMARK 923 INTER-LIGAND FREE ENERGY PREDICTED BY IDOCK:   -8.37 KCAL/MOL
REMARK 924 INTRA-LIGAND FREE ENERGY PREDICTED BY IDOCK:   -0.46 KCAL/MOL
REMARK 927      BINDING AFFINITY PREDICTED BY RF-SCORE:    0.00 PKD
ROOT
HETATM    1  C   UNL     1     -11.234   5.532  72.544  1.00  0.00    -0.274 C  
HETATM    2  N   UNL     1     -11.989   6.658  72.003  1.00  0.00    -0.323 NA 
HETATM    3  C   UNL     1     -11.620   7.933  72.633  1.00  0.00    -0.377 C  
HETATM    4  C   UNL     1     -10.283   8.519  72.155  1.00  0.00    -0.403 C  
HETATM    5  C   UNL     1     -10.200   8.612  70.622  1.00  0.00    -0.237 C  
HETATM    6  C   UNL     1     -10.552   7.242  70.032  1.00  0.00    -0.247 C  
HETATM    7  C   UNL     1     -11.899   6.735  70.542  1.00  0.00    -0.362 C  
ENDROOT
BRANCH   5   8
HETATM    8  C   UNL     1     -11.071   9.764  70.088  1.00  0.00    -0.285 C  
HETATM    9  O   UNL     1     -12.031  10.217  70.712  1.00  0.00    -0.303 OA 
BRANCH   8  10
HETATM   10  C   UNL     1     -10.707  10.408  68.793  1.00  0.00    -0.225 A  
HETATM   11  C   UNL     1     -10.488   9.641  67.658  1.00  0.00    -0.317 A  
HETATM   12  C   UNL     1     -10.154  10.300  66.479  1.00  0.00    -0.290 A  
HETATM   13  C   UNL     1     -10.042  11.690  66.482  1.00  0.00    -0.239 A  
HETATM   14  C   UNL     1     -10.276  12.382  67.666  1.00  0.00    -0.207 A  
HETATM   15  N   UNL     1     -10.618  11.752  68.797  1.00  0.00    -0.212 NA 
BRANCH  14  16
HETATM   16  N   UNL     1     -10.146  13.779  67.660  1.00  0.00    -0.239 N  
HETATM   17  H   UNL     1      -9.242  14.175  67.918  1.00  0.00     0.000 HD 
HETATM   18  C   UNL     1     -11.166  14.657  67.327  1.00  0.00    -0.337 C  
HETATM   19  O   UNL     1     -12.306  14.332  67.015  1.00  0.00    -0.386 OA 
BRANCH  18  20
HETATM   20  C   UNL     1     -10.838  16.111  67.349  1.00  0.00    -0.265 A  
HETATM   21  C   UNL     1     -10.716  16.839  68.536  1.00  0.00    -0.358 A  
HETATM   22  C   UNL     1     -10.388  18.194  68.531  1.00  0.00    -0.352 A  
HETATM   23  F   UNL     1     -10.911  16.253  69.729  1.00  0.00    -0.274 F  
HETATM   24  C   UNL     1     -10.180  18.834  67.320  1.00  0.00    -0.390 A  
HETATM   25  C   UNL     1     -10.297  18.150  66.122  1.00  0.00    -0.394 A  
HETATM   26  F   UNL     1      -9.858  20.135  67.307  1.00  0.00    -0.458 F  
HETATM   27  C   UNL     1     -10.626  16.794  66.142  1.00  0.00    -0.210 A  
HETATM   28  F   UNL     1     -10.732  16.182  64.955  1.00  0.00    -0.407 F  
ENDBRANCH  18  20
ENDBRANCH  14  16
ENDBRANCH   8  10
ENDBRANCH   5   8
TORSDOF 4
ENDMDL
MODEL       27
REMARK 921   NORMALIZED FREE ENERGY PREDICTED BY IDOCK:   -6.83 KCAL/MOL
REMARK 922        TOTAL FREE ENERGY PREDICTED BY IDOCK:   -8.79 KCAL/MOL
REMARK 923 INTER-LIGAND FREE ENERGY PREDICTED BY IDOCK:   -7.95 KCAL/MOL
REMARK 924 INTRA-LIGAND FREE ENERGY PREDICTED BY IDOCK:   -0.84 KCAL/MOL
REMARK 927      BINDING AFFINITY PREDICTED BY RF-SCORE:    0.00 PKD
ROOT
HETATM    1  C   UNL     1      -7.707   9.568  67.553  1.00  0.00    -0.095 C  
HETATM    2  N   UNL     1      -8.367  10.814  67.930  1.00  0.00    -0.116 NA 
HETATM    3  C   UNL     1      -8.639  11.675  66.771  1.00  0.00    -0.180 C  
HETATM    4  C   UNL     1      -9.831  11.232  65.911  1.00  0.00    -0.272 C  
HETATM    5  C   UNL     1     -11.103  11.005  66.746  1.00  0.00    -0.240 C  
HETATM    6  C   UNL     1     -10.760  10.066  67.908  1.00  0.00    -0.322 C  
HETATM    7  C   UNL     1      -9.578  10.583  68.724  1.00  0.00    -0.179 C  
ENDROOT
BRANCH   5   8
HETATM    8  C   UNL     1     -11.723  12.344  67.187  1.00  0.00    -0.345 C  
HETATM    9  O   UNL     1     -12.281  12.492  68.275  1.00  0.00    -0.228 OA 
BRANCH   8  10
HETATM   10  C   UNL     1     -11.591  13.532  66.296  1.00  0.00    -0.345 A  
HETATM   11  C   UNL     1     -12.349  13.636  65.139  1.00  0.00    -0.486 A  
HETATM   12  C   UNL     1     -12.184  14.770  64.349  1.00  0.00    -0.447 A  
HETATM   13  C   UNL     1     -11.267  15.746  64.740  1.00  0.00    -0.375 A  
HETATM   14  C   UNL     1     -10.546  15.561  65.915  1.00  0.00    -0.339 A  
HETATM   15  N   UNL     1     -10.718  14.480  66.687  1.00  0.00    -0.300 NA 
BRANCH  14  16
HETATM   16  N   UNL     1      -9.616  16.542  66.290  1.00  0.00    -0.288 N  
HETATM   17  H   UNL     1      -8.684  16.498  65.878  1.00  0.00     0.000 HD 
HETATM   18  C   UNL     1      -9.880  17.567  67.186  1.00  0.00    -0.297 C  
HETATM   19  O   UNL     1     -10.942  17.738  67.773  1.00  0.00    -0.308 OA 
BRANCH  18  20
HETATM   20  C   UNL     1      -8.778  18.537  67.444  1.00  0.00    -0.270 A  
HETATM   21  C   UNL     1      -8.791  19.843  66.944  1.00  0.00    -0.342 A  
HETATM   22  C   UNL     1      -7.759  20.739  67.217  1.00  0.00    -0.332 A  
HETATM   23  F   UNL     1      -9.805  20.281  66.180  1.00  0.00    -0.491 F  
HETATM   24  C   UNL     1      -6.694  20.325  68.002  1.00  0.00    -0.295 A  
HETATM   25  C   UNL     1      -6.641  19.038  68.511  1.00  0.00    -0.276 A  
HETATM   26  F   UNL     1      -5.701  21.183  68.274  1.00  0.00    -0.302 F  
HETATM   27  C   UNL     1      -7.682  18.152  68.229  1.00  0.00    -0.283 A  
HETATM   28  F   UNL     1      -7.577  16.919  68.742  1.00  0.00    -0.196 F  
ENDBRANCH  18  20
ENDBRANCH  14  16
ENDBRANCH   8  10
ENDBRANCH   5   8
TORSDOF 4
ENDMDL
MODEL       28
REMARK 921   NORMALIZED FREE ENERGY PREDICTED BY IDOCK:   -6.81 KCAL/MOL
REMARK 922        TOTAL FREE ENERGY PREDICTED BY IDOCK:   -8.76 KCAL/MOL
REMARK 923 INTER-LIGAND FREE ENERGY PREDICTED BY IDOCK:   -7.82 KCAL/MOL
REMARK 924 INTRA-LIGAND FREE ENERGY PREDICTED BY IDOCK:   -0.94 KCAL/MOL
REMARK 927      BINDING AFFINITY PREDICTED BY RF-SCORE:    0.00 PKD
ROOT
HETATM    1  C   UNL     1      -8.805  17.212  68.512  1.00  0.00    -0.265 C  
HETATM    2  N   UNL     1      -9.786  16.132  68.561  1.00  0.00    -0.220 NA 
HETATM    3  C   UNL     1     -11.005  16.450  67.804  1.00  0.00    -0.261 C  
HETATM    4  C   UNL     1     -10.861  16.335  66.280  1.00  0.00    -0.098 C  
HETATM    5  C   UNL     1     -10.278  14.977  65.850  1.00  0.00    -0.335 C  
HETATM    6  C   UNL     1      -8.989  14.729  66.641  1.00  0.00    -0.286 C  
HETATM    7  C   UNL     1      -9.218  14.846  68.146  1.00  0.00    -0.186 C  
ENDROOT
BRANCH   5   8
HETATM    8  C   UNL     1     -11.322  13.855  65.989  1.00  0.00    -0.324 C  
HETATM    9  O   UNL     1     -12.524  14.079  66.140  1.00  0.00    -0.467 OA 
BRANCH   8  10
HETATM   10  C   UNL     1     -10.881  12.435  65.872  1.00  0.00    -0.270 A  
HETATM   11  C   UNL     1     -10.208  11.994  64.743  1.00  0.00    -0.311 A  
HETATM   12  C   UNL     1      -9.818  10.660  64.693  1.00  0.00    -0.382 A  
HETATM   13  C   UNL     1     -10.123   9.819  65.764  1.00  0.00    -0.308 A  
HETATM   14  C   UNL     1     -10.804  10.344  66.859  1.00  0.00    -0.161 A  
HETATM   15  N   UNL     1     -11.162  11.633  66.917  1.00  0.00    -0.308 NA 
BRANCH  14  16
HETATM   16  N   UNL     1     -11.119   9.486  67.923  1.00  0.00    -0.515 N  
HETATM   17  H   UNL     1     -11.963   8.919  67.845  1.00  0.00     0.000 HD 
HETATM   18  C   UNL     1     -10.358   9.359  69.075  1.00  0.00    -0.210 C  
HETATM   19  O   UNL     1      -9.332   9.985  69.319  1.00  0.00    -0.188 OA 
BRANCH  18  20
HETATM   20  C   UNL     1     -10.831   8.375  70.091  1.00  0.00    -0.238 A  
HETATM   21  C   UNL     1     -11.446   8.762  71.285  1.00  0.00    -0.292 A  
HETATM   22  C   UNL     1     -11.899   7.823  72.210  1.00  0.00    -0.378 A  
HETATM   23  F   UNL     1     -11.625  10.060  71.582  1.00  0.00    -0.432 F  
HETATM   24  C   UNL     1     -11.733   6.474  71.940  1.00  0.00    -0.324 A  
HETATM   25  C   UNL     1     -11.122   6.050  70.772  1.00  0.00    -0.355 A  
HETATM   26  F   UNL     1     -12.170   5.565  72.822  1.00  0.00    -0.324 F  
HETATM   27  C   UNL     1     -10.674   7.002  69.855  1.00  0.00    -0.240 A  
HETATM   28  F   UNL     1     -10.086   6.538  68.744  1.00  0.00    -0.144 F  
ENDBRANCH  18  20
ENDBRANCH  14  16
ENDBRANCH   8  10
ENDBRANCH   5   8
TORSDOF 4
ENDMDL
MODEL       29
REMARK 921   NORMALIZED FREE ENERGY PREDICTED BY IDOCK:   -6.78 KCAL/MOL
REMARK 922        TOTAL FREE ENERGY PREDICTED BY IDOCK:   -8.73 KCAL/MOL
REMARK 923 INTER-LIGAND FREE ENERGY PREDICTED BY IDOCK:   -7.86 KCAL/MOL
REMARK 924 INTRA-LIGAND FREE ENERGY PREDICTED BY IDOCK:   -0.86 KCAL/MOL
REMARK 927      BINDING AFFINITY PREDICTED BY RF-SCORE:    0.00 PKD
ROOT
HETATM    1  C   UNL     1      -9.380   3.323  68.148  1.00  0.00    -0.187 C  
HETATM    2  N   UNL     1      -9.043   4.741  68.236  1.00  0.00    -0.112 NA 
HETATM    3  C   UNL     1     -10.207   5.573  68.567  1.00  0.00    -0.184 C  
HETATM    4  C   UNL     1     -10.634   5.519  70.041  1.00  0.00    -0.384 C  
HETATM    5  C   UNL     1      -9.462   5.797  70.999  1.00  0.00    -0.195 C  
HETATM    6  C   UNL     1      -8.301   4.867  70.628  1.00  0.00    -0.102 C  
HETATM    7  C   UNL     1      -7.927   4.990  69.153  1.00  0.00    -0.080 C  
ENDROOT
BRANCH   5   8
HETATM    8  C   UNL     1      -9.090   7.290  71.003  1.00  0.00    -0.153 C  
HETATM    9  O   UNL     1      -7.923   7.685  71.018  1.00  0.00    -0.092 OA 
BRANCH   8  10
HETATM   10  C   UNL     1     -10.176   8.309  70.918  1.00  0.00    -0.191 A  
HETATM   11  C   UNL     1     -10.944   8.618  72.031  1.00  0.00    -0.432 A  
HETATM   12  C   UNL     1     -11.940   9.579  71.890  1.00  0.00    -0.381 A  
HETATM   13  C   UNL     1     -12.136  10.182  70.648  1.00  0.00    -0.411 A  
HETATM   14  C   UNL     1     -11.322   9.811  69.583  1.00  0.00    -0.122 A  
HETATM   15  N   UNL     1     -10.349   8.901  69.721  1.00  0.00    -0.202 NA 
BRANCH  14  16
HETATM   16  N   UNL     1     -11.539  10.413  68.334  1.00  0.00    -0.513 N  
HETATM   17  H   UNL     1     -12.276  10.031  67.742  1.00  0.00     0.000 HD 
HETATM   18  C   UNL     1     -10.815  11.493  67.853  1.00  0.00    -0.210 C  
HETATM   19  O   UNL     1      -9.892  12.046  68.440  1.00  0.00    -0.207 OA 
BRANCH  18  20
HETATM   20  C   UNL     1     -11.203  12.022  66.514  1.00  0.00    -0.387 A  
HETATM   21  C   UNL     1     -10.883  11.365  65.322  1.00  0.00    -0.233 A  
HETATM   22  C   UNL     1     -11.276  11.868  64.083  1.00  0.00    -0.446 A  
HETATM   23  F   UNL     1     -10.184  10.218  65.332  1.00  0.00    -0.338 F  
HETATM   24  C   UNL     1     -11.998  13.050  64.031  1.00  0.00    -0.456 A  
HETATM   25  C   UNL     1     -12.330  13.734  65.189  1.00  0.00    -0.476 A  
HETATM   26  F   UNL     1     -12.384  13.537  62.844  1.00  0.00    -0.554 F  
HETATM   27  C   UNL     1     -11.930  13.218  66.422  1.00  0.00    -0.410 A  
HETATM   28  F   UNL     1     -12.272  13.923  67.509  1.00  0.00    -0.407 F  
ENDBRANCH  18  20
ENDBRANCH  14  16
ENDBRANCH   8  10
ENDBRANCH   5   8
TORSDOF 4
ENDMDL
MODEL       30
REMARK 921   NORMALIZED FREE ENERGY PREDICTED BY IDOCK:   -6.78 KCAL/MOL
REMARK 922        TOTAL FREE ENERGY PREDICTED BY IDOCK:   -8.72 KCAL/MOL
REMARK 923 INTER-LIGAND FREE ENERGY PREDICTED BY IDOCK:   -7.90 KCAL/MOL
REMARK 924 INTRA-LIGAND FREE ENERGY PREDICTED BY IDOCK:   -0.81 KCAL/MOL
REMARK 927      BINDING AFFINITY PREDICTED BY RF-SCORE:    0.00 PKD
ROOT
HETATM    1  C   UNL     1     -10.855   8.241  71.972  1.00  0.00    -0.301 C  
HETATM    2  N   UNL     1     -10.068   9.329  71.401  1.00  0.00    -0.310 NA 
HETATM    3  C   UNL     1      -8.830   8.853  70.770  1.00  0.00    -0.208 C  
HETATM    4  C   UNL     1      -9.025   8.190  69.398  1.00  0.00    -0.147 C  
HETATM    5  C   UNL     1      -9.837   9.072  68.434  1.00  0.00    -0.183 C  
HETATM    6  C   UNL     1     -11.132   9.496  69.136  1.00  0.00    -0.082 C  
HETATM    7  C   UNL     1     -10.853  10.160  70.482  1.00  0.00    -0.273 C  
ENDROOT
BRANCH   5   8
HETATM    8  C   UNL     1      -8.993  10.251  67.915  1.00  0.00    -0.131 C  
HETATM    9  O   UNL     1      -7.840  10.462  68.295  1.00  0.00    -0.101 OA 
BRANCH   8  10
HETATM   10  C   UNL     1      -9.560  11.140  66.861  1.00  0.00    -0.186 A  
HETATM   11  C   UNL     1     -10.134  10.605  65.717  1.00  0.00    -0.327 A  
HETATM   12  C   UNL     1     -10.649  11.486  64.771  1.00  0.00    -0.362 A  
HETATM   13  C   UNL     1     -10.563  12.859  64.999  1.00  0.00    -0.333 A  
HETATM   14  C   UNL     1      -9.969  13.311  66.173  1.00  0.00    -0.293 A  
HETATM   15  N   UNL     1      -9.491  12.465  67.094  1.00  0.00    -0.193 NA 
BRANCH  14  16
HETATM   16  N   UNL     1      -9.875  14.695  66.385  1.00  0.00    -0.272 N  
HETATM   17  H   UNL     1      -9.080  15.186  65.977  1.00  0.00     0.000 HD 
HETATM   18  C   UNL     1     -10.792  15.438  67.112  1.00  0.00    -0.321 C  
HETATM   19  O   UNL     1     -11.784  14.986  67.674  1.00  0.00    -0.342 OA 
BRANCH  18  20
HETATM   20  C   UNL     1     -10.546  16.905  67.209  1.00  0.00    -0.270 A  
HETATM   21  C   UNL     1     -10.187  17.532  68.406  1.00  0.00    -0.372 A  
HETATM   22  C   UNL     1      -9.942  18.903  68.467  1.00  0.00    -0.463 A  
HETATM   23  F   UNL     1     -10.065  16.829  69.545  1.00  0.00    -0.248 F  
HETATM   24  C   UNL     1     -10.058  19.662  67.314  1.00  0.00    -0.409 A  
HETATM   25  C   UNL     1     -10.418  19.080  66.110  1.00  0.00    -0.541 A  
HETATM   26  F   UNL     1      -9.818  20.980  67.364  1.00  0.00    -0.614 F  
HETATM   27  C   UNL     1     -10.660  17.707  66.064  1.00  0.00    -0.220 A  
HETATM   28  F   UNL     1     -11.010  17.197  64.875  1.00  0.00    -0.396 F  
ENDBRANCH  18  20
ENDBRANCH  14  16
ENDBRANCH   8  10
ENDBRANCH   5   8
TORSDOF 4
ENDMDL
MODEL       31
REMARK 921   NORMALIZED FREE ENERGY PREDICTED BY IDOCK:   -6.77 KCAL/MOL
REMARK 922        TOTAL FREE ENERGY PREDICTED BY IDOCK:   -8.71 KCAL/MOL
REMARK 923 INTER-LIGAND FREE ENERGY PREDICTED BY IDOCK:   -7.72 KCAL/MOL
REMARK 924 INTRA-LIGAND FREE ENERGY PREDICTED BY IDOCK:   -0.99 KCAL/MOL
REMARK 927      BINDING AFFINITY PREDICTED BY RF-SCORE:    0.00 PKD
ROOT
HETATM    1  C   UNL     1      -9.225  16.239  68.919  1.00  0.00    -0.249 C  
HETATM    2  N   UNL     1     -10.132  15.097  68.871  1.00  0.00    -0.230 NA 
HETATM    3  C   UNL     1     -11.307  15.350  68.026  1.00  0.00    -0.341 C  
HETATM    4  C   UNL     1     -11.036  15.278  66.516  1.00  0.00    -0.295 C  
HETATM    5  C   UNL     1     -10.331  13.972  66.111  1.00  0.00    -0.301 C  
HETATM    6  C   UNL     1      -9.094  13.792  66.998  1.00  0.00    -0.253 C  
HETATM    7  C   UNL     1      -9.447  13.860  68.482  1.00  0.00    -0.174 C  
ENDROOT
BRANCH   5   8
HETATM    8  C   UNL     1     -11.305  12.781  66.148  1.00  0.00    -0.328 C  
HETATM    9  O   UNL     1     -12.529  12.921  66.148  1.00  0.00    -0.485 OA 
BRANCH   8  10
HETATM   10  C   UNL     1     -10.756  11.394  66.116  1.00  0.00    -0.267 A  
HETATM   11  C   UNL     1     -10.069  10.930  65.004  1.00  0.00    -0.362 A  
HETATM   12  C   UNL     1      -9.578   9.629  65.036  1.00  0.00    -0.284 A  
HETATM   13  C   UNL     1      -9.799   8.843  66.167  1.00  0.00    -0.326 A  
HETATM   14  C   UNL     1     -10.500   9.387  67.238  1.00  0.00    -0.264 A  
HETATM   15  N   UNL     1     -10.955  10.646  67.218  1.00  0.00    -0.300 NA 
BRANCH  14  16
HETATM   16  N   UNL     1     -10.729   8.582  68.365  1.00  0.00    -0.426 N  
HETATM   17  H   UNL     1     -11.569   8.005  68.375  1.00  0.00     0.000 HD 
HETATM   18  C   UNL     1      -9.887   8.521  69.465  1.00  0.00    -0.187 C  
HETATM   19  O   UNL     1      -8.854   9.168  69.603  1.00  0.00    -0.135 OA 
BRANCH  18  20
HETATM   20  C   UNL     1     -10.275   7.587  70.560  1.00  0.00    -0.201 A  
HETATM   21  C   UNL     1     -10.203   6.197  70.426  1.00  0.00    -0.203 A  
HETATM   22  C   UNL     1     -10.551   5.345  71.472  1.00  0.00    -0.285 A  
HETATM   23  F   UNL     1      -9.792   5.634  69.278  1.00  0.00    -0.166 F  
HETATM   24  C   UNL     1     -10.981   5.888  72.673  1.00  0.00    -0.264 A  
HETATM   25  C   UNL     1     -11.071   7.259  72.843  1.00  0.00    -0.369 A  
HETATM   26  F   UNL     1     -11.311   5.075  73.685  1.00  0.00    -0.356 F  
HETATM   27  C   UNL     1     -10.720   8.100  71.787  1.00  0.00    -0.251 A  
HETATM   28  F   UNL     1     -10.832   9.418  72.004  1.00  0.00    -0.420 F  
ENDBRANCH  18  20
ENDBRANCH  14  16
ENDBRANCH   8  10
ENDBRANCH   5   8
TORSDOF 4
ENDMDL
MODEL       32
REMARK 921   NORMALIZED FREE ENERGY PREDICTED BY IDOCK:   -6.77 KCAL/MOL
REMARK 922        TOTAL FREE ENERGY PREDICTED BY IDOCK:   -8.70 KCAL/MOL
REMARK 923 INTER-LIGAND FREE ENERGY PREDICTED BY IDOCK:   -8.48 KCAL/MOL
REMARK 924 INTRA-LIGAND FREE ENERGY PREDICTED BY IDOCK:   -0.23 KCAL/MOL
REMARK 927      BINDING AFFINITY PREDICTED BY RF-SCORE:    0.00 PKD
ROOT
HETATM    1  C   UNL     1     -13.058  16.249  73.950  1.00  0.00    -0.178 C  
HETATM    2  N   UNL     1     -12.589  15.010  73.336  1.00  0.00    -0.490 NA 
HETATM    3  C   UNL     1     -13.657  14.302  72.618  1.00  0.00    -0.501 C  
HETATM    4  C   UNL     1     -14.024  14.911  71.256  1.00  0.00    -0.489 C  
HETATM    5  C   UNL     1     -12.793  15.118  70.358  1.00  0.00    -0.346 C  
HETATM    6  C   UNL     1     -11.739  15.899  71.151  1.00  0.00    -0.490 C  
HETATM    7  C   UNL     1     -11.417  15.224  72.481  1.00  0.00    -0.323 C  
ENDROOT
BRANCH   5   8
HETATM    8  C   UNL     1     -12.285  13.779  69.794  1.00  0.00    -0.310 C  
HETATM    9  O   UNL     1     -12.383  12.717  70.411  1.00  0.00    -0.318 OA 
BRANCH   8  10
HETATM   10  C   UNL     1     -11.708  13.744  68.419  1.00  0.00    -0.358 A  
HETATM   11  C   UNL     1     -11.887  12.635  67.605  1.00  0.00    -0.390 A  
HETATM   12  C   UNL     1     -11.328  12.663  66.331  1.00  0.00    -0.381 A  
HETATM   13  C   UNL     1     -10.607  13.786  65.927  1.00  0.00    -0.289 A  
HETATM   14  C   UNL     1     -10.473  14.854  66.808  1.00  0.00    -0.284 A  
HETATM   15  N   UNL     1     -11.028  14.838  68.027  1.00  0.00    -0.263 NA 
BRANCH  14  16
HETATM   16  N   UNL     1      -9.733  15.973  66.396  1.00  0.00    -0.264 N  
HETATM   17  H   UNL     1      -9.877  16.316  65.447  1.00  0.00     0.000 HD 
HETATM   18  C   UNL     1      -8.818  16.641  67.195  1.00  0.00    -0.192 C  
HETATM   19  O   UNL     1      -8.527  16.335  68.346  1.00  0.00    -0.180 OA 
BRANCH  18  20
HETATM   20  C   UNL     1      -8.143  17.830  66.599  1.00  0.00    -0.288 A  
HETATM   21  C   UNL     1      -6.823  17.795  66.139  1.00  0.00    -0.294 A  
HETATM   22  C   UNL     1      -6.221  18.914  65.566  1.00  0.00    -0.292 A  
HETATM   23  F   UNL     1      -6.088  16.675  66.234  1.00  0.00    -0.151 F  
HETATM   24  C   UNL     1      -6.948  20.089  65.451  1.00  0.00    -0.302 A  
HETATM   25  C   UNL     1      -8.255  20.165  65.900  1.00  0.00    -0.144 A  
HETATM   26  F   UNL     1      -6.377  21.166  64.896  1.00  0.00    -0.295 F  
HETATM   27  C   UNL     1      -8.845  19.037  66.471  1.00  0.00    -0.327 A  
HETATM   28  F   UNL     1     -10.110  19.168  66.894  1.00  0.00    -0.338 F  
ENDBRANCH  18  20
ENDBRANCH  14  16
ENDBRANCH   8  10
ENDBRANCH   5   8
TORSDOF 4
ENDMDL
MODEL       33
REMARK 921   NORMALIZED FREE ENERGY PREDICTED BY IDOCK:   -6.74 KCAL/MOL
REMARK 922        TOTAL FREE ENERGY PREDICTED BY IDOCK:   -8.67 KCAL/MOL
REMARK 923 INTER-LIGAND FREE ENERGY PREDICTED BY IDOCK:   -7.90 KCAL/MOL
REMARK 924 INTRA-LIGAND FREE ENERGY PREDICTED BY IDOCK:   -0.78 KCAL/MOL
REMARK 927      BINDING AFFINITY PREDICTED BY RF-SCORE:    0.00 PKD
ROOT
HETATM    1  C   UNL     1      -7.677  17.566  66.887  1.00  0.00    -0.217 C  
HETATM    2  N   UNL     1      -8.536  16.444  66.522  1.00  0.00    -0.263 NA 
HETATM    3  C   UNL     1      -8.467  15.347  67.497  1.00  0.00    -0.173 C  
HETATM    4  C   UNL     1      -9.242  15.598  68.798  1.00  0.00    -0.211 C  
HETATM    5  C   UNL     1     -10.699  16.020  68.539  1.00  0.00    -0.287 C  
HETATM    6  C   UNL     1     -10.696  17.194  67.552  1.00  0.00    -0.276 C  
HETATM    7  C   UNL     1      -9.921  16.861  66.280  1.00  0.00    -0.309 C  
ENDROOT
BRANCH   5   8
HETATM    8  C   UNL     1     -11.551  14.823  68.083  1.00  0.00    -0.332 C  
HETATM    9  O   UNL     1     -11.957  14.696  66.926  1.00  0.00    -0.373 OA 
BRANCH   8  10
HETATM   10  C   UNL     1     -11.849  13.732  69.056  1.00  0.00    -0.357 A  
HETATM   11  C   UNL     1     -12.279  14.028  70.340  1.00  0.00    -0.433 A  
HETATM   12  C   UNL     1     -12.544  12.968  71.201  1.00  0.00    -0.388 A  
HETATM   13  C   UNL     1     -12.360  11.661  70.751  1.00  0.00    -0.454 A  
HETATM   14  C   UNL     1     -11.923  11.453  69.447  1.00  0.00    -0.339 A  
HETATM   15  N   UNL     1     -11.687  12.472  68.610  1.00  0.00    -0.311 NA 
BRANCH  14  16
HETATM   16  N   UNL     1     -11.727  10.134  69.010  1.00  0.00    -0.501 N  
HETATM   17  H   UNL     1     -12.521   9.645  68.598  1.00  0.00     0.000 HD 
HETATM   18  C   UNL     1     -10.523   9.452  69.101  1.00  0.00    -0.217 C  
HETATM   19  O   UNL     1      -9.490   9.901  69.587  1.00  0.00    -0.206 OA 
BRANCH  18  20
HETATM   20  C   UNL     1     -10.491   8.064  68.559  1.00  0.00    -0.200 A  
HETATM   21  C   UNL     1     -10.575   6.933  69.376  1.00  0.00    -0.229 A  
HETATM   22  C   UNL     1     -10.565   5.645  68.843  1.00  0.00    -0.303 A  
HETATM   23  F   UNL     1     -10.672   7.050  70.711  1.00  0.00    -0.226 F  
HETATM   24  C   UNL     1     -10.466   5.482  67.470  1.00  0.00    -0.204 A  
HETATM   25  C   UNL     1     -10.375   6.577  66.627  1.00  0.00    -0.217 A  
HETATM   26  F   UNL     1     -10.461   4.248  66.950  1.00  0.00    -0.186 F  
HETATM   27  C   UNL     1     -10.386   7.860  67.175  1.00  0.00    -0.328 A  
HETATM   28  F   UNL     1     -10.289   8.883  66.315  1.00  0.00    -0.360 F  
ENDBRANCH  18  20
ENDBRANCH  14  16
ENDBRANCH   8  10
ENDBRANCH   5   8
TORSDOF 4
ENDMDL
MODEL       34
REMARK 921   NORMALIZED FREE ENERGY PREDICTED BY IDOCK:   -6.73 KCAL/MOL
REMARK 922        TOTAL FREE ENERGY PREDICTED BY IDOCK:   -8.65 KCAL/MOL
REMARK 923 INTER-LIGAND FREE ENERGY PREDICTED BY IDOCK:   -8.38 KCAL/MOL
REMARK 924 INTRA-LIGAND FREE ENERGY PREDICTED BY IDOCK:   -0.28 KCAL/MOL
REMARK 927      BINDING AFFINITY PREDICTED BY RF-SCORE:    0.00 PKD
ROOT
HETATM    1  C   UNL     1      -8.253  19.815  66.235  1.00  0.00    -0.350 C  
HETATM    2  N   UNL     1      -8.935  18.564  65.920  1.00  0.00    -0.434 NA 
HETATM    3  C   UNL     1      -8.328  17.410  66.598  1.00  0.00    -0.263 C  
HETATM    4  C   UNL     1      -8.669  17.294  68.091  1.00  0.00    -0.243 C  
HETATM    5  C   UNL     1     -10.184  17.357  68.351  1.00  0.00    -0.362 C  
HETATM    6  C   UNL     1     -10.745  18.603  67.656  1.00  0.00    -0.428 C  
HETATM    7  C   UNL     1     -10.377  18.638  66.175  1.00  0.00    -0.443 C  
ENDROOT
BRANCH   5   8
HETATM    8  C   UNL     1     -10.875  16.046  67.934  1.00  0.00    -0.333 C  
HETATM    9  O   UNL     1     -10.943  15.673  66.761  1.00  0.00    -0.310 OA 
BRANCH   8  10
HETATM   10  C   UNL     1     -11.429  15.150  68.990  1.00  0.00    -0.309 A  
HETATM   11  C   UNL     1     -12.012  15.679  70.131  1.00  0.00    -0.387 A  
HETATM   12  C   UNL     1     -12.514  14.793  71.079  1.00  0.00    -0.400 A  
HETATM   13  C   UNL     1     -12.405  13.421  70.856  1.00  0.00    -0.436 A  
HETATM   14  C   UNL     1     -11.802  12.975  69.684  1.00  0.00    -0.319 A  
HETATM   15  N   UNL     1     -11.337  13.826  68.761  1.00  0.00    -0.264 NA 
BRANCH  14  16
HETATM   16  N   UNL     1     -11.684  11.592  69.477  1.00  0.00    -0.316 N  
HETATM   17  H   UNL     1     -12.512  11.016  69.624  1.00  0.00     0.000 HD 
HETATM   18  C   UNL     1     -10.514  10.958  69.087  1.00  0.00    -0.221 C  
HETATM   19  O   UNL     1      -9.439  11.514  68.891  1.00  0.00    -0.136 OA 
BRANCH  18  20
HETATM   20  C   UNL     1     -10.581   9.482  68.887  1.00  0.00    -0.239 A  
HETATM   21  C   UNL     1     -10.462   8.886  67.627  1.00  0.00    -0.255 A  
HETATM   22  C   UNL     1     -10.507   7.502  67.469  1.00  0.00    -0.341 A  
HETATM   23  F   UNL     1     -10.298   9.632  66.522  1.00  0.00    -0.295 F  
HETATM   24  C   UNL     1     -10.675   6.699  68.585  1.00  0.00    -0.254 A  
HETATM   25  C   UNL     1     -10.804   7.251  69.848  1.00  0.00    -0.264 A  
HETATM   26  F   UNL     1     -10.713   5.367  68.440  1.00  0.00    -0.254 F  
HETATM   27  C   UNL     1     -10.757   8.638  69.992  1.00  0.00    -0.228 A  
HETATM   28  F   UNL     1     -10.892   9.119  71.236  1.00  0.00    -0.295 F  
ENDBRANCH  18  20
ENDBRANCH  14  16
ENDBRANCH   8  10
ENDBRANCH   5   8
TORSDOF 4
ENDMDL
MODEL       35
REMARK 921   NORMALIZED FREE ENERGY PREDICTED BY IDOCK:   -6.72 KCAL/MOL
REMARK 922        TOTAL FREE ENERGY PREDICTED BY IDOCK:   -8.64 KCAL/MOL
REMARK 923 INTER-LIGAND FREE ENERGY PREDICTED BY IDOCK:   -8.15 KCAL/MOL
REMARK 924 INTRA-LIGAND FREE ENERGY PREDICTED BY IDOCK:   -0.50 KCAL/MOL
REMARK 927      BINDING AFFINITY PREDICTED BY RF-SCORE:    0.00 PKD
ROOT
HETATM    1  C   UNL     1     -11.220  15.967  64.480  1.00  0.00    -0.312 C  
HETATM    2  N   UNL     1     -10.541  14.930  65.250  1.00  0.00    -0.369 NA 
HETATM    3  C   UNL     1     -10.043  15.428  66.540  1.00  0.00    -0.271 C  
HETATM    4  C   UNL     1     -11.123  15.608  67.616  1.00  0.00    -0.305 C  
HETATM    5  C   UNL     1     -11.980  14.344  67.802  1.00  0.00    -0.368 C  
HETATM    6  C   UNL     1     -12.503  13.906  66.430  1.00  0.00    -0.414 C  
HETATM    7  C   UNL     1     -11.370  13.733  65.421  1.00  0.00    -0.308 C  
ENDROOT
BRANCH   5   8
HETATM    8  C   UNL     1     -11.199  13.249  68.552  1.00  0.00    -0.271 C  
HETATM    9  O   UNL     1     -10.043  12.938  68.260  1.00  0.00    -0.233 OA 
BRANCH   8  10
HETATM   10  C   UNL     1     -11.835  12.578  69.722  1.00  0.00    -0.310 A  
HETATM   11  C   UNL     1     -12.649  13.290  70.590  1.00  0.00    -0.305 A  
HETATM   12  C   UNL     1     -13.216  12.608  71.662  1.00  0.00    -0.394 A  
HETATM   13  C   UNL     1     -12.941  11.251  71.830  1.00  0.00    -0.519 A  
HETATM   14  C   UNL     1     -12.111  10.614  70.913  1.00  0.00    -0.385 A  
HETATM   15  N   UNL     1     -11.581  11.264  69.870  1.00  0.00    -0.315 NA 
BRANCH  14  16
HETATM   16  N   UNL     1     -11.829   9.252  71.101  1.00  0.00    -0.306 N  
HETATM   17  H   UNL     1     -12.587   8.585  70.961  1.00  0.00     0.000 HD 
HETATM   18  C   UNL     1     -10.587   8.755  71.463  1.00  0.00    -0.309 C  
HETATM   19  O   UNL     1      -9.589   9.433  71.682  1.00  0.00    -0.260 OA 
BRANCH  18  20
HETATM   20  C   UNL     1     -10.464   7.274  71.590  1.00  0.00    -0.218 A  
HETATM   21  C   UNL     1     -10.547   6.613  72.819  1.00  0.00    -0.232 A  
HETATM   22  C   UNL     1     -10.450   5.226  72.909  1.00  0.00    -0.253 A  
HETATM   23  F   UNL     1     -10.726   7.297  73.961  1.00  0.00    -0.403 F  
HETATM   24  C   UNL     1     -10.264   4.484  71.752  1.00  0.00    -0.156 A  
HETATM   25  C   UNL     1     -10.170   5.102  70.517  1.00  0.00    -0.330 A  
HETATM   26  F   UNL     1     -10.176   3.150  71.831  1.00  0.00    -0.239 F  
HETATM   27  C   UNL     1     -10.269   6.492  70.442  1.00  0.00    -0.193 A  
HETATM   28  F   UNL     1     -10.166   7.038  69.223  1.00  0.00    -0.168 F  
ENDBRANCH  18  20
ENDBRANCH  14  16
ENDBRANCH   8  10
ENDBRANCH   5   8
TORSDOF 4
ENDMDL
MODEL       36
REMARK 921   NORMALIZED FREE ENERGY PREDICTED BY IDOCK:   -6.71 KCAL/MOL
REMARK 922        TOTAL FREE ENERGY PREDICTED BY IDOCK:   -8.63 KCAL/MOL
REMARK 923 INTER-LIGAND FREE ENERGY PREDICTED BY IDOCK:   -8.40 KCAL/MOL
REMARK 924 INTRA-LIGAND FREE ENERGY PREDICTED BY IDOCK:   -0.23 KCAL/MOL
REMARK 927      BINDING AFFINITY PREDICTED BY RF-SCORE:    0.00 PKD
ROOT
HETATM    1  C   UNL     1     -10.574  13.334  64.210  1.00  0.00    -0.384 C  
HETATM    2  N   UNL     1     -11.395  13.973  65.234  1.00  0.00    -0.311 NA 
HETATM    3  C   UNL     1     -12.142  12.998  66.040  1.00  0.00    -0.432 C  
HETATM    4  C   UNL     1     -11.300  12.258  67.090  1.00  0.00    -0.398 C  
HETATM    5  C   UNL     1     -10.500  13.221  67.983  1.00  0.00    -0.248 C  
HETATM    6  C   UNL     1      -9.712  14.178  67.081  1.00  0.00    -0.248 C  
HETATM    7  C   UNL     1     -10.619  14.886  66.078  1.00  0.00    -0.315 C  
ENDROOT
BRANCH   5   8
HETATM    8  C   UNL     1     -11.417  13.930  68.996  1.00  0.00    -0.299 C  
HETATM    9  O   UNL     1     -11.703  15.126  68.912  1.00  0.00    -0.313 OA 
BRANCH   8  10
HETATM   10  C   UNL     1     -12.042  13.132  70.090  1.00  0.00    -0.321 A  
HETATM   11  C   UNL     1     -12.850  13.742  71.037  1.00  0.00    -0.376 A  
HETATM   12  C   UNL     1     -13.408  12.945  72.032  1.00  0.00    -0.579 A  
HETATM   13  C   UNL     1     -13.131  11.578  72.046  1.00  0.00    -0.430 A  
HETATM   14  C   UNL     1     -12.307  11.047  71.057  1.00  0.00    -0.385 A  
HETATM   15  N   UNL     1     -11.786  11.810  70.088  1.00  0.00    -0.338 NA 
BRANCH  14  16
HETATM   16  N   UNL     1     -12.023   9.674  71.090  1.00  0.00    -0.341 N  
HETATM   17  H   UNL     1     -12.809   9.025  71.120  1.00  0.00     0.000 HD 
HETATM   18  C   UNL     1     -10.743   9.141  71.086  1.00  0.00    -0.310 C  
HETATM   19  O   UNL     1      -9.704   9.794  71.071  1.00  0.00    -0.098 OA 
BRANCH  18  20
HETATM   20  C   UNL     1     -10.630   7.655  71.095  1.00  0.00    -0.235 A  
HETATM   21  C   UNL     1     -10.561   6.897  69.922  1.00  0.00    -0.228 A  
HETATM   22  C   UNL     1     -10.435   5.509  69.957  1.00  0.00    -0.373 A  
HETATM   23  F   UNL     1     -10.613   7.484  68.715  1.00  0.00    -0.205 F  
HETATM   24  C   UNL     1     -10.379   4.866  71.183  1.00  0.00    -0.152 A  
HETATM   25  C   UNL     1     -10.450   5.580  72.367  1.00  0.00    -0.261 A  
HETATM   26  F   UNL     1     -10.251   3.533  71.224  1.00  0.00    -0.219 F  
HETATM   27  C   UNL     1     -10.577   6.969  72.317  1.00  0.00    -0.213 A  
HETATM   28  F   UNL     1     -10.647   7.610  73.492  1.00  0.00    -0.386 F  
ENDBRANCH  18  20
ENDBRANCH  14  16
ENDBRANCH   8  10
ENDBRANCH   5   8
TORSDOF 4
ENDMDL
MODEL       37
REMARK 921   NORMALIZED FREE ENERGY PREDICTED BY IDOCK:   -6.66 KCAL/MOL
REMARK 922        TOTAL FREE ENERGY PREDICTED BY IDOCK:   -8.58 KCAL/MOL
REMARK 923 INTER-LIGAND FREE ENERGY PREDICTED BY IDOCK:   -8.18 KCAL/MOL
REMARK 924 INTRA-LIGAND FREE ENERGY PREDICTED BY IDOCK:   -0.39 KCAL/MOL
REMARK 927      BINDING AFFINITY PREDICTED BY RF-SCORE:    0.00 PKD
ROOT
HETATM    1  C   UNL     1      -9.422   7.045  69.211  1.00  0.00    -0.147 C  
HETATM    2  N   UNL     1     -10.613   7.854  68.978  1.00  0.00    -0.200 NA 
HETATM    3  C   UNL     1     -10.949   8.701  70.132  1.00  0.00    -0.226 C  
HETATM    4  C   UNL     1     -10.061   9.943  70.293  1.00  0.00    -0.295 C  
HETATM    5  C   UNL     1      -9.976  10.773  69.001  1.00  0.00    -0.214 C  
HETATM    6  C   UNL     1      -9.580   9.841  67.850  1.00  0.00    -0.158 C  
HETATM    7  C   UNL     1     -10.518   8.641  67.745  1.00  0.00    -0.224 C  
ENDROOT
BRANCH   5   8
HETATM    8  C   UNL     1     -11.282  11.550  68.753  1.00  0.00    -0.249 C  
HETATM    9  O   UNL     1     -12.148  11.163  67.969  1.00  0.00    -0.635 OA 
BRANCH   8  10
HETATM   10  C   UNL     1     -11.547  12.790  69.540  1.00  0.00    -0.276 A  
HETATM   11  C   UNL     1     -12.439  12.777  70.601  1.00  0.00    -0.328 A  
HETATM   12  C   UNL     1     -12.643  13.963  71.298  1.00  0.00    -0.450 A  
HETATM   13  C   UNL     1     -11.958  15.113  70.904  1.00  0.00    -0.378 A  
HETATM   14  C   UNL     1     -11.082  15.038  69.825  1.00  0.00    -0.276 A  
HETATM   15  N   UNL     1     -10.870  13.892  69.166  1.00  0.00    -0.225 NA 
BRANCH  14  16
HETATM   16  N   UNL     1     -10.411  16.204  69.427  1.00  0.00    -0.258 N  
HETATM   17  H   UNL     1      -9.940  16.752  70.147  1.00  0.00     0.000 HD 
HETATM   18  C   UNL     1     -10.345  16.660  68.120  1.00  0.00    -0.303 C  
HETATM   19  O   UNL     1     -10.874  16.120  67.154  1.00  0.00    -0.302 OA 
BRANCH  18  20
HETATM   20  C   UNL     1      -9.562  17.905  67.877  1.00  0.00    -0.286 A  
HETATM   21  C   UNL     1     -10.167  19.132  67.589  1.00  0.00    -0.403 A  
HETATM   22  C   UNL     1      -9.414  20.287  67.388  1.00  0.00    -0.547 A  
HETATM   23  F   UNL     1     -11.503  19.240  67.499  1.00  0.00    -0.401 F  
HETATM   24  C   UNL     1      -8.032  20.217  67.473  1.00  0.00    -0.311 A  
HETATM   25  C   UNL     1      -7.395  19.019  67.750  1.00  0.00    -0.261 A  
HETATM   26  F   UNL     1      -7.302  21.325  67.286  1.00  0.00    -0.422 F  
HETATM   27  C   UNL     1      -8.162  17.871  67.949  1.00  0.00    -0.246 A  
HETATM   28  F   UNL     1      -7.494  16.738  68.208  1.00  0.00    -0.162 F  
ENDBRANCH  18  20
ENDBRANCH  14  16
ENDBRANCH   8  10
ENDBRANCH   5   8
TORSDOF 4
ENDMDL
MODEL       38
REMARK 921   NORMALIZED FREE ENERGY PREDICTED BY IDOCK:   -6.66 KCAL/MOL
REMARK 922        TOTAL FREE ENERGY PREDICTED BY IDOCK:   -8.57 KCAL/MOL
REMARK 923 INTER-LIGAND FREE ENERGY PREDICTED BY IDOCK:   -8.15 KCAL/MOL
REMARK 924 INTRA-LIGAND FREE ENERGY PREDICTED BY IDOCK:   -0.42 KCAL/MOL
REMARK 927      BINDING AFFINITY PREDICTED BY RF-SCORE:    0.00 PKD
ROOT
HETATM    1  C   UNL     1     -10.895  14.580  64.597  1.00  0.00    -0.332 C  
HETATM    2  N   UNL     1     -11.639  14.947  65.798  1.00  0.00    -0.288 NA 
HETATM    3  C   UNL     1     -12.443  13.833  66.319  1.00  0.00    -0.391 C  
HETATM    4  C   UNL     1     -11.639  12.760  67.069  1.00  0.00    -0.422 C  
HETATM    5  C   UNL     1     -10.744  13.361  68.166  1.00  0.00    -0.267 C  
HETATM    6  C   UNL     1      -9.903  14.483  67.547  1.00  0.00    -0.222 C  
HETATM    7  C   UNL     1     -10.773  15.516  66.835  1.00  0.00    -0.317 C  
ENDROOT
BRANCH   5   8
HETATM    8  C   UNL     1     -11.578  13.804  69.382  1.00  0.00    -0.310 C  
HETATM    9  O   UNL     1     -11.841  14.985  69.614  1.00  0.00    -0.290 OA 
BRANCH   8  10
HETATM   10  C   UNL     1     -12.151  12.765  70.286  1.00  0.00    -0.297 A  
HETATM   11  C   UNL     1     -12.987  13.122  71.333  1.00  0.00    -0.386 A  
HETATM   12  C   UNL     1     -13.493  12.107  72.139  1.00  0.00    -0.383 A  
HETATM   13  C   UNL     1     -13.139  10.784  71.875  1.00  0.00    -0.557 A  
HETATM   14  C   UNL     1     -12.292  10.515  70.804  1.00  0.00    -0.378 A  
HETATM   15  N   UNL     1     -11.820  11.488  70.015  1.00  0.00    -0.335 NA 
BRANCH  14  16
HETATM   16  N   UNL     1     -11.930   9.182  70.557  1.00  0.00    -0.472 N  
HETATM   17  H   UNL     1     -12.622   8.573  70.122  1.00  0.00     0.000 HD 
HETATM   18  C   UNL     1     -10.693   8.639  70.866  1.00  0.00    -0.219 C  
HETATM   19  O   UNL     1      -9.770   9.240  71.406  1.00  0.00    -0.284 OA 
BRANCH  18  20
HETATM   20  C   UNL     1     -10.474   7.209  70.505  1.00  0.00    -0.228 A  
HETATM   21  C   UNL     1     -10.398   6.770  69.180  1.00  0.00    -0.194 A  
HETATM   22  C   UNL     1     -10.171   5.430  68.867  1.00  0.00    -0.266 A  
HETATM   23  F   UNL     1     -10.540   7.629  68.157  1.00  0.00    -0.224 F  
HETATM   24  C   UNL     1     -10.020   4.512  69.895  1.00  0.00    -0.203 A  
HETATM   25  C   UNL     1     -10.095   4.907  71.220  1.00  0.00    -0.269 A  
HETATM   26  F   UNL     1      -9.796   3.224  69.602  1.00  0.00    -0.228 F  
HETATM   27  C   UNL     1     -10.322   6.251  71.518  1.00  0.00    -0.204 A  
HETATM   28  F   UNL     1     -10.391   6.577  72.816  1.00  0.00    -0.182 F  
ENDBRANCH  18  20
ENDBRANCH  14  16
ENDBRANCH   8  10
ENDBRANCH   5   8
TORSDOF 4
ENDMDL
MODEL       39
REMARK 921   NORMALIZED FREE ENERGY PREDICTED BY IDOCK:   -6.65 KCAL/MOL
REMARK 922        TOTAL FREE ENERGY PREDICTED BY IDOCK:   -8.56 KCAL/MOL
REMARK 923 INTER-LIGAND FREE ENERGY PREDICTED BY IDOCK:   -8.29 KCAL/MOL
REMARK 924 INTRA-LIGAND FREE ENERGY PREDICTED BY IDOCK:   -0.27 KCAL/MOL
REMARK 927      BINDING AFFINITY PREDICTED BY RF-SCORE:    0.00 PKD
ROOT
HETATM    1  C   UNL     1      -5.758   7.869  64.459  1.00  0.00    -0.044 C  
HETATM    2  N   UNL     1      -7.041   7.901  65.154  1.00  0.00    -0.059 NA 
HETATM    3  C   UNL     1      -7.130   9.014  66.111  1.00  0.00    -0.086 C  
HETATM    4  C   UNL     1      -7.371  10.389  65.471  1.00  0.00    -0.139 C  
HETATM    5  C   UNL     1      -8.573  10.384  64.510  1.00  0.00    -0.187 C  
HETATM    6  C   UNL     1      -8.394   9.232  63.515  1.00  0.00    -0.185 C  
HETATM    7  C   UNL     1      -8.176   7.899  64.227  1.00  0.00    -0.038 C  
ENDROOT
BRANCH   5   8
HETATM    8  C   UNL     1      -9.903  10.341  65.284  1.00  0.00    -0.306 C  
HETATM    9  O   UNL     1     -10.276   9.348  65.911  1.00  0.00    -0.259 OA 
BRANCH   8  10
HETATM   10  C   UNL     1     -10.750  11.567  65.339  1.00  0.00    -0.278 A  
HETATM   11  C   UNL     1     -11.183  12.181  64.173  1.00  0.00    -0.433 A  
HETATM   12  C   UNL     1     -11.973  13.320  64.289  1.00  0.00    -0.477 A  
HETATM   13  C   UNL     1     -12.290  13.805  65.558  1.00  0.00    -0.507 A  
HETATM   14  C   UNL     1     -11.812  13.129  66.676  1.00  0.00    -0.391 A  
HETATM   15  N   UNL     1     -11.068  12.021  66.566  1.00  0.00    -0.299 NA 
BRANCH  14  16
HETATM   16  N   UNL     1     -12.125  13.634  67.947  1.00  0.00    -0.369 N  
HETATM   17  H   UNL     1     -13.108  13.681  68.213  1.00  0.00     0.000 HD 
HETATM   18  C   UNL     1     -11.184  14.074  68.865  1.00  0.00    -0.272 C  
HETATM   19  O   UNL     1      -9.971  14.095  68.682  1.00  0.00    -0.232 OA 
BRANCH  18  20
HETATM   20  C   UNL     1     -11.697  14.553  70.180  1.00  0.00    -0.357 A  
HETATM   21  C   UNL     1     -11.457  15.845  70.658  1.00  0.00    -0.400 A  
HETATM   22  C   UNL     1     -11.966  16.277  71.881  1.00  0.00    -0.513 A  
HETATM   23  F   UNL     1     -10.725  16.719  69.948  1.00  0.00    -0.315 F  
HETATM   24  C   UNL     1     -12.726  15.403  72.644  1.00  0.00    -0.392 A  
HETATM   25  C   UNL     1     -12.981  14.114  72.209  1.00  0.00    -0.469 A  
HETATM   26  F   UNL     1     -13.223  15.813  73.818  1.00  0.00    -0.571 F  
HETATM   27  C   UNL     1     -12.465  13.696  70.981  1.00  0.00    -0.377 A  
HETATM   28  F   UNL     1     -12.737  12.436  70.612  1.00  0.00    -0.331 F  
ENDBRANCH  18  20
ENDBRANCH  14  16
ENDBRANCH   8  10
ENDBRANCH   5   8
TORSDOF 4
ENDMDL
MODEL       40
REMARK 921   NORMALIZED FREE ENERGY PREDICTED BY IDOCK:   -6.52 KCAL/MOL
REMARK 922        TOTAL FREE ENERGY PREDICTED BY IDOCK:   -8.40 KCAL/MOL
REMARK 923 INTER-LIGAND FREE ENERGY PREDICTED BY IDOCK:   -8.08 KCAL/MOL
REMARK 924 INTRA-LIGAND FREE ENERGY PREDICTED BY IDOCK:   -0.31 KCAL/MOL
REMARK 927      BINDING AFFINITY PREDICTED BY RF-SCORE:    0.00 PKD
ROOT
HETATM    1  C   UNL     1     -12.974  15.846  74.006  1.00  0.00    -0.345 C  
HETATM    2  N   UNL     1     -13.042  16.241  72.602  1.00  0.00    -0.219 NA 
HETATM    3  C   UNL     1     -11.711  16.362  71.991  1.00  0.00    -0.353 C  
HETATM    4  C   UNL     1     -11.041  15.023  71.648  1.00  0.00    -0.077 C  
HETATM    5  C   UNL     1     -11.955  14.109  70.814  1.00  0.00    -0.377 C  
HETATM    6  C   UNL     1     -13.306  13.990  71.528  1.00  0.00    -0.422 C  
HETATM    7  C   UNL     1     -13.914  15.360  71.819  1.00  0.00    -0.525 C  
ENDROOT
BRANCH   5   8
HETATM    8  C   UNL     1     -12.058  14.605  69.360  1.00  0.00    -0.280 C  
HETATM    9  O   UNL     1     -12.274  15.783  69.072  1.00  0.00    -0.280 OA 
BRANCH   8  10
HETATM   10  C   UNL     1     -11.825  13.640  68.247  1.00  0.00    -0.369 A  
HETATM   11  C   UNL     1     -11.764  14.077  66.932  1.00  0.00    -0.435 A  
HETATM   12  C   UNL     1     -11.540  13.130  65.938  1.00  0.00    -0.391 A  
HETATM   13  C   UNL     1     -11.397  11.789  66.293  1.00  0.00    -0.350 A  
HETATM   14  C   UNL     1     -11.474  11.436  67.636  1.00  0.00    -0.273 A  
HETATM   15  N   UNL     1     -11.669  12.349  68.596  1.00  0.00    -0.312 NA 
BRANCH  14  16
HETATM   16  N   UNL     1     -11.343  10.082  67.980  1.00  0.00    -0.521 N  
HETATM   17  H   UNL     1     -12.100   9.449  67.721  1.00  0.00     0.000 HD 
HETATM   18  C   UNL     1     -10.253   9.548  68.649  1.00  0.00    -0.195 C  
HETATM   19  O   UNL     1      -9.280  10.184  69.039  1.00  0.00    -0.163 OA 
BRANCH  18  20
HETATM   20  C   UNL     1     -10.272   8.079  68.906  1.00  0.00    -0.220 A  
HETATM   21  C   UNL     1     -10.450   7.138  67.888  1.00  0.00    -0.212 A  
HETATM   22  C   UNL     1     -10.442   5.769  68.150  1.00  0.00    -0.277 A  
HETATM   23  F   UNL     1     -10.633   7.524  66.614  1.00  0.00    -0.367 F  
HETATM   24  C   UNL     1     -10.256   5.331  69.452  1.00  0.00    -0.251 A  
HETATM   25  C   UNL     1     -10.082   6.232  70.489  1.00  0.00    -0.230 A  
HETATM   26  F   UNL     1     -10.241   4.017  69.711  1.00  0.00    -0.241 F  
HETATM   27  C   UNL     1     -10.092   7.599  70.211  1.00  0.00    -0.198 A  
HETATM   28  F   UNL     1      -9.926   8.426  71.253  1.00  0.00    -0.201 F  
ENDBRANCH  18  20
ENDBRANCH  14  16
ENDBRANCH   8  10
ENDBRANCH   5   8
TORSDOF 4
ENDMDL
MODEL       41
REMARK 921   NORMALIZED FREE ENERGY PREDICTED BY IDOCK:   -6.52 KCAL/MOL
REMARK 922        TOTAL FREE ENERGY PREDICTED BY IDOCK:   -8.40 KCAL/MOL
REMARK 923 INTER-LIGAND FREE ENERGY PREDICTED BY IDOCK:   -7.77 KCAL/MOL
REMARK 924 INTRA-LIGAND FREE ENERGY PREDICTED BY IDOCK:   -0.63 KCAL/MOL
REMARK 927      BINDING AFFINITY PREDICTED BY RF-SCORE:    0.00 PKD
ROOT
HETATM    1  C   UNL     1     -10.228   6.478  74.154  1.00  0.00    -0.358 C  
HETATM    2  N   UNL     1     -10.199   5.982  72.782  1.00  0.00    -0.183 NA 
HETATM    3  C   UNL     1     -11.535   5.944  72.173  1.00  0.00    -0.276 C  
HETATM    4  C   UNL     1     -12.076   7.312  71.733  1.00  0.00    -0.353 C  
HETATM    5  C   UNL     1     -11.080   8.075  70.842  1.00  0.00    -0.271 C  
HETATM    6  C   UNL     1      -9.724   8.116  71.554  1.00  0.00    -0.230 C  
HETATM    7  C   UNL     1      -9.248   6.719  71.944  1.00  0.00    -0.142 C  
ENDROOT
BRANCH   5   8
HETATM    8  C   UNL     1     -11.025   7.471  69.427  1.00  0.00    -0.083 C  
HETATM    9  O   UNL     1     -11.424   6.333  69.173  1.00  0.00    -0.394 OA 
BRANCH   8  10
HETATM   10  C   UNL     1     -10.531   8.312  68.298  1.00  0.00    -0.161 A  
HETATM   11  C   UNL     1     -10.041   7.726  67.141  1.00  0.00    -0.328 A  
HETATM   12  C   UNL     1      -9.598   8.563  66.122  1.00  0.00    -0.276 A  
HETATM   13  C   UNL     1      -9.653   9.945  66.301  1.00  0.00    -0.265 A  
HETATM   14  C   UNL     1     -10.158  10.450  67.496  1.00  0.00    -0.192 A  
HETATM   15  N   UNL     1     -10.604   9.646  68.469  1.00  0.00    -0.219 NA 
BRANCH  14  16
HETATM   16  N   UNL     1     -10.195  11.841  67.671  1.00  0.00    -0.197 N  
HETATM   17  H   UNL     1      -9.435  12.276  68.193  1.00  0.00     0.000 HD 
HETATM   18  C   UNL     1     -11.198  12.664  67.181  1.00  0.00    -0.300 C  
HETATM   19  O   UNL     1     -12.181  12.285  66.553  1.00  0.00    -0.588 OA 
BRANCH  18  20
HETATM   20  C   UNL     1     -11.058  14.125  67.439  1.00  0.00    -0.318 A  
HETATM   21  C   UNL     1     -10.411  14.989  66.549  1.00  0.00    -0.285 A  
HETATM   22  C   UNL     1     -10.312  16.356  66.803  1.00  0.00    -0.293 A  
HETATM   23  F   UNL     1      -9.863  14.528  65.414  1.00  0.00    -0.343 F  
HETATM   24  C   UNL     1     -10.865  16.871  67.965  1.00  0.00    -0.338 A  
HETATM   25  C   UNL     1     -11.508  16.047  68.873  1.00  0.00    -0.362 A  
HETATM   26  F   UNL     1     -10.779  18.185  68.212  1.00  0.00    -0.363 F  
HETATM   27  C   UNL     1     -11.600  14.681  68.607  1.00  0.00    -0.314 A  
HETATM   28  F   UNL     1     -12.227  13.930  69.522  1.00  0.00    -0.338 F  
ENDBRANCH  18  20
ENDBRANCH  14  16
ENDBRANCH   8  10
ENDBRANCH   5   8
TORSDOF 4
ENDMDL
MODEL       42
REMARK 921   NORMALIZED FREE ENERGY PREDICTED BY IDOCK:   -6.51 KCAL/MOL
REMARK 922        TOTAL FREE ENERGY PREDICTED BY IDOCK:   -8.39 KCAL/MOL
REMARK 923 INTER-LIGAND FREE ENERGY PREDICTED BY IDOCK:   -7.78 KCAL/MOL
REMARK 924 INTRA-LIGAND FREE ENERGY PREDICTED BY IDOCK:   -0.60 KCAL/MOL
REMARK 927      BINDING AFFINITY PREDICTED BY RF-SCORE:    0.00 PKD
ROOT
HETATM    1  C   UNL     1     -12.972  15.856  74.077  1.00  0.00    -0.345 C  
HETATM    2  N   UNL     1     -12.468  14.761  73.254  1.00  0.00    -0.404 NA 
HETATM    3  C   UNL     1     -13.518  14.157  72.423  1.00  0.00    -0.517 C  
HETATM    4  C   UNL     1     -13.914  14.985  71.191  1.00  0.00    -0.451 C  
HETATM    5  C   UNL     1     -12.696  15.388  70.342  1.00  0.00    -0.407 C  
HETATM    6  C   UNL     1     -11.662  16.050  71.259  1.00  0.00    -0.516 C  
HETATM    7  C   UNL     1     -11.309  15.160  72.448  1.00  0.00    -0.176 C  
ENDROOT
BRANCH   5   8
HETATM    8  C   UNL     1     -12.150  14.187  69.549  1.00  0.00    -0.340 C  
HETATM    9  O   UNL     1     -12.329  13.020  69.901  1.00  0.00    -0.224 OA 
BRANCH   8  10
HETATM   10  C   UNL     1     -11.430  14.432  68.266  1.00  0.00    -0.305 A  
HETATM   11  C   UNL     1     -11.383  15.703  67.713  1.00  0.00    -0.261 A  
HETATM   12  C   UNL     1     -10.694  15.870  66.516  1.00  0.00    -0.258 A  
HETATM   13  C   UNL     1     -10.090  14.764  65.916  1.00  0.00    -0.343 A  
HETATM   14  C   UNL     1     -10.188  13.524  66.538  1.00  0.00    -0.283 A  
HETATM   15  N   UNL     1     -10.834  13.365  67.701  1.00  0.00    -0.256 NA 
BRANCH  14  16
HETATM   16  N   UNL     1      -9.590  12.416  65.919  1.00  0.00    -0.360 N  
HETATM   17  H   UNL     1      -8.630  12.187  66.176  1.00  0.00     0.000 HD 
HETATM   18  C   UNL     1     -10.218  11.614  64.979  1.00  0.00    -0.275 C  
HETATM   19  O   UNL     1     -11.358  11.775  64.558  1.00  0.00    -0.322 OA 
BRANCH  18  20
HETATM   20  C   UNL     1      -9.437  10.460  64.446  1.00  0.00    -0.343 A  
HETATM   21  C   UNL     1      -8.832  10.478  63.186  1.00  0.00    -0.215 A  
HETATM   22  C   UNL     1      -8.089   9.395  62.719  1.00  0.00    -0.142 A  
HETATM   23  F   UNL     1      -8.946  11.546  62.379  1.00  0.00    -0.360 F  
HETATM   24  C   UNL     1      -7.949   8.274  63.522  1.00  0.00    -0.154 A  
HETATM   25  C   UNL     1      -8.538   8.216  64.773  1.00  0.00    -0.000 A  
HETATM   26  F   UNL     1      -7.231   7.232  63.082  1.00  0.00    -0.062 F  
HETATM   27  C   UNL     1      -9.279   9.307  65.228  1.00  0.00    -0.212 A  
HETATM   28  F   UNL     1      -9.832   9.195  66.444  1.00  0.00    -0.252 F  
ENDBRANCH  18  20
ENDBRANCH  14  16
ENDBRANCH   8  10
ENDBRANCH   5   8
TORSDOF 4
ENDMDL
MODEL       43
REMARK 921   NORMALIZED FREE ENERGY PREDICTED BY IDOCK:   -6.47 KCAL/MOL
REMARK 922        TOTAL FREE ENERGY PREDICTED BY IDOCK:   -8.33 KCAL/MOL
REMARK 923 INTER-LIGAND FREE ENERGY PREDICTED BY IDOCK:   -8.14 KCAL/MOL
REMARK 924 INTRA-LIGAND FREE ENERGY PREDICTED BY IDOCK:   -0.19 KCAL/MOL
REMARK 927      BINDING AFFINITY PREDICTED BY RF-SCORE:    0.00 PKD
ROOT
HETATM    1  C   UNL     1      -8.454  19.185  66.215  1.00  0.00    -0.304 C  
HETATM    2  N   UNL     1      -8.253  17.940  66.950  1.00  0.00    -0.229 NA 
HETATM    3  C   UNL     1      -8.745  18.021  68.332  1.00  0.00    -0.293 C  
HETATM    4  C   UNL     1     -10.271  17.933  68.475  1.00  0.00    -0.393 C  
HETATM    5  C   UNL     1     -10.856  16.709  67.748  1.00  0.00    -0.292 C  
HETATM    6  C   UNL     1     -10.341  16.710  66.304  1.00  0.00    -0.323 C  
HETATM    7  C   UNL     1      -8.817  16.784  66.247  1.00  0.00    -0.299 C  
ENDROOT
BRANCH   5   8
HETATM    8  C   UNL     1     -10.555  15.410  68.518  1.00  0.00    -0.240 C  
HETATM    9  O   UNL     1      -9.521  14.763  68.352  1.00  0.00    -0.199 OA 
BRANCH   8  10
HETATM   10  C   UNL     1     -11.519  14.944  69.556  1.00  0.00    -0.297 A  
HETATM   11  C   UNL     1     -12.451  15.815  70.100  1.00  0.00    -0.240 A  
HETATM   12  C   UNL     1     -13.325  15.320  71.062  1.00  0.00    -0.537 A  
HETATM   13  C   UNL     1     -13.229  13.984  71.449  1.00  0.00    -0.404 A  
HETATM   14  C   UNL     1     -12.263  13.178  70.854  1.00  0.00    -0.241 A  
HETATM   15  N   UNL     1     -11.434  13.648  69.913  1.00  0.00    -0.188 NA 
BRANCH  14  16
HETATM   16  N   UNL     1     -12.166  11.839  71.261  1.00  0.00    -0.210 N  
HETATM   17  H   UNL     1     -12.222  11.640  72.260  1.00  0.00     0.000 HD 
HETATM   18  C   UNL     1     -11.998  10.770  70.395  1.00  0.00    -0.357 C  
HETATM   19  O   UNL     1     -11.896  10.855  69.176  1.00  0.00    -0.310 OA 
BRANCH  18  20
HETATM   20  C   UNL     1     -11.943   9.410  71.005  1.00  0.00    -0.389 A  
HETATM   21  C   UNL     1     -13.089   8.649  71.254  1.00  0.00    -0.161 A  
HETATM   22  C   UNL     1     -13.011   7.372  71.805  1.00  0.00    -0.365 A  
HETATM   23  F   UNL     1     -14.312   9.126  70.967  1.00  0.00    -0.368 F  
HETATM   24  C   UNL     1     -11.767   6.844  72.115  1.00  0.00    -0.288 A  
HETATM   25  C   UNL     1     -10.609   7.569  71.890  1.00  0.00    -0.245 A  
HETATM   26  F   UNL     1     -11.684   5.614  72.640  1.00  0.00    -0.329 F  
HETATM   27  C   UNL     1     -10.703   8.846  71.337  1.00  0.00    -0.312 A  
HETATM   28  F   UNL     1      -9.552   9.505  71.145  1.00  0.00    -0.324 F  
ENDBRANCH  18  20
ENDBRANCH  14  16
ENDBRANCH   8  10
ENDBRANCH   5   8
TORSDOF 4
ENDMDL
MODEL       44
REMARK 921   NORMALIZED FREE ENERGY PREDICTED BY IDOCK:   -6.45 KCAL/MOL
REMARK 922        TOTAL FREE ENERGY PREDICTED BY IDOCK:   -8.31 KCAL/MOL
REMARK 923 INTER-LIGAND FREE ENERGY PREDICTED BY IDOCK:   -7.63 KCAL/MOL
REMARK 924 INTRA-LIGAND FREE ENERGY PREDICTED BY IDOCK:   -0.68 KCAL/MOL
REMARK 927      BINDING AFFINITY PREDICTED BY RF-SCORE:    0.00 PKD
ROOT
HETATM    1  C   UNL     1      -8.161   5.133  74.304  1.00  0.00    -0.106 C  
HETATM    2  N   UNL     1      -9.258   4.938  73.361  1.00  0.00    -0.123 NA 
HETATM    3  C   UNL     1     -10.488   5.622  73.785  1.00  0.00    -0.270 C  
HETATM    4  C   UNL     1     -10.484   7.141  73.563  1.00  0.00    -0.422 C  
HETATM    5  C   UNL     1     -10.107   7.520  72.121  1.00  0.00    -0.235 C  
HETATM    6  C   UNL     1      -8.797   6.812  71.759  1.00  0.00    -0.128 C  
HETATM    7  C   UNL     1      -8.885   5.306  71.992  1.00  0.00    -0.130 C  
ENDROOT
BRANCH   5   8
HETATM    8  C   UNL     1     -11.265   7.227  71.149  1.00  0.00    -0.259 C  
HETATM    9  O   UNL     1     -12.402   6.950  71.533  1.00  0.00    -0.343 OA 
BRANCH   8  10
HETATM   10  C   UNL     1     -11.026   7.345  69.681  1.00  0.00    -0.172 A  
HETATM   11  C   UNL     1     -11.026   6.219  68.872  1.00  0.00    -0.435 A  
HETATM   12  C   UNL     1     -10.801   6.394  67.510  1.00  0.00    -0.438 A  
HETATM   13  C   UNL     1     -10.577   7.678  67.014  1.00  0.00    -0.406 A  
HETATM   14  C   UNL     1     -10.593   8.753  67.897  1.00  0.00    -0.174 A  
HETATM   15  N   UNL     1     -10.829   8.589  69.205  1.00  0.00    -0.123 NA 
BRANCH  14  16
HETATM   16  N   UNL     1     -10.351  10.039  67.390  1.00  0.00    -0.222 N  
HETATM   17  H   UNL     1      -9.503  10.184  66.843  1.00  0.00     0.000 HD 
HETATM   18  C   UNL     1     -11.191  11.124  67.583  1.00  0.00    -0.297 C  
HETATM   19  O   UNL     1     -12.233  11.108  68.230  1.00  0.00    -0.613 OA 
BRANCH  18  20
HETATM   20  C   UNL     1     -10.789  12.410  66.944  1.00  0.00    -0.286 A  
HETATM   21  C   UNL     1     -11.453  12.940  65.834  1.00  0.00    -0.346 A  
HETATM   22  C   UNL     1     -11.071  14.155  65.267  1.00  0.00    -0.331 A  
HETATM   23  F   UNL     1     -12.487  12.293  65.273  1.00  0.00    -0.486 F  
HETATM   24  C   UNL     1     -10.008  14.854  65.817  1.00  0.00    -0.347 A  
HETATM   25  C   UNL     1      -9.321  14.359  66.913  1.00  0.00    -0.269 A  
HETATM   26  F   UNL     1      -9.640  16.025  65.282  1.00  0.00    -0.269 F  
HETATM   27  C   UNL     1      -9.714  13.142  67.470  1.00  0.00    -0.213 A  
HETATM   28  F   UNL     1      -9.012  12.708  68.525  1.00  0.00    -0.184 F  
ENDBRANCH  18  20
ENDBRANCH  14  16
ENDBRANCH   8  10
ENDBRANCH   5   8
TORSDOF 4
ENDMDL
MODEL       45
REMARK 921   NORMALIZED FREE ENERGY PREDICTED BY IDOCK:   -6.40 KCAL/MOL
REMARK 922        TOTAL FREE ENERGY PREDICTED BY IDOCK:   -8.25 KCAL/MOL
REMARK 923 INTER-LIGAND FREE ENERGY PREDICTED BY IDOCK:   -8.28 KCAL/MOL
REMARK 924 INTRA-LIGAND FREE ENERGY PREDICTED BY IDOCK:    0.03 KCAL/MOL
REMARK 927      BINDING AFFINITY PREDICTED BY RF-SCORE:    0.00 PKD
ROOT
HETATM    1  C   UNL     1      -9.298   4.956  65.873  1.00  0.00    -0.159 C  
HETATM    2  N   UNL     1     -10.035   5.071  67.127  1.00  0.00    -0.181 NA 
HETATM    3  C   UNL     1      -9.144   5.207  68.288  1.00  0.00    -0.112 C  
HETATM    4  C   UNL     1      -8.519   6.599  68.455  1.00  0.00    -0.125 C  
HETATM    5  C   UNL     1      -9.573   7.720  68.428  1.00  0.00    -0.157 C  
HETATM    6  C   UNL     1     -10.436   7.546  67.173  1.00  0.00    -0.407 C  
HETATM    7  C   UNL     1     -11.033   6.143  67.088  1.00  0.00    -0.331 C  
ENDROOT
BRANCH   5   8
HETATM    8  C   UNL     1     -10.378   7.756  69.740  1.00  0.00    -0.221 C  
HETATM    9  O   UNL     1     -10.381   6.824  70.545  1.00  0.00    -0.198 OA 
BRANCH   8  10
HETATM   10  C   UNL     1     -11.138   8.991  70.091  1.00  0.00    -0.207 A  
HETATM   11  C   UNL     1     -11.868   9.063  71.267  1.00  0.00    -0.379 A  
HETATM   12  C   UNL     1     -12.553  10.243  71.541  1.00  0.00    -0.544 A  
HETATM   13  C   UNL     1     -12.489  11.296  70.628  1.00  0.00    -0.439 A  
HETATM   14  C   UNL     1     -11.734  11.139  69.470  1.00  0.00    -0.335 A  
HETATM   15  N   UNL     1     -11.058  10.012  69.215  1.00  0.00    -0.225 NA 
BRANCH  14  16
HETATM   16  N   UNL     1     -11.689  12.200  68.553  1.00  0.00    -0.315 N  
HETATM   17  H   UNL     1     -11.871  13.140  68.902  1.00  0.00     0.000 HD 
HETATM   18  C   UNL     1     -11.414  12.052  67.202  1.00  0.00    -0.335 C  
HETATM   19  O   UNL     1     -11.194  10.987  66.636  1.00  0.00    -0.237 OA 
BRANCH  18  20
HETATM   20  C   UNL     1     -11.380  13.296  66.381  1.00  0.00    -0.341 A  
HETATM   21  C   UNL     1     -10.507  14.354  66.651  1.00  0.00    -0.274 A  
HETATM   22  C   UNL     1     -10.479  15.498  65.855  1.00  0.00    -0.356 A  
HETATM   23  F   UNL     1      -9.659  14.302  67.691  1.00  0.00    -0.206 F  
HETATM   24  C   UNL     1     -11.339  15.590  64.772  1.00  0.00    -0.357 A  
HETATM   25  C   UNL     1     -12.223  14.566  64.475  1.00  0.00    -0.483 A  
HETATM   26  F   UNL     1     -11.314  16.684  63.999  1.00  0.00    -0.369 F  
HETATM   27  C   UNL     1     -12.240  13.427  65.280  1.00  0.00    -0.440 A  
HETATM   28  F   UNL     1     -13.118  12.470  64.952  1.00  0.00    -0.551 F  
ENDBRANCH  18  20
ENDBRANCH  14  16
ENDBRANCH   8  10
ENDBRANCH   5   8
TORSDOF 4
ENDMDL
MODEL       46
REMARK 921   NORMALIZED FREE ENERGY PREDICTED BY IDOCK:   -6.40 KCAL/MOL
REMARK 922        TOTAL FREE ENERGY PREDICTED BY IDOCK:   -8.25 KCAL/MOL
REMARK 923 INTER-LIGAND FREE ENERGY PREDICTED BY IDOCK:   -7.73 KCAL/MOL
REMARK 924 INTRA-LIGAND FREE ENERGY PREDICTED BY IDOCK:   -0.52 KCAL/MOL
REMARK 927      BINDING AFFINITY PREDICTED BY RF-SCORE:    0.00 PKD
ROOT
HETATM    1  C   UNL     1     -12.774  12.032  63.410  1.00  0.00    -0.398 C  
HETATM    2  N   UNL     1     -12.506  12.233  64.831  1.00  0.00    -0.520 NA 
HETATM    3  C   UNL     1     -11.132  11.863  65.198  1.00  0.00    -0.305 C  
HETATM    4  C   UNL     1     -10.064  12.887  64.788  1.00  0.00    -0.242 C  
HETATM    5  C   UNL     1     -10.404  14.310  65.265  1.00  0.00    -0.417 C  
HETATM    6  C   UNL     1     -11.828  14.647  64.811  1.00  0.00    -0.444 C  
HETATM    7  C   UNL     1     -12.832  13.593  65.271  1.00  0.00    -0.369 C  
ENDROOT
BRANCH   5   8
HETATM    8  C   UNL     1     -10.180  14.455  66.781  1.00  0.00    -0.270 C  
HETATM    9  O   UNL     1     -10.813  15.253  67.474  1.00  0.00    -0.289 OA 
BRANCH   8  10
HETATM   10  C   UNL     1      -9.205  13.552  67.460  1.00  0.00    -0.219 A  
HETATM   11  C   UNL     1      -7.840  13.764  67.336  1.00  0.00    -0.167 A  
HETATM   12  C   UNL     1      -6.982  12.890  67.995  1.00  0.00    -0.108 A  
HETATM   13  C   UNL     1      -7.517  11.839  68.740  1.00  0.00    -0.109 A  
HETATM   14  C   UNL     1      -8.899  11.698  68.809  1.00  0.00    -0.011 A  
HETATM   15  N   UNL     1      -9.728  12.550  68.192  1.00  0.00    -0.218 NA 
BRANCH  14  16
HETATM   16  N   UNL     1      -9.426  10.628  69.549  1.00  0.00    -0.423 N  
HETATM   17  H   UNL     1      -9.055  10.467  70.485  1.00  0.00     0.000 HD 
HETATM   18  C   UNL     1     -10.418   9.775  69.090  1.00  0.00    -0.215 C  
HETATM   19  O   UNL     1     -10.946   9.833  67.984  1.00  0.00    -0.246 OA 
BRANCH  18  20
HETATM   20  C   UNL     1     -10.877   8.709  70.025  1.00  0.00    -0.226 A  
HETATM   21  C   UNL     1     -11.598   8.988  71.190  1.00  0.00    -0.306 A  
HETATM   22  C   UNL     1     -12.035   7.971  72.038  1.00  0.00    -0.375 A  
HETATM   23  F   UNL     1     -11.896  10.252  71.533  1.00  0.00    -0.428 F  
HETATM   24  C   UNL     1     -11.746   6.654  71.719  1.00  0.00    -0.318 A  
HETATM   25  C   UNL     1     -11.029   6.337  70.578  1.00  0.00    -0.374 A  
HETATM   26  F   UNL     1     -12.168   5.671  72.527  1.00  0.00    -0.349 F  
HETATM   27  C   UNL     1     -10.598   7.365  69.738  1.00  0.00    -0.236 A  
HETATM   28  F   UNL     1      -9.904   7.003  68.650  1.00  0.00    -0.143 F  
ENDBRANCH  18  20
ENDBRANCH  14  16
ENDBRANCH   8  10
ENDBRANCH   5   8
TORSDOF 4
ENDMDL
MODEL       47
REMARK 921   NORMALIZED FREE ENERGY PREDICTED BY IDOCK:   -6.35 KCAL/MOL
REMARK 922        TOTAL FREE ENERGY PREDICTED BY IDOCK:   -8.18 KCAL/MOL
REMARK 923 INTER-LIGAND FREE ENERGY PREDICTED BY IDOCK:   -8.54 KCAL/MOL
REMARK 924 INTRA-LIGAND FREE ENERGY PREDICTED BY IDOCK:    0.36 KCAL/MOL
REMARK 927      BINDING AFFINITY PREDICTED BY RF-SCORE:    0.00 PKD
ROOT
HETATM    1  C   UNL     1      -9.018   5.170  66.164  1.00  0.00    -0.135 C  
HETATM    2  N   UNL     1     -10.010   5.014  67.223  1.00  0.00    -0.179 NA 
HETATM    3  C   UNL     1      -9.393   4.824  68.543  1.00  0.00    -0.133 C  
HETATM    4  C   UNL     1      -8.827   6.103  69.175  1.00  0.00    -0.123 C  
HETATM    5  C   UNL     1      -9.856   7.246  69.203  1.00  0.00    -0.166 C  
HETATM    6  C   UNL     1     -10.425   7.422  67.790  1.00  0.00    -0.298 C  
HETATM    7  C   UNL     1     -10.982   6.112  67.239  1.00  0.00    -0.326 C  
ENDROOT
BRANCH   5   8
HETATM    8  C   UNL     1     -10.926   7.004  70.282  1.00  0.00    -0.271 C  
HETATM    9  O   UNL     1     -11.173   5.885  70.736  1.00  0.00    -0.287 OA 
BRANCH   8  10
HETATM   10  C   UNL     1     -11.654   8.173  70.857  1.00  0.00    -0.267 A  
HETATM   11  C   UNL     1     -12.616   7.993  71.840  1.00  0.00    -0.359 A  
HETATM   12  C   UNL     1     -13.258   9.122  72.339  1.00  0.00    -0.512 A  
HETATM   13  C   UNL     1     -12.923  10.378  71.833  1.00  0.00    -0.555 A  
HETATM   14  C   UNL     1     -11.947  10.468  70.845  1.00  0.00    -0.377 A  
HETATM   15  N   UNL     1     -11.313   9.384  70.378  1.00  0.00    -0.254 NA 
BRANCH  14  16
HETATM   16  N   UNL     1     -11.629  11.734  70.333  1.00  0.00    -0.506 N  
HETATM   17  H   UNL     1     -10.856  11.801  69.671  1.00  0.00     0.000 HD 
HETATM   18  C   UNL     1     -12.297  12.902  70.667  1.00  0.00    -0.302 C  
HETATM   19  O   UNL     1     -13.230  12.982  71.459  1.00  0.00    -0.351 OA 
BRANCH  18  20
HETATM   20  C   UNL     1     -11.839  14.155  70.002  1.00  0.00    -0.388 A  
HETATM   21  C   UNL     1     -11.901  14.340  68.617  1.00  0.00    -0.344 A  
HETATM   22  C   UNL     1     -11.487  15.529  68.021  1.00  0.00    -0.313 A  
HETATM   23  F   UNL     1     -12.366  13.371  67.811  1.00  0.00    -0.350 F  
HETATM   24  C   UNL     1     -11.001  16.553  68.819  1.00  0.00    -0.330 A  
HETATM   25  C   UNL     1     -10.918  16.407  70.193  1.00  0.00    -0.291 A  
HETATM   26  F   UNL     1     -10.606  17.701  68.253  1.00  0.00    -0.342 F  
HETATM   27  C   UNL     1     -11.336  15.210  70.777  1.00  0.00    -0.304 A  
HETATM   28  F   UNL     1     -11.228  15.121  72.110  1.00  0.00    -0.480 F  
ENDBRANCH  18  20
ENDBRANCH  14  16
ENDBRANCH   8  10
ENDBRANCH   5   8
TORSDOF 4
ENDMDL
MODEL       48
REMARK 921   NORMALIZED FREE ENERGY PREDICTED BY IDOCK:   -6.31 KCAL/MOL
REMARK 922        TOTAL FREE ENERGY PREDICTED BY IDOCK:   -8.14 KCAL/MOL
REMARK 923 INTER-LIGAND FREE ENERGY PREDICTED BY IDOCK:   -8.02 KCAL/MOL
REMARK 924 INTRA-LIGAND FREE ENERGY PREDICTED BY IDOCK:   -0.13 KCAL/MOL
REMARK 927      BINDING AFFINITY PREDICTED BY RF-SCORE:    0.00 PKD
ROOT
HETATM    1  C   UNL     1      -9.533   5.323  66.624  1.00  0.00    -0.144 C  
HETATM    2  N   UNL     1     -10.708   5.554  67.458  1.00  0.00    -0.187 NA 
HETATM    3  C   UNL     1     -10.520   5.074  68.834  1.00  0.00     0.009 C  
HETATM    4  C   UNL     1      -9.641   5.976  69.713  1.00  0.00    -0.180 C  
HETATM    5  C   UNL     1     -10.107   7.442  69.695  1.00  0.00    -0.186 C  
HETATM    6  C   UNL     1     -10.239   7.892  68.236  1.00  0.00    -0.240 C  
HETATM    7  C   UNL     1     -11.139   6.956  67.434  1.00  0.00    -0.252 C  
ENDROOT
BRANCH   5   8
HETATM    8  C   UNL     1     -11.391   7.626  70.524  1.00  0.00    -0.250 C  
HETATM    9  O   UNL     1     -12.009   6.680  71.014  1.00  0.00    -0.362 OA 
BRANCH   8  10
HETATM   10  C   UNL     1     -11.879   9.007  70.806  1.00  0.00    -0.206 A  
HETATM   11  C   UNL     1     -12.820   9.236  71.799  1.00  0.00    -0.461 A  
HETATM   12  C   UNL     1     -13.234  10.546  72.018  1.00  0.00    -0.483 A  
HETATM   13  C   UNL     1     -12.702  11.570  71.234  1.00  0.00    -0.469 A  
HETATM   14  C   UNL     1     -11.764  11.252  70.257  1.00  0.00    -0.324 A  
HETATM   15  N   UNL     1     -11.349   9.994  70.059  1.00  0.00    -0.266 NA 
BRANCH  14  16
HETATM   16  N   UNL     1     -11.247  12.288  69.465  1.00  0.00    -0.457 N  
HETATM   17  H   UNL     1     -10.751  13.045  69.934  1.00  0.00     0.000 HD 
HETATM   18  C   UNL     1     -11.367  12.349  68.085  1.00  0.00    -0.291 C  
HETATM   19  O   UNL     1     -11.948  11.525  67.387  1.00  0.00    -0.623 OA 
BRANCH  18  20
HETATM   20  C   UNL     1     -10.730  13.512  67.403  1.00  0.00    -0.269 A  
HETATM   21  C   UNL     1     -11.452  14.412  66.614  1.00  0.00    -0.363 A  
HETATM   22  C   UNL     1     -10.838  15.504  66.004  1.00  0.00    -0.301 A  
HETATM   23  F   UNL     1     -12.772  14.254  66.418  1.00  0.00    -0.486 F  
HETATM   24  C   UNL     1      -9.477  15.701  66.182  1.00  0.00    -0.341 A  
HETATM   25  C   UNL     1      -8.725  14.828  66.951  1.00  0.00    -0.264 A  
HETATM   26  F   UNL     1      -8.881  16.752  65.604  1.00  0.00    -0.235 F  
HETATM   27  C   UNL     1      -9.354  13.740  67.556  1.00  0.00    -0.222 A  
HETATM   28  F   UNL     1      -8.579  12.924  68.284  1.00  0.00    -0.166 F  
ENDBRANCH  18  20
ENDBRANCH  14  16
ENDBRANCH   8  10
ENDBRANCH   5   8
TORSDOF 4
ENDMDL
MODEL       49
REMARK 921   NORMALIZED FREE ENERGY PREDICTED BY IDOCK:   -6.31 KCAL/MOL
REMARK 922        TOTAL FREE ENERGY PREDICTED BY IDOCK:   -8.14 KCAL/MOL
REMARK 923 INTER-LIGAND FREE ENERGY PREDICTED BY IDOCK:   -7.39 KCAL/MOL
REMARK 924 INTRA-LIGAND FREE ENERGY PREDICTED BY IDOCK:   -0.76 KCAL/MOL
REMARK 927      BINDING AFFINITY PREDICTED BY RF-SCORE:    0.00 PKD
ROOT
HETATM    1  C   UNL     1      -6.090  16.566  67.685  1.00  0.00    -0.139 C  
HETATM    2  N   UNL     1      -7.246  15.808  68.152  1.00  0.00    -0.114 NA 
HETATM    3  C   UNL     1      -8.181  16.635  68.927  1.00  0.00    -0.231 C  
HETATM    4  C   UNL     1      -9.057  17.572  68.083  1.00  0.00    -0.277 C  
HETATM    5  C   UNL     1      -9.782  16.829  66.947  1.00  0.00    -0.263 C  
HETATM    6  C   UNL     1      -8.746  16.025  66.154  1.00  0.00    -0.348 C  
HETATM    7  C   UNL     1      -7.928  15.108  67.059  1.00  0.00    -0.188 C  
ENDROOT
BRANCH   5   8
HETATM    8  C   UNL     1     -10.946  15.982  67.492  1.00  0.00    -0.261 C  
HETATM    9  O   UNL     1     -11.627  16.330  68.459  1.00  0.00    -0.346 OA 
BRANCH   8  10
HETATM   10  C   UNL     1     -11.316  14.720  66.789  1.00  0.00    -0.346 A  
HETATM   11  C   UNL     1     -11.715  14.741  65.461  1.00  0.00    -0.274 A  
HETATM   12  C   UNL     1     -12.044  13.531  64.858  1.00  0.00    -0.431 A  
HETATM   13  C   UNL     1     -11.971  12.355  65.605  1.00  0.00    -0.449 A  
HETATM   14  C   UNL     1     -11.563  12.424  66.933  1.00  0.00    -0.370 A  
HETATM   15  N   UNL     1     -11.226  13.585  67.508  1.00  0.00    -0.274 NA 
BRANCH  14  16
HETATM   16  N   UNL     1     -11.508  11.236  67.678  1.00  0.00    -0.287 N  
HETATM   17  H   UNL     1     -12.346  10.952  68.184  1.00  0.00     0.000 HD 
HETATM   18  C   UNL     1     -10.388  10.425  67.772  1.00  0.00    -0.206 C  
HETATM   19  O   UNL     1      -9.307  10.645  67.237  1.00  0.00    -0.150 OA 
BRANCH  18  20
HETATM   20  C   UNL     1     -10.521   9.184  68.587  1.00  0.00    -0.235 A  
HETATM   21  C   UNL     1     -10.703   9.208  69.974  1.00  0.00    -0.232 A  
HETATM   22  C   UNL     1     -10.845   8.034  70.711  1.00  0.00    -0.244 A  
HETATM   23  F   UNL     1     -10.748  10.371  70.644  1.00  0.00    -0.352 F  
HETATM   24  C   UNL     1     -10.804   6.814  70.055  1.00  0.00    -0.266 A  
HETATM   25  C   UNL     1     -10.619   6.747  68.685  1.00  0.00    -0.263 A  
HETATM   26  F   UNL     1     -10.946   5.682  70.758  1.00  0.00    -0.327 F  
HETATM   27  C   UNL     1     -10.478   7.931  67.959  1.00  0.00    -0.185 A  
HETATM   28  F   UNL     1     -10.296   7.808  66.637  1.00  0.00    -0.332 F  
ENDBRANCH  18  20
ENDBRANCH  14  16
ENDBRANCH   8  10
ENDBRANCH   5   8
TORSDOF 4
ENDMDL
MODEL       50
REMARK 921   NORMALIZED FREE ENERGY PREDICTED BY IDOCK:   -6.29 KCAL/MOL
REMARK 922        TOTAL FREE ENERGY PREDICTED BY IDOCK:   -8.11 KCAL/MOL
REMARK 923 INTER-LIGAND FREE ENERGY PREDICTED BY IDOCK:   -7.59 KCAL/MOL
REMARK 924 INTRA-LIGAND FREE ENERGY PREDICTED BY IDOCK:   -0.53 KCAL/MOL
REMARK 927      BINDING AFFINITY PREDICTED BY RF-SCORE:    0.00 PKD
ROOT
HETATM    1  C   UNL     1      -5.928   5.202  65.702  1.00  0.00    -0.029 C  
HETATM    2  N   UNL     1      -7.367   5.431  65.787  1.00  0.00    -0.072 NA 
HETATM    3  C   UNL     1      -7.775   5.940  67.104  1.00  0.00    -0.101 C  
HETATM    4  C   UNL     1      -7.461   7.424  67.342  1.00  0.00    -0.104 C  
HETATM    5  C   UNL     1      -7.992   8.322  66.211  1.00  0.00    -0.100 C  
HETATM    6  C   UNL     1      -7.494   7.763  64.874  1.00  0.00    -0.094 C  
HETATM    7  C   UNL     1      -7.857   6.290  64.705  1.00  0.00    -0.110 C  
ENDROOT
BRANCH   5   8
HETATM    8  C   UNL     1      -9.521   8.474  66.294  1.00  0.00    -0.231 C  
HETATM    9  O   UNL     1     -10.264   7.554  66.640  1.00  0.00    -0.250 OA 
BRANCH   8  10
HETATM   10  C   UNL     1     -10.134   9.804  66.010  1.00  0.00    -0.251 A  
HETATM   11  C   UNL     1     -10.082  10.349  64.735  1.00  0.00    -0.387 A  
HETATM   12  C   UNL     1     -10.674  11.591  64.532  1.00  0.00    -0.390 A  
HETATM   13  C   UNL     1     -11.282  12.242  65.605  1.00  0.00    -0.375 A  
HETATM   14  C   UNL     1     -11.287  11.625  66.852  1.00  0.00    -0.295 A  
HETATM   15  N   UNL     1     -10.736  10.420  67.045  1.00  0.00    -0.256 NA 
BRANCH  14  16
HETATM   16  N   UNL     1     -11.888  12.295  67.927  1.00  0.00    -0.341 N  
HETATM   17  H   UNL     1     -12.891  12.169  68.068  1.00  0.00     0.000 HD 
HETATM   18  C   UNL     1     -11.209  13.119  68.812  1.00  0.00    -0.281 C  
HETATM   19  O   UNL     1     -10.012  13.379  68.760  1.00  0.00    -0.174 OA 
BRANCH  18  20
HETATM   20  C   UNL     1     -12.007  13.727  69.915  1.00  0.00    -0.412 A  
HETATM   21  C   UNL     1     -12.488  12.983  70.996  1.00  0.00    -0.296 A  
HETATM   22  C   UNL     1     -13.214  13.579  72.027  1.00  0.00    -0.529 A  
HETATM   23  F   UNL     1     -12.266  11.661  71.079  1.00  0.00    -0.435 F  
HETATM   24  C   UNL     1     -13.465  14.941  71.977  1.00  0.00    -0.388 A  
HETATM   25  C   UNL     1     -13.010  15.711  70.920  1.00  0.00    -0.471 A  
HETATM   26  F   UNL     1     -14.156  15.522  72.967  1.00  0.00    -0.539 F  
HETATM   27  C   UNL     1     -12.285  15.101  69.896  1.00  0.00    -0.314 A  
HETATM   28  F   UNL     1     -11.874  15.893  68.895  1.00  0.00    -0.363 F  
ENDBRANCH  18  20
ENDBRANCH  14  16
ENDBRANCH   8  10
ENDBRANCH   5   8
TORSDOF 4
ENDMDL
MODEL       51
REMARK 921   NORMALIZED FREE ENERGY PREDICTED BY IDOCK:   -6.27 KCAL/MOL
REMARK 922        TOTAL FREE ENERGY PREDICTED BY IDOCK:   -8.09 KCAL/MOL
REMARK 923 INTER-LIGAND FREE ENERGY PREDICTED BY IDOCK:   -7.60 KCAL/MOL
REMARK 924 INTRA-LIGAND FREE ENERGY PREDICTED BY IDOCK:   -0.49 KCAL/MOL
REMARK 927      BINDING AFFINITY PREDICTED BY RF-SCORE:    0.00 PKD
ROOT
HETATM    1  C   UNL     1     -13.217  15.942  73.575  1.00  0.00    -0.504 C  
HETATM    2  N   UNL     1     -13.331  15.987  72.121  1.00  0.00    -0.277 NA 
HETATM    3  C   UNL     1     -12.027  16.150  71.463  1.00  0.00    -0.430 C  
HETATM    4  C   UNL     1     -11.170  14.876  71.418  1.00  0.00    -0.160 C  
HETATM    5  C   UNL     1     -11.938  13.675  70.841  1.00  0.00    -0.226 C  
HETATM    6  C   UNL     1     -13.263  13.535  71.600  1.00  0.00    -0.449 C  
HETATM    7  C   UNL     1     -14.063  14.836  71.585  1.00  0.00    -0.503 C  
ENDROOT
BRANCH   5   8
HETATM    8  C   UNL     1     -12.102  13.802  69.316  1.00  0.00    -0.329 C  
HETATM    9  O   UNL     1     -12.485  14.838  68.771  1.00  0.00    -0.049 OA 
BRANCH   8  10
HETATM   10  C   UNL     1     -11.723  12.649  68.448  1.00  0.00    -0.333 A  
HETATM   11  C   UNL     1     -11.543  12.821  67.083  1.00  0.00    -0.426 A  
HETATM   12  C   UNL     1     -11.186  11.709  66.327  1.00  0.00    -0.332 A  
HETATM   13  C   UNL     1     -11.033  10.475  66.958  1.00  0.00    -0.247 A  
HETATM   14  C   UNL     1     -11.234  10.391  68.332  1.00  0.00    -0.258 A  
HETATM   15  N   UNL     1     -11.558  11.464  69.065  1.00  0.00    -0.286 NA 
BRANCH  14  16
HETATM   16  N   UNL     1     -11.092   9.141  68.953  1.00  0.00    -0.439 N  
HETATM   17  H   UNL     1     -11.786   8.423  68.745  1.00  0.00     0.000 HD 
HETATM   18  C   UNL     1     -10.070   8.818  69.832  1.00  0.00    -0.191 C  
HETATM   19  O   UNL     1      -9.177   9.579  70.191  1.00  0.00    -0.211 OA 
BRANCH  18  20
HETATM   20  C   UNL     1     -10.060   7.430  70.376  1.00  0.00    -0.193 A  
HETATM   21  C   UNL     1     -10.675   7.090  71.585  1.00  0.00    -0.220 A  
HETATM   22  C   UNL     1     -10.671   5.781  72.062  1.00  0.00    -0.285 A  
HETATM   23  F   UNL     1     -11.294   8.020  72.331  1.00  0.00    -0.319 F  
HETATM   24  C   UNL     1     -10.041   4.793  71.321  1.00  0.00    -0.188 A  
HETATM   25  C   UNL     1      -9.416   5.090  70.122  1.00  0.00    -0.234 A  
HETATM   26  F   UNL     1     -10.039   3.531  71.771  1.00  0.00    -0.240 F  
HETATM   27  C   UNL     1      -9.428   6.406  69.657  1.00  0.00    -0.147 A  
HETATM   28  F   UNL     1      -8.804   6.639  68.494  1.00  0.00    -0.122 F  
ENDBRANCH  18  20
ENDBRANCH  14  16
ENDBRANCH   8  10
ENDBRANCH   5   8
TORSDOF 4
ENDMDL
MODEL       52
REMARK 921   NORMALIZED FREE ENERGY PREDICTED BY IDOCK:   -6.27 KCAL/MOL
REMARK 922        TOTAL FREE ENERGY PREDICTED BY IDOCK:   -8.09 KCAL/MOL
REMARK 923 INTER-LIGAND FREE ENERGY PREDICTED BY IDOCK:   -7.30 KCAL/MOL
REMARK 924 INTRA-LIGAND FREE ENERGY PREDICTED BY IDOCK:   -0.79 KCAL/MOL
REMARK 927      BINDING AFFINITY PREDICTED BY RF-SCORE:    0.00 PKD
ROOT
HETATM    1  C   UNL     1      -7.328   9.177  67.306  1.00  0.00    -0.087 C  
HETATM    2  N   UNL     1      -8.119  10.285  67.831  1.00  0.00    -0.102 NA 
HETATM    3  C   UNL     1      -8.321  11.349  66.837  1.00  0.00    -0.159 C  
HETATM    4  C   UNL     1      -9.368  11.029  65.761  1.00  0.00    -0.236 C  
HETATM    5  C   UNL     1     -10.707  10.573  66.366  1.00  0.00    -0.166 C  
HETATM    6  C   UNL     1     -10.431   9.435  67.356  1.00  0.00    -0.343 C  
HETATM    7  C   UNL     1      -9.393   9.836  68.402  1.00  0.00    -0.133 C  
ENDROOT
BRANCH   5   8
HETATM    8  C   UNL     1     -11.474  11.760  66.977  1.00  0.00    -0.298 C  
HETATM    9  O   UNL     1     -12.065  11.687  68.055  1.00  0.00    -0.597 OA 
BRANCH   8  10
HETATM   10  C   UNL     1     -11.451  13.076  66.275  1.00  0.00    -0.337 A  
HETATM   11  C   UNL     1     -12.127  13.250  65.076  1.00  0.00    -0.447 A  
HETATM   12  C   UNL     1     -12.071  14.501  64.471  1.00  0.00    -0.501 A  
HETATM   13  C   UNL     1     -11.338  15.521  65.077  1.00  0.00    -0.301 A  
HETATM   14  C   UNL     1     -10.687  15.260  66.279  1.00  0.00    -0.315 A  
HETATM   15  N   UNL     1     -10.757  14.062  66.874  1.00  0.00    -0.284 NA 
BRANCH  14  16
HETATM   16  N   UNL     1      -9.941  16.288  66.872  1.00  0.00    -0.253 N  
HETATM   17  H   UNL     1     -10.441  17.118  67.192  1.00  0.00     0.000 HD 
HETATM   18  C   UNL     1      -8.567  16.252  67.053  1.00  0.00    -0.200 C  
HETATM   19  O   UNL     1      -7.831  15.334  66.705  1.00  0.00    -0.176 OA 
BRANCH  18  20
HETATM   20  C   UNL     1      -7.943  17.425  67.729  1.00  0.00    -0.208 A  
HETATM   21  C   UNL     1      -7.253  17.318  68.940  1.00  0.00    -0.243 A  
HETATM   22  C   UNL     1      -6.660  18.426  69.543  1.00  0.00    -0.175 A  
HETATM   23  F   UNL     1      -7.136  16.135  69.567  1.00  0.00    -0.199 F  
HETATM   24  C   UNL     1      -6.759  19.664  68.927  1.00  0.00    -0.318 A  
HETATM   25  C   UNL     1      -7.439  19.812  67.730  1.00  0.00    -0.322 A  
HETATM   26  F   UNL     1      -6.187  20.733  69.497  1.00  0.00    -0.364 F  
HETATM   27  C   UNL     1      -8.028  18.694  67.139  1.00  0.00    -0.242 A  
HETATM   28  F   UNL     1      -8.678  18.896  65.985  1.00  0.00    -0.295 F  
ENDBRANCH  18  20
ENDBRANCH  14  16
ENDBRANCH   8  10
ENDBRANCH   5   8
TORSDOF 4
ENDMDL
MODEL       53
REMARK 921   NORMALIZED FREE ENERGY PREDICTED BY IDOCK:   -6.27 KCAL/MOL
REMARK 922        TOTAL FREE ENERGY PREDICTED BY IDOCK:   -8.09 KCAL/MOL
REMARK 923 INTER-LIGAND FREE ENERGY PREDICTED BY IDOCK:   -7.67 KCAL/MOL
REMARK 924 INTRA-LIGAND FREE ENERGY PREDICTED BY IDOCK:   -0.42 KCAL/MOL
REMARK 927      BINDING AFFINITY PREDICTED BY RF-SCORE:    0.00 PKD
ROOT
HETATM    1  C   UNL     1     -12.393  14.839  64.280  1.00  0.00    -0.320 C  
HETATM    2  N   UNL     1     -12.761  13.733  65.158  1.00  0.00    -0.686 NA 
HETATM    3  C   UNL     1     -12.461  12.423  64.564  1.00  0.00    -0.435 C  
HETATM    4  C   UNL     1     -10.976  12.033  64.592  1.00  0.00    -0.367 C  
HETATM    5  C   UNL     1     -10.365  12.158  65.998  1.00  0.00    -0.268 C  
HETATM    6  C   UNL     1     -10.675  13.559  66.539  1.00  0.00    -0.287 C  
HETATM    7  C   UNL     1     -12.170  13.864  66.494  1.00  0.00    -0.442 C  
ENDROOT
BRANCH   5   8
HETATM    8  C   UNL     1     -10.840  11.015  66.913  1.00  0.00    -0.269 C  
HETATM    9  O   UNL     1     -11.857  11.094  67.604  1.00  0.00    -0.612 OA 
BRANCH   8  10
HETATM   10  C   UNL     1     -10.081   9.731  66.922  1.00  0.00    -0.226 A  
HETATM   11  C   UNL     1      -9.350   9.334  65.812  1.00  0.00    -0.306 A  
HETATM   12  C   UNL     1      -8.661   8.127  65.882  1.00  0.00    -0.184 A  
HETATM   13  C   UNL     1      -8.737   7.364  67.047  1.00  0.00    -0.123 A  
HETATM   14  C   UNL     1      -9.496   7.836  68.113  1.00  0.00    -0.146 A  
HETATM   15  N   UNL     1     -10.143   9.007  68.056  1.00  0.00    -0.181 NA 
BRANCH  14  16
HETATM   16  N   UNL     1      -9.577   7.053  69.274  1.00  0.00    -0.154 N  
HETATM   17  H   UNL     1      -8.750   6.993  69.868  1.00  0.00     0.000 HD 
HETATM   18  C   UNL     1     -10.708   6.354  69.667  1.00  0.00    -0.282 C  
HETATM   19  O   UNL     1     -11.767   6.316  69.050  1.00  0.00    -0.140 OA 
BRANCH  18  20
HETATM   20  C   UNL     1     -10.622   5.596  70.948  1.00  0.00    -0.328 A  
HETATM   21  C   UNL     1     -11.167   6.072  72.144  1.00  0.00    -0.291 A  
HETATM   22  C   UNL     1     -11.092   5.335  73.325  1.00  0.00    -0.376 A  
HETATM   23  F   UNL     1     -11.786   7.263  72.196  1.00  0.00    -0.288 F  
HETATM   24  C   UNL     1     -10.461   4.101  73.312  1.00  0.00    -0.176 A  
HETATM   25  C   UNL     1      -9.903   3.597  72.150  1.00  0.00    -0.240 A  
HETATM   26  F   UNL     1     -10.390   3.384  74.442  1.00  0.00    -0.176 F  
HETATM   27  C   UNL     1      -9.986   4.347  70.976  1.00  0.00    -0.172 A  
HETATM   28  F   UNL     1      -9.424   3.814  69.881  1.00  0.00    -0.200 F  
ENDBRANCH  18  20
ENDBRANCH  14  16
ENDBRANCH   8  10
ENDBRANCH   5   8
TORSDOF 4
ENDMDL
MODEL       54
REMARK 921   NORMALIZED FREE ENERGY PREDICTED BY IDOCK:   -6.23 KCAL/MOL
REMARK 922        TOTAL FREE ENERGY PREDICTED BY IDOCK:   -8.05 KCAL/MOL
REMARK 923 INTER-LIGAND FREE ENERGY PREDICTED BY IDOCK:   -7.50 KCAL/MOL
REMARK 924 INTRA-LIGAND FREE ENERGY PREDICTED BY IDOCK:   -0.55 KCAL/MOL
REMARK 927      BINDING AFFINITY PREDICTED BY RF-SCORE:    0.00 PKD
ROOT
HETATM    1  C   UNL     1      -8.914   8.510  71.924  1.00  0.00    -0.231 C  
HETATM    2  N   UNL     1      -9.410   8.189  70.590  1.00  0.00    -0.153 NA 
HETATM    3  C   UNL     1     -10.772   8.692  70.363  1.00  0.00    -0.224 C  
HETATM    4  C   UNL     1     -10.860  10.202  70.100  1.00  0.00    -0.368 C  
HETATM    5  C   UNL     1      -9.906  10.657  68.982  1.00  0.00    -0.218 C  
HETATM    6  C   UNL     1      -8.500  10.139  69.303  1.00  0.00    -0.167 C  
HETATM    7  C   UNL     1      -8.492   8.630  69.535  1.00  0.00    -0.129 C  
ENDROOT
BRANCH   5   8
HETATM    8  C   UNL     1     -10.429  10.230  67.598  1.00  0.00    -0.239 C  
HETATM    9  O   UNL     1     -10.725   9.065  67.329  1.00  0.00    -0.269 OA 
BRANCH   8  10
HETATM   10  C   UNL     1     -10.651  11.273  66.554  1.00  0.00    -0.266 A  
HETATM   11  C   UNL     1     -10.811  10.918  65.223  1.00  0.00    -0.123 A  
HETATM   12  C   UNL     1     -11.018  11.935  64.297  1.00  0.00    -0.411 A  
HETATM   13  C   UNL     1     -11.049  13.259  64.732  1.00  0.00    -0.359 A  
HETATM   14  C   UNL     1     -10.878  13.527  66.087  1.00  0.00    -0.281 A  
HETATM   15  N   UNL     1     -10.698  12.548  66.983  1.00  0.00    -0.239 NA 
BRANCH  14  16
HETATM   16  N   UNL     1     -10.895  14.864  66.512  1.00  0.00    -0.317 N  
HETATM   17  H   UNL     1     -11.793  15.268  66.779  1.00  0.00     0.000 HD 
HETATM   18  C   UNL     1      -9.772  15.673  66.591  1.00  0.00    -0.249 C  
HETATM   19  O   UNL     1      -8.633  15.335  66.287  1.00  0.00    -0.241 OA 
BRANCH  18  20
HETATM   20  C   UNL     1      -9.975  17.062  67.092  1.00  0.00    -0.281 A  
HETATM   21  C   UNL     1     -10.448  18.096  66.277  1.00  0.00    -0.361 A  
HETATM   22  C   UNL     1     -10.650  19.382  66.775  1.00  0.00    -0.574 A  
HETATM   23  F   UNL     1     -10.727  17.882  64.981  1.00  0.00    -0.241 F  
HETATM   24  C   UNL     1     -10.373  19.643  68.108  1.00  0.00    -0.438 A  
HETATM   25  C   UNL     1      -9.897  18.648  68.945  1.00  0.00    -0.394 A  
HETATM   26  F   UNL     1     -10.570  20.876  68.594  1.00  0.00    -0.179 F  
HETATM   27  C   UNL     1      -9.700  17.365  68.433  1.00  0.00    -0.304 A  
HETATM   28  F   UNL     1      -9.233  16.442  69.286  1.00  0.00    -0.243 F  
ENDBRANCH  18  20
ENDBRANCH  14  16
ENDBRANCH   8  10
ENDBRANCH   5   8
TORSDOF 4
ENDMDL
MODEL       55
REMARK 921   NORMALIZED FREE ENERGY PREDICTED BY IDOCK:   -6.23 KCAL/MOL
REMARK 922        TOTAL FREE ENERGY PREDICTED BY IDOCK:   -8.05 KCAL/MOL
REMARK 923 INTER-LIGAND FREE ENERGY PREDICTED BY IDOCK:   -7.61 KCAL/MOL
REMARK 924 INTRA-LIGAND FREE ENERGY PREDICTED BY IDOCK:   -0.43 KCAL/MOL
REMARK 927      BINDING AFFINITY PREDICTED BY RF-SCORE:    0.00 PKD
ROOT
HETATM    1  C   UNL     1      -8.594   5.512  64.304  1.00  0.00    -0.007 C  
HETATM    2  N   UNL     1      -8.277   5.564  65.728  1.00  0.00    -0.118 NA 
HETATM    3  C   UNL     1      -8.081   6.938  66.208  1.00  0.00    -0.112 C  
HETATM    4  C   UNL     1      -9.376   7.739  66.402  1.00  0.00    -0.237 C  
HETATM    5  C   UNL     1     -10.402   6.989  67.270  1.00  0.00    -0.331 C  
HETATM    6  C   UNL     1     -10.593   5.584  66.689  1.00  0.00    -0.365 C  
HETATM    7  C   UNL     1      -9.264   4.847  66.542  1.00  0.00    -0.135 C  
ENDROOT
BRANCH   5   8
HETATM    8  C   UNL     1      -9.990   7.002  68.753  1.00  0.00    -0.160 C  
HETATM    9  O   UNL     1      -9.106   6.273  69.205  1.00  0.00    -0.130 OA 
BRANCH   8  10
HETATM   10  C   UNL     1     -10.636   7.980  69.676  1.00  0.00    -0.223 A  
HETATM   11  C   UNL     1     -11.321   7.545  70.801  1.00  0.00    -0.300 A  
HETATM   12  C   UNL     1     -11.899   8.505  71.625  1.00  0.00    -0.370 A  
HETATM   13  C   UNL     1     -11.780   9.854  71.291  1.00  0.00    -0.472 A  
HETATM   14  C   UNL     1     -11.077  10.203  70.142  1.00  0.00    -0.315 A  
HETATM   15  N   UNL     1     -10.502   9.282  69.358  1.00  0.00    -0.214 NA 
BRANCH  14  16
HETATM   16  N   UNL     1     -10.977  11.562  69.807  1.00  0.00    -0.461 N  
HETATM   17  H   UNL     1     -10.385  12.154  70.389  1.00  0.00     0.000 HD 
HETATM   18  C   UNL     1     -11.629  12.152  68.736  1.00  0.00    -0.327 C  
HETATM   19  O   UNL     1     -12.384  11.575  67.961  1.00  0.00    -0.445 OA 
BRANCH  18  20
HETATM   20  C   UNL     1     -11.382  13.606  68.513  1.00  0.00    -0.325 A  
HETATM   21  C   UNL     1     -11.792  14.587  69.420  1.00  0.00    -0.325 A  
HETATM   22  C   UNL     1     -11.530  15.939  69.200  1.00  0.00    -0.377 A  
HETATM   23  F   UNL     1     -12.453  14.259  70.542  1.00  0.00    -0.343 F  
HETATM   24  C   UNL     1     -10.850  16.318  68.053  1.00  0.00    -0.339 A  
HETATM   25  C   UNL     1     -10.434  15.376  67.128  1.00  0.00    -0.290 A  
HETATM   26  F   UNL     1     -10.590  17.614  67.838  1.00  0.00    -0.346 F  
HETATM   27  C   UNL     1     -10.702  14.027  67.361  1.00  0.00    -0.283 A  
HETATM   28  F   UNL     1     -10.282  13.160  66.430  1.00  0.00    -0.261 F  
ENDBRANCH  18  20
ENDBRANCH  14  16
ENDBRANCH   8  10
ENDBRANCH   5   8
TORSDOF 4
ENDMDL
MODEL       56
REMARK 921   NORMALIZED FREE ENERGY PREDICTED BY IDOCK:   -6.23 KCAL/MOL
REMARK 922        TOTAL FREE ENERGY PREDICTED BY IDOCK:   -8.04 KCAL/MOL
REMARK 923 INTER-LIGAND FREE ENERGY PREDICTED BY IDOCK:   -7.48 KCAL/MOL
REMARK 924 INTRA-LIGAND FREE ENERGY PREDICTED BY IDOCK:   -0.55 KCAL/MOL
REMARK 927      BINDING AFFINITY PREDICTED BY RF-SCORE:    0.00 PKD
ROOT
HETATM    1  C   UNL     1      -7.631  19.832  68.436  1.00  0.00    -0.301 C  
HETATM    2  N   UNL     1      -8.738  19.614  67.510  1.00  0.00    -0.303 NA 
HETATM    3  C   UNL     1      -8.295  19.021  66.240  1.00  0.00    -0.283 C  
HETATM    4  C   UNL     1      -7.977  17.521  66.312  1.00  0.00    -0.303 C  
HETATM    5  C   UNL     1      -9.127  16.709  66.934  1.00  0.00    -0.248 C  
HETATM    6  C   UNL     1      -9.507  17.352  68.272  1.00  0.00    -0.290 C  
HETATM    7  C   UNL     1      -9.824  18.837  68.115  1.00  0.00    -0.352 C  
ENDROOT
BRANCH   5   8
HETATM    8  C   UNL     1     -10.303  16.569  65.951  1.00  0.00    -0.350 C  
HETATM    9  O   UNL     1     -10.752  17.520  65.311  1.00  0.00    -0.656 OA 
BRANCH   8  10
HETATM   10  C   UNL     1     -10.887  15.218  65.707  1.00  0.00    -0.358 A  
HETATM   11  C   UNL     1     -11.747  15.001  64.641  1.00  0.00    -0.383 A  
HETATM   12  C   UNL     1     -12.257  13.719  64.463  1.00  0.00    -0.441 A  
HETATM   13  C   UNL     1     -11.897  12.711  65.359  1.00  0.00    -0.473 A  
HETATM   14  C   UNL     1     -11.030  13.016  66.403  1.00  0.00    -0.281 A  
HETATM   15  N   UNL     1     -10.522  14.245  66.563  1.00  0.00    -0.283 NA 
BRANCH  14  16
HETATM   16  N   UNL     1     -10.687  11.998  67.306  1.00  0.00    -0.225 N  
HETATM   17  H   UNL     1     -11.328  11.808  68.076  1.00  0.00     0.000 HD 
HETATM   18  C   UNL     1      -9.533  11.234  67.220  1.00  0.00    -0.173 C  
HETATM   19  O   UNL     1      -8.664  11.359  66.365  1.00  0.00    -0.180 OA 
BRANCH  18  20
HETATM   20  C   UNL     1      -9.347  10.176  68.253  1.00  0.00    -0.136 A  
HETATM   21  C   UNL     1      -8.442  10.306  69.311  1.00  0.00    -0.166 A  
HETATM   22  C   UNL     1      -8.301   9.311  70.277  1.00  0.00    -0.204 A  
HETATM   23  F   UNL     1      -7.675  11.402  69.434  1.00  0.00    -0.099 F  
HETATM   24  C   UNL     1      -9.075   8.164  70.185  1.00  0.00    -0.147 A  
HETATM   25  C   UNL     1      -9.977   7.995  69.149  1.00  0.00    -0.188 A  
HETATM   26  F   UNL     1      -8.948   7.206  71.113  1.00  0.00    -0.141 F  
HETATM   27  C   UNL     1     -10.108   9.000  68.189  1.00  0.00    -0.191 A  
HETATM   28  F   UNL     1     -10.992   8.781  67.205  1.00  0.00    -0.332 F  
ENDBRANCH  18  20
ENDBRANCH  14  16
ENDBRANCH   8  10
ENDBRANCH   5   8
TORSDOF 4
ENDMDL
MODEL       57
REMARK 921   NORMALIZED FREE ENERGY PREDICTED BY IDOCK:   -6.20 KCAL/MOL
REMARK 922        TOTAL FREE ENERGY PREDICTED BY IDOCK:   -8.00 KCAL/MOL
REMARK 923 INTER-LIGAND FREE ENERGY PREDICTED BY IDOCK:   -7.56 KCAL/MOL
REMARK 924 INTRA-LIGAND FREE ENERGY PREDICTED BY IDOCK:   -0.44 KCAL/MOL
REMARK 927      BINDING AFFINITY PREDICTED BY RF-SCORE:    0.00 PKD
ROOT
HETATM    1  C   UNL     1     -10.484   4.758  72.941  1.00  0.00    -0.201 C  
HETATM    2  N   UNL     1      -9.915   5.931  72.285  1.00  0.00    -0.168 NA 
HETATM    3  C   UNL     1     -10.228   5.976  70.850  1.00  0.00    -0.206 C  
HETATM    4  C   UNL     1     -11.664   6.411  70.522  1.00  0.00    -0.385 C  
HETATM    5  C   UNL     1     -12.048   7.729  71.216  1.00  0.00    -0.328 C  
HETATM    6  C   UNL     1     -11.739   7.599  72.711  1.00  0.00    -0.276 C  
HETATM    7  C   UNL     1     -10.291   7.180  72.955  1.00  0.00    -0.271 C  
ENDROOT
BRANCH   5   8
HETATM    8  C   UNL     1     -11.366   8.932  70.539  1.00  0.00    -0.234 C  
HETATM    9  O   UNL     1     -10.432   8.808  69.746  1.00  0.00    -0.211 OA 
BRANCH   8  10
HETATM   10  C   UNL     1     -11.894  10.304  70.797  1.00  0.00    -0.365 A  
HETATM   11  C   UNL     1     -12.899  10.511  71.730  1.00  0.00    -0.559 A  
HETATM   12  C   UNL     1     -13.347  11.813  71.928  1.00  0.00    -0.401 A  
HETATM   13  C   UNL     1     -12.783  12.850  71.185  1.00  0.00    -0.366 A  
HETATM   14  C   UNL     1     -11.780  12.553  70.268  1.00  0.00    -0.116 A  
HETATM   15  N   UNL     1     -11.333  11.303  70.090  1.00  0.00    -0.228 NA 
BRANCH  14  16
HETATM   16  N   UNL     1     -11.231  13.601  69.515  1.00  0.00    -0.423 N  
HETATM   17  H   UNL     1     -10.538  14.200  69.965  1.00  0.00     0.000 HD 
HETATM   18  C   UNL     1     -11.568  13.878  68.199  1.00  0.00    -0.335 C  
HETATM   19  O   UNL     1     -12.394  13.260  67.535  1.00  0.00    -0.225 OA 
BRANCH  18  20
HETATM   20  C   UNL     1     -10.861  15.016  67.546  1.00  0.00    -0.297 A  
HETATM   21  C   UNL     1     -11.064  16.347  67.924  1.00  0.00    -0.249 A  
HETATM   22  C   UNL     1     -10.375  17.392  67.312  1.00  0.00    -0.336 A  
HETATM   23  F   UNL     1     -11.934  16.663  68.897  1.00  0.00    -0.138 F  
HETATM   24  C   UNL     1      -9.468  17.106  66.304  1.00  0.00    -0.243 A  
HETATM   25  C   UNL     1      -9.244  15.802  65.896  1.00  0.00    -0.337 A  
HETATM   26  F   UNL     1      -8.798  18.106  65.715  1.00  0.00    -0.117 F  
HETATM   27  C   UNL     1      -9.941  14.766  66.517  1.00  0.00    -0.271 A  
HETATM   28  F   UNL     1      -9.689  13.524  66.080  1.00  0.00    -0.269 F  
ENDBRANCH  18  20
ENDBRANCH  14  16
ENDBRANCH   8  10
ENDBRANCH   5   8
TORSDOF 4
ENDMDL
MODEL       58
REMARK 921   NORMALIZED FREE ENERGY PREDICTED BY IDOCK:   -6.13 KCAL/MOL
REMARK 922        TOTAL FREE ENERGY PREDICTED BY IDOCK:   -7.92 KCAL/MOL
REMARK 923 INTER-LIGAND FREE ENERGY PREDICTED BY IDOCK:   -7.31 KCAL/MOL
REMARK 924 INTRA-LIGAND FREE ENERGY PREDICTED BY IDOCK:   -0.61 KCAL/MOL
REMARK 927      BINDING AFFINITY PREDICTED BY RF-SCORE:    0.00 PKD
ROOT
HETATM    1  C   UNL     1      -8.708  19.331  66.234  1.00  0.00    -0.321 C  
HETATM    2  N   UNL     1      -9.972  18.613  66.361  1.00  0.00    -0.369 NA 
HETATM    3  C   UNL     1      -9.881  17.230  65.875  1.00  0.00    -0.126 C  
HETATM    4  C   UNL     1      -9.164  16.263  66.829  1.00  0.00    -0.253 C  
HETATM    5  C   UNL     1      -9.739  16.315  68.255  1.00  0.00    -0.222 C  
HETATM    6  C   UNL     1      -9.764  17.776  68.716  1.00  0.00    -0.314 C  
HETATM    7  C   UNL     1     -10.507  18.669  67.725  1.00  0.00    -0.411 C  
ENDROOT
BRANCH   5   8
HETATM    8  C   UNL     1     -11.107  15.613  68.327  1.00  0.00    -0.336 C  
HETATM    9  O   UNL     1     -12.024  16.014  69.046  1.00  0.00    -0.342 OA 
BRANCH   8  10
HETATM   10  C   UNL     1     -11.367  14.438  67.445  1.00  0.00    -0.337 A  
HETATM   11  C   UNL     1     -12.098  14.580  66.276  1.00  0.00    -0.311 A  
HETATM   12  C   UNL     1     -12.304  13.448  65.493  1.00  0.00    -0.528 A  
HETATM   13  C   UNL     1     -11.783  12.224  65.913  1.00  0.00    -0.451 A  
HETATM   14  C   UNL     1     -11.063  12.170  67.102  1.00  0.00    -0.291 A  
HETATM   15  N   UNL     1     -10.846  13.263  67.846  1.00  0.00    -0.238 NA 
BRANCH  14  16
HETATM   16  N   UNL     1     -10.557  10.931  67.522  1.00  0.00    -0.214 N  
HETATM   17  H   UNL     1      -9.757  10.548  67.018  1.00  0.00     0.000 HD 
HETATM   18  C   UNL     1     -11.073  10.194  68.576  1.00  0.00    -0.214 C  
HETATM   19  O   UNL     1     -12.038  10.516  69.260  1.00  0.00    -0.203 OA 
BRANCH  18  20
HETATM   20  C   UNL     1     -10.388   8.909  68.900  1.00  0.00    -0.229 A  
HETATM   21  C   UNL     1     -10.371   7.822  68.021  1.00  0.00    -0.209 A  
HETATM   22  C   UNL     1      -9.705   6.639  68.338  1.00  0.00    -0.126 A  
HETATM   23  F   UNL     1     -10.997   7.882  66.834  1.00  0.00    -0.403 F  
HETATM   24  C   UNL     1      -9.047   6.538  69.554  1.00  0.00    -0.140 A  
HETATM   25  C   UNL     1      -9.047   7.590  70.454  1.00  0.00    -0.153 A  
HETATM   26  F   UNL     1      -8.401   5.405  69.863  1.00  0.00    -0.093 F  
HETATM   27  C   UNL     1      -9.717   8.768  70.123  1.00  0.00    -0.172 A  
HETATM   28  F   UNL     1      -9.689   9.752  71.033  1.00  0.00    -0.300 F  
ENDBRANCH  18  20
ENDBRANCH  14  16
ENDBRANCH   8  10
ENDBRANCH   5   8
TORSDOF 4
ENDMDL
MODEL       59
REMARK 921   NORMALIZED FREE ENERGY PREDICTED BY IDOCK:   -6.12 KCAL/MOL
REMARK 922        TOTAL FREE ENERGY PREDICTED BY IDOCK:   -7.91 KCAL/MOL
REMARK 923 INTER-LIGAND FREE ENERGY PREDICTED BY IDOCK:   -7.33 KCAL/MOL
REMARK 924 INTRA-LIGAND FREE ENERGY PREDICTED BY IDOCK:   -0.57 KCAL/MOL
REMARK 927      BINDING AFFINITY PREDICTED BY RF-SCORE:    0.00 PKD
ROOT
HETATM    1  C   UNL     1     -12.765  16.566  73.861  1.00  0.00    -0.250 C  
HETATM    2  N   UNL     1     -12.554  15.169  73.494  1.00  0.00    -0.511 NA 
HETATM    3  C   UNL     1     -13.714  14.592  72.800  1.00  0.00    -0.371 C  
HETATM    4  C   UNL     1     -13.859  15.021  71.332  1.00  0.00    -0.560 C  
HETATM    5  C   UNL     1     -12.565  14.803  70.529  1.00  0.00    -0.416 C  
HETATM    6  C   UNL     1     -11.407  15.466  71.284  1.00  0.00    -0.441 C  
HETATM    7  C   UNL     1     -11.320  14.977  72.727  1.00  0.00     0.118 C  
ENDROOT
BRANCH   5   8
HETATM    8  C   UNL     1     -12.342  13.309  70.230  1.00  0.00    -0.264 C  
HETATM    9  O   UNL     1     -12.571  12.424  71.056  1.00  0.00    -0.360 OA 
BRANCH   8  10
HETATM   10  C   UNL     1     -11.894  12.902  68.867  1.00  0.00    -0.309 A  
HETATM   11  C   UNL     1     -11.728  13.846  67.865  1.00  0.00    -0.396 A  
HETATM   12  C   UNL     1     -11.305  13.405  66.615  1.00  0.00    -0.350 A  
HETATM   13  C   UNL     1     -11.074  12.044  66.414  1.00  0.00    -0.365 A  
HETATM   14  C   UNL     1     -11.267  11.164  67.474  1.00  0.00    -0.301 A  
HETATM   15  N   UNL     1     -11.655  11.589  68.683  1.00  0.00    -0.285 NA 
BRANCH  14  16
HETATM   16  N   UNL     1     -11.047   9.796  67.255  1.00  0.00    -0.289 N  
HETATM   17  H   UNL     1     -11.765   9.271  66.756  1.00  0.00     0.000 HD 
HETATM   18  C   UNL     1      -9.917   9.111  67.673  1.00  0.00    -0.195 C  
HETATM   19  O   UNL     1      -8.981   9.601  68.297  1.00  0.00    -0.123 OA 
BRANCH  18  20
HETATM   20  C   UNL     1      -9.839   7.662  67.328  1.00  0.00    -0.245 A  
HETATM   21  C   UNL     1      -9.176   7.194  66.189  1.00  0.00    -0.082 A  
HETATM   22  C   UNL     1      -9.099   5.833  65.899  1.00  0.00    -0.148 A  
HETATM   23  F   UNL     1      -8.586   8.044  65.334  1.00  0.00    -0.147 F  
HETATM   24  C   UNL     1      -9.696   4.923  66.758  1.00  0.00    -0.181 A  
HETATM   25  C   UNL     1     -10.367   5.348  67.892  1.00  0.00    -0.222 A  
HETATM   26  F   UNL     1      -9.621   3.613  66.488  1.00  0.00    -0.187 F  
HETATM   27  C   UNL     1     -10.436   6.713  68.170  1.00  0.00    -0.214 A  
HETATM   28  F   UNL     1     -11.102   7.069  69.277  1.00  0.00    -0.240 F  
ENDBRANCH  18  20
ENDBRANCH  14  16
ENDBRANCH   8  10
ENDBRANCH   5   8
TORSDOF 4
ENDMDL
MODEL       60
REMARK 921   NORMALIZED FREE ENERGY PREDICTED BY IDOCK:   -6.10 KCAL/MOL
REMARK 922        TOTAL FREE ENERGY PREDICTED BY IDOCK:   -7.88 KCAL/MOL
REMARK 923 INTER-LIGAND FREE ENERGY PREDICTED BY IDOCK:   -7.13 KCAL/MOL
REMARK 924 INTRA-LIGAND FREE ENERGY PREDICTED BY IDOCK:   -0.75 KCAL/MOL
REMARK 927      BINDING AFFINITY PREDICTED BY RF-SCORE:    0.00 PKD
ROOT
HETATM    1  C   UNL     1      -6.690   6.221  71.623  1.00  0.00    -0.063 C  
HETATM    2  N   UNL     1      -8.003   6.272  70.987  1.00  0.00    -0.114 NA 
HETATM    3  C   UNL     1      -8.981   5.402  71.654  1.00  0.00    -0.136 C  
HETATM    4  C   UNL     1      -9.531   5.955  72.977  1.00  0.00    -0.151 C  
HETATM    5  C   UNL     1     -10.070   7.388  72.833  1.00  0.00    -0.293 C  
HETATM    6  C   UNL     1      -8.987   8.250  72.174  1.00  0.00    -0.274 C  
HETATM    7  C   UNL     1      -8.505   7.644  70.859  1.00  0.00    -0.124 C  
ENDROOT
BRANCH   5   8
HETATM    8  C   UNL     1     -11.418   7.403  72.090  1.00  0.00    -0.282 C  
HETATM    9  O   UNL     1     -12.068   6.380  71.870  1.00  0.00    -0.336 OA 
BRANCH   8  10
HETATM   10  C   UNL     1     -12.002   8.711  71.673  1.00  0.00    -0.326 A  
HETATM   11  C   UNL     1     -12.714   9.487  72.574  1.00  0.00    -0.207 A  
HETATM   12  C   UNL     1     -13.231  10.699  72.127  1.00  0.00    -0.379 A  
HETATM   13  C   UNL     1     -13.027  11.080  70.801  1.00  0.00    -0.263 A  
HETATM   14  C   UNL     1     -12.302  10.239  69.962  1.00  0.00    -0.090 A  
HETATM   15  N   UNL     1     -11.786   9.082  70.397  1.00  0.00    -0.077 NA 
BRANCH  14  16
HETATM   16  N   UNL     1     -12.116  10.626  68.626  1.00  0.00    -0.423 N  
HETATM   17  H   UNL     1     -12.566  10.068  67.901  1.00  0.00     0.000 HD 
HETATM   18  C   UNL     1     -11.359  11.717  68.228  1.00  0.00    -0.285 C  
HETATM   19  O   UNL     1     -10.747  12.467  68.980  1.00  0.00    -0.192 OA 
BRANCH  18  20
HETATM   20  C   UNL     1     -11.295  11.995  66.764  1.00  0.00    -0.398 A  
HETATM   21  C   UNL     1     -10.600  11.175  65.871  1.00  0.00    -0.234 A  
HETATM   22  C   UNL     1     -10.573  11.445  64.504  1.00  0.00    -0.390 A  
HETATM   23  F   UNL     1      -9.933  10.093  66.302  1.00  0.00    -0.243 F  
HETATM   24  C   UNL     1     -11.249  12.554  64.019  1.00  0.00    -0.403 A  
HETATM   25  C   UNL     1     -11.944  13.394  64.873  1.00  0.00    -0.414 A  
HETATM   26  F   UNL     1     -11.232  12.816  62.705  1.00  0.00    -0.220 F  
HETATM   27  C   UNL     1     -11.963  13.111  66.239  1.00  0.00    -0.415 A  
HETATM   28  F   UNL     1     -12.645  13.960  67.020  1.00  0.00    -0.399 F  
ENDBRANCH  18  20
ENDBRANCH  14  16
ENDBRANCH   8  10
ENDBRANCH   5   8
TORSDOF 4
ENDMDL
MODEL       61
REMARK 921   NORMALIZED FREE ENERGY PREDICTED BY IDOCK:   -6.10 KCAL/MOL
REMARK 922        TOTAL FREE ENERGY PREDICTED BY IDOCK:   -7.88 KCAL/MOL
REMARK 923 INTER-LIGAND FREE ENERGY PREDICTED BY IDOCK:   -7.15 KCAL/MOL
REMARK 924 INTRA-LIGAND FREE ENERGY PREDICTED BY IDOCK:   -0.73 KCAL/MOL
REMARK 927      BINDING AFFINITY PREDICTED BY RF-SCORE:    0.00 PKD
ROOT
HETATM    1  C   UNL     1      -9.263   6.373  70.072  1.00  0.00    -0.156 C  
HETATM    2  N   UNL     1     -10.374   7.217  69.645  1.00  0.00    -0.209 NA 
HETATM    3  C   UNL     1     -10.958   7.978  70.757  1.00  0.00    -0.248 C  
HETATM    4  C   UNL     1     -10.129   9.190  71.208  1.00  0.00    -0.388 C  
HETATM    5  C   UNL     1      -9.760  10.114  70.035  1.00  0.00    -0.144 C  
HETATM    6  C   UNL     1      -9.117   9.266  68.932  1.00  0.00    -0.139 C  
HETATM    7  C   UNL     1     -10.007   8.094  68.528  1.00  0.00    -0.190 C  
ENDROOT
BRANCH   5   8
HETATM    8  C   UNL     1     -10.979  10.929  69.566  1.00  0.00    -0.253 C  
HETATM    9  O   UNL     1     -12.027  10.990  70.210  1.00  0.00    -0.302 OA 
BRANCH   8  10
HETATM   10  C   UNL     1     -10.874  11.736  68.315  1.00  0.00    -0.220 A  
HETATM   11  C   UNL     1     -11.361  11.244  67.114  1.00  0.00    -0.295 A  
HETATM   12  C   UNL     1     -11.237  12.044  65.982  1.00  0.00    -0.385 A  
HETATM   13  C   UNL     1     -10.626  13.292  66.093  1.00  0.00    -0.293 A  
HETATM   14  C   UNL     1     -10.162  13.708  67.337  1.00  0.00    -0.241 A  
HETATM   15  N   UNL     1     -10.299  12.948  68.431  1.00  0.00    -0.242 NA 
BRANCH  14  16
HETATM   16  N   UNL     1      -9.536  14.959  67.433  1.00  0.00    -0.203 N  
HETATM   17  H   UNL     1      -8.532  15.004  67.261  1.00  0.00     0.000 HD 
HETATM   18  C   UNL     1     -10.192  16.139  67.748  1.00  0.00    -0.267 C  
HETATM   19  O   UNL     1     -11.389  16.239  67.997  1.00  0.00    -0.313 OA 
BRANCH  18  20
HETATM   20  C   UNL     1      -9.369  17.382  67.777  1.00  0.00    -0.255 A  
HETATM   21  C   UNL     1      -9.567  18.438  66.882  1.00  0.00    -0.303 A  
HETATM   22  C   UNL     1      -8.798  19.599  66.943  1.00  0.00    -0.387 A  
HETATM   23  F   UNL     1     -10.510  18.369  65.928  1.00  0.00    -0.403 F  
HETATM   24  C   UNL     1      -7.814  19.709  67.914  1.00  0.00    -0.298 A  
HETATM   25  C   UNL     1      -7.584  18.683  68.814  1.00  0.00    -0.327 A  
HETATM   26  F   UNL     1      -7.076  20.825  67.982  1.00  0.00    -0.325 F  
HETATM   27  C   UNL     1      -8.361  17.526  68.741  1.00  0.00    -0.219 A  
HETATM   28  F   UNL     1      -8.092  16.563  69.633  1.00  0.00    -0.141 F  
ENDBRANCH  18  20
ENDBRANCH  14  16
ENDBRANCH   8  10
ENDBRANCH   5   8
TORSDOF 4
ENDMDL
MODEL       62
REMARK 921   NORMALIZED FREE ENERGY PREDICTED BY IDOCK:   -6.09 KCAL/MOL
REMARK 922        TOTAL FREE ENERGY PREDICTED BY IDOCK:   -7.86 KCAL/MOL
REMARK 923 INTER-LIGAND FREE ENERGY PREDICTED BY IDOCK:   -7.19 KCAL/MOL
REMARK 924 INTRA-LIGAND FREE ENERGY PREDICTED BY IDOCK:   -0.67 KCAL/MOL
REMARK 927      BINDING AFFINITY PREDICTED BY RF-SCORE:    0.00 PKD
ROOT
HETATM    1  C   UNL     1      -8.910   7.419  74.221  1.00  0.00    -0.209 C  
HETATM    2  N   UNL     1      -9.300   6.861  72.930  1.00  0.00    -0.134 NA 
HETATM    3  C   UNL     1     -10.738   7.014  72.666  1.00  0.00    -0.259 C  
HETATM    4  C   UNL     1     -11.165   8.430  72.254  1.00  0.00    -0.446 C  
HETATM    5  C   UNL     1     -10.325   8.978  71.088  1.00  0.00    -0.362 C  
HETATM    6  C   UNL     1      -8.842   8.830  71.446  1.00  0.00    -0.292 C  
HETATM    7  C   UNL     1      -8.493   7.394  71.828  1.00  0.00    -0.107 C  
ENDROOT
BRANCH   5   8
HETATM    8  C   UNL     1     -10.717   8.307  69.758  1.00  0.00    -0.221 C  
HETATM    9  O   UNL     1     -11.276   7.211  69.705  1.00  0.00    -0.243 OA 
BRANCH   8  10
HETATM   10  C   UNL     1     -10.473   9.036  68.480  1.00  0.00    -0.196 A  
HETATM   11  C   UNL     1     -10.069   8.353  67.342  1.00  0.00    -0.301 A  
HETATM   12  C   UNL     1      -9.861   9.087  66.179  1.00  0.00    -0.349 A  
HETATM   13  C   UNL     1     -10.053  10.468  66.200  1.00  0.00    -0.306 A  
HETATM   14  C   UNL     1     -10.457  11.074  67.385  1.00  0.00    -0.218 A  
HETATM   15  N   UNL     1     -10.678  10.367  68.501  1.00  0.00    -0.206 NA 
BRANCH  14  16
HETATM   16  N   UNL     1     -10.633  12.466  67.399  1.00  0.00    -0.214 N  
HETATM   17  H   UNL     1     -11.566  12.831  67.210  1.00  0.00     0.000 HD 
HETATM   18  C   UNL     1      -9.620  13.379  67.651  1.00  0.00    -0.219 C  
HETATM   19  O   UNL     1      -8.449  13.093  67.876  1.00  0.00    -0.157 OA 
BRANCH  18  20
HETATM   20  C   UNL     1      -9.996  14.821  67.653  1.00  0.00    -0.226 A  
HETATM   21  C   UNL     1     -10.377  15.500  68.815  1.00  0.00    -0.217 A  
HETATM   22  C   UNL     1     -10.704  16.854  68.794  1.00  0.00    -0.333 A  
HETATM   23  F   UNL     1     -10.439  14.865  69.997  1.00  0.00    -0.229 F  
HETATM   24  C   UNL     1     -10.652  17.545  67.593  1.00  0.00    -0.355 A  
HETATM   25  C   UNL     1     -10.286  16.907  66.420  1.00  0.00    -0.302 A  
HETATM   26  F   UNL     1     -10.959  18.848  67.567  1.00  0.00    -0.484 F  
HETATM   27  C   UNL     1      -9.961  15.551  66.456  1.00  0.00    -0.269 A  
HETATM   28  F   UNL     1      -9.620  14.983  65.291  1.00  0.00    -0.338 F  
ENDBRANCH  18  20
ENDBRANCH  14  16
ENDBRANCH   8  10
ENDBRANCH   5   8
TORSDOF 4
ENDMDL
MODEL       63
REMARK 921   NORMALIZED FREE ENERGY PREDICTED BY IDOCK:   -6.08 KCAL/MOL
REMARK 922        TOTAL FREE ENERGY PREDICTED BY IDOCK:   -7.86 KCAL/MOL
REMARK 923 INTER-LIGAND FREE ENERGY PREDICTED BY IDOCK:   -7.34 KCAL/MOL
REMARK 924 INTRA-LIGAND FREE ENERGY PREDICTED BY IDOCK:   -0.52 KCAL/MOL
REMARK 927      BINDING AFFINITY PREDICTED BY RF-SCORE:    0.00 PKD
ROOT
HETATM    1  C   UNL     1      -7.560  16.961  68.484  1.00  0.00    -0.221 C  
HETATM    2  N   UNL     1      -8.378  15.754  68.543  1.00  0.00    -0.167 NA 
HETATM    3  C   UNL     1      -9.749  16.028  68.996  1.00  0.00    -0.244 C  
HETATM    4  C   UNL     1     -10.657  16.668  67.935  1.00  0.00    -0.342 C  
HETATM    5  C   UNL     1     -10.656  15.881  66.613  1.00  0.00    -0.305 C  
HETATM    6  C   UNL     1      -9.202  15.669  66.175  1.00  0.00    -0.378 C  
HETATM    7  C   UNL     1      -8.370  15.015  67.276  1.00  0.00    -0.205 C  
ENDROOT
BRANCH   5   8
HETATM    8  C   UNL     1     -11.466  14.578  66.742  1.00  0.00    -0.367 C  
HETATM    9  O   UNL     1     -12.200  14.343  67.702  1.00  0.00    -0.328 OA 
BRANCH   8  10
HETATM   10  C   UNL     1     -11.418  13.582  65.632  1.00  0.00    -0.315 A  
HETATM   11  C   UNL     1     -11.999  13.861  64.405  1.00  0.00    -0.480 A  
HETATM   12  C   UNL     1     -11.919  12.894  63.408  1.00  0.00    -0.612 A  
HETATM   13  C   UNL     1     -11.272  11.688  63.678  1.00  0.00    -0.497 A  
HETATM   14  C   UNL     1     -10.717  11.489  64.939  1.00  0.00    -0.297 A  
HETATM   15  N   UNL     1     -10.776  12.427  65.892  1.00  0.00    -0.259 NA 
BRANCH  14  16
HETATM   16  N   UNL     1     -10.083  10.266  65.204  1.00  0.00    -0.314 N  
HETATM   17  H   UNL     1      -9.488   9.870  64.476  1.00  0.00     0.000 HD 
HETATM   18  C   UNL     1     -10.211   9.561  66.390  1.00  0.00    -0.232 C  
HETATM   19  O   UNL     1     -10.902   9.901  67.345  1.00  0.00    -0.280 OA 
BRANCH  18  20
HETATM   20  C   UNL     1      -9.439   8.291  66.508  1.00  0.00    -0.284 A  
HETATM   21  C   UNL     1      -8.047   8.241  66.383  1.00  0.00    -0.105 A  
HETATM   22  C   UNL     1      -7.346   7.044  66.518  1.00  0.00    -0.083 A  
HETATM   23  F   UNL     1      -7.335   9.351  66.129  1.00  0.00    -0.090 F  
HETATM   24  C   UNL     1      -8.045   5.876  66.780  1.00  0.00    -0.102 A  
HETATM   25  C   UNL     1      -9.424   5.883  66.904  1.00  0.00    -0.145 A  
HETATM   26  F   UNL     1      -7.376   4.723  66.917  1.00  0.00    -0.075 F  
HETATM   27  C   UNL     1     -10.113   7.089  66.767  1.00  0.00    -0.200 A  
HETATM   28  F   UNL     1     -11.446   7.037  66.891  1.00  0.00    -0.416 F  
ENDBRANCH  18  20
ENDBRANCH  14  16
ENDBRANCH   8  10
ENDBRANCH   5   8
TORSDOF 4
ENDMDL
MODEL       64
REMARK 921   NORMALIZED FREE ENERGY PREDICTED BY IDOCK:   -6.06 KCAL/MOL
REMARK 922        TOTAL FREE ENERGY PREDICTED BY IDOCK:   -7.83 KCAL/MOL
REMARK 923 INTER-LIGAND FREE ENERGY PREDICTED BY IDOCK:   -7.25 KCAL/MOL
REMARK 924 INTRA-LIGAND FREE ENERGY PREDICTED BY IDOCK:   -0.58 KCAL/MOL
REMARK 927      BINDING AFFINITY PREDICTED BY RF-SCORE:    0.00 PKD
ROOT
HETATM    1  C   UNL     1     -11.995   8.254  71.725  1.00  0.00    -0.316 C  
HETATM    2  N   UNL     1     -11.091   9.369  71.462  1.00  0.00    -0.376 NA 
HETATM    3  C   UNL     1     -10.047   9.024  70.487  1.00  0.00    -0.215 C  
HETATM    4  C   UNL     1     -10.523   8.984  69.028  1.00  0.00    -0.235 C  
HETATM    5  C   UNL     1     -11.263  10.269  68.618  1.00  0.00    -0.263 C  
HETATM    6  C   UNL     1     -12.364  10.545  69.649  1.00  0.00    -0.145 C  
HETATM    7  C   UNL     1     -11.810  10.586  71.071  1.00  0.00    -0.340 C  
ENDROOT
BRANCH   5   8
HETATM    8  C   UNL     1     -10.281  11.438  68.426  1.00  0.00    -0.198 C  
HETATM    9  O   UNL     1      -9.105  11.387  68.790  1.00  0.00    -0.167 OA 
BRANCH   8  10
HETATM   10  C   UNL     1     -10.742  12.663  67.710  1.00  0.00    -0.220 A  
HETATM   11  C   UNL     1     -11.790  12.600  66.804  1.00  0.00    -0.440 A  
HETATM   12  C   UNL     1     -12.178  13.777  66.171  1.00  0.00    -0.499 A  
HETATM   13  C   UNL     1     -11.500  14.962  66.458  1.00  0.00    -0.286 A  
HETATM   14  C   UNL     1     -10.458  14.935  67.379  1.00  0.00    -0.255 A  
HETATM   15  N   UNL     1     -10.097  13.808  68.005  1.00  0.00    -0.238 NA 
BRANCH  14  16
HETATM   16  N   UNL     1      -9.774  16.130  67.650  1.00  0.00    -0.231 N  
HETATM   17  H   UNL     1     -10.294  16.887  68.092  1.00  0.00     0.000 HD 
HETATM   18  C   UNL     1      -8.437  16.349  67.354  1.00  0.00    -0.178 C  
HETATM   19  O   UNL     1      -7.692  15.542  66.808  1.00  0.00    -0.201 OA 
BRANCH  18  20
HETATM   20  C   UNL     1      -7.869  17.672  67.739  1.00  0.00    -0.211 A  
HETATM   21  C   UNL     1      -8.217  18.860  67.090  1.00  0.00    -0.269 A  
HETATM   22  C   UNL     1      -7.688  20.088  67.482  1.00  0.00    -0.333 A  
HETATM   23  F   UNL     1      -9.081  18.858  66.061  1.00  0.00    -0.309 F  
HETATM   24  C   UNL     1      -6.793  20.132  68.540  1.00  0.00    -0.274 A  
HETATM   25  C   UNL     1      -6.418  18.976  69.205  1.00  0.00    -0.315 A  
HETATM   26  F   UNL     1      -6.285  21.309  68.927  1.00  0.00    -0.277 F  
HETATM   27  C   UNL     1      -6.956  17.754  68.801  1.00  0.00    -0.257 A  
HETATM   28  F   UNL     1      -6.554  16.667  69.474  1.00  0.00    -0.196 F  
ENDBRANCH  18  20
ENDBRANCH  14  16
ENDBRANCH   8  10
ENDBRANCH   5   8
TORSDOF 4
ENDMDL
MODEL       65
REMARK 921   NORMALIZED FREE ENERGY PREDICTED BY IDOCK:   -6.04 KCAL/MOL
REMARK 922        TOTAL FREE ENERGY PREDICTED BY IDOCK:   -7.81 KCAL/MOL
REMARK 923 INTER-LIGAND FREE ENERGY PREDICTED BY IDOCK:   -7.26 KCAL/MOL
REMARK 924 INTRA-LIGAND FREE ENERGY PREDICTED BY IDOCK:   -0.56 KCAL/MOL
REMARK 927      BINDING AFFINITY PREDICTED BY RF-SCORE:    0.00 PKD
ROOT
HETATM    1  C   UNL     1      -7.024  21.048  66.268  1.00  0.00    -0.011 C  
HETATM    2  N   UNL     1      -7.853  20.007  65.668  1.00  0.00    -0.285 NA 
HETATM    3  C   UNL     1      -7.455  18.659  66.094  1.00  0.00    -0.255 C  
HETATM    4  C   UNL     1      -7.898  18.280  67.515  1.00  0.00    -0.228 C  
HETATM    5  C   UNL     1      -9.402  18.512  67.739  1.00  0.00    -0.308 C  
HETATM    6  C   UNL     1      -9.741  19.946  67.318  1.00  0.00    -0.517 C  
HETATM    7  C   UNL     1      -9.284  20.240  65.892  1.00  0.00     0.000 C  
ENDROOT
BRANCH   5   8
HETATM    8  C   UNL     1     -10.242  17.437  67.026  1.00  0.00    -0.323 C  
HETATM    9  O   UNL     1     -10.508  17.489  65.825  1.00  0.00    -0.535 OA 
BRANCH   8  10
HETATM   10  C   UNL     1     -10.701  16.246  67.798  1.00  0.00    -0.325 A  
HETATM   11  C   UNL     1     -11.522  16.394  68.906  1.00  0.00    -0.216 A  
HETATM   12  C   UNL     1     -11.919  15.245  69.582  1.00  0.00    -0.364 A  
HETATM   13  C   UNL     1     -11.476  14.001  69.135  1.00  0.00    -0.340 A  
HETATM   14  C   UNL     1     -10.652  13.943  68.015  1.00  0.00    -0.248 A  
HETATM   15  N   UNL     1     -10.285  15.046  67.350  1.00  0.00    -0.234 NA 
BRANCH  14  16
HETATM   16  N   UNL     1     -10.199  12.687  67.583  1.00  0.00    -0.214 N  
HETATM   17  H   UNL     1      -9.286  12.371  67.909  1.00  0.00     0.000 HD 
HETATM   18  C   UNL     1     -10.913  11.848  66.741  1.00  0.00    -0.292 C  
HETATM   19  O   UNL     1     -12.011  12.098  66.255  1.00  0.00    -0.605 OA 
BRANCH  18  20
HETATM   20  C   UNL     1     -10.288  10.536  66.408  1.00  0.00    -0.283 A  
HETATM   21  C   UNL     1      -9.450  10.358  65.303  1.00  0.00    -0.237 A  
HETATM   22  C   UNL     1      -8.861   9.126  65.025  1.00  0.00    -0.230 A  
HETATM   23  F   UNL     1      -9.182  11.375  64.468  1.00  0.00    -0.203 F  
HETATM   24  C   UNL     1      -9.113   8.051  65.863  1.00  0.00    -0.106 A  
HETATM   25  C   UNL     1      -9.942   8.185  66.964  1.00  0.00    -0.329 A  
HETATM   26  F   UNL     1      -8.545   6.865  65.606  1.00  0.00    -0.140 F  
HETATM   27  C   UNL     1     -10.525   9.424  67.230  1.00  0.00    -0.264 A  
HETATM   28  F   UNL     1     -11.322   9.496  68.305  1.00  0.00    -0.164 F  
ENDBRANCH  18  20
ENDBRANCH  14  16
ENDBRANCH   8  10
ENDBRANCH   5   8
TORSDOF 4
ENDMDL
MODEL       66
REMARK 921   NORMALIZED FREE ENERGY PREDICTED BY IDOCK:   -6.03 KCAL/MOL
REMARK 922        TOTAL FREE ENERGY PREDICTED BY IDOCK:   -7.79 KCAL/MOL
REMARK 923 INTER-LIGAND FREE ENERGY PREDICTED BY IDOCK:   -7.62 KCAL/MOL
REMARK 924 INTRA-LIGAND FREE ENERGY PREDICTED BY IDOCK:   -0.17 KCAL/MOL
REMARK 927      BINDING AFFINITY PREDICTED BY RF-SCORE:    0.00 PKD
ROOT
HETATM    1  C   UNL     1     -10.172   5.039  69.810  1.00  0.00    -0.266 C  
HETATM    2  N   UNL     1      -9.185   5.766  69.018  1.00  0.00    -0.118 NA 
HETATM    3  C   UNL     1      -9.382   5.581  67.574  1.00  0.00    -0.111 C  
HETATM    4  C   UNL     1     -10.546   6.387  66.978  1.00  0.00    -0.396 C  
HETATM    5  C   UNL     1     -10.470   7.880  67.342  1.00  0.00    -0.360 C  
HETATM    6  C   UNL     1     -10.311   8.002  68.862  1.00  0.00    -0.222 C  
HETATM    7  C   UNL     1      -9.126   7.187  69.374  1.00  0.00    -0.145 C  
ENDROOT
BRANCH   5   8
HETATM    8  C   UNL     1      -9.366   8.592  66.540  1.00  0.00    -0.203 C  
HETATM    9  O   UNL     1      -8.880   8.118  65.512  1.00  0.00    -0.162 OA 
BRANCH   8  10
HETATM   10  C   UNL     1      -8.905   9.940  66.980  1.00  0.00    -0.134 A  
HETATM   11  C   UNL     1      -7.720  10.475  66.497  1.00  0.00    -0.131 A  
HETATM   12  C   UNL     1      -7.344  11.738  66.942  1.00  0.00    -0.104 A  
HETATM   13  C   UNL     1      -8.157  12.410  67.855  1.00  0.00    -0.161 A  
HETATM   14  C   UNL     1      -9.329  11.799  68.291  1.00  0.00    -0.193 A  
HETATM   15  N   UNL     1      -9.702  10.592  67.847  1.00  0.00    -0.152 NA 
BRANCH  14  16
HETATM   16  N   UNL     1     -10.131  12.478  69.220  1.00  0.00    -0.245 N  
HETATM   17  H   UNL     1      -9.690  12.812  70.076  1.00  0.00     0.000 HD 
HETATM   18  C   UNL     1     -11.485  12.723  69.051  1.00  0.00    -0.309 C  
HETATM   19  O   UNL     1     -12.154  12.367  68.087  1.00  0.00    -0.362 OA 
BRANCH  18  20
HETATM   20  C   UNL     1     -12.173  13.485  70.132  1.00  0.00    -0.400 A  
HETATM   21  C   UNL     1     -12.825  12.859  71.199  1.00  0.00    -0.238 A  
HETATM   22  C   UNL     1     -13.442  13.594  72.209  1.00  0.00    -0.652 A  
HETATM   23  F   UNL     1     -12.875  11.519  71.287  1.00  0.00    -0.452 F  
HETATM   24  C   UNL     1     -13.412  14.979  72.153  1.00  0.00    -0.407 A  
HETATM   25  C   UNL     1     -12.783  15.636  71.110  1.00  0.00    -0.525 A  
HETATM   26  F   UNL     1     -13.999  15.692  73.124  1.00  0.00    -0.562 F  
HETATM   27  C   UNL     1     -12.168  14.887  70.106  1.00  0.00    -0.336 A  
HETATM   28  F   UNL     1     -11.579  15.574  69.117  1.00  0.00    -0.275 F  
ENDBRANCH  18  20
ENDBRANCH  14  16
ENDBRANCH   8  10
ENDBRANCH   5   8
TORSDOF 4
ENDMDL
MODEL       67
REMARK 921   NORMALIZED FREE ENERGY PREDICTED BY IDOCK:   -6.02 KCAL/MOL
REMARK 922        TOTAL FREE ENERGY PREDICTED BY IDOCK:   -7.78 KCAL/MOL
REMARK 923 INTER-LIGAND FREE ENERGY PREDICTED BY IDOCK:   -7.25 KCAL/MOL
REMARK 924 INTRA-LIGAND FREE ENERGY PREDICTED BY IDOCK:   -0.54 KCAL/MOL
REMARK 927      BINDING AFFINITY PREDICTED BY RF-SCORE:    0.00 PKD
ROOT
HETATM    1  C   UNL     1     -11.100  15.627  64.914  1.00  0.00    -0.402 C  
HETATM    2  N   UNL     1     -10.741  14.235  65.167  1.00  0.00    -0.368 NA 
HETATM    3  C   UNL     1      -9.573  14.111  66.050  1.00  0.00    -0.225 C  
HETATM    4  C   UNL     1      -9.864  14.372  67.535  1.00  0.00    -0.220 C  
HETATM    5  C   UNL     1     -11.045  13.535  68.055  1.00  0.00    -0.283 C  
HETATM    6  C   UNL     1     -12.239  13.745  67.117  1.00  0.00    -0.352 C  
HETATM    7  C   UNL     1     -11.875  13.451  65.664  1.00  0.00    -0.370 C  
ENDROOT
BRANCH   5   8
HETATM    8  C   UNL     1     -10.644  12.059  68.235  1.00  0.00    -0.212 C  
HETATM    9  O   UNL     1      -9.875  11.480  67.467  1.00  0.00    -0.186 OA 
BRANCH   8  10
HETATM   10  C   UNL     1     -11.150  11.310  69.422  1.00  0.00    -0.257 A  
HETATM   11  C   UNL     1     -12.067  11.889  70.286  1.00  0.00    -0.409 A  
HETATM   12  C   UNL     1     -12.504  11.140  71.373  1.00  0.00    -0.414 A  
HETATM   13  C   UNL     1     -12.003   9.851  71.559  1.00  0.00    -0.473 A  
HETATM   14  C   UNL     1     -11.083   9.347  70.645  1.00  0.00    -0.289 A  
HETATM   15  N   UNL     1     -10.677  10.060  69.586  1.00  0.00    -0.237 NA 
BRANCH  14  16
HETATM   16  N   UNL     1     -10.575   8.056  70.850  1.00  0.00    -0.211 N  
HETATM   17  H   UNL     1      -9.630   7.970  71.225  1.00  0.00     0.000 HD 
HETATM   18  C   UNL     1     -11.273   6.890  70.578  1.00  0.00    -0.307 C  
HETATM   19  O   UNL     1     -12.405   6.835  70.110  1.00  0.00    -0.158 OA 
BRANCH  18  20
HETATM   20  C   UNL     1     -10.584   5.604  70.886  1.00  0.00    -0.328 A  
HETATM   21  C   UNL     1     -10.025   4.791  69.894  1.00  0.00    -0.236 A  
HETATM   22  C   UNL     1      -9.368   3.604  70.210  1.00  0.00    -0.241 A  
HETATM   23  F   UNL     1     -10.102   5.132  68.597  1.00  0.00    -0.203 F  
HETATM   24  C   UNL     1      -9.268   3.218  71.537  1.00  0.00    -0.121 A  
HETATM   25  C   UNL     1      -9.814   3.991  72.548  1.00  0.00    -0.216 A  
HETATM   26  F   UNL     1      -8.632   2.080  71.848  1.00  0.00    -0.057 F  
HETATM   27  C   UNL     1     -10.469   5.178  72.217  1.00  0.00    -0.219 A  
HETATM   28  F   UNL     1     -10.984   5.885  73.233  1.00  0.00    -0.254 F  
ENDBRANCH  18  20
ENDBRANCH  14  16
ENDBRANCH   8  10
ENDBRANCH   5   8
TORSDOF 4
ENDMDL
MODEL       68
REMARK 921   NORMALIZED FREE ENERGY PREDICTED BY IDOCK:   -5.98 KCAL/MOL
REMARK 922        TOTAL FREE ENERGY PREDICTED BY IDOCK:   -7.73 KCAL/MOL
REMARK 923 INTER-LIGAND FREE ENERGY PREDICTED BY IDOCK:   -7.16 KCAL/MOL
REMARK 924 INTRA-LIGAND FREE ENERGY PREDICTED BY IDOCK:   -0.57 KCAL/MOL
REMARK 927      BINDING AFFINITY PREDICTED BY RF-SCORE:    0.00 PKD
ROOT
HETATM    1  C   UNL     1     -10.180  19.437  68.862  1.00  0.00    -0.285 C  
HETATM    2  N   UNL     1      -9.315  18.334  68.456  1.00  0.00    -0.313 NA 
HETATM    3  C   UNL     1      -9.831  17.029  68.892  1.00  0.00    -0.272 C  
HETATM    4  C   UNL     1     -11.007  16.496  68.061  1.00  0.00    -0.320 C  
HETATM    5  C   UNL     1     -10.705  16.498  66.553  1.00  0.00    -0.144 C  
HETATM    6  C   UNL     1     -10.216  17.896  66.157  1.00  0.00    -0.343 C  
HETATM    7  C   UNL     1      -9.038  18.347  67.016  1.00  0.00    -0.274 C  
ENDROOT
BRANCH   5   8
HETATM    8  C   UNL     1      -9.730  15.366  66.180  1.00  0.00    -0.318 C  
HETATM    9  O   UNL     1      -8.510  15.466  66.321  1.00  0.00    -0.225 OA 
BRANCH   8  10
HETATM   10  C   UNL     1     -10.278  14.068  65.691  1.00  0.00    -0.334 A  
HETATM   11  C   UNL     1     -10.718  13.935  64.383  1.00  0.00    -0.286 A  
HETATM   12  C   UNL     1     -11.217  12.698  63.984  1.00  0.00    -0.459 A  
HETATM   13  C   UNL     1     -11.264  11.652  64.906  1.00  0.00    -0.287 A  
HETATM   14  C   UNL     1     -10.804  11.873  66.200  1.00  0.00    -0.292 A  
HETATM   15  N   UNL     1     -10.305  13.057  66.579  1.00  0.00    -0.269 NA 
BRANCH  14  16
HETATM   16  N   UNL     1     -10.871  10.819  67.122  1.00  0.00    -0.280 N  
HETATM   17  H   UNL     1     -11.743  10.688  67.635  1.00  0.00     0.000 HD 
HETATM   18  C   UNL     1      -9.829   9.942  67.383  1.00  0.00    -0.179 C  
HETATM   19  O   UNL     1      -8.720   9.984  66.860  1.00  0.00    -0.128 OA 
BRANCH  18  20
HETATM   20  C   UNL     1     -10.089   8.861  68.376  1.00  0.00    -0.215 A  
HETATM   21  C   UNL     1      -9.704   8.960  69.717  1.00  0.00    -0.175 A  
HETATM   22  C   UNL     1      -9.978   7.945  70.631  1.00  0.00    -0.188 A  
HETATM   23  F   UNL     1      -9.056  10.045  70.171  1.00  0.00    -0.233 F  
HETATM   24  C   UNL     1     -10.645   6.809  70.201  1.00  0.00    -0.218 A  
HETATM   25  C   UNL     1     -11.037   6.670  68.880  1.00  0.00    -0.312 A  
HETATM   26  F   UNL     1     -10.916   5.831  71.076  1.00  0.00    -0.312 F  
HETATM   27  C   UNL     1     -10.757   7.694  67.976  1.00  0.00    -0.087 A  
HETATM   28  F   UNL     1     -11.153   7.505  66.710  1.00  0.00    -0.412 F  
ENDBRANCH  18  20
ENDBRANCH  14  16
ENDBRANCH   8  10
ENDBRANCH   5   8
TORSDOF 4
ENDMDL
MODEL       69
REMARK 921   NORMALIZED FREE ENERGY PREDICTED BY IDOCK:   -5.96 KCAL/MOL
REMARK 922        TOTAL FREE ENERGY PREDICTED BY IDOCK:   -7.71 KCAL/MOL
REMARK 923 INTER-LIGAND FREE ENERGY PREDICTED BY IDOCK:   -7.44 KCAL/MOL
REMARK 924 INTRA-LIGAND FREE ENERGY PREDICTED BY IDOCK:   -0.27 KCAL/MOL
REMARK 927      BINDING AFFINITY PREDICTED BY RF-SCORE:    0.00 PKD
ROOT
HETATM    1  C   UNL     1     -12.400  13.223  63.226  1.00  0.00    -0.238 C  
HETATM    2  N   UNL     1     -12.559  12.548  64.511  1.00  0.00    -0.633 NA 
HETATM    3  C   UNL     1     -11.457  11.619  64.794  1.00  0.00    -0.155 C  
HETATM    4  C   UNL     1     -10.151  12.293  65.240  1.00  0.00    -0.295 C  
HETATM    5  C   UNL     1     -10.367  13.272  66.407  1.00  0.00    -0.286 C  
HETATM    6  C   UNL     1     -11.495  14.238  66.028  1.00  0.00    -0.347 C  
HETATM    7  C   UNL     1     -12.762  13.493  65.613  1.00  0.00    -0.421 C  
ENDROOT
BRANCH   5   8
HETATM    8  C   UNL     1     -10.607  12.518  67.727  1.00  0.00    -0.219 C  
HETATM    9  O   UNL     1     -11.714  12.451  68.264  1.00  0.00    -0.313 OA 
BRANCH   8  10
HETATM   10  C   UNL     1      -9.474  11.779  68.356  1.00  0.00    -0.188 A  
HETATM   11  C   UNL     1      -8.162  12.160  68.119  1.00  0.00    -0.164 A  
HETATM   12  C   UNL     1      -7.149  11.434  68.737  1.00  0.00    -0.102 A  
HETATM   13  C   UNL     1      -7.484  10.355  69.555  1.00  0.00    -0.148 A  
HETATM   14  C   UNL     1      -8.827  10.040  69.738  1.00  0.00    -0.183 A  
HETATM   15  N   UNL     1      -9.804  10.750  69.160  1.00  0.00    -0.201 NA 
BRANCH  14  16
HETATM   16  N   UNL     1      -9.151   8.943  70.551  1.00  0.00    -0.181 N  
HETATM   17  H   UNL     1      -8.531   8.134  70.530  1.00  0.00     0.000 HD 
HETATM   18  C   UNL     1     -10.259   8.889  71.382  1.00  0.00    -0.305 C  
HETATM   19  O   UNL     1     -11.100   9.774  71.501  1.00  0.00    -0.343 OA 
BRANCH  18  20
HETATM   20  C   UNL     1     -10.431   7.653  72.198  1.00  0.00    -0.270 A  
HETATM   21  C   UNL     1     -11.273   6.606  71.812  1.00  0.00    -0.260 A  
HETATM   22  C   UNL     1     -11.400   5.450  72.581  1.00  0.00    -0.327 A  
HETATM   23  F   UNL     1     -11.990   6.677  70.678  1.00  0.00    -0.398 F  
HETATM   24  C   UNL     1     -10.676   5.339  73.758  1.00  0.00    -0.294 A  
HETATM   25  C   UNL     1      -9.837   6.356  74.178  1.00  0.00    -0.296 A  
HETATM   26  F   UNL     1     -10.789   4.228  74.500  1.00  0.00    -0.274 F  
HETATM   27  C   UNL     1      -9.719   7.507  73.398  1.00  0.00    -0.291 A  
HETATM   28  F   UNL     1      -8.898   8.462  73.854  1.00  0.00    -0.306 F  
ENDBRANCH  18  20
ENDBRANCH  14  16
ENDBRANCH   8  10
ENDBRANCH   5   8
TORSDOF 4
ENDMDL
MODEL       70
REMARK 921   NORMALIZED FREE ENERGY PREDICTED BY IDOCK:   -5.95 KCAL/MOL
REMARK 922        TOTAL FREE ENERGY PREDICTED BY IDOCK:   -7.70 KCAL/MOL
REMARK 923 INTER-LIGAND FREE ENERGY PREDICTED BY IDOCK:   -7.75 KCAL/MOL
REMARK 924 INTRA-LIGAND FREE ENERGY PREDICTED BY IDOCK:    0.05 KCAL/MOL
REMARK 927      BINDING AFFINITY PREDICTED BY RF-SCORE:    0.00 PKD
ROOT
HETATM    1  C   UNL     1      -5.631  14.270  68.328  1.00  0.00    -0.118 C  
HETATM    2  N   UNL     1      -7.031  14.248  68.739  1.00  0.00    -0.096 NA 
HETATM    3  C   UNL     1      -7.368  15.362  69.636  1.00  0.00    -0.177 C  
HETATM    4  C   UNL     1      -7.529  16.720  68.937  1.00  0.00    -0.240 C  
HETATM    5  C   UNL     1      -8.501  16.652  67.746  1.00  0.00    -0.191 C  
HETATM    6  C   UNL     1      -8.067  15.502  66.830  1.00  0.00    -0.284 C  
HETATM    7  C   UNL     1      -7.945  14.186  67.594  1.00  0.00    -0.178 C  
ENDROOT
BRANCH   5   8
HETATM    8  C   UNL     1      -9.961  16.553  68.225  1.00  0.00    -0.250 C  
HETATM    9  O   UNL     1     -10.535  17.476  68.804  1.00  0.00    -0.355 OA 
BRANCH   8  10
HETATM   10  C   UNL     1     -10.741  15.318  67.922  1.00  0.00    -0.275 A  
HETATM   11  C   UNL     1     -11.443  15.199  66.733  1.00  0.00    -0.195 A  
HETATM   12  C   UNL     1     -12.149  14.021  66.506  1.00  0.00    -0.488 A  
HETATM   13  C   UNL     1     -12.134  13.019  67.476  1.00  0.00    -0.279 A  
HETATM   14  C   UNL     1     -11.404  13.222  68.643  1.00  0.00    -0.288 A  
HETATM   15  N   UNL     1     -10.708  14.346  68.854  1.00  0.00    -0.249 NA 
BRANCH  14  16
HETATM   16  N   UNL     1     -11.408  12.213  69.618  1.00  0.00    -0.464 N  
HETATM   17  H   UNL     1     -11.764  12.447  70.545  1.00  0.00     0.000 HD 
HETATM   18  C   UNL     1     -10.961  10.919  69.404  1.00  0.00    -0.252 C  
HETATM   19  O   UNL     1     -10.492  10.496  68.353  1.00  0.00    -0.168 OA 
BRANCH  18  20
HETATM   20  C   UNL     1     -11.067   9.970  70.549  1.00  0.00    -0.400 A  
HETATM   21  C   UNL     1     -12.292   9.619  71.126  1.00  0.00    -0.339 A  
HETATM   22  C   UNL     1     -12.367   8.713  72.182  1.00  0.00    -0.452 A  
HETATM   23  F   UNL     1     -13.443  10.145  70.677  1.00  0.00    -0.433 F  
HETATM   24  C   UNL     1     -11.200   8.148  72.674  1.00  0.00    -0.378 A  
HETATM   25  C   UNL     1      -9.968   8.475  72.134  1.00  0.00    -0.387 A  
HETATM   26  F   UNL     1     -11.266   7.272  73.685  1.00  0.00    -0.323 F  
HETATM   27  C   UNL     1      -9.908   9.383  71.077  1.00  0.00    -0.247 A  
HETATM   28  F   UNL     1      -8.690   9.668  70.596  1.00  0.00    -0.242 F  
ENDBRANCH  18  20
ENDBRANCH  14  16
ENDBRANCH   8  10
ENDBRANCH   5   8
TORSDOF 4
ENDMDL
MODEL       71
REMARK 921   NORMALIZED FREE ENERGY PREDICTED BY IDOCK:   -5.90 KCAL/MOL
REMARK 922        TOTAL FREE ENERGY PREDICTED BY IDOCK:   -7.63 KCAL/MOL
REMARK 923 INTER-LIGAND FREE ENERGY PREDICTED BY IDOCK:   -6.96 KCAL/MOL
REMARK 924 INTRA-LIGAND FREE ENERGY PREDICTED BY IDOCK:   -0.67 KCAL/MOL
REMARK 927      BINDING AFFINITY PREDICTED BY RF-SCORE:    0.00 PKD
ROOT
HETATM    1  C   UNL     1     -11.499   4.979  73.026  1.00  0.00    -0.265 C  
HETATM    2  N   UNL     1     -10.166   5.431  72.637  1.00  0.00    -0.179 NA 
HETATM    3  C   UNL     1      -9.494   4.480  71.740  1.00  0.00    -0.149 C  
HETATM    4  C   UNL     1      -9.994   4.506  70.289  1.00  0.00    -0.288 C  
HETATM    5  C   UNL     1      -9.994   5.925  69.695  1.00  0.00    -0.234 C  
HETATM    6  C   UNL     1     -10.748   6.853  70.655  1.00  0.00    -0.267 C  
HETATM    7  C   UNL     1     -10.182   6.783  72.071  1.00  0.00    -0.191 C  
ENDROOT
BRANCH   5   8
HETATM    8  C   UNL     1      -8.563   6.391  69.371  1.00  0.00    -0.130 C  
HETATM    9  O   UNL     1      -7.658   5.608  69.081  1.00  0.00    -0.084 OA 
BRANCH   8  10
HETATM   10  C   UNL     1      -8.267   7.853  69.339  1.00  0.00    -0.130 A  
HETATM   11  C   UNL     1      -7.438   8.427  70.292  1.00  0.00    -0.063 A  
HETATM   12  C   UNL     1      -7.197   9.795  70.208  1.00  0.00    -0.154 A  
HETATM   13  C   UNL     1      -7.796  10.532  69.187  1.00  0.00    -0.138 A  
HETATM   14  C   UNL     1      -8.616   9.876  68.274  1.00  0.00    -0.115 A  
HETATM   15  N   UNL     1      -8.833   8.557  68.341  1.00  0.00    -0.139 NA 
BRANCH  14  16
HETATM   16  N   UNL     1      -9.225  10.631  67.261  1.00  0.00    -0.143 N  
HETATM   17  H   UNL     1      -8.624  11.055  66.554  1.00  0.00     0.000 HD 
HETATM   18  C   UNL     1     -10.592  10.839  67.157  1.00  0.00    -0.256 C  
HETATM   19  O   UNL     1     -11.435  10.411  67.938  1.00  0.00    -0.392 OA 
BRANCH  18  20
HETATM   20  C   UNL     1     -11.066  11.646  65.996  1.00  0.00    -0.325 A  
HETATM   21  C   UNL     1     -10.803  11.286  64.671  1.00  0.00    -0.265 A  
HETATM   22  C   UNL     1     -11.275  12.045  63.601  1.00  0.00    -0.528 A  
HETATM   23  F   UNL     1     -10.084  10.188  64.382  1.00  0.00    -0.394 F  
HETATM   24  C   UNL     1     -12.021  13.185  63.858  1.00  0.00    -0.488 A  
HETATM   25  C   UNL     1     -12.297  13.578  65.157  1.00  0.00    -0.488 A  
HETATM   26  F   UNL     1     -12.483  13.916  62.835  1.00  0.00    -0.349 F  
HETATM   27  C   UNL     1     -11.818  12.808  66.217  1.00  0.00    -0.423 A  
HETATM   28  F   UNL     1     -12.110  13.238  67.453  1.00  0.00    -0.385 F  
ENDBRANCH  18  20
ENDBRANCH  14  16
ENDBRANCH   8  10
ENDBRANCH   5   8
TORSDOF 4
ENDMDL
MODEL       72
REMARK 921   NORMALIZED FREE ENERGY PREDICTED BY IDOCK:   -5.89 KCAL/MOL
REMARK 922        TOTAL FREE ENERGY PREDICTED BY IDOCK:   -7.62 KCAL/MOL
REMARK 923 INTER-LIGAND FREE ENERGY PREDICTED BY IDOCK:   -7.10 KCAL/MOL
REMARK 924 INTRA-LIGAND FREE ENERGY PREDICTED BY IDOCK:   -0.52 KCAL/MOL
REMARK 927      BINDING AFFINITY PREDICTED BY RF-SCORE:    0.00 PKD
ROOT
HETATM    1  C   UNL     1     -14.013   7.234  72.049  1.00  0.00    -0.149 C  
HETATM    2  N   UNL     1     -12.963   7.924  71.306  1.00  0.00    -0.250 NA 
HETATM    3  C   UNL     1     -12.062   8.682  72.186  1.00  0.00    -0.381 C  
HETATM    4  C   UNL     1     -11.044   7.824  72.951  1.00  0.00    -0.457 C  
HETATM    5  C   UNL     1     -10.255   6.885  72.022  1.00  0.00    -0.206 C  
HETATM    6  C   UNL     1     -11.253   6.095  71.168  1.00  0.00    -0.355 C  
HETATM    7  C   UNL     1     -12.218   7.018  70.427  1.00  0.00    -0.087 C  
ENDROOT
BRANCH   5   8
HETATM    8  C   UNL     1      -9.211   7.665  71.202  1.00  0.00    -0.147 C  
HETATM    9  O   UNL     1      -8.402   8.438  71.718  1.00  0.00    -0.134 OA 
BRANCH   8  10
HETATM   10  C   UNL     1      -9.123   7.432  69.731  1.00  0.00    -0.141 A  
HETATM   11  C   UNL     1      -8.450   6.329  69.229  1.00  0.00    -0.124 A  
HETATM   12  C   UNL     1      -8.405   6.165  67.848  1.00  0.00    -0.117 A  
HETATM   13  C   UNL     1      -9.023   7.109  67.027  1.00  0.00    -0.137 A  
HETATM   14  C   UNL     1      -9.675   8.188  67.615  1.00  0.00    -0.159 A  
HETATM   15  N   UNL     1      -9.737   8.337  68.945  1.00  0.00    -0.161 NA 
BRANCH  14  16
HETATM   16  N   UNL     1     -10.280   9.139  66.780  1.00  0.00    -0.262 N  
HETATM   17  H   UNL     1     -11.190   8.912  66.380  1.00  0.00     0.000 HD 
HETATM   18  C   UNL     1      -9.721  10.367  66.462  1.00  0.00    -0.194 C  
HETATM   19  O   UNL     1      -8.630  10.770  66.851  1.00  0.00    -0.129 OA 
BRANCH  18  20
HETATM   20  C   UNL     1     -10.521  11.265  65.581  1.00  0.00    -0.317 A  
HETATM   21  C   UNL     1     -11.522  12.108  66.073  1.00  0.00    -0.370 A  
HETATM   22  C   UNL     1     -12.242  12.954  65.231  1.00  0.00    -0.524 A  
HETATM   23  F   UNL     1     -11.824  12.132  67.381  1.00  0.00    -0.390 F  
HETATM   24  C   UNL     1     -11.959  12.958  63.874  1.00  0.00    -0.480 A  
HETATM   25  C   UNL     1     -10.980  12.134  63.347  1.00  0.00    -0.480 A  
HETATM   26  F   UNL     1     -12.643  13.773  63.060  1.00  0.00    -0.416 F  
HETATM   27  C   UNL     1     -10.267  11.292  64.202  1.00  0.00    -0.335 A  
HETATM   28  F   UNL     1      -9.335  10.511  63.639  1.00  0.00    -0.205 F  
ENDBRANCH  18  20
ENDBRANCH  14  16
ENDBRANCH   8  10
ENDBRANCH   5   8
TORSDOF 4
ENDMDL
MODEL       73
REMARK 921   NORMALIZED FREE ENERGY PREDICTED BY IDOCK:   -5.88 KCAL/MOL
REMARK 922        TOTAL FREE ENERGY PREDICTED BY IDOCK:   -7.61 KCAL/MOL
REMARK 923 INTER-LIGAND FREE ENERGY PREDICTED BY IDOCK:   -7.00 KCAL/MOL
REMARK 924 INTRA-LIGAND FREE ENERGY PREDICTED BY IDOCK:   -0.62 KCAL/MOL
REMARK 927      BINDING AFFINITY PREDICTED BY RF-SCORE:    0.00 PKD
ROOT
HETATM    1  C   UNL     1      -6.848   3.238  66.717  1.00  0.00    -0.053 C  
HETATM    2  N   UNL     1      -7.382   3.474  68.055  1.00  0.00    -0.054 NA 
HETATM    3  C   UNL     1      -7.132   4.845  68.523  1.00  0.00    -0.057 C  
HETATM    4  C   UNL     1      -8.047   5.910  67.902  1.00  0.00    -0.105 C  
HETATM    5  C   UNL     1      -9.537   5.544  68.024  1.00  0.00    -0.147 C  
HETATM    6  C   UNL     1      -9.735   4.125  67.479  1.00  0.00    -0.185 C  
HETATM    7  C   UNL     1      -8.802   3.124  68.156  1.00  0.00    -0.123 C  
ENDROOT
BRANCH   5   8
HETATM    8  C   UNL     1     -10.038   5.734  69.467  1.00  0.00    -0.214 C  
HETATM    9  O   UNL     1     -10.214   4.792  70.240  1.00  0.00    -0.247 OA 
BRANCH   8  10
HETATM   10  C   UNL     1     -10.261   7.117  69.981  1.00  0.00    -0.196 A  
HETATM   11  C   UNL     1     -10.078   7.411  71.323  1.00  0.00    -0.195 A  
HETATM   12  C   UNL     1     -10.298   8.719  71.742  1.00  0.00    -0.413 A  
HETATM   13  C   UNL     1     -10.699   9.676  70.809  1.00  0.00    -0.401 A  
HETATM   14  C   UNL     1     -10.862   9.295  69.481  1.00  0.00    -0.195 A  
HETATM   15  N   UNL     1     -10.631   8.040  69.073  1.00  0.00    -0.193 NA 
BRANCH  14  16
HETATM   16  N   UNL     1     -11.280  10.261  68.554  1.00  0.00    -0.418 N  
HETATM   17  H   UNL     1     -12.278  10.464  68.494  1.00  0.00     0.000 HD 
HETATM   18  C   UNL     1     -10.426  10.959  67.714  1.00  0.00    -0.203 C  
HETATM   19  O   UNL     1      -9.210  10.812  67.659  1.00  0.00    -0.146 OA 
BRANCH  18  20
HETATM   20  C   UNL     1     -11.045  11.972  66.812  1.00  0.00    -0.353 A  
HETATM   21  C   UNL     1     -11.663  13.131  67.292  1.00  0.00    -0.374 A  
HETATM   22  C   UNL     1     -12.216  14.074  66.428  1.00  0.00    -0.492 A  
HETATM   23  F   UNL     1     -11.743  13.377  68.610  1.00  0.00    -0.299 F  
HETATM   24  C   UNL     1     -12.154  13.856  65.060  1.00  0.00    -0.406 A  
HETATM   25  C   UNL     1     -11.557  12.718  64.546  1.00  0.00    -0.397 A  
HETATM   26  F   UNL     1     -12.679  14.762  64.223  1.00  0.00    -0.460 F  
HETATM   27  C   UNL     1     -11.007  11.783  65.424  1.00  0.00    -0.297 A  
HETATM   28  F   UNL     1     -10.446  10.697  64.873  1.00  0.00    -0.374 F  
ENDBRANCH  18  20
ENDBRANCH  14  16
ENDBRANCH   8  10
ENDBRANCH   5   8
TORSDOF 4
ENDMDL
MODEL       74
REMARK 921   NORMALIZED FREE ENERGY PREDICTED BY IDOCK:   -5.86 KCAL/MOL
REMARK 922        TOTAL FREE ENERGY PREDICTED BY IDOCK:   -7.59 KCAL/MOL
REMARK 923 INTER-LIGAND FREE ENERGY PREDICTED BY IDOCK:   -6.79 KCAL/MOL
REMARK 924 INTRA-LIGAND FREE ENERGY PREDICTED BY IDOCK:   -0.80 KCAL/MOL
REMARK 927      BINDING AFFINITY PREDICTED BY RF-SCORE:    0.00 PKD
ROOT
HETATM    1  C   UNL     1      -6.240   7.202  74.519  1.00  0.00    -0.083 C  
HETATM    2  N   UNL     1      -7.294   6.374  73.942  1.00  0.00    -0.086 NA 
HETATM    3  C   UNL     1      -8.637   6.832  74.323  1.00  0.00    -0.154 C  
HETATM    4  C   UNL     1      -9.123   8.082  73.575  1.00  0.00    -0.327 C  
HETATM    5  C   UNL     1      -8.999   7.934  72.048  1.00  0.00    -0.189 C  
HETATM    6  C   UNL     1      -7.567   7.500  71.717  1.00  0.00    -0.084 C  
HETATM    7  C   UNL     1      -7.165   6.244  72.487  1.00  0.00    -0.084 C  
ENDROOT
BRANCH   5   8
HETATM    8  C   UNL     1     -10.082   6.992  71.492  1.00  0.00    -0.187 C  
HETATM    9  O   UNL     1     -10.902   6.421  72.212  1.00  0.00    -0.221 OA 
BRANCH   8  10
HETATM   10  C   UNL     1     -10.194   6.809  70.015  1.00  0.00    -0.191 A  
HETATM   11  C   UNL     1      -9.967   5.569  69.438  1.00  0.00    -0.276 A  
HETATM   12  C   UNL     1     -10.089   5.459  68.056  1.00  0.00    -0.224 A  
HETATM   13  C   UNL     1     -10.422   6.589  67.309  1.00  0.00    -0.337 A  
HETATM   14  C   UNL     1     -10.631   7.796  67.969  1.00  0.00    -0.139 A  
HETATM   15  N   UNL     1     -10.533   7.898  69.301  1.00  0.00    -0.221 NA 
BRANCH  14  16
HETATM   16  N   UNL     1     -10.950   8.929  67.206  1.00  0.00    -0.370 N  
HETATM   17  H   UNL     1     -11.931   9.086  66.973  1.00  0.00     0.000 HD 
HETATM   18  C   UNL     1     -10.020   9.849  66.748  1.00  0.00    -0.214 C  
HETATM   19  O   UNL     1      -8.810   9.785  66.932  1.00  0.00    -0.136 OA 
BRANCH  18  20
HETATM   20  C   UNL     1     -10.545  11.010  65.973  1.00  0.00    -0.275 A  
HETATM   21  C   UNL     1     -10.397  11.121  64.588  1.00  0.00    -0.330 A  
HETATM   22  C   UNL     1     -10.915  12.207  63.883  1.00  0.00    -0.463 A  
HETATM   23  F   UNL     1      -9.747  10.179  63.884  1.00  0.00    -0.330 F  
HETATM   24  C   UNL     1     -11.591  13.200  64.573  1.00  0.00    -0.364 A  
HETATM   25  C   UNL     1     -11.754  13.130  65.946  1.00  0.00    -0.427 A  
HETATM   26  F   UNL     1     -12.097  14.243  63.902  1.00  0.00    -0.468 F  
HETATM   27  C   UNL     1     -11.230  12.038  66.638  1.00  0.00    -0.327 A  
HETATM   28  F   UNL     1     -11.411  12.023  67.966  1.00  0.00    -0.283 F  
ENDBRANCH  18  20
ENDBRANCH  14  16
ENDBRANCH   8  10
ENDBRANCH   5   8
TORSDOF 4
ENDMDL
MODEL       75
REMARK 921   NORMALIZED FREE ENERGY PREDICTED BY IDOCK:   -5.86 KCAL/MOL
REMARK 922        TOTAL FREE ENERGY PREDICTED BY IDOCK:   -7.58 KCAL/MOL
REMARK 923 INTER-LIGAND FREE ENERGY PREDICTED BY IDOCK:   -7.48 KCAL/MOL
REMARK 924 INTRA-LIGAND FREE ENERGY PREDICTED BY IDOCK:   -0.10 KCAL/MOL
REMARK 927      BINDING AFFINITY PREDICTED BY RF-SCORE:    0.00 PKD
ROOT
HETATM    1  C   UNL     1     -10.371  20.536  66.398  1.00  0.00     0.055 C  
HETATM    2  N   UNL     1      -9.393  19.453  66.378  1.00  0.00    -0.355 NA 
HETATM    3  C   UNL     1      -8.468  19.514  67.518  1.00  0.00    -0.302 C  
HETATM    4  C   UNL     1      -9.062  19.036  68.850  1.00  0.00    -0.321 C  
HETATM    5  C   UNL     1      -9.712  17.646  68.736  1.00  0.00    -0.311 C  
HETATM    6  C   UNL     1     -10.695  17.666  67.560  1.00  0.00    -0.294 C  
HETATM    7  C   UNL     1     -10.026  18.135  66.271  1.00  0.00    -0.342 C  
ENDROOT
BRANCH   5   8
HETATM    8  C   UNL     1      -8.645  16.541  68.640  1.00  0.00    -0.243 C  
HETATM    9  O   UNL     1      -7.519  16.659  69.125  1.00  0.00    -0.232 OA 
BRANCH   8  10
HETATM   10  C   UNL     1      -9.001  15.245  67.993  1.00  0.00    -0.171 A  
HETATM   11  C   UNL     1      -8.968  15.111  66.613  1.00  0.00    -0.319 A  
HETATM   12  C   UNL     1      -9.307  13.876  66.069  1.00  0.00    -0.060 A  
HETATM   13  C   UNL     1      -9.672  12.832  66.919  1.00  0.00    -0.234 A  
HETATM   14  C   UNL     1      -9.680  13.053  68.292  1.00  0.00    -0.221 A  
HETATM   15  N   UNL     1      -9.335  14.235  68.819  1.00  0.00    -0.163 NA 
BRANCH  14  16
HETATM   16  N   UNL     1     -10.064  12.001  69.137  1.00  0.00    -0.411 N  
HETATM   17  H   UNL     1      -9.394  11.683  69.838  1.00  0.00     0.000 HD 
HETATM   18  C   UNL     1     -11.294  11.364  69.081  1.00  0.00    -0.288 C  
HETATM   19  O   UNL     1     -12.189  11.622  68.284  1.00  0.00    -0.525 OA 
BRANCH  18  20
HETATM   20  C   UNL     1     -11.539  10.282  70.078  1.00  0.00    -0.349 A  
HETATM   21  C   UNL     1     -10.853   9.065  70.053  1.00  0.00    -0.231 A  
HETATM   22  C   UNL     1     -11.085   8.077  71.009  1.00  0.00    -0.275 A  
HETATM   23  F   UNL     1      -9.940   8.805  69.103  1.00  0.00    -0.173 F  
HETATM   24  C   UNL     1     -12.020   8.308  72.006  1.00  0.00    -0.348 A  
HETATM   25  C   UNL     1     -12.725   9.498  72.061  1.00  0.00    -0.479 A  
HETATM   26  F   UNL     1     -12.244   7.365  72.932  1.00  0.00    -0.097 F  
HETATM   27  C   UNL     1     -12.482  10.477  71.098  1.00  0.00    -0.412 A  
HETATM   28  F   UNL     1     -13.196  11.608  71.195  1.00  0.00    -0.381 F  
ENDBRANCH  18  20
ENDBRANCH  14  16
ENDBRANCH   8  10
ENDBRANCH   5   8
TORSDOF 4
ENDMDL
MODEL       76
REMARK 921   NORMALIZED FREE ENERGY PREDICTED BY IDOCK:   -5.85 KCAL/MOL
REMARK 922        TOTAL FREE ENERGY PREDICTED BY IDOCK:   -7.57 KCAL/MOL
REMARK 923 INTER-LIGAND FREE ENERGY PREDICTED BY IDOCK:   -7.06 KCAL/MOL
REMARK 924 INTRA-LIGAND FREE ENERGY PREDICTED BY IDOCK:   -0.51 KCAL/MOL
REMARK 927      BINDING AFFINITY PREDICTED BY RF-SCORE:    0.00 PKD
ROOT
HETATM    1  C   UNL     1     -12.949  16.320  74.077  1.00  0.00    -0.203 C  
HETATM    2  N   UNL     1     -12.457  15.088  73.469  1.00  0.00    -0.497 NA 
HETATM    3  C   UNL     1     -13.525  14.326  72.807  1.00  0.00    -0.491 C  
HETATM    4  C   UNL     1     -13.968  14.893  71.450  1.00  0.00    -0.544 C  
HETATM    5  C   UNL     1     -12.781  15.128  70.499  1.00  0.00    -0.416 C  
HETATM    6  C   UNL     1     -11.727  15.963  71.235  1.00  0.00    -0.504 C  
HETATM    7  C   UNL     1     -11.328  15.327  72.564  1.00  0.00    -0.195 C  
ENDROOT
BRANCH   5   8
HETATM    8  C   UNL     1     -12.245  13.797  69.941  1.00  0.00    -0.321 C  
HETATM    9  O   UNL     1     -12.221  12.759  70.603  1.00  0.00    -0.370 OA 
BRANCH   8  10
HETATM   10  C   UNL     1     -11.794  13.736  68.520  1.00  0.00    -0.370 A  
HETATM   11  C   UNL     1     -11.853  14.860  67.711  1.00  0.00    -0.277 A  
HETATM   12  C   UNL     1     -11.415  14.742  66.395  1.00  0.00    -0.319 A  
HETATM   13  C   UNL     1     -10.947  13.509  65.940  1.00  0.00    -0.284 A  
HETATM   14  C   UNL     1     -10.923  12.431  66.820  1.00  0.00    -0.263 A  
HETATM   15  N   UNL     1     -11.326  12.549  68.092  1.00  0.00    -0.272 NA 
BRANCH  14  16
HETATM   16  N   UNL     1     -10.465  11.192  66.347  1.00  0.00    -0.252 N  
HETATM   17  H   UNL     1     -11.131  10.590  65.863  1.00  0.00     0.000 HD 
HETATM   18  C   UNL     1      -9.165  10.733  66.494  1.00  0.00    -0.168 C  
HETATM   19  O   UNL     1      -8.262  11.335  67.065  1.00  0.00    -0.138 OA 
BRANCH  18  20
HETATM   20  C   UNL     1      -8.848   9.402  65.902  1.00  0.00    -0.193 A  
HETATM   21  C   UNL     1      -9.453   8.220  66.339  1.00  0.00    -0.221 A  
HETATM   22  C   UNL     1      -9.156   6.990  65.754  1.00  0.00     0.017 A  
HETATM   23  F   UNL     1     -10.348   8.230  67.340  1.00  0.00    -0.252 F  
HETATM   24  C   UNL     1      -8.238   6.937  64.718  1.00  0.00    -0.050 A  
HETATM   25  C   UNL     1      -7.612   8.085  64.261  1.00  0.00    -0.118 A  
HETATM   26  F   UNL     1      -7.952   5.759  64.148  1.00  0.00    -0.096 F  
HETATM   27  C   UNL     1      -7.919   9.309  64.855  1.00  0.00    -0.121 A  
HETATM   28  F   UNL     1      -7.281  10.387  64.379  1.00  0.00    -0.143 F  
ENDBRANCH  18  20
ENDBRANCH  14  16
ENDBRANCH   8  10
ENDBRANCH   5   8
TORSDOF 4
ENDMDL
MODEL       77
REMARK 921   NORMALIZED FREE ENERGY PREDICTED BY IDOCK:   -5.82 KCAL/MOL
REMARK 922        TOTAL FREE ENERGY PREDICTED BY IDOCK:   -7.53 KCAL/MOL
REMARK 923 INTER-LIGAND FREE ENERGY PREDICTED BY IDOCK:   -7.04 KCAL/MOL
REMARK 924 INTRA-LIGAND FREE ENERGY PREDICTED BY IDOCK:   -0.50 KCAL/MOL
REMARK 927      BINDING AFFINITY PREDICTED BY RF-SCORE:    0.00 PKD
ROOT
HETATM    1  C   UNL     1     -10.712  14.574  64.976  1.00  0.00    -0.427 C  
HETATM    2  N   UNL     1     -11.501  14.697  66.198  1.00  0.00    -0.349 NA 
HETATM    3  C   UNL     1     -12.396  13.549  66.403  1.00  0.00    -0.357 C  
HETATM    4  C   UNL     1     -11.699  12.277  66.906  1.00  0.00    -0.404 C  
HETATM    5  C   UNL     1     -10.836  12.537  68.152  1.00  0.00    -0.248 C  
HETATM    6  C   UNL     1      -9.897  13.713  67.856  1.00  0.00    -0.237 C  
HETATM    7  C   UNL     1     -10.665  14.942  67.377  1.00  0.00    -0.292 C  
ENDROOT
BRANCH   5   8
HETATM    8  C   UNL     1     -11.711  12.737  69.403  1.00  0.00    -0.319 C  
HETATM    9  O   UNL     1     -12.279  13.800  69.655  1.00  0.00    -0.332 OA 
BRANCH   8  10
HETATM   10  C   UNL     1     -11.940  11.582  70.319  1.00  0.00    -0.368 A  
HETATM   11  C   UNL     1     -13.006  11.584  71.206  1.00  0.00    -0.397 A  
HETATM   12  C   UNL     1     -13.170  10.476  72.032  1.00  0.00    -0.483 A  
HETATM   13  C   UNL     1     -12.262   9.421  71.947  1.00  0.00    -0.440 A  
HETATM   14  C   UNL     1     -11.218   9.502  71.030  1.00  0.00    -0.362 A  
HETATM   15  N   UNL     1     -11.071  10.558  70.220  1.00  0.00    -0.303 NA 
BRANCH  14  16
HETATM   16  N   UNL     1     -10.303   8.441  70.964  1.00  0.00    -0.193 N  
HETATM   17  H   UNL     1      -9.381   8.581  71.378  1.00  0.00     0.000 HD 
HETATM   18  C   UNL     1     -10.568   7.216  70.373  1.00  0.00    -0.224 C  
HETATM   19  O   UNL     1     -11.619   6.909  69.821  1.00  0.00    -0.240 OA 
BRANCH  18  20
HETATM   20  C   UNL     1      -9.484   6.194  70.421  1.00  0.00    -0.179 A  
HETATM   21  C   UNL     1      -9.481   5.141  71.340  1.00  0.00    -0.152 A  
HETATM   22  C   UNL     1      -8.467   4.185  71.352  1.00  0.00    -0.111 A  
HETATM   23  F   UNL     1     -10.464   5.013  72.248  1.00  0.00    -0.238 F  
HETATM   24  C   UNL     1      -7.435   4.283  70.431  1.00  0.00    -0.045 A  
HETATM   25  C   UNL     1      -7.398   5.314  69.509  1.00  0.00    -0.061 A  
HETATM   26  F   UNL     1      -6.460   3.364  70.433  1.00  0.00    -0.028 F  
HETATM   27  C   UNL     1      -8.421   6.264  69.509  1.00  0.00    -0.129 A  
HETATM   28  F   UNL     1      -8.333   7.244  68.599  1.00  0.00    -0.120 F  
ENDBRANCH  18  20
ENDBRANCH  14  16
ENDBRANCH   8  10
ENDBRANCH   5   8
TORSDOF 4
ENDMDL
MODEL       78
REMARK 921   NORMALIZED FREE ENERGY PREDICTED BY IDOCK:   -5.82 KCAL/MOL
REMARK 922        TOTAL FREE ENERGY PREDICTED BY IDOCK:   -7.53 KCAL/MOL
REMARK 923 INTER-LIGAND FREE ENERGY PREDICTED BY IDOCK:   -7.22 KCAL/MOL
REMARK 924 INTRA-LIGAND FREE ENERGY PREDICTED BY IDOCK:   -0.31 KCAL/MOL
REMARK 927      BINDING AFFINITY PREDICTED BY RF-SCORE:    0.00 PKD
ROOT
HETATM    1  C   UNL     1      -9.153  19.696  66.128  1.00  0.00    -0.332 C  
HETATM    2  N   UNL     1      -9.472  18.839  67.265  1.00  0.00    -0.297 NA 
HETATM    3  C   UNL     1     -10.628  17.970  67.003  1.00  0.00    -0.308 C  
HETATM    4  C   UNL     1     -10.330  16.766  66.098  1.00  0.00    -0.338 C  
HETATM    5  C   UNL     1      -9.121  15.950  66.590  1.00  0.00    -0.290 C  
HETATM    6  C   UNL     1      -7.943  16.907  66.799  1.00  0.00    -0.271 C  
HETATM    7  C   UNL     1      -8.313  18.067  67.721  1.00  0.00    -0.249 C  
ENDROOT
BRANCH   5   8
HETATM    8  C   UNL     1      -9.481  15.120  67.835  1.00  0.00    -0.194 C  
HETATM    9  O   UNL     1     -10.102  15.588  68.791  1.00  0.00    -0.199 OA 
BRANCH   8  10
HETATM   10  C   UNL     1      -9.126  13.672  67.868  1.00  0.00    -0.198 A  
HETATM   11  C   UNL     1      -7.963  13.215  67.268  1.00  0.00    -0.140 A  
HETATM   12  C   UNL     1      -7.685  11.853  67.335  1.00  0.00    -0.158 A  
HETATM   13  C   UNL     1      -8.579  11.005  67.987  1.00  0.00    -0.134 A  
HETATM   14  C   UNL     1      -9.725  11.547  68.560  1.00  0.00    -0.189 A  
HETATM   15  N   UNL     1      -9.985  12.860  68.514  1.00  0.00    -0.203 NA 
BRANCH  14  16
HETATM   16  N   UNL     1     -10.626  10.682  69.200  1.00  0.00    -0.213 N  
HETATM   17  H   UNL     1     -11.582  10.643  68.847  1.00  0.00     0.000 HD 
HETATM   18  C   UNL     1     -10.301   9.877  70.281  1.00  0.00    -0.281 C  
HETATM   19  O   UNL     1      -9.203   9.829  70.824  1.00  0.00    -0.109 OA 
BRANCH  18  20
HETATM   20  C   UNL     1     -11.380   8.998  70.816  1.00  0.00    -0.329 A  
HETATM   21  C   UNL     1     -12.414   9.481  71.624  1.00  0.00    -0.391 A  
HETATM   22  C   UNL     1     -13.423   8.643  72.095  1.00  0.00    -0.434 A  
HETATM   23  F   UNL     1     -12.470  10.776  71.975  1.00  0.00    -0.417 F  
HETATM   24  C   UNL     1     -13.400   7.299  71.756  1.00  0.00    -0.304 A  
HETATM   25  C   UNL     1     -12.390   6.782  70.963  1.00  0.00    -0.370 A  
HETATM   26  F   UNL     1     -14.371   6.489  72.200  1.00  0.00    -0.431 F  
HETATM   27  C   UNL     1     -11.386   7.632  70.499  1.00  0.00    -0.250 A  
HETATM   28  F   UNL     1     -10.430   7.078  69.740  1.00  0.00    -0.197 F  
ENDBRANCH  18  20
ENDBRANCH  14  16
ENDBRANCH   8  10
ENDBRANCH   5   8
TORSDOF 4
ENDMDL
MODEL       79
REMARK 921   NORMALIZED FREE ENERGY PREDICTED BY IDOCK:   -5.81 KCAL/MOL
REMARK 922        TOTAL FREE ENERGY PREDICTED BY IDOCK:   -7.52 KCAL/MOL
REMARK 923 INTER-LIGAND FREE ENERGY PREDICTED BY IDOCK:   -7.00 KCAL/MOL
REMARK 924 INTRA-LIGAND FREE ENERGY PREDICTED BY IDOCK:   -0.52 KCAL/MOL
REMARK 927      BINDING AFFINITY PREDICTED BY RF-SCORE:    0.00 PKD
ROOT
HETATM    1  C   UNL     1      -9.408  18.523  67.786  1.00  0.00    -0.291 C  
HETATM    2  N   UNL     1     -10.497  17.688  67.289  1.00  0.00    -0.351 NA 
HETATM    3  C   UNL     1     -10.151  17.007  66.034  1.00  0.00    -0.302 C  
HETATM    4  C   UNL     1      -9.217  15.799  66.198  1.00  0.00    -0.385 C  
HETATM    5  C   UNL     1      -9.732  14.800  67.248  1.00  0.00    -0.230 C  
HETATM    6  C   UNL     1     -10.030  15.567  68.542  1.00  0.00    -0.208 C  
HETATM    7  C   UNL     1     -10.976  16.740  68.299  1.00  0.00    -0.327 C  
ENDROOT
BRANCH   5   8
HETATM    8  C   UNL     1     -10.929  13.995  66.710  1.00  0.00    -0.297 C  
HETATM    9  O   UNL     1     -12.094  14.248  67.018  1.00  0.00    -0.425 OA 
BRANCH   8  10
HETATM   10  C   UNL     1     -10.683  12.905  65.722  1.00  0.00    -0.273 A  
HETATM   11  C   UNL     1     -10.530  13.193  64.374  1.00  0.00    -0.427 A  
HETATM   12  C   UNL     1     -10.300  12.133  63.502  1.00  0.00    -0.473 A  
HETATM   13  C   UNL     1     -10.242  10.834  64.006  1.00  0.00    -0.390 A  
HETATM   14  C   UNL     1     -10.409  10.634  65.373  1.00  0.00    -0.233 A  
HETATM   15  N   UNL     1     -10.611  11.655  66.217  1.00  0.00    -0.249 NA 
BRANCH  14  16
HETATM   16  N   UNL     1     -10.365   9.322  65.867  1.00  0.00    -0.211 N  
HETATM   17  H   UNL     1     -11.160   8.713  65.676  1.00  0.00     0.000 HD 
HETATM   18  C   UNL     1      -9.309   8.798  66.598  1.00  0.00    -0.189 C  
HETATM   19  O   UNL     1      -8.297   9.411  66.920  1.00  0.00    -0.124 OA 
BRANCH  18  20
HETATM   20  C   UNL     1      -9.421   7.372  67.018  1.00  0.00    -0.199 A  
HETATM   21  C   UNL     1     -10.121   6.976  68.162  1.00  0.00    -0.169 A  
HETATM   22  C   UNL     1     -10.230   5.634  68.522  1.00  0.00    -0.253 A  
HETATM   23  F   UNL     1     -10.718   7.880  68.955  1.00  0.00    -0.223 F  
HETATM   24  C   UNL     1      -9.627   4.669  67.728  1.00  0.00    -0.159 A  
HETATM   25  C   UNL     1      -8.920   5.022  66.591  1.00  0.00    -0.114 A  
HETATM   26  F   UNL     1      -9.733   3.377  68.065  1.00  0.00    -0.242 F  
HETATM   27  C   UNL     1      -8.820   6.369  66.243  1.00  0.00    -0.145 A  
HETATM   28  F   UNL     1      -8.120   6.655  65.137  1.00  0.00    -0.110 F  
ENDBRANCH  18  20
ENDBRANCH  14  16
ENDBRANCH   8  10
ENDBRANCH   5   8
TORSDOF 4
ENDMDL
MODEL       80
REMARK 921   NORMALIZED FREE ENERGY PREDICTED BY IDOCK:   -5.80 KCAL/MOL
REMARK 922        TOTAL FREE ENERGY PREDICTED BY IDOCK:   -7.51 KCAL/MOL
REMARK 923 INTER-LIGAND FREE ENERGY PREDICTED BY IDOCK:   -7.86 KCAL/MOL
REMARK 924 INTRA-LIGAND FREE ENERGY PREDICTED BY IDOCK:    0.34 KCAL/MOL
REMARK 927      BINDING AFFINITY PREDICTED BY RF-SCORE:    0.00 PKD
ROOT
HETATM    1  C   UNL     1      -7.495   3.375  66.842  1.00  0.00    -0.075 C  
HETATM    2  N   UNL     1      -8.778   3.993  66.523  1.00  0.00    -0.114 NA 
HETATM    3  C   UNL     1      -9.525   4.384  67.727  1.00  0.00    -0.163 C  
HETATM    4  C   UNL     1      -9.011   5.657  68.414  1.00  0.00    -0.114 C  
HETATM    5  C   UNL     1      -8.879   6.837  67.435  1.00  0.00    -0.117 C  
HETATM    6  C   UNL     1      -8.053   6.376  66.228  1.00  0.00    -0.114 C  
HETATM    7  C   UNL     1      -8.636   5.117  65.592  1.00  0.00    -0.139 C  
ENDROOT
BRANCH   5   8
HETATM    8  C   UNL     1     -10.259   7.409  67.066  1.00  0.00    -0.287 C  
HETATM    9  O   UNL     1     -11.279   6.719  67.031  1.00  0.00    -0.393 OA 
BRANCH   8  10
HETATM   10  C   UNL     1     -10.390   8.872  66.803  1.00  0.00    -0.247 A  
HETATM   11  C   UNL     1      -9.882   9.429  65.639  1.00  0.00    -0.294 A  
HETATM   12  C   UNL     1     -10.038  10.799  65.448  1.00  0.00    -0.347 A  
HETATM   13  C   UNL     1     -10.683  11.555  66.427  1.00  0.00    -0.320 A  
HETATM   14  C   UNL     1     -11.161  10.915  67.566  1.00  0.00    -0.293 A  
HETATM   15  N   UNL     1     -11.030   9.594  67.742  1.00  0.00    -0.218 NA 
BRANCH  14  16
HETATM   16  N   UNL     1     -11.795  11.688  68.550  1.00  0.00    -0.315 N  
HETATM   17  H   UNL     1     -12.638  11.312  68.983  1.00  0.00     0.000 HD 
HETATM   18  C   UNL     1     -11.350  12.931  68.974  1.00  0.00    -0.290 C  
HETATM   19  O   UNL     1     -10.366  13.518  68.536  1.00  0.00    -0.240 OA 
BRANCH  18  20
HETATM   20  C   UNL     1     -12.135  13.598  70.052  1.00  0.00    -0.417 A  
HETATM   21  C   UNL     1     -12.400  14.970  70.053  1.00  0.00    -0.309 A  
HETATM   22  C   UNL     1     -13.155  15.567  71.061  1.00  0.00    -0.551 A  
HETATM   23  F   UNL     1     -11.936  15.765  69.074  1.00  0.00    -0.362 F  
HETATM   24  C   UNL     1     -13.651  14.781  72.089  1.00  0.00    -0.415 A  
HETATM   25  C   UNL     1     -13.405  13.419  72.128  1.00  0.00    -0.613 A  
HETATM   26  F   UNL     1     -14.382  15.346  73.059  1.00  0.00    -0.402 F  
HETATM   27  C   UNL     1     -12.648  12.835  71.111  1.00  0.00    -0.271 A  
HETATM   28  F   UNL     1     -12.435  11.515  71.201  1.00  0.00    -0.436 F  
ENDBRANCH  18  20
ENDBRANCH  14  16
ENDBRANCH   8  10
ENDBRANCH   5   8
TORSDOF 4
ENDMDL
MODEL       81
REMARK 921   NORMALIZED FREE ENERGY PREDICTED BY IDOCK:   -5.79 KCAL/MOL
REMARK 922        TOTAL FREE ENERGY PREDICTED BY IDOCK:   -7.50 KCAL/MOL
REMARK 923 INTER-LIGAND FREE ENERGY PREDICTED BY IDOCK:   -7.07 KCAL/MOL
REMARK 924 INTRA-LIGAND FREE ENERGY PREDICTED BY IDOCK:   -0.43 KCAL/MOL
REMARK 927      BINDING AFFINITY PREDICTED BY RF-SCORE:    0.00 PKD
ROOT
HETATM    1  C   UNL     1      -5.656   8.918  68.924  1.00  0.00    -0.040 C  
HETATM    2  N   UNL     1      -6.879   8.762  69.705  1.00  0.00    -0.046 NA 
HETATM    3  C   UNL     1      -7.488  10.053  70.055  1.00  0.00    -0.173 C  
HETATM    4  C   UNL     1      -8.236  10.740  68.903  1.00  0.00    -0.149 C  
HETATM    5  C   UNL     1      -9.259   9.807  68.232  1.00  0.00    -0.130 C  
HETATM    6  C   UNL     1      -8.550   8.502  67.853  1.00  0.00    -0.134 C  
HETATM    7  C   UNL     1      -7.845   7.873  69.051  1.00  0.00    -0.110 C  
ENDROOT
BRANCH   5   8
HETATM    8  C   UNL     1     -10.499   9.609  69.122  1.00  0.00    -0.214 C  
HETATM    9  O   UNL     1     -10.887   8.497  69.484  1.00  0.00    -0.215 OA 
BRANCH   8  10
HETATM   10  C   UNL     1     -11.228  10.808  69.627  1.00  0.00    -0.291 A  
HETATM   11  C   UNL     1     -12.023  10.727  70.760  1.00  0.00    -0.464 A  
HETATM   12  C   UNL     1     -12.675  11.881  71.184  1.00  0.00    -0.384 A  
HETATM   13  C   UNL     1     -12.517  13.061  70.458  1.00  0.00    -0.306 A  
HETATM   14  C   UNL     1     -11.701  13.053  69.330  1.00  0.00    -0.326 A  
HETATM   15  N   UNL     1     -11.057  11.949  68.933  1.00  0.00    -0.233 NA 
BRANCH  14  16
HETATM   16  N   UNL     1     -11.561  14.242  68.599  1.00  0.00    -0.298 N  
HETATM   17  H   UNL     1     -12.396  14.635  68.163  1.00  0.00     0.000 HD 
HETATM   18  C   UNL     1     -10.363  14.917  68.428  1.00  0.00    -0.233 C  
HETATM   19  O   UNL     1      -9.278  14.559  68.875  1.00  0.00    -0.186 OA 
BRANCH  18  20
HETATM   20  C   UNL     1     -10.407  16.183  67.642  1.00  0.00    -0.288 A  
HETATM   21  C   UNL     1     -10.371  16.204  66.245  1.00  0.00    -0.328 A  
HETATM   22  C   UNL     1     -10.435  17.400  65.531  1.00  0.00    -0.112 A  
HETATM   23  F   UNL     1     -10.274  15.066  65.538  1.00  0.00    -0.296 F  
HETATM   24  C   UNL     1     -10.535  18.596  66.224  1.00  0.00    -0.424 A  
HETATM   25  C   UNL     1     -10.567  18.618  67.608  1.00  0.00    -0.458 A  
HETATM   26  F   UNL     1     -10.603  19.749  65.545  1.00  0.00    -0.553 F  
HETATM   27  C   UNL     1     -10.502  17.413  68.309  1.00  0.00    -0.385 A  
HETATM   28  F   UNL     1     -10.531  17.493  69.646  1.00  0.00    -0.294 F  
ENDBRANCH  18  20
ENDBRANCH  14  16
ENDBRANCH   8  10
ENDBRANCH   5   8
TORSDOF 4
ENDMDL
MODEL       82
REMARK 921   NORMALIZED FREE ENERGY PREDICTED BY IDOCK:   -5.75 KCAL/MOL
REMARK 922        TOTAL FREE ENERGY PREDICTED BY IDOCK:   -7.44 KCAL/MOL
REMARK 923 INTER-LIGAND FREE ENERGY PREDICTED BY IDOCK:   -6.74 KCAL/MOL
REMARK 924 INTRA-LIGAND FREE ENERGY PREDICTED BY IDOCK:   -0.71 KCAL/MOL
REMARK 927      BINDING AFFINITY PREDICTED BY RF-SCORE:    0.00 PKD
ROOT
HETATM    1  C   UNL     1      -9.656   3.661  66.723  1.00  0.00    -0.149 C  
HETATM    2  N   UNL     1      -9.178   5.030  66.884  1.00  0.00    -0.117 NA 
HETATM    3  C   UNL     1     -10.257   5.959  67.251  1.00  0.00    -0.200 C  
HETATM    4  C   UNL     1     -10.701   5.875  68.719  1.00  0.00    -0.354 C  
HETATM    5  C   UNL     1      -9.517   5.985  69.695  1.00  0.00    -0.167 C  
HETATM    6  C   UNL     1      -8.452   4.962  69.283  1.00  0.00    -0.092 C  
HETATM    7  C   UNL     1      -8.052   5.120  67.819  1.00  0.00    -0.099 C  
ENDROOT
BRANCH   5   8
HETATM    8  C   UNL     1      -8.996   7.431  69.776  1.00  0.00    -0.141 C  
HETATM    9  O   UNL     1      -7.822   7.729  69.551  1.00  0.00    -0.106 OA 
BRANCH   8  10
HETATM   10  C   UNL     1      -9.957   8.532  70.074  1.00  0.00    -0.188 A  
HETATM   11  C   UNL     1     -10.685   8.536  71.254  1.00  0.00    -0.302 A  
HETATM   12  C   UNL     1     -11.563   9.591  71.476  1.00  0.00    -0.465 A  
HETATM   13  C   UNL     1     -11.686  10.592  70.512  1.00  0.00    -0.443 A  
HETATM   14  C   UNL     1     -10.919  10.509  69.355  1.00  0.00    -0.250 A  
HETATM   15  N   UNL     1     -10.058   9.505  69.148  1.00  0.00    -0.187 NA 
BRANCH  14  16
HETATM   16  N   UNL     1     -11.062  11.513  68.385  1.00  0.00    -0.215 N  
HETATM   17  H   UNL     1     -11.998  11.697  68.023  1.00  0.00     0.000 HD 
HETATM   18  C   UNL     1     -10.015  12.273  67.887  1.00  0.00    -0.202 C  
HETATM   19  O   UNL     1      -8.838  12.155  68.211  1.00  0.00    -0.184 OA 
BRANCH  18  20
HETATM   20  C   UNL     1     -10.358  13.317  66.879  1.00  0.00    -0.255 A  
HETATM   21  C   UNL     1     -10.551  13.024  65.526  1.00  0.00    -0.282 A  
HETATM   22  C   UNL     1     -10.892  14.014  64.606  1.00  0.00    -0.416 A  
HETATM   23  F   UNL     1     -10.415  11.770  65.064  1.00  0.00    -0.276 F  
HETATM   24  C   UNL     1     -11.041  15.321  65.044  1.00  0.00    -0.426 A  
HETATM   25  C   UNL     1     -10.852  15.652  66.375  1.00  0.00    -0.252 A  
HETATM   26  F   UNL     1     -11.374  16.277  64.167  1.00  0.00    -0.490 F  
HETATM   27  C   UNL     1     -10.511  14.650  67.284  1.00  0.00    -0.266 A  
HETATM   28  F   UNL     1     -10.334  15.028  68.558  1.00  0.00    -0.212 F  
ENDBRANCH  18  20
ENDBRANCH  14  16
ENDBRANCH   8  10
ENDBRANCH   5   8
TORSDOF 4
ENDMDL
MODEL       83
REMARK 921   NORMALIZED FREE ENERGY PREDICTED BY IDOCK:   -5.74 KCAL/MOL
REMARK 922        TOTAL FREE ENERGY PREDICTED BY IDOCK:   -7.44 KCAL/MOL
REMARK 923 INTER-LIGAND FREE ENERGY PREDICTED BY IDOCK:   -6.88 KCAL/MOL
REMARK 924 INTRA-LIGAND FREE ENERGY PREDICTED BY IDOCK:   -0.55 KCAL/MOL
REMARK 927      BINDING AFFINITY PREDICTED BY RF-SCORE:    0.00 PKD
ROOT
HETATM    1  C   UNL     1      -7.382   5.001  65.544  1.00  0.00    -0.073 C  
HETATM    2  N   UNL     1      -7.943   4.458  66.777  1.00  0.00    -0.098 NA 
HETATM    3  C   UNL     1      -7.522   5.215  67.964  1.00  0.00    -0.076 C  
HETATM    4  C   UNL     1      -8.243   6.558  68.154  1.00  0.00    -0.117 C  
HETATM    5  C   UNL     1      -9.773   6.412  68.101  1.00  0.00    -0.122 C  
HETATM    6  C   UNL     1     -10.146   5.656  66.821  1.00  0.00    -0.235 C  
HETATM    7  C   UNL     1      -9.402   4.327  66.713  1.00  0.00    -0.167 C  
ENDROOT
BRANCH   5   8
HETATM    8  C   UNL     1     -10.315   5.765  69.389  1.00  0.00    -0.262 C  
HETATM    9  O   UNL     1     -10.392   4.545  69.539  1.00  0.00    -0.078 OA 
BRANCH   8  10
HETATM   10  C   UNL     1     -10.701   6.641  70.533  1.00  0.00    -0.247 A  
HETATM   11  C   UNL     1     -10.993   6.096  71.774  1.00  0.00    -0.315 A  
HETATM   12  C   UNL     1     -11.344   6.964  72.803  1.00  0.00    -0.237 A  
HETATM   13  C   UNL     1     -11.400   8.335  72.550  1.00  0.00    -0.455 A  
HETATM   14  C   UNL     1     -11.094   8.797  71.274  1.00  0.00    -0.278 A  
HETATM   15  N   UNL     1     -10.736   7.965  70.288  1.00  0.00    -0.233 NA 
BRANCH  14  16
HETATM   16  N   UNL     1     -11.168  10.176  71.027  1.00  0.00    -0.315 N  
HETATM   17  H   UNL     1     -10.310  10.722  71.106  1.00  0.00     0.000 HD 
HETATM   18  C   UNL     1     -12.332  10.846  70.683  1.00  0.00    -0.376 C  
HETATM   19  O   UNL     1     -13.439  10.331  70.568  1.00  0.00    -0.175 OA 
BRANCH  18  20
HETATM   20  C   UNL     1     -12.218  12.311  70.429  1.00  0.00    -0.371 A  
HETATM   21  C   UNL     1     -12.569  13.271  71.383  1.00  0.00    -0.271 A  
HETATM   22  C   UNL     1     -12.433  14.635  71.130  1.00  0.00    -0.402 A  
HETATM   23  F   UNL     1     -13.050  12.909  72.584  1.00  0.00    -0.504 F  
HETATM   24  C   UNL     1     -11.940  15.049  69.903  1.00  0.00    -0.334 A  
HETATM   25  C   UNL     1     -11.587  14.130  68.929  1.00  0.00    -0.345 A  
HETATM   26  F   UNL     1     -11.800  16.358  69.655  1.00  0.00    -0.238 F  
HETATM   27  C   UNL     1     -11.728  12.768  69.197  1.00  0.00    -0.322 A  
HETATM   28  F   UNL     1     -11.378  11.922  68.218  1.00  0.00    -0.237 F  
ENDBRANCH  18  20
ENDBRANCH  14  16
ENDBRANCH   8  10
ENDBRANCH   5   8
TORSDOF 4
ENDMDL
MODEL       84
REMARK 921   NORMALIZED FREE ENERGY PREDICTED BY IDOCK:   -5.74 KCAL/MOL
REMARK 922        TOTAL FREE ENERGY PREDICTED BY IDOCK:   -7.43 KCAL/MOL
REMARK 923 INTER-LIGAND FREE ENERGY PREDICTED BY IDOCK:   -6.68 KCAL/MOL
REMARK 924 INTRA-LIGAND FREE ENERGY PREDICTED BY IDOCK:   -0.75 KCAL/MOL
REMARK 927      BINDING AFFINITY PREDICTED BY RF-SCORE:    0.00 PKD
ROOT
HETATM    1  C   UNL     1     -12.985   8.599  71.807  1.00  0.00    -0.359 C  
HETATM    2  N   UNL     1     -11.806   9.456  71.863  1.00  0.00    -0.368 NA 
HETATM    3  C   UNL     1     -10.585   8.707  72.192  1.00  0.00    -0.341 C  
HETATM    4  C   UNL     1     -10.008   7.884  71.032  1.00  0.00    -0.200 C  
HETATM    5  C   UNL     1      -9.818   8.723  69.756  1.00  0.00    -0.189 C  
HETATM    6  C   UNL     1     -11.138   9.439  69.446  1.00  0.00    -0.098 C  
HETATM    7  C   UNL     1     -11.636  10.248  70.641  1.00  0.00    -0.347 C  
ENDROOT
BRANCH   5   8
HETATM    8  C   UNL     1      -8.610   9.668  69.888  1.00  0.00    -0.203 C  
HETATM    9  O   UNL     1      -7.903   9.708  70.896  1.00  0.00    -0.317 OA 
BRANCH   8  10
HETATM   10  C   UNL     1      -8.232  10.526  68.728  1.00  0.00    -0.134 A  
HETATM   11  C   UNL     1      -7.532   9.997  67.655  1.00  0.00    -0.090 A  
HETATM   12  C   UNL     1      -7.210  10.847  66.601  1.00  0.00    -0.139 A  
HETATM   13  C   UNL     1      -7.590  12.187  66.665  1.00  0.00     0.152 A  
HETATM   14  C   UNL     1      -8.288  12.637  67.782  1.00  0.00    -0.172 A  
HETATM   15  N   UNL     1      -8.616  11.815  68.787  1.00  0.00    -0.050 NA 
BRANCH  14  16
HETATM   16  N   UNL     1      -8.651  13.990  67.843  1.00  0.00    -0.169 N  
HETATM   17  H   UNL     1      -7.988  14.644  68.260  1.00  0.00     0.000 HD 
HETATM   18  C   UNL     1      -9.853  14.498  67.373  1.00  0.00    -0.227 C  
HETATM   19  O   UNL     1     -10.752  13.836  66.865  1.00  0.00    -0.277 OA 
BRANCH  18  20
HETATM   20  C   UNL     1     -10.057  15.970  67.495  1.00  0.00    -0.247 A  
HETATM   21  C   UNL     1     -10.072  16.630  68.728  1.00  0.00    -0.270 A  
HETATM   22  C   UNL     1     -10.243  18.010  68.814  1.00  0.00    -0.362 A  
HETATM   23  F   UNL     1      -9.919  15.951  69.877  1.00  0.00    -0.260 F  
HETATM   24  C   UNL     1     -10.404  18.746  67.651  1.00  0.00    -0.420 A  
HETATM   25  C   UNL     1     -10.402  18.129  66.411  1.00  0.00    -0.404 A  
HETATM   26  F   UNL     1     -10.564  20.074  67.726  1.00  0.00    -0.514 F  
HETATM   27  C   UNL     1     -10.229  16.747  66.340  1.00  0.00    -0.323 A  
HETATM   28  F   UNL     1     -10.241  16.201  65.116  1.00  0.00    -0.355 F  
ENDBRANCH  18  20
ENDBRANCH  14  16
ENDBRANCH   8  10
ENDBRANCH   5   8
TORSDOF 4
ENDMDL
MODEL       85
REMARK 921   NORMALIZED FREE ENERGY PREDICTED BY IDOCK:   -5.74 KCAL/MOL
REMARK 922        TOTAL FREE ENERGY PREDICTED BY IDOCK:   -7.43 KCAL/MOL
REMARK 923 INTER-LIGAND FREE ENERGY PREDICTED BY IDOCK:   -7.35 KCAL/MOL
REMARK 924 INTRA-LIGAND FREE ENERGY PREDICTED BY IDOCK:   -0.08 KCAL/MOL
REMARK 927      BINDING AFFINITY PREDICTED BY RF-SCORE:    0.00 PKD
ROOT
HETATM    1  C   UNL     1     -13.654   9.006  72.435  1.00  0.00    -0.477 C  
HETATM    2  N   UNL     1     -12.570   8.983  71.457  1.00  0.00    -0.325 NA 
HETATM    3  C   UNL     1     -11.254   9.188  72.078  1.00  0.00    -0.240 C  
HETATM    4  C   UNL     1     -10.698   7.961  72.816  1.00  0.00    -0.435 C  
HETATM    5  C   UNL     1     -10.709   6.697  71.940  1.00  0.00    -0.251 C  
HETATM    6  C   UNL     1     -12.118   6.519  71.362  1.00  0.00    -0.344 C  
HETATM    7  C   UNL     1     -12.592   7.772  70.632  1.00  0.00     0.225 C  
ENDROOT
BRANCH   5   8
HETATM    8  C   UNL     1      -9.599   6.750  70.874  1.00  0.00    -0.168 C  
HETATM    9  O   UNL     1      -8.417   6.515  71.132  1.00  0.00    -0.125 OA 
BRANCH   8  10
HETATM   10  C   UNL     1      -9.968   7.030  69.456  1.00  0.00    -0.162 A  
HETATM   11  C   UNL     1     -10.430   6.015  68.632  1.00  0.00    -0.297 A  
HETATM   12  C   UNL     1     -10.761   6.340  67.320  1.00  0.00    -0.424 A  
HETATM   13  C   UNL     1     -10.610   7.656  66.883  1.00  0.00    -0.359 A  
HETATM   14  C   UNL     1     -10.137   8.612  67.776  1.00  0.00    -0.211 A  
HETATM   15  N   UNL     1      -9.837   8.306  69.045  1.00  0.00    -0.172 NA 
BRANCH  14  16
HETATM   16  N   UNL     1      -9.974   9.929  67.321  1.00  0.00    -0.186 N  
HETATM   17  H   UNL     1      -9.100  10.167  66.853  1.00  0.00     0.000 HD 
HETATM   18  C   UNL     1     -10.924  10.928  67.467  1.00  0.00    -0.293 C  
HETATM   19  O   UNL     1     -12.010  10.798  68.021  1.00  0.00    -0.537 OA 
BRANCH  18  20
HETATM   20  C   UNL     1     -10.590  12.264  66.895  1.00  0.00    -0.249 A  
HETATM   21  C   UNL     1      -9.568  13.069  67.407  1.00  0.00    -0.211 A  
HETATM   22  C   UNL     1      -9.262  14.306  66.842  1.00  0.00    -0.268 A  
HETATM   23  F   UNL     1      -8.842  12.675  68.466  1.00  0.00    -0.178 F  
HETATM   24  C   UNL     1      -9.988  14.749  65.748  1.00  0.00    -0.347 A  
HETATM   25  C   UNL     1     -11.012  13.983  65.216  1.00  0.00    -0.335 A  
HETATM   26  F   UNL     1      -9.695  15.934  65.196  1.00  0.00    -0.261 F  
HETATM   27  C   UNL     1     -11.308  12.748  65.792  1.00  0.00    -0.320 A  
HETATM   28  F   UNL     1     -12.312  12.051  65.241  1.00  0.00    -0.398 F  
ENDBRANCH  18  20
ENDBRANCH  14  16
ENDBRANCH   8  10
ENDBRANCH   5   8
TORSDOF 4
ENDMDL
MODEL       86
REMARK 921   NORMALIZED FREE ENERGY PREDICTED BY IDOCK:   -5.73 KCAL/MOL
REMARK 922        TOTAL FREE ENERGY PREDICTED BY IDOCK:   -7.43 KCAL/MOL
REMARK 923 INTER-LIGAND FREE ENERGY PREDICTED BY IDOCK:   -6.92 KCAL/MOL
REMARK 924 INTRA-LIGAND FREE ENERGY PREDICTED BY IDOCK:   -0.51 KCAL/MOL
REMARK 927      BINDING AFFINITY PREDICTED BY RF-SCORE:    0.00 PKD
ROOT
HETATM    1  C   UNL     1     -12.506  15.968  72.023  1.00  0.00    -0.432 C  
HETATM    2  N   UNL     1     -12.941  15.594  70.681  1.00  0.00    -0.459 NA 
HETATM    3  C   UNL     1     -11.970  15.985  69.649  1.00  0.00    -0.180 C  
HETATM    4  C   UNL     1     -10.729  15.085  69.565  1.00  0.00    -0.266 C  
HETATM    5  C   UNL     1     -11.094  13.595  69.448  1.00  0.00    -0.193 C  
HETATM    6  C   UNL     1     -12.071  13.245  70.576  1.00  0.00    -0.391 C  
HETATM    7  C   UNL     1     -13.283  14.172  70.583  1.00  0.00    -0.063 C  
ENDROOT
BRANCH   5   8
HETATM    8  C   UNL     1     -11.621  13.261  68.040  1.00  0.00    -0.336 C  
HETATM    9  O   UNL     1     -12.351  14.023  67.405  1.00  0.00    -0.322 OA 
BRANCH   8  10
HETATM   10  C   UNL     1     -11.181  11.996  67.383  1.00  0.00    -0.307 A  
HETATM   11  C   UNL     1     -10.802  11.987  66.050  1.00  0.00    -0.329 A  
HETATM   12  C   UNL     1     -10.398  10.777  65.494  1.00  0.00    -0.308 A  
HETATM   13  C   UNL     1     -10.399   9.628  66.285  1.00  0.00    -0.230 A  
HETATM   14  C   UNL     1     -10.797   9.726  67.615  1.00  0.00    -0.239 A  
HETATM   15  N   UNL     1     -11.166  10.894  68.157  1.00  0.00    -0.278 NA 
BRANCH  14  16
HETATM   16  N   UNL     1     -10.808   8.562  68.397  1.00  0.00    -0.441 N  
HETATM   17  H   UNL     1     -11.575   7.904  68.262  1.00  0.00     0.000 HD 
HETATM   18  C   UNL     1      -9.844   8.247  69.342  1.00  0.00    -0.185 C  
HETATM   19  O   UNL     1      -8.877   8.946  69.628  1.00  0.00    -0.135 OA 
BRANCH  18  20
HETATM   20  C   UNL     1     -10.002   6.951  70.061  1.00  0.00    -0.190 A  
HETATM   21  C   UNL     1      -9.786   5.715  69.443  1.00  0.00    -0.175 A  
HETATM   22  C   UNL     1      -9.919   4.517  70.143  1.00  0.00    -0.278 A  
HETATM   23  F   UNL     1      -9.440   5.641  68.148  1.00  0.00    -0.107 F  
HETATM   24  C   UNL     1     -10.276   4.551  71.482  1.00  0.00    -0.125 A  
HETATM   25  C   UNL     1     -10.504   5.754  72.128  1.00  0.00    -0.258 A  
HETATM   26  F   UNL     1     -10.400   3.403  72.162  1.00  0.00    -0.236 F  
HETATM   27  C   UNL     1     -10.367   6.946  71.415  1.00  0.00    -0.201 A  
HETATM   28  F   UNL     1     -10.605   8.080  72.088  1.00  0.00    -0.253 F  
ENDBRANCH  18  20
ENDBRANCH  14  16
ENDBRANCH   8  10
ENDBRANCH   5   8
TORSDOF 4
ENDMDL
MODEL       87
REMARK 921   NORMALIZED FREE ENERGY PREDICTED BY IDOCK:   -5.72 KCAL/MOL
REMARK 922        TOTAL FREE ENERGY PREDICTED BY IDOCK:   -7.41 KCAL/MOL
REMARK 923 INTER-LIGAND FREE ENERGY PREDICTED BY IDOCK:   -6.65 KCAL/MOL
REMARK 924 INTRA-LIGAND FREE ENERGY PREDICTED BY IDOCK:   -0.75 KCAL/MOL
REMARK 927      BINDING AFFINITY PREDICTED BY RF-SCORE:    0.00 PKD
ROOT
HETATM    1  C   UNL     1      -7.996  17.016  66.756  1.00  0.00    -0.239 C  
HETATM    2  N   UNL     1      -8.992  16.006  66.413  1.00  0.00    -0.289 NA 
HETATM    3  C   UNL     1      -8.778  14.742  67.131  1.00  0.00    -0.221 C  
HETATM    4  C   UNL     1      -9.214  14.762  68.603  1.00  0.00    -0.194 C  
HETATM    5  C   UNL     1     -10.658  15.263  68.778  1.00  0.00    -0.240 C  
HETATM    6  C   UNL     1     -10.800  16.602  68.045  1.00  0.00    -0.337 C  
HETATM    7  C   UNL     1     -10.363  16.497  66.587  1.00  0.00    -0.298 C  
ENDROOT
BRANCH   5   8
HETATM    8  C   UNL     1     -11.675  14.196  68.332  1.00  0.00    -0.345 C  
HETATM    9  O   UNL     1     -12.328  14.293  67.293  1.00  0.00    -0.337 OA 
BRANCH   8  10
HETATM   10  C   UNL     1     -11.834  12.960  69.152  1.00  0.00    -0.303 A  
HETATM   11  C   UNL     1     -12.366  13.022  70.430  1.00  0.00    -0.351 A  
HETATM   12  C   UNL     1     -12.493  11.834  71.144  1.00  0.00    -0.390 A  
HETATM   13  C   UNL     1     -12.076  10.639  70.559  1.00  0.00    -0.448 A  
HETATM   14  C   UNL     1     -11.551  10.666  69.271  1.00  0.00    -0.275 A  
HETATM   15  N   UNL     1     -11.447  11.806  68.575  1.00  0.00    -0.269 NA 
BRANCH  14  16
HETATM   16  N   UNL     1     -11.121   9.460  68.698  1.00  0.00    -0.463 N  
HETATM   17  H   UNL     1     -11.813   8.888  68.215  1.00  0.00     0.000 HD 
HETATM   18  C   UNL     1      -9.816   8.994  68.747  1.00  0.00    -0.172 C  
HETATM   19  O   UNL     1      -8.882   9.560  69.305  1.00  0.00    -0.136 OA 
BRANCH  18  20
HETATM   20  C   UNL     1      -9.534   7.702  68.057  1.00  0.00    -0.151 A  
HETATM   21  C   UNL     1      -9.497   7.584  66.664  1.00  0.00    -0.191 A  
HETATM   22  C   UNL     1      -9.211   6.370  66.043  1.00  0.00    -0.087 A  
HETATM   23  F   UNL     1      -9.736   8.643  65.874  1.00  0.00    -0.297 F  
HETATM   24  C   UNL     1      -8.959   5.253  66.825  1.00  0.00    -0.111 A  
HETATM   25  C   UNL     1      -8.993   5.328  68.207  1.00  0.00    -0.116 A  
HETATM   26  F   UNL     1      -8.677   4.084  66.234  1.00  0.00    -0.111 F  
HETATM   27  C   UNL     1      -9.281   6.550  68.815  1.00  0.00    -0.131 A  
HETATM   28  F   UNL     1      -9.306   6.565  70.155  1.00  0.00    -0.154 F  
ENDBRANCH  18  20
ENDBRANCH  14  16
ENDBRANCH   8  10
ENDBRANCH   5   8
TORSDOF 4
ENDMDL
MODEL       88
REMARK 921   NORMALIZED FREE ENERGY PREDICTED BY IDOCK:   -5.66 KCAL/MOL
REMARK 922        TOTAL FREE ENERGY PREDICTED BY IDOCK:   -7.34 KCAL/MOL
REMARK 923 INTER-LIGAND FREE ENERGY PREDICTED BY IDOCK:   -6.87 KCAL/MOL
REMARK 924 INTRA-LIGAND FREE ENERGY PREDICTED BY IDOCK:   -0.46 KCAL/MOL
REMARK 927      BINDING AFFINITY PREDICTED BY RF-SCORE:    0.00 PKD
ROOT
HETATM    1  C   UNL     1      -7.646   8.221  63.783  1.00  0.00    -0.134 C  
HETATM    2  N   UNL     1      -8.332   8.173  65.070  1.00  0.00    -0.156 NA 
HETATM    3  C   UNL     1      -7.395   8.162  66.202  1.00  0.00    -0.070 C  
HETATM    4  C   UNL     1      -6.761   9.524  66.520  1.00  0.00    -0.075 C  
HETATM    5  C   UNL     1      -7.812  10.636  66.679  1.00  0.00    -0.135 C  
HETATM    6  C   UNL     1      -8.725  10.621  65.447  1.00  0.00    -0.195 C  
HETATM    7  C   UNL     1      -9.329   9.239  65.208  1.00  0.00    -0.202 C  
ENDROOT
BRANCH   5   8
HETATM    8  C   UNL     1      -8.564  10.503  68.015  1.00  0.00    -0.121 C  
HETATM    9  O   UNL     1      -8.160   9.794  68.939  1.00  0.00    -0.093 OA 
BRANCH   8  10
HETATM   10  C   UNL     1      -9.798  11.311  68.237  1.00  0.00    -0.197 A  
HETATM   11  C   UNL     1     -11.001  10.695  68.548  1.00  0.00    -0.296 A  
HETATM   12  C   UNL     1     -12.116  11.502  68.746  1.00  0.00    -0.234 A  
HETATM   13  C   UNL     1     -11.989  12.885  68.617  1.00  0.00    -0.282 A  
HETATM   14  C   UNL     1     -10.745  13.421  68.300  1.00  0.00    -0.258 A  
HETATM   15  N   UNL     1      -9.666  12.647  68.129  1.00  0.00    -0.216 NA 
BRANCH  14  16
HETATM   16  N   UNL     1     -10.633  14.812  68.158  1.00  0.00    -0.238 N  
HETATM   17  H   UNL     1     -11.014  15.400  68.899  1.00  0.00     0.000 HD 
HETATM   18  C   UNL     1     -10.037  15.441  67.075  1.00  0.00    -0.249 C  
HETATM   19  O   UNL     1      -9.552  14.870  66.104  1.00  0.00    -0.279 OA 
BRANCH  18  20
HETATM   20  C   UNL     1      -9.981  16.930  67.106  1.00  0.00    -0.276 A  
HETATM   21  C   UNL     1     -10.447  17.724  66.054  1.00  0.00    -0.286 A  
HETATM   22  C   UNL     1     -10.404  19.116  66.115  1.00  0.00    -0.561 A  
HETATM   23  F   UNL     1     -10.957  17.168  64.942  1.00  0.00    -0.396 F  
HETATM   24  C   UNL     1      -9.886  19.727  67.246  1.00  0.00    -0.384 A  
HETATM   25  C   UNL     1      -9.408  18.976  68.307  1.00  0.00    -0.393 A  
HETATM   26  F   UNL     1      -9.847  21.064  67.315  1.00  0.00    -0.622 F  
HETATM   27  C   UNL     1      -9.458  17.584  68.231  1.00  0.00    -0.296 A  
HETATM   28  F   UNL     1      -8.978  16.906  69.283  1.00  0.00    -0.230 F  
ENDBRANCH  18  20
ENDBRANCH  14  16
ENDBRANCH   8  10
ENDBRANCH   5   8
TORSDOF 4
ENDMDL
MODEL       89
REMARK 921   NORMALIZED FREE ENERGY PREDICTED BY IDOCK:   -5.65 KCAL/MOL
REMARK 922        TOTAL FREE ENERGY PREDICTED BY IDOCK:   -7.33 KCAL/MOL
REMARK 923 INTER-LIGAND FREE ENERGY PREDICTED BY IDOCK:   -6.56 KCAL/MOL
REMARK 924 INTRA-LIGAND FREE ENERGY PREDICTED BY IDOCK:   -0.76 KCAL/MOL
REMARK 927      BINDING AFFINITY PREDICTED BY RF-SCORE:    0.00 PKD
ROOT
HETATM    1  C   UNL     1     -11.318   6.279  70.127  1.00  0.00    -0.406 C  
HETATM    2  N   UNL     1     -10.081   6.556  69.404  1.00  0.00    -0.167 NA 
HETATM    3  C   UNL     1     -10.149   6.137  67.998  1.00  0.00    -0.153 C  
HETATM    4  C   UNL     1     -10.962   7.071  67.090  1.00  0.00    -0.393 C  
HETATM    5  C   UNL     1     -10.515   8.538  67.212  1.00  0.00    -0.366 C  
HETATM    6  C   UNL     1     -10.510   8.923  68.695  1.00  0.00    -0.223 C  
HETATM    7  C   UNL     1      -9.669   7.958  69.527  1.00  0.00    -0.173 C  
ENDROOT
BRANCH   5   8
HETATM    8  C   UNL     1      -9.169   8.769  66.502  1.00  0.00    -0.179 C  
HETATM    9  O   UNL     1      -8.807   8.106  65.529  1.00  0.00    -0.162 OA 
BRANCH   8  10
HETATM   10  C   UNL     1      -8.289   9.883  66.961  1.00  0.00    -0.121 A  
HETATM   11  C   UNL     1      -7.112   9.619  67.645  1.00  0.00    -0.088 A  
HETATM   12  C   UNL     1      -6.332  10.699  68.045  1.00  0.00    -0.058 A  
HETATM   13  C   UNL     1      -6.760  11.994  67.755  1.00  0.00    -0.096 A  
HETATM   14  C   UNL     1      -7.956  12.170  67.066  1.00  0.00    -0.138 A  
HETATM   15  N   UNL     1      -8.698  11.131  66.663  1.00  0.00    -0.160 NA 
BRANCH  14  16
HETATM   16  N   UNL     1      -8.385  13.478  66.794  1.00  0.00    -0.419 N  
HETATM   17  H   UNL     1      -7.879  14.008  66.084  1.00  0.00     0.000 HD 
HETATM   18  C   UNL     1      -9.451  14.098  67.427  1.00  0.00    -0.220 C  
HETATM   19  O   UNL     1     -10.140  13.596  68.309  1.00  0.00    -0.229 OA 
BRANCH  18  20
HETATM   20  C   UNL     1      -9.783  15.484  66.989  1.00  0.00    -0.230 A  
HETATM   21  C   UNL     1     -10.275  15.773  65.712  1.00  0.00    -0.370 A  
HETATM   22  C   UNL     1     -10.598  17.075  65.333  1.00  0.00    -0.147 A  
HETATM   23  F   UNL     1     -10.455  14.800  64.804  1.00  0.00    -0.405 F  
HETATM   24  C   UNL     1     -10.426  18.107  66.243  1.00  0.00    -0.361 A  
HETATM   25  C   UNL     1      -9.936  17.862  67.514  1.00  0.00    -0.322 A  
HETATM   26  F   UNL     1     -10.740  19.360  65.887  1.00  0.00    -0.510 F  
HETATM   27  C   UNL     1      -9.616  16.554  67.880  1.00  0.00    -0.233 A  
HETATM   28  F   UNL     1      -9.140  16.374  69.120  1.00  0.00    -0.233 F  
ENDBRANCH  18  20
ENDBRANCH  14  16
ENDBRANCH   8  10
ENDBRANCH   5   8
TORSDOF 4
ENDMDL
MODEL       90
REMARK 921   NORMALIZED FREE ENERGY PREDICTED BY IDOCK:   -5.64 KCAL/MOL
REMARK 922        TOTAL FREE ENERGY PREDICTED BY IDOCK:   -7.32 KCAL/MOL
REMARK 923 INTER-LIGAND FREE ENERGY PREDICTED BY IDOCK:   -6.78 KCAL/MOL
REMARK 924 INTRA-LIGAND FREE ENERGY PREDICTED BY IDOCK:   -0.53 KCAL/MOL
REMARK 927      BINDING AFFINITY PREDICTED BY RF-SCORE:    0.00 PKD
ROOT
HETATM    1  C   UNL     1     -12.533  15.009  64.351  1.00  0.00    -0.140 C  
HETATM    2  N   UNL     1     -12.804  13.911  65.273  1.00  0.00    -0.749 NA 
HETATM    3  C   UNL     1     -12.330  12.618  64.758  1.00  0.00    -0.489 C  
HETATM    4  C   UNL     1     -10.812  12.409  64.854  1.00  0.00    -0.333 C  
HETATM    5  C   UNL     1     -10.275  12.672  66.272  1.00  0.00    -0.264 C  
HETATM    6  C   UNL     1     -10.766  14.050  66.729  1.00  0.00    -0.285 C  
HETATM    7  C   UNL     1     -12.284  14.175  66.618  1.00  0.00    -0.418 C  
ENDROOT
BRANCH   5   8
HETATM    8  C   UNL     1     -10.648  11.527  67.229  1.00  0.00    -0.228 C  
HETATM    9  O   UNL     1     -11.815  11.237  67.497  1.00  0.00    -0.613 OA 
BRANCH   8  10
HETATM   10  C   UNL     1      -9.562  10.684  67.810  1.00  0.00    -0.157 A  
HETATM   11  C   UNL     1      -8.233  10.938  67.508  1.00  0.00    -0.116 A  
HETATM   12  C   UNL     1      -7.265  10.120  68.083  1.00  0.00    -0.081 A  
HETATM   13  C   UNL     1      -7.662   9.081  68.925  1.00  0.00    -0.094 A  
HETATM   14  C   UNL     1      -9.018   8.895  69.172  1.00  0.00    -0.140 A  
HETATM   15  N   UNL     1      -9.950   9.694  68.636  1.00  0.00    -0.161 NA 
BRANCH  14  16
HETATM   16  N   UNL     1      -9.407   7.838  70.008  1.00  0.00    -0.157 N  
HETATM   17  H   UNL     1      -9.544   6.920  69.584  1.00  0.00     0.000 HD 
HETATM   18  C   UNL     1      -9.616   7.958  71.373  1.00  0.00    -0.153 C  
HETATM   19  O   UNL     1      -9.508   8.996  72.018  1.00  0.00    -0.339 OA 
BRANCH  18  20
HETATM   20  C   UNL     1      -9.999   6.719  72.109  1.00  0.00    -0.176 A  
HETATM   21  C   UNL     1      -9.078   5.961  72.840  1.00  0.00    -0.121 A  
HETATM   22  C   UNL     1      -9.464   4.818  73.537  1.00  0.00    -0.136 A  
HETATM   23  F   UNL     1      -7.783   6.314  72.895  1.00  0.00    -0.099 F  
HETATM   24  C   UNL     1     -10.792   4.422  73.504  1.00  0.00    -0.277 A  
HETATM   25  C   UNL     1     -11.733   5.141  72.787  1.00  0.00    -0.181 A  
HETATM   26  F   UNL     1     -11.171   3.327  74.176  1.00  0.00    -0.248 F  
HETATM   27  C   UNL     1     -11.332   6.284  72.093  1.00  0.00    -0.297 A  
HETATM   28  F   UNL     1     -12.282   6.939  71.412  1.00  0.00    -0.331 F  
ENDBRANCH  18  20
ENDBRANCH  14  16
ENDBRANCH   8  10
ENDBRANCH   5   8
TORSDOF 4
ENDMDL
MODEL       91
REMARK 921   NORMALIZED FREE ENERGY PREDICTED BY IDOCK:   -5.63 KCAL/MOL
REMARK 922        TOTAL FREE ENERGY PREDICTED BY IDOCK:   -7.31 KCAL/MOL
REMARK 923 INTER-LIGAND FREE ENERGY PREDICTED BY IDOCK:   -7.15 KCAL/MOL
REMARK 924 INTRA-LIGAND FREE ENERGY PREDICTED BY IDOCK:   -0.15 KCAL/MOL
REMARK 927      BINDING AFFINITY PREDICTED BY RF-SCORE:    0.00 PKD
ROOT
HETATM    1  C   UNL     1      -7.669  18.902  68.569  1.00  0.00    -0.331 C  
HETATM    2  N   UNL     1      -8.150  18.633  67.217  1.00  0.00    -0.239 NA 
HETATM    3  C   UNL     1      -7.794  17.283  66.756  1.00  0.00    -0.243 C  
HETATM    4  C   UNL     1      -8.651  16.157  67.352  1.00  0.00    -0.196 C  
HETATM    5  C   UNL     1     -10.158  16.421  67.190  1.00  0.00    -0.271 C  
HETATM    6  C   UNL     1     -10.467  17.822  67.730  1.00  0.00    -0.402 C  
HETATM    7  C   UNL     1      -9.587  18.886  67.078  1.00  0.00    -0.312 C  
ENDROOT
BRANCH   5   8
HETATM    8  C   UNL     1     -10.607  16.200  65.734  1.00  0.00    -0.334 C  
HETATM    9  O   UNL     1     -10.576  17.092  64.885  1.00  0.00    -0.673 OA 
BRANCH   8  10
HETATM   10  C   UNL     1     -11.036  14.837  65.307  1.00  0.00    -0.370 A  
HETATM   11  C   UNL     1     -12.139  14.668  64.484  1.00  0.00    -0.490 A  
HETATM   12  C   UNL     1     -12.488  13.372  64.117  1.00  0.00    -0.312 A  
HETATM   13  C   UNL     1     -11.732  12.301  64.592  1.00  0.00    -0.420 A  
HETATM   14  C   UNL     1     -10.641  12.559  65.416  1.00  0.00    -0.281 A  
HETATM   15  N   UNL     1     -10.291  13.807  65.754  1.00  0.00    -0.299 NA 
BRANCH  14  16
HETATM   16  N   UNL     1      -9.896  11.474  65.901  1.00  0.00    -0.223 N  
HETATM   17  H   UNL     1      -9.059  11.202  65.386  1.00  0.00     0.000 HD 
HETATM   18  C   UNL     1     -10.225  10.745  67.034  1.00  0.00    -0.217 C  
HETATM   19  O   UNL     1     -11.206  10.941  67.742  1.00  0.00    -0.289 OA 
BRANCH  18  20
HETATM   20  C   UNL     1      -9.300   9.640  67.417  1.00  0.00    -0.155 A  
HETATM   21  C   UNL     1      -8.860   8.676  66.505  1.00  0.00    -0.138 A  
HETATM   22  C   UNL     1      -7.978   7.664  66.882  1.00  0.00    -0.115 A  
HETATM   23  F   UNL     1      -9.272   8.694  65.227  1.00  0.00    -0.230 F  
HETATM   24  C   UNL     1      -7.530   7.611  68.192  1.00  0.00    -0.108 A  
HETATM   25  C   UNL     1      -7.948   8.544  69.127  1.00  0.00    -0.112 A  
HETATM   26  F   UNL     1      -6.678   6.645  68.561  1.00  0.00    -0.053 F  
HETATM   27  C   UNL     1      -8.830   9.551  68.735  1.00  0.00    -0.132 A  
HETATM   28  F   UNL     1      -9.207  10.423  69.680  1.00  0.00    -0.209 F  
ENDBRANCH  18  20
ENDBRANCH  14  16
ENDBRANCH   8  10
ENDBRANCH   5   8
TORSDOF 4
ENDMDL
MODEL       92
REMARK 921   NORMALIZED FREE ENERGY PREDICTED BY IDOCK:   -5.60 KCAL/MOL
REMARK 922        TOTAL FREE ENERGY PREDICTED BY IDOCK:   -7.27 KCAL/MOL
REMARK 923 INTER-LIGAND FREE ENERGY PREDICTED BY IDOCK:   -7.35 KCAL/MOL
REMARK 924 INTRA-LIGAND FREE ENERGY PREDICTED BY IDOCK:    0.09 KCAL/MOL
REMARK 927      BINDING AFFINITY PREDICTED BY RF-SCORE:    0.00 PKD
ROOT
HETATM    1  C   UNL     1      -6.495  20.849  67.001  1.00  0.00    -0.307 C  
HETATM    2  N   UNL     1      -7.700  20.195  66.501  1.00  0.00    -0.286 NA 
HETATM    3  C   UNL     1      -7.398  18.982  65.728  1.00  0.00    -0.200 C  
HETATM    4  C   UNL     1      -7.013  17.762  66.577  1.00  0.00    -0.265 C  
HETATM    5  C   UNL     1      -8.040  17.473  67.685  1.00  0.00    -0.211 C  
HETATM    6  C   UNL     1      -8.274  18.764  68.478  1.00  0.00    -0.379 C  
HETATM    7  C   UNL     1      -8.668  19.924  67.568  1.00  0.00    -0.338 C  
ENDROOT
BRANCH   5   8
HETATM    8  C   UNL     1      -9.324  16.855  67.104  1.00  0.00    -0.234 C  
HETATM    9  O   UNL     1      -9.648  16.980  65.922  1.00  0.00    -0.488 OA 
BRANCH   8  10
HETATM   10  C   UNL     1     -10.186  16.013  67.984  1.00  0.00    -0.245 A  
HETATM   11  C   UNL     1     -11.158  16.592  68.786  1.00  0.00    -0.309 A  
HETATM   12  C   UNL     1     -11.932  15.753  69.582  1.00  0.00    -0.332 A  
HETATM   13  C   UNL     1     -11.699  14.378  69.554  1.00  0.00    -0.362 A  
HETATM   14  C   UNL     1     -10.701  13.881  68.721  1.00  0.00    -0.262 A  
HETATM   15  N   UNL     1      -9.969  14.684  67.939  1.00  0.00    -0.219 NA 
BRANCH  14  16
HETATM   16  N   UNL     1     -10.466  12.498  68.713  1.00  0.00    -0.360 N  
HETATM   17  H   UNL     1      -9.533  12.175  68.456  1.00  0.00     0.000 HD 
HETATM   18  C   UNL     1     -11.419  11.542  69.029  1.00  0.00    -0.291 C  
HETATM   19  O   UNL     1     -12.582  11.776  69.337  1.00  0.00     0.031 OA 
BRANCH  18  20
HETATM   20  C   UNL     1     -10.982  10.117  68.994  1.00  0.00    -0.265 A  
HETATM   21  C   UNL     1     -10.899   9.326  70.144  1.00  0.00    -0.242 A  
HETATM   22  C   UNL     1     -10.508   7.989  70.083  1.00  0.00    -0.225 A  
HETATM   23  F   UNL     1     -11.196   9.830  71.353  1.00  0.00    -0.397 F  
HETATM   24  C   UNL     1     -10.193   7.432  68.853  1.00  0.00    -0.196 A  
HETATM   25  C   UNL     1     -10.257   8.184  67.693  1.00  0.00    -0.296 A  
HETATM   26  F   UNL     1      -9.822   6.146  68.787  1.00  0.00    -0.127 F  
HETATM   27  C   UNL     1     -10.649   9.521  67.769  1.00  0.00    -0.261 A  
HETATM   28  F   UNL     1     -10.689  10.204  66.617  1.00  0.00    -0.287 F  
ENDBRANCH  18  20
ENDBRANCH  14  16
ENDBRANCH   8  10
ENDBRANCH   5   8
TORSDOF 4
ENDMDL
MODEL       93
REMARK 921   NORMALIZED FREE ENERGY PREDICTED BY IDOCK:   -5.59 KCAL/MOL
REMARK 922        TOTAL FREE ENERGY PREDICTED BY IDOCK:   -7.25 KCAL/MOL
REMARK 923 INTER-LIGAND FREE ENERGY PREDICTED BY IDOCK:   -6.72 KCAL/MOL
REMARK 924 INTRA-LIGAND FREE ENERGY PREDICTED BY IDOCK:   -0.52 KCAL/MOL
REMARK 927      BINDING AFFINITY PREDICTED BY RF-SCORE:    0.00 PKD
ROOT
HETATM    1  C   UNL     1      -9.441  10.540  63.780  1.00  0.00    -0.298 C  
HETATM    2  N   UNL     1      -9.031  11.013  65.099  1.00  0.00    -0.180 NA 
HETATM    3  C   UNL     1      -9.860  12.130  65.575  1.00  0.00    -0.221 C  
HETATM    4  C   UNL     1     -11.250  11.723  66.084  1.00  0.00    -0.363 C  
HETATM    5  C   UNL     1     -11.183  10.596  67.129  1.00  0.00    -0.177 C  
HETATM    6  C   UNL     1     -10.345   9.448  66.553  1.00  0.00    -0.268 C  
HETATM    7  C   UNL     1      -8.974   9.929  66.085  1.00  0.00    -0.150 C  
ENDROOT
BRANCH   5   8
HETATM    8  C   UNL     1     -10.674  11.123  68.482  1.00  0.00    -0.201 C  
HETATM    9  O   UNL     1      -9.779  11.965  68.574  1.00  0.00    -0.205 OA 
BRANCH   8  10
HETATM   10  C   UNL     1     -11.328  10.651  69.737  1.00  0.00    -0.301 A  
HETATM   11  C   UNL     1     -12.371  11.368  70.304  1.00  0.00    -0.379 A  
HETATM   12  C   UNL     1     -12.943  10.875  71.472  1.00  0.00    -0.556 A  
HETATM   13  C   UNL     1     -12.447   9.697  72.031  1.00  0.00    -0.412 A  
HETATM   14  C   UNL     1     -11.395   9.042  71.398  1.00  0.00    -0.323 A  
HETATM   15  N   UNL     1     -10.857   9.504  70.262  1.00  0.00    -0.249 NA 
BRANCH  14  16
HETATM   16  N   UNL     1     -10.895   7.866  71.977  1.00  0.00    -0.240 N  
HETATM   17  H   UNL     1     -10.385   7.947  72.857  1.00  0.00     0.000 HD 
HETATM   18  C   UNL     1     -11.047   6.601  71.432  1.00  0.00    -0.263 C  
HETATM   19  O   UNL     1     -11.617   6.349  70.376  1.00  0.00    -0.386 OA 
BRANCH  18  20
HETATM   20  C   UNL     1     -10.473   5.460  72.202  1.00  0.00    -0.273 A  
HETATM   21  C   UNL     1      -9.115   5.130  72.159  1.00  0.00    -0.136 A  
HETATM   22  C   UNL     1      -8.598   4.072  72.905  1.00  0.00    -0.099 A  
HETATM   23  F   UNL     1      -8.257   5.828  71.395  1.00  0.00    -0.116 F  
HETATM   24  C   UNL     1      -9.450   3.329  73.705  1.00  0.00    -0.095 A  
HETATM   25  C   UNL     1     -10.802   3.620  73.769  1.00  0.00    -0.318 A  
HETATM   26  F   UNL     1      -8.959   2.314  74.429  1.00  0.00    -0.069 F  
HETATM   27  C   UNL     1     -11.306   4.682  73.018  1.00  0.00    -0.198 A  
HETATM   28  F   UNL     1     -12.622   4.916  73.113  1.00  0.00    -0.248 F  
ENDBRANCH  18  20
ENDBRANCH  14  16
ENDBRANCH   8  10
ENDBRANCH   5   8
TORSDOF 4
ENDMDL
MODEL       94
REMARK 921   NORMALIZED FREE ENERGY PREDICTED BY IDOCK:   -5.56 KCAL/MOL
REMARK 922        TOTAL FREE ENERGY PREDICTED BY IDOCK:   -7.21 KCAL/MOL
REMARK 923 INTER-LIGAND FREE ENERGY PREDICTED BY IDOCK:   -6.46 KCAL/MOL
REMARK 924 INTRA-LIGAND FREE ENERGY PREDICTED BY IDOCK:   -0.75 KCAL/MOL
REMARK 927      BINDING AFFINITY PREDICTED BY RF-SCORE:    0.00 PKD
ROOT
HETATM    1  C   UNL     1     -10.965   7.539  70.069  1.00  0.00    -0.240 C  
HETATM    2  N   UNL     1      -9.622   7.937  69.660  1.00  0.00    -0.164 NA 
HETATM    3  C   UNL     1      -9.420   7.815  68.210  1.00  0.00    -0.147 C  
HETATM    4  C   UNL     1     -10.071   8.928  67.377  1.00  0.00    -0.288 C  
HETATM    5  C   UNL     1      -9.687  10.332  67.875  1.00  0.00    -0.165 C  
HETATM    6  C   UNL     1      -9.964  10.406  69.381  1.00  0.00    -0.240 C  
HETATM    7  C   UNL     1      -9.270   9.277  70.139  1.00  0.00    -0.225 C  
ENDROOT
BRANCH   5   8
HETATM    8  C   UNL     1      -8.238  10.681  67.489  1.00  0.00    -0.111 C  
HETATM    9  O   UNL     1      -7.646  10.129  66.560  1.00  0.00    -0.103 OA 
BRANCH   8  10
HETATM   10  C   UNL     1      -7.537  11.776  68.219  1.00  0.00    -0.122 A  
HETATM   11  C   UNL     1      -6.539  11.487  69.138  1.00  0.00    -0.102 A  
HETATM   12  C   UNL     1      -5.919  12.552  69.785  1.00  0.00    -0.135 A  
HETATM   13  C   UNL     1      -6.325  13.855  69.498  1.00  0.00    -0.118 A  
HETATM   14  C   UNL     1      -7.336  14.055  68.563  1.00  0.00    -0.114 A  
HETATM   15  N   UNL     1      -7.920  13.033  67.924  1.00  0.00    -0.142 NA 
BRANCH  14  16
HETATM   16  N   UNL     1      -7.747  15.369  68.293  1.00  0.00    -0.113 N  
HETATM   17  H   UNL     1      -7.256  15.881  67.560  1.00  0.00     0.000 HD 
HETATM   18  C   UNL     1      -8.775  16.018  68.959  1.00  0.00    -0.245 C  
HETATM   19  O   UNL     1      -9.441  15.540  69.871  1.00  0.00    -0.256 OA 
BRANCH  18  20
HETATM   20  C   UNL     1      -9.093  17.407  68.519  1.00  0.00    -0.273 A  
HETATM   21  C   UNL     1     -10.367  17.786  68.085  1.00  0.00    -0.391 A  
HETATM   22  C   UNL     1     -10.646  19.096  67.698  1.00  0.00    -0.546 A  
HETATM   23  F   UNL     1     -11.372  16.897  68.027  1.00  0.00    -0.327 F  
HETATM   24  C   UNL     1      -9.635  20.044  67.744  1.00  0.00    -0.384 A  
HETATM   25  C   UNL     1      -8.359  19.706  68.161  1.00  0.00    -0.347 A  
HETATM   26  F   UNL     1      -9.897  21.306  67.379  1.00  0.00    -0.618 F  
HETATM   27  C   UNL     1      -8.095  18.391  68.545  1.00  0.00    -0.319 A  
HETATM   28  F   UNL     1      -6.842  18.117  68.935  1.00  0.00    -0.223 F  
ENDBRANCH  18  20
ENDBRANCH  14  16
ENDBRANCH   8  10
ENDBRANCH   5   8
TORSDOF 4
ENDMDL
MODEL       95
REMARK 921   NORMALIZED FREE ENERGY PREDICTED BY IDOCK:   -5.55 KCAL/MOL
REMARK 922        TOTAL FREE ENERGY PREDICTED BY IDOCK:   -7.20 KCAL/MOL
REMARK 923 INTER-LIGAND FREE ENERGY PREDICTED BY IDOCK:   -6.64 KCAL/MOL
REMARK 924 INTRA-LIGAND FREE ENERGY PREDICTED BY IDOCK:   -0.56 KCAL/MOL
REMARK 927      BINDING AFFINITY PREDICTED BY RF-SCORE:    0.00 PKD
ROOT
HETATM    1  C   UNL     1      -5.498   7.179  67.790  1.00  0.00    -0.020 C  
HETATM    2  N   UNL     1      -6.941   7.326  67.625  1.00  0.00    -0.073 NA 
HETATM    3  C   UNL     1      -7.462   8.520  68.306  1.00  0.00    -0.096 C  
HETATM    4  C   UNL     1      -7.182   9.844  67.581  1.00  0.00    -0.089 C  
HETATM    5  C   UNL     1      -7.622   9.808  66.107  1.00  0.00    -0.101 C  
HETATM    6  C   UNL     1      -7.008   8.568  65.447  1.00  0.00    -0.078 C  
HETATM    7  C   UNL     1      -7.345   7.293  66.216  1.00  0.00    -0.079 C  
ENDROOT
BRANCH   5   8
HETATM    8  C   UNL     1      -9.154   9.889  65.983  1.00  0.00    -0.158 C  
HETATM    9  O   UNL     1      -9.782   9.300  65.102  1.00  0.00    -0.168 OA 
BRANCH   8  10
HETATM   10  C   UNL     1      -9.925  10.654  67.006  1.00  0.00    -0.202 A  
HETATM   11  C   UNL     1     -10.773  10.001  67.887  1.00  0.00    -0.322 A  
HETATM   12  C   UNL     1     -11.462  10.769  68.821  1.00  0.00    -0.364 A  
HETATM   13  C   UNL     1     -11.286  12.152  68.830  1.00  0.00    -0.339 A  
HETATM   14  C   UNL     1     -10.417  12.727  67.908  1.00  0.00    -0.220 A  
HETATM   15  N   UNL     1      -9.737  11.987  67.022  1.00  0.00    -0.194 NA 
BRANCH  14  16
HETATM   16  N   UNL     1     -10.259  14.121  67.916  1.00  0.00    -0.232 N  
HETATM   17  H   UNL     1      -9.468  14.508  68.429  1.00  0.00     0.000 HD 
HETATM   18  C   UNL     1     -11.110  15.007  67.273  1.00  0.00    -0.334 C  
HETATM   19  O   UNL     1     -12.109  14.693  66.635  1.00  0.00    -0.347 OA 
BRANCH  18  20
HETATM   20  C   UNL     1     -10.771  16.456  67.366  1.00  0.00    -0.278 A  
HETATM   21  C   UNL     1     -10.562  17.104  68.587  1.00  0.00    -0.352 A  
HETATM   22  C   UNL     1     -10.225  18.455  68.647  1.00  0.00    -0.370 A  
HETATM   23  F   UNL     1     -10.678  16.442  69.750  1.00  0.00    -0.275 F  
HETATM   24  C   UNL     1     -10.096  19.173  67.468  1.00  0.00    -0.376 A  
HETATM   25  C   UNL     1     -10.301  18.569  66.239  1.00  0.00    -0.459 A  
HETATM   26  F   UNL     1      -9.767  20.471  67.518  1.00  0.00    -0.513 F  
HETATM   27  C   UNL     1     -10.638  17.216  66.195  1.00  0.00    -0.201 A  
HETATM   28  F   UNL     1     -10.830  16.683  64.980  1.00  0.00    -0.399 F  
ENDBRANCH  18  20
ENDBRANCH  14  16
ENDBRANCH   8  10
ENDBRANCH   5   8
TORSDOF 4
ENDMDL
MODEL       96
REMARK 921   NORMALIZED FREE ENERGY PREDICTED BY IDOCK:   -5.53 KCAL/MOL
REMARK 922        TOTAL FREE ENERGY PREDICTED BY IDOCK:   -7.17 KCAL/MOL
REMARK 923 INTER-LIGAND FREE ENERGY PREDICTED BY IDOCK:   -6.66 KCAL/MOL
REMARK 924 INTRA-LIGAND FREE ENERGY PREDICTED BY IDOCK:   -0.51 KCAL/MOL
REMARK 927      BINDING AFFINITY PREDICTED BY RF-SCORE:    0.00 PKD
ROOT
HETATM    1  C   UNL     1      -9.770   4.122  71.070  1.00  0.00    -0.190 C  
HETATM    2  N   UNL     1      -9.711   5.575  71.191  1.00  0.00    -0.169 NA 
HETATM    3  C   UNL     1      -8.676   6.167  70.332  1.00  0.00    -0.142 C  
HETATM    4  C   UNL     1      -9.048   6.244  68.844  1.00  0.00    -0.124 C  
HETATM    5  C   UNL     1     -10.412   6.918  68.616  1.00  0.00    -0.217 C  
HETATM    6  C   UNL     1     -11.451   6.226  69.506  1.00  0.00    -0.387 C  
HETATM    7  C   UNL     1     -11.017   6.204  70.969  1.00  0.00    -0.293 C  
ENDROOT
BRANCH   5   8
HETATM    8  C   UNL     1     -10.322   8.440  68.829  1.00  0.00    -0.206 C  
HETATM    9  O   UNL     1     -10.313   8.956  69.948  1.00  0.00    -0.194 OA 
BRANCH   8  10
HETATM   10  C   UNL     1     -10.172   9.331  67.642  1.00  0.00    -0.230 A  
HETATM   11  C   UNL     1      -9.875   8.802  66.395  1.00  0.00    -0.352 A  
HETATM   12  C   UNL     1      -9.751   9.683  65.325  1.00  0.00    -0.330 A  
HETATM   13  C   UNL     1      -9.917  11.051  65.544  1.00  0.00    -0.308 A  
HETATM   14  C   UNL     1     -10.211  11.496  66.829  1.00  0.00    -0.219 A  
HETATM   15  N   UNL     1     -10.351  10.648  67.856  1.00  0.00    -0.189 NA 
BRANCH  14  16
HETATM   16  N   UNL     1     -10.360  12.875  67.041  1.00  0.00    -0.241 N  
HETATM   17  H   UNL     1     -11.306  13.257  67.046  1.00  0.00     0.000 HD 
HETATM   18  C   UNL     1      -9.307  13.753  67.244  1.00  0.00    -0.239 C  
HETATM   19  O   UNL     1      -8.119  13.445  67.247  1.00  0.00    -0.173 OA 
BRANCH  18  20
HETATM   20  C   UNL     1      -9.655  15.183  67.481  1.00  0.00    -0.207 A  
HETATM   21  C   UNL     1      -9.567  16.156  66.481  1.00  0.00    -0.262 A  
HETATM   22  C   UNL     1      -9.920  17.483  66.722  1.00  0.00    -0.313 A  
HETATM   23  F   UNL     1      -9.140  15.843  65.247  1.00  0.00    -0.130 F  
HETATM   24  C   UNL     1     -10.366  17.846  67.984  1.00  0.00    -0.387 A  
HETATM   25  C   UNL     1     -10.461  16.913  69.002  1.00  0.00    -0.341 A  
HETATM   26  F   UNL     1     -10.712  19.118  68.221  1.00  0.00    -0.409 F  
HETATM   27  C   UNL     1     -10.105  15.588  68.746  1.00  0.00    -0.211 A  
HETATM   28  F   UNL     1     -10.211  14.728  69.769  1.00  0.00    -0.199 F  
ENDBRANCH  18  20
ENDBRANCH  14  16
ENDBRANCH   8  10
ENDBRANCH   5   8
TORSDOF 4
ENDMDL
MODEL       97
REMARK 921   NORMALIZED FREE ENERGY PREDICTED BY IDOCK:   -5.52 KCAL/MOL
REMARK 922        TOTAL FREE ENERGY PREDICTED BY IDOCK:   -7.17 KCAL/MOL
REMARK 923 INTER-LIGAND FREE ENERGY PREDICTED BY IDOCK:   -6.86 KCAL/MOL
REMARK 924 INTRA-LIGAND FREE ENERGY PREDICTED BY IDOCK:   -0.31 KCAL/MOL
REMARK 927      BINDING AFFINITY PREDICTED BY RF-SCORE:    0.00 PKD
ROOT
HETATM    1  C   UNL     1     -13.536   7.775  71.926  1.00  0.00    -0.270 C  
HETATM    2  N   UNL     1     -12.376   8.552  72.349  1.00  0.00    -0.383 NA 
HETATM    3  C   UNL     1     -11.244   7.700  72.737  1.00  0.00    -0.377 C  
HETATM    4  C   UNL     1     -10.477   7.080  71.560  1.00  0.00    -0.222 C  
HETATM    5  C   UNL     1     -10.051   8.132  70.521  1.00  0.00    -0.201 C  
HETATM    6  C   UNL     1     -11.284   8.954  70.128  1.00  0.00    -0.175 C  
HETATM    7  C   UNL     1     -11.980   9.549  71.350  1.00  0.00    -0.386 C  
ENDROOT
BRANCH   5   8
HETATM    8  C   UNL     1      -8.875   8.980  71.040  1.00  0.00    -0.230 C  
HETATM    9  O   UNL     1      -8.498   8.948  72.212  1.00  0.00    -0.391 OA 
BRANCH   8  10
HETATM   10  C   UNL     1      -8.112   9.827  70.078  1.00  0.00    -0.189 A  
HETATM   11  C   UNL     1      -6.726   9.854  70.105  1.00  0.00    -0.112 A  
HETATM   12  C   UNL     1      -6.070  10.661  69.180  1.00  0.00    -0.042 A  
HETATM   13  C   UNL     1      -6.821  11.412  68.276  1.00  0.00    -0.069 A  
HETATM   14  C   UNL     1      -8.209  11.327  68.319  1.00  0.00    -0.143 A  
HETATM   15  N   UNL     1      -8.841  10.535  69.195  1.00  0.00    -0.166 NA 
BRANCH  14  16
HETATM   16  N   UNL     1      -8.955  12.098  67.415  1.00  0.00    -0.173 N  
HETATM   17  H   UNL     1      -8.819  11.929  66.419  1.00  0.00     0.000 HD 
HETATM   18  C   UNL     1      -9.864  13.076  67.787  1.00  0.00    -0.224 C  
HETATM   19  O   UNL     1     -10.120  13.403  68.941  1.00  0.00    -0.138 OA 
BRANCH  18  20
HETATM   20  C   UNL     1     -10.589  13.777  66.689  1.00  0.00    -0.274 A  
HETATM   21  C   UNL     1     -10.143  14.984  66.142  1.00  0.00    -0.294 A  
HETATM   22  C   UNL     1     -10.826  15.610  65.101  1.00  0.00    -0.448 A  
HETATM   23  F   UNL     1      -9.033  15.584  66.604  1.00  0.00    -0.222 F  
HETATM   24  C   UNL     1     -11.976  15.022  64.598  1.00  0.00    -0.358 A  
HETATM   25  C   UNL     1     -12.454  13.831  65.116  1.00  0.00    -0.483 A  
HETATM   26  F   UNL     1     -12.635  15.615  63.593  1.00  0.00    -0.190 F  
HETATM   27  C   UNL     1     -11.759  13.216  66.158  1.00  0.00    -0.381 A  
HETATM   28  F   UNL     1     -12.269  12.068  66.626  1.00  0.00    -0.320 F  
ENDBRANCH  18  20
ENDBRANCH  14  16
ENDBRANCH   8  10
ENDBRANCH   5   8
TORSDOF 4
ENDMDL
MODEL       98
REMARK 921   NORMALIZED FREE ENERGY PREDICTED BY IDOCK:   -5.52 KCAL/MOL
REMARK 922        TOTAL FREE ENERGY PREDICTED BY IDOCK:   -7.17 KCAL/MOL
REMARK 923 INTER-LIGAND FREE ENERGY PREDICTED BY IDOCK:   -7.04 KCAL/MOL
REMARK 924 INTRA-LIGAND FREE ENERGY PREDICTED BY IDOCK:   -0.13 KCAL/MOL
REMARK 927      BINDING AFFINITY PREDICTED BY RF-SCORE:    0.00 PKD
ROOT
HETATM    1  C   UNL     1      -8.537   5.945  65.401  1.00  0.00    -0.137 C  
HETATM    2  N   UNL     1      -8.510   6.216  66.835  1.00  0.00    -0.106 NA 
HETATM    3  C   UNL     1      -8.167   7.614  67.133  1.00  0.00    -0.118 C  
HETATM    4  C   UNL     1      -9.307   8.616  66.901  1.00  0.00    -0.216 C  
HETATM    5  C   UNL     1     -10.605   8.199  67.612  1.00  0.00    -0.258 C  
HETATM    6  C   UNL     1     -10.929   6.752  67.224  1.00  0.00    -0.433 C  
HETATM    7  C   UNL     1      -9.755   5.816  67.499  1.00  0.00    -0.119 C  
ENDROOT
BRANCH   5   8
HETATM    8  C   UNL     1     -10.505   8.431  69.131  1.00  0.00    -0.206 C  
HETATM    9  O   UNL     1      -9.870   7.685  69.878  1.00  0.00    -0.181 OA 
BRANCH   8  10
HETATM   10  C   UNL     1     -11.145   9.641  69.723  1.00  0.00    -0.217 A  
HETATM   11  C   UNL     1     -11.932   9.541  70.861  1.00  0.00    -0.372 A  
HETATM   12  C   UNL     1     -12.499  10.706  71.368  1.00  0.00    -0.496 A  
HETATM   13  C   UNL     1     -12.267  11.917  70.717  1.00  0.00    -0.401 A  
HETATM   14  C   UNL     1     -11.466  11.928  69.579  1.00  0.00    -0.288 A  
HETATM   15  N   UNL     1     -10.903  10.811  69.101  1.00  0.00    -0.220 NA 
BRANCH  14  16
HETATM   16  N   UNL     1     -11.252  13.150  68.923  1.00  0.00    -0.265 N  
HETATM   17  H   UNL     1     -12.017  13.825  68.911  1.00  0.00     0.000 HD 
HETATM   18  C   UNL     1     -10.069  13.500  68.291  1.00  0.00    -0.247 C  
HETATM   19  O   UNL     1      -9.074  12.789  68.207  1.00  0.00    -0.199 OA 
BRANCH  18  20
HETATM   20  C   UNL     1     -10.011  14.854  67.670  1.00  0.00    -0.226 A  
HETATM   21  C   UNL     1     -10.210  15.065  66.302  1.00  0.00    -0.294 A  
HETATM   22  C   UNL     1     -10.172  16.343  65.748  1.00  0.00    -0.370 A  
HETATM   23  F   UNL     1     -10.447  14.037  65.471  1.00  0.00    -0.277 F  
HETATM   24  C   UNL     1      -9.929  17.431  66.573  1.00  0.00    -0.311 A  
HETATM   25  C   UNL     1      -9.721  17.263  67.931  1.00  0.00    -0.273 A  
HETATM   26  F   UNL     1      -9.897  18.663  66.048  1.00  0.00    -0.338 F  
HETATM   27  C   UNL     1      -9.762  15.977  68.472  1.00  0.00    -0.214 A  
HETATM   28  F   UNL     1      -9.549  15.871  69.790  1.00  0.00    -0.257 F  
ENDBRANCH  18  20
ENDBRANCH  14  16
ENDBRANCH   8  10
ENDBRANCH   5   8
TORSDOF 4
ENDMDL
MODEL       99
REMARK 921   NORMALIZED FREE ENERGY PREDICTED BY IDOCK:   -5.51 KCAL/MOL
REMARK 922        TOTAL FREE ENERGY PREDICTED BY IDOCK:   -7.15 KCAL/MOL
REMARK 923 INTER-LIGAND FREE ENERGY PREDICTED BY IDOCK:   -6.39 KCAL/MOL
REMARK 924 INTRA-LIGAND FREE ENERGY PREDICTED BY IDOCK:   -0.76 KCAL/MOL
REMARK 927      BINDING AFFINITY PREDICTED BY RF-SCORE:    0.00 PKD
ROOT
HETATM    1  C   UNL     1      -5.746   7.906  68.026  1.00  0.00    -0.033 C  
HETATM    2  N   UNL     1      -7.169   8.120  67.785  1.00  0.00    -0.089 NA 
HETATM    3  C   UNL     1      -7.713   9.224  68.588  1.00  0.00    -0.085 C  
HETATM    4  C   UNL     1      -7.351  10.626  68.077  1.00  0.00    -0.088 C  
HETATM    5  C   UNL     1      -7.684  10.808  66.586  1.00  0.00    -0.141 C  
HETATM    6  C   UNL     1      -7.051   9.652  65.803  1.00  0.00    -0.099 C  
HETATM    7  C   UNL     1      -7.471   8.295  66.360  1.00  0.00    -0.080 C  
ENDROOT
BRANCH   5   8
HETATM    8  C   UNL     1      -9.201  10.954  66.368  1.00  0.00    -0.174 C  
HETATM    9  O   UNL     1      -9.840  10.210  65.623  1.00  0.00    -0.242 OA 
BRANCH   8  10
HETATM   10  C   UNL     1      -9.947  11.992  67.137  1.00  0.00    -0.195 A  
HETATM   11  C   UNL     1     -11.123  11.672  67.799  1.00  0.00    -0.309 A  
HETATM   12  C   UNL     1     -11.772  12.683  68.501  1.00  0.00    -0.372 A  
HETATM   13  C   UNL     1     -11.229  13.967  68.507  1.00  0.00    -0.291 A  
HETATM   14  C   UNL     1     -10.045  14.202  67.814  1.00  0.00    -0.239 A  
HETATM   15  N   UNL     1      -9.409  13.226  67.155  1.00  0.00    -0.231 NA 
BRANCH  14  16
HETATM   16  N   UNL     1      -9.516  15.501  67.815  1.00  0.00    -0.204 N  
HETATM   17  H   UNL     1      -8.957  15.788  68.618  1.00  0.00     0.000 HD 
HETATM   18  C   UNL     1      -9.705  16.421  66.795  1.00  0.00    -0.251 C  
HETATM   19  O   UNL     1     -10.365  16.228  65.780  1.00  0.00    -0.346 OA 
BRANCH  18  20
HETATM   20  C   UNL     1      -9.043  17.748  66.952  1.00  0.00    -0.266 A  
HETATM   21  C   UNL     1      -9.729  18.885  67.390  1.00  0.00    -0.312 A  
HETATM   22  C   UNL     1      -9.083  20.109  67.550  1.00  0.00    -0.465 A  
HETATM   23  F   UNL     1     -11.040  18.834  67.676  1.00  0.00    -0.448 F  
HETATM   24  C   UNL     1      -7.729  20.202  67.265  1.00  0.00    -0.306 A  
HETATM   25  C   UNL     1      -7.017  19.101  66.822  1.00  0.00    -0.211 A  
HETATM   26  F   UNL     1      -7.101  21.375  67.421  1.00  0.00    -0.421 F  
HETATM   27  C   UNL     1      -7.677  17.881  66.667  1.00  0.00    -0.243 A  
HETATM   28  F   UNL     1      -6.940  16.850  66.231  1.00  0.00    -0.252 F  
ENDBRANCH  18  20
ENDBRANCH  14  16
ENDBRANCH   8  10
ENDBRANCH   5   8
TORSDOF 4
ENDMDL
MODEL      100
REMARK 921   NORMALIZED FREE ENERGY PREDICTED BY IDOCK:   -5.48 KCAL/MOL
REMARK 922        TOTAL FREE ENERGY PREDICTED BY IDOCK:   -7.12 KCAL/MOL
REMARK 923 INTER-LIGAND FREE ENERGY PREDICTED BY IDOCK:   -6.59 KCAL/MOL
REMARK 924 INTRA-LIGAND FREE ENERGY PREDICTED BY IDOCK:   -0.53 KCAL/MOL
REMARK 927      BINDING AFFINITY PREDICTED BY RF-SCORE:    0.00 PKD
ROOT
HETATM    1  C   UNL     1     -10.240  20.508  69.387  1.00  0.00     0.407 C  
HETATM    2  N   UNL     1     -10.018  19.921  68.070  1.00  0.00    -0.409 NA 
HETATM    3  C   UNL     1      -8.595  19.674  67.800  1.00  0.00    -0.322 C  
HETATM    4  C   UNL     1      -8.012  18.446  68.515  1.00  0.00    -0.333 C  
HETATM    5  C   UNL     1      -8.851  17.179  68.277  1.00  0.00    -0.245 C  
HETATM    6  C   UNL     1     -10.312  17.491  68.619  1.00  0.00    -0.369 C  
HETATM    7  C   UNL     1     -10.822  18.713  67.858  1.00  0.00    -0.201 C  
ENDROOT
BRANCH   5   8
HETATM    8  C   UNL     1      -8.645  16.636  66.851  1.00  0.00    -0.211 C  
HETATM    9  O   UNL     1      -7.626  16.857  66.195  1.00  0.00    -0.297 OA 
BRANCH   8  10
HETATM   10  C   UNL     1      -9.688  15.752  66.254  1.00  0.00    -0.302 A  
HETATM   11  C   UNL     1     -10.550  16.233  65.280  1.00  0.00    -0.357 A  
HETATM   12  C   UNL     1     -11.499  15.359  64.759  1.00  0.00    -0.337 A  
HETATM   13  C   UNL     1     -11.557  14.050  65.236  1.00  0.00    -0.339 A  
HETATM   14  C   UNL     1     -10.655  13.651  66.218  1.00  0.00    -0.289 A  
HETATM   15  N   UNL     1      -9.727  14.484  66.705  1.00  0.00    -0.250 NA 
BRANCH  14  16
HETATM   16  N   UNL     1     -10.732  12.336  66.701  1.00  0.00    -0.239 N  
HETATM   17  H   UNL     1     -11.658  11.942  66.867  1.00  0.00     0.000 HD 
HETATM   18  C   UNL     1      -9.631  11.537  66.969  1.00  0.00    -0.185 C  
HETATM   19  O   UNL     1      -8.460  11.877  66.836  1.00  0.00    -0.168 OA 
BRANCH  18  20
HETATM   20  C   UNL     1      -9.903  10.152  67.451  1.00  0.00    -0.225 A  
HETATM   21  C   UNL     1      -9.984   9.056  66.587  1.00  0.00    -0.278 A  
HETATM   22  C   UNL     1     -10.218   7.767  67.064  1.00  0.00    -0.375 A  
HETATM   23  F   UNL     1      -9.835   9.208  65.261  1.00  0.00    -0.311 F  
HETATM   24  C   UNL     1     -10.377   7.569  68.427  1.00  0.00    -0.195 A  
HETATM   25  C   UNL     1     -10.311   8.631  69.314  1.00  0.00    -0.228 A  
HETATM   26  F   UNL     1     -10.597   6.333  68.894  1.00  0.00    -0.197 F  
HETATM   27  C   UNL     1     -10.076   9.915  68.822  1.00  0.00    -0.174 A  
HETATM   28  F   UNL     1     -10.027  10.905  69.723  1.00  0.00    -0.163 F  
ENDBRANCH  18  20
ENDBRANCH  14  16
ENDBRANCH   8  10
ENDBRANCH   5   8
TORSDOF 4
ENDMDL
MODEL      101
REMARK 921   NORMALIZED FREE ENERGY PREDICTED BY IDOCK:   -5.47 KCAL/MOL
REMARK 922        TOTAL FREE ENERGY PREDICTED BY IDOCK:   -7.11 KCAL/MOL
REMARK 923 INTER-LIGAND FREE ENERGY PREDICTED BY IDOCK:   -6.64 KCAL/MOL
REMARK 924 INTRA-LIGAND FREE ENERGY PREDICTED BY IDOCK:   -0.46 KCAL/MOL
REMARK 927      BINDING AFFINITY PREDICTED BY RF-SCORE:    0.00 PKD
ROOT
HETATM    1  C   UNL     1     -10.872   4.365  73.616  1.00  0.00    -0.288 C  
HETATM    2  N   UNL     1     -10.439   5.750  73.464  1.00  0.00    -0.238 NA 
HETATM    3  C   UNL     1      -9.245   5.873  72.617  1.00  0.00    -0.137 C  
HETATM    4  C   UNL     1      -9.511   5.725  71.112  1.00  0.00    -0.185 C  
HETATM    5  C   UNL     1     -10.636   6.653  70.623  1.00  0.00    -0.268 C  
HETATM    6  C   UNL     1     -11.862   6.442  71.519  1.00  0.00    -0.355 C  
HETATM    7  C   UNL     1     -11.521   6.622  72.996  1.00  0.00     0.025 C  
ENDROOT
BRANCH   5   8
HETATM    8  C   UNL     1     -10.159   8.114  70.551  1.00  0.00    -0.192 C  
HETATM    9  O   UNL     1      -9.738   8.726  71.533  1.00  0.00    -0.236 OA 
BRANCH   8  10
HETATM   10  C   UNL     1     -10.140   8.806  69.229  1.00  0.00    -0.204 A  
HETATM   11  C   UNL     1     -10.214   8.080  68.050  1.00  0.00    -0.260 A  
HETATM   12  C   UNL     1     -10.195   8.782  66.849  1.00  0.00    -0.357 A  
HETATM   13  C   UNL     1     -10.094  10.173  66.872  1.00  0.00    -0.279 A  
HETATM   14  C   UNL     1     -10.022  10.822  68.101  1.00  0.00    -0.160 A  
HETATM   15  N   UNL     1     -10.061  10.150  69.258  1.00  0.00    -0.209 NA 
BRANCH  14  16
HETATM   16  N   UNL     1      -9.905  12.220  68.112  1.00  0.00    -0.207 N  
HETATM   17  H   UNL     1      -8.997  12.621  68.347  1.00  0.00     0.000 HD 
HETATM   18  C   UNL     1     -10.943  13.093  67.824  1.00  0.00    -0.251 C  
HETATM   19  O   UNL     1     -12.090  12.761  67.543  1.00  0.00    -0.359 OA 
BRANCH  18  20
HETATM   20  C   UNL     1     -10.629  14.550  67.857  1.00  0.00    -0.243 A  
HETATM   21  C   UNL     1     -10.851  15.344  68.986  1.00  0.00    -0.244 A  
HETATM   22  C   UNL     1     -10.528  16.700  68.999  1.00  0.00    -0.328 A  
HETATM   23  F   UNL     1     -11.383  14.822  70.104  1.00  0.00    -0.256 F  
HETATM   24  C   UNL     1      -9.977  17.275  67.865  1.00  0.00    -0.297 A  
HETATM   25  C   UNL     1      -9.748  16.524  66.725  1.00  0.00    -0.268 A  
HETATM   26  F   UNL     1      -9.660  18.577  67.873  1.00  0.00    -0.276 F  
HETATM   27  C   UNL     1     -10.076  15.168  66.726  1.00  0.00    -0.258 A  
HETATM   28  F   UNL     1      -9.839  14.490  65.594  1.00  0.00    -0.314 F  
ENDBRANCH  18  20
ENDBRANCH  14  16
ENDBRANCH   8  10
ENDBRANCH   5   8
TORSDOF 4
ENDMDL
MODEL      102
REMARK 921   NORMALIZED FREE ENERGY PREDICTED BY IDOCK:   -5.47 KCAL/MOL
REMARK 922        TOTAL FREE ENERGY PREDICTED BY IDOCK:   -7.10 KCAL/MOL
REMARK 923 INTER-LIGAND FREE ENERGY PREDICTED BY IDOCK:   -6.63 KCAL/MOL
REMARK 924 INTRA-LIGAND FREE ENERGY PREDICTED BY IDOCK:   -0.47 KCAL/MOL
REMARK 927      BINDING AFFINITY PREDICTED BY RF-SCORE:    0.00 PKD
ROOT
HETATM    1  C   UNL     1      -6.907   3.773  70.058  1.00  0.00    -0.034 C  
HETATM    2  N   UNL     1      -7.853   4.145  71.105  1.00  0.00    -0.069 NA 
HETATM    3  C   UNL     1      -7.864   5.593  71.358  1.00  0.00    -0.111 C  
HETATM    4  C   UNL     1      -8.610   6.421  70.302  1.00  0.00    -0.135 C  
HETATM    5  C   UNL     1     -10.031   5.891  70.041  1.00  0.00    -0.239 C  
HETATM    6  C   UNL     1      -9.942   4.391  69.739  1.00  0.00    -0.224 C  
HETATM    7  C   UNL     1      -9.202   3.636  70.841  1.00  0.00    -0.129 C  
ENDROOT
BRANCH   5   8
HETATM    8  C   UNL     1     -10.977   6.240  71.204  1.00  0.00    -0.280 C  
HETATM    9  O   UNL     1     -11.223   5.454  72.120  1.00  0.00    -0.217 OA 
BRANCH   8  10
HETATM   10  C   UNL     1     -11.573   7.606  71.269  1.00  0.00    -0.278 A  
HETATM   11  C   UNL     1     -12.299   8.008  72.379  1.00  0.00    -0.299 A  
HETATM   12  C   UNL     1     -12.828   9.295  72.383  1.00  0.00    -0.418 A  
HETATM   13  C   UNL     1     -12.619  10.122  71.279  1.00  0.00    -0.508 A  
HETATM   14  C   UNL     1     -11.879   9.637  70.205  1.00  0.00    -0.099 A  
HETATM   15  N   UNL     1     -11.353   8.406  70.209  1.00  0.00    -0.190 NA 
BRANCH  14  16
HETATM   16  N   UNL     1     -11.688  10.472  69.094  1.00  0.00    -0.471 N  
HETATM   17  H   UNL     1     -12.512  10.754  68.563  1.00  0.00     0.000 HD 
HETATM   18  C   UNL     1     -10.453  10.939  68.671  1.00  0.00    -0.194 C  
HETATM   19  O   UNL     1      -9.378  10.672  69.196  1.00  0.00    -0.196 OA 
BRANCH  18  20
HETATM   20  C   UNL     1     -10.443  11.842  67.485  1.00  0.00    -0.233 A  
HETATM   21  C   UNL     1     -10.478  11.362  66.172  1.00  0.00    -0.255 A  
HETATM   22  C   UNL     1     -10.489  12.228  65.080  1.00  0.00    -0.322 A  
HETATM   23  F   UNL     1     -10.503  10.044  65.919  1.00  0.00    -0.306 F  
HETATM   24  C   UNL     1     -10.463  13.596  65.300  1.00  0.00    -0.351 A  
HETATM   25  C   UNL     1     -10.423  14.110  66.585  1.00  0.00    -0.278 A  
HETATM   26  F   UNL     1     -10.480  14.434  64.254  1.00  0.00    -0.339 F  
HETATM   27  C   UNL     1     -10.412  13.232  67.669  1.00  0.00    -0.229 A  
HETATM   28  F   UNL     1     -10.366  13.783  68.890  1.00  0.00    -0.230 F  
ENDBRANCH  18  20
ENDBRANCH  14  16
ENDBRANCH   8  10
ENDBRANCH   5   8
TORSDOF 4
ENDMDL
MODEL      103
REMARK 921   NORMALIZED FREE ENERGY PREDICTED BY IDOCK:   -5.47 KCAL/MOL
REMARK 922        TOTAL FREE ENERGY PREDICTED BY IDOCK:   -7.10 KCAL/MOL
REMARK 923 INTER-LIGAND FREE ENERGY PREDICTED BY IDOCK:   -6.28 KCAL/MOL
REMARK 924 INTRA-LIGAND FREE ENERGY PREDICTED BY IDOCK:   -0.82 KCAL/MOL
REMARK 927      BINDING AFFINITY PREDICTED BY RF-SCORE:    0.00 PKD
ROOT
HETATM    1  C   UNL     1      -7.786   9.224  63.241  1.00  0.00    -0.116 C  
HETATM    2  N   UNL     1      -7.600  10.191  64.319  1.00  0.00    -0.140 NA 
HETATM    3  C   UNL     1      -8.818  10.966  64.591  1.00  0.00    -0.085 C  
HETATM    4  C   UNL     1      -9.899  10.206  65.373  1.00  0.00    -0.375 C  
HETATM    5  C   UNL     1      -9.348   9.567  66.660  1.00  0.00    -0.207 C  
HETATM    6  C   UNL     1      -8.109   8.739  66.300  1.00  0.00    -0.107 C  
HETATM    7  C   UNL     1      -7.077   9.568  65.539  1.00  0.00    -0.090 C  
ENDROOT
BRANCH   5   8
HETATM    8  C   UNL     1      -9.095  10.631  67.744  1.00  0.00    -0.143 C  
HETATM    9  O   UNL     1      -8.173  10.546  68.557  1.00  0.00    -0.111 OA 
BRANCH   8  10
HETATM   10  C   UNL     1      -9.954  11.850  67.777  1.00  0.00    -0.186 A  
HETATM   11  C   UNL     1     -11.257  11.784  68.246  1.00  0.00    -0.313 A  
HETATM   12  C   UNL     1     -12.008  12.955  68.256  1.00  0.00    -0.297 A  
HETATM   13  C   UNL     1     -11.433  14.138  67.791  1.00  0.00    -0.352 A  
HETATM   14  C   UNL     1     -10.119  14.115  67.335  1.00  0.00    -0.240 A  
HETATM   15  N   UNL     1      -9.388  12.993  67.344  1.00  0.00    -0.201 NA 
BRANCH  14  16
HETATM   16  N   UNL     1      -9.556  15.307  66.856  1.00  0.00    -0.225 N  
HETATM   17  H   UNL     1      -9.595  15.483  65.852  1.00  0.00     0.000 HD 
HETATM   18  C   UNL     1      -8.951  16.263  67.657  1.00  0.00    -0.192 C  
HETATM   19  O   UNL     1      -8.814  16.184  68.873  1.00  0.00    -0.222 OA 
BRANCH  18  20
HETATM   20  C   UNL     1      -8.433  17.484  66.977  1.00  0.00    -0.252 A  
HETATM   21  C   UNL     1      -9.177  18.664  66.875  1.00  0.00    -0.304 A  
HETATM   22  C   UNL     1      -8.662  19.799  66.253  1.00  0.00    -0.403 A  
HETATM   23  F   UNL     1     -10.420  18.742  67.379  1.00  0.00    -0.365 F  
HETATM   24  C   UNL     1      -7.383  19.758  65.721  1.00  0.00    -0.315 A  
HETATM   25  C   UNL     1      -6.617  18.607  65.795  1.00  0.00    -0.304 A  
HETATM   26  F   UNL     1      -6.880  20.848  65.126  1.00  0.00    -0.252 F  
HETATM   27  C   UNL     1      -7.145  17.478  66.421  1.00  0.00    -0.286 A  
HETATM   28  F   UNL     1      -6.364  16.390  66.460  1.00  0.00    -0.193 F  
ENDBRANCH  18  20
ENDBRANCH  14  16
ENDBRANCH   8  10
ENDBRANCH   5   8
TORSDOF 4
ENDMDL
MODEL      104
REMARK 921   NORMALIZED FREE ENERGY PREDICTED BY IDOCK:   -5.45 KCAL/MOL
REMARK 922        TOTAL FREE ENERGY PREDICTED BY IDOCK:   -7.07 KCAL/MOL
REMARK 923 INTER-LIGAND FREE ENERGY PREDICTED BY IDOCK:   -6.23 KCAL/MOL
REMARK 924 INTRA-LIGAND FREE ENERGY PREDICTED BY IDOCK:   -0.84 KCAL/MOL
REMARK 927      BINDING AFFINITY PREDICTED BY RF-SCORE:    0.00 PKD
ROOT
HETATM    1  C   UNL     1      -8.340   6.944  74.563  1.00  0.00    -0.160 C  
HETATM    2  N   UNL     1      -8.442   6.203  73.309  1.00  0.00    -0.117 NA 
HETATM    3  C   UNL     1      -9.796   5.683  73.076  1.00  0.00    -0.167 C  
HETATM    4  C   UNL     1     -10.814   6.734  72.610  1.00  0.00    -0.282 C  
HETATM    5  C   UNL     1     -10.311   7.538  71.399  1.00  0.00    -0.209 C  
HETATM    6  C   UNL     1      -8.918   8.088  71.725  1.00  0.00    -0.194 C  
HETATM    7  C   UNL     1      -7.962   6.982  72.163  1.00  0.00    -0.093 C  
ENDROOT
BRANCH   5   8
HETATM    8  C   UNL     1     -10.364   6.694  70.112  1.00  0.00    -0.203 C  
HETATM    9  O   UNL     1     -10.969   5.624  70.042  1.00  0.00    -0.328 OA 
BRANCH   8  10
HETATM   10  C   UNL     1      -9.714   7.217  68.875  1.00  0.00    -0.148 A  
HETATM   11  C   UNL     1      -8.561   6.628  68.379  1.00  0.00    -0.124 A  
HETATM   12  C   UNL     1      -8.004   7.158  67.220  1.00  0.00    -0.111 A  
HETATM   13  C   UNL     1      -8.610   8.257  66.611  1.00  0.00    -0.135 A  
HETATM   14  C   UNL     1      -9.765   8.789  67.178  1.00  0.00    -0.191 A  
HETATM   15  N   UNL     1     -10.314   8.266  68.282  1.00  0.00    -0.207 NA 
BRANCH  14  16
HETATM   16  N   UNL     1     -10.358   9.903  66.566  1.00  0.00    -0.214 N  
HETATM   17  H   UNL     1     -11.216   9.755  66.035  1.00  0.00     0.000 HD 
HETATM   18  C   UNL     1      -9.853  11.192  66.635  1.00  0.00    -0.199 C  
HETATM   19  O   UNL     1      -8.825  11.520  67.218  1.00  0.00    -0.153 OA 
BRANCH  18  20
HETATM   20  C   UNL     1     -10.633  12.260  65.946  1.00  0.00    -0.290 A  
HETATM   21  C   UNL     1     -11.576  13.051  66.609  1.00  0.00    -0.359 A  
HETATM   22  C   UNL     1     -12.277  14.058  65.947  1.00  0.00    -0.481 A  
HETATM   23  F   UNL     1     -11.838  12.868  67.913  1.00  0.00    -0.337 F  
HETATM   24  C   UNL     1     -12.035  14.278  64.600  1.00  0.00    -0.455 A  
HETATM   25  C   UNL     1     -11.114  13.512  63.907  1.00  0.00    -0.091 A  
HETATM   26  F   UNL     1     -12.701  15.248  63.959  1.00  0.00    -0.420 F  
HETATM   27  C   UNL     1     -10.419  12.508  64.582  1.00  0.00    -0.319 A  
HETATM   28  F   UNL     1      -9.543  11.793  63.862  1.00  0.00    -0.246 F  
ENDBRANCH  18  20
ENDBRANCH  14  16
ENDBRANCH   8  10
ENDBRANCH   5   8
TORSDOF 4
ENDMDL
MODEL      105
REMARK 921   NORMALIZED FREE ENERGY PREDICTED BY IDOCK:   -5.44 KCAL/MOL
REMARK 922        TOTAL FREE ENERGY PREDICTED BY IDOCK:   -7.07 KCAL/MOL
REMARK 923 INTER-LIGAND FREE ENERGY PREDICTED BY IDOCK:   -6.69 KCAL/MOL
REMARK 924 INTRA-LIGAND FREE ENERGY PREDICTED BY IDOCK:   -0.37 KCAL/MOL
REMARK 927      BINDING AFFINITY PREDICTED BY RF-SCORE:    0.00 PKD
ROOT
HETATM    1  C   UNL     1      -8.581   5.848  65.339  1.00  0.00    -0.137 C  
HETATM    2  N   UNL     1      -8.238   6.735  66.446  1.00  0.00    -0.112 NA 
HETATM    3  C   UNL     1      -9.271   7.751  66.690  1.00  0.00    -0.177 C  
HETATM    4  C   UNL     1     -10.522   7.229  67.412  1.00  0.00    -0.359 C  
HETATM    5  C   UNL     1     -10.177   6.467  68.703  1.00  0.00    -0.192 C  
HETATM    6  C   UNL     1      -9.131   5.397  68.370  1.00  0.00    -0.119 C  
HETATM    7  C   UNL     1      -7.914   5.995  67.670  1.00  0.00    -0.102 C  
ENDROOT
BRANCH   5   8
HETATM    8  C   UNL     1      -9.747   7.434  69.821  1.00  0.00    -0.170 C  
HETATM    9  O   UNL     1      -8.684   7.314  70.432  1.00  0.00    -0.143 OA 
BRANCH   8  10
HETATM   10  C   UNL     1     -10.615   8.605  70.140  1.00  0.00    -0.225 A  
HETATM   11  C   UNL     1     -11.421   8.601  71.268  1.00  0.00    -0.341 A  
HETATM   12  C   UNL     1     -12.206   9.724  71.514  1.00  0.00    -0.493 A  
HETATM   13  C   UNL     1     -12.161  10.796  70.623  1.00  0.00    -0.474 A  
HETATM   14  C   UNL     1     -11.325  10.716  69.514  1.00  0.00    -0.277 A  
HETATM   15  N   UNL     1     -10.554   9.645  69.287  1.00  0.00    -0.213 NA 
BRANCH  14  16
HETATM   16  N   UNL     1     -11.300  11.794  68.617  1.00  0.00    -0.244 N  
HETATM   17  H   UNL     1     -12.175  12.059  68.165  1.00  0.00     0.000 HD 
HETATM   18  C   UNL     1     -10.163  12.523  68.304  1.00  0.00    -0.234 C  
HETATM   19  O   UNL     1      -9.041  12.312  68.751  1.00  0.00    -0.030 OA 
BRANCH  18  20
HETATM   20  C   UNL     1     -10.329  13.656  67.349  1.00  0.00    -0.244 A  
HETATM   21  C   UNL     1     -10.577  14.966  67.770  1.00  0.00    -0.262 A  
HETATM   22  C   UNL     1     -10.708  16.012  66.859  1.00  0.00    -0.262 A  
HETATM   23  F   UNL     1     -10.698  15.262  69.075  1.00  0.00    -0.214 F  
HETATM   24  C   UNL     1     -10.590  15.748  65.504  1.00  0.00    -0.406 A  
HETATM   25  C   UNL     1     -10.351  14.463  65.047  1.00  0.00    -0.449 A  
HETATM   26  F   UNL     1     -10.709  16.750  64.622  1.00  0.00    -0.273 F  
HETATM   27  C   UNL     1     -10.222  13.425  65.970  1.00  0.00    -0.300 A  
HETATM   28  F   UNL     1      -9.997  12.201  65.473  1.00  0.00    -0.244 F  
ENDBRANCH  18  20
ENDBRANCH  14  16
ENDBRANCH   8  10
ENDBRANCH   5   8
TORSDOF 4
ENDMDL
MODEL      106
REMARK 921   NORMALIZED FREE ENERGY PREDICTED BY IDOCK:   -5.44 KCAL/MOL
REMARK 922        TOTAL FREE ENERGY PREDICTED BY IDOCK:   -7.06 KCAL/MOL
REMARK 923 INTER-LIGAND FREE ENERGY PREDICTED BY IDOCK:   -6.40 KCAL/MOL
REMARK 924 INTRA-LIGAND FREE ENERGY PREDICTED BY IDOCK:   -0.66 KCAL/MOL
REMARK 927      BINDING AFFINITY PREDICTED BY RF-SCORE:    0.00 PKD
ROOT
HETATM    1  C   UNL     1     -10.056  15.549  69.243  1.00  0.00    -0.256 C  
HETATM    2  N   UNL     1     -10.634  14.255  68.897  1.00  0.00    -0.246 NA 
HETATM    3  C   UNL     1     -11.929  14.386  68.214  1.00  0.00    -0.288 C  
HETATM    4  C   UNL     1     -11.835  14.808  66.740  1.00  0.00    -0.272 C  
HETATM    5  C   UNL     1     -10.870  13.918  65.938  1.00  0.00    -0.287 C  
HETATM    6  C   UNL     1      -9.530  13.861  66.680  1.00  0.00    -0.296 C  
HETATM    7  C   UNL     1      -9.705  13.418  68.130  1.00  0.00    -0.226 C  
ENDROOT
BRANCH   5   8
HETATM    8  C   UNL     1     -11.490  12.536  65.661  1.00  0.00    -0.359 C  
HETATM    9  O   UNL     1     -12.703  12.365  65.529  1.00  0.00    -0.530 OA 
BRANCH   8  10
HETATM   10  C   UNL     1     -10.590  11.361  65.478  1.00  0.00    -0.271 A  
HETATM   11  C   UNL     1     -10.018  11.094  64.243  1.00  0.00    -0.359 A  
HETATM   12  C   UNL     1      -9.184   9.985  64.136  1.00  0.00    -0.319 A  
HETATM   13  C   UNL     1      -8.964   9.185  65.258  1.00  0.00    -0.246 A  
HETATM   14  C   UNL     1      -9.580   9.525  66.458  1.00  0.00    -0.201 A  
HETATM   15  N   UNL     1     -10.366  10.603  66.568  1.00  0.00    -0.240 NA 
BRANCH  14  16
HETATM   16  N   UNL     1      -9.363   8.705  67.576  1.00  0.00    -0.135 N  
HETATM   17  H   UNL     1      -8.742   9.050  68.307  1.00  0.00     0.000 HD 
HETATM   18  C   UNL     1      -9.938   7.456  67.751  1.00  0.00    -0.167 C  
HETATM   19  O   UNL     1     -10.688   6.903  66.953  1.00  0.00    -0.318 OA 
BRANCH  18  20
HETATM   20  C   UNL     1      -9.616   6.736  69.016  1.00  0.00    -0.135 A  
HETATM   21  C   UNL     1      -8.364   6.165  69.261  1.00  0.00    -0.116 A  
HETATM   22  C   UNL     1      -8.081   5.515  70.462  1.00  0.00    -0.104 A  
HETATM   23  F   UNL     1      -7.385   6.224  68.343  1.00  0.00    -0.077 F  
HETATM   24  C   UNL     1      -9.065   5.432  71.434  1.00  0.00    -0.145 A  
HETATM   25  C   UNL     1     -10.319   5.980  71.227  1.00  0.00    -0.266 A  
HETATM   26  F   UNL     1      -8.797   4.815  72.593  1.00  0.00    -0.112 F  
HETATM   27  C   UNL     1     -10.589   6.627  70.021  1.00  0.00    -0.224 A  
HETATM   28  F   UNL     1     -11.820   7.134  69.871  1.00  0.00    -0.206 F  
ENDBRANCH  18  20
ENDBRANCH  14  16
ENDBRANCH   8  10
ENDBRANCH   5   8
TORSDOF 4
ENDMDL
MODEL      107
REMARK 921   NORMALIZED FREE ENERGY PREDICTED BY IDOCK:   -5.42 KCAL/MOL
REMARK 922        TOTAL FREE ENERGY PREDICTED BY IDOCK:   -7.04 KCAL/MOL
REMARK 923 INTER-LIGAND FREE ENERGY PREDICTED BY IDOCK:   -6.90 KCAL/MOL
REMARK 924 INTRA-LIGAND FREE ENERGY PREDICTED BY IDOCK:   -0.15 KCAL/MOL
REMARK 927      BINDING AFFINITY PREDICTED BY RF-SCORE:    0.00 PKD
ROOT
HETATM    1  C   UNL     1      -9.662  20.714  67.290  1.00  0.00    -0.422 C  
HETATM    2  N   UNL     1      -9.295  19.634  66.378  1.00  0.00    -0.371 NA 
HETATM    3  C   UNL     1      -8.175  18.830  66.887  1.00  0.00    -0.265 C  
HETATM    4  C   UNL     1      -8.550  17.844  68.003  1.00  0.00    -0.256 C  
HETATM    5  C   UNL     1      -9.745  16.954  67.619  1.00  0.00    -0.249 C  
HETATM    6  C   UNL     1     -10.889  17.856  67.142  1.00  0.00    -0.149 C  
HETATM    7  C   UNL     1     -10.442  18.793  66.023  1.00  0.00    -0.432 C  
ENDROOT
BRANCH   5   8
HETATM    8  C   UNL     1      -9.331  15.878  66.599  1.00  0.00    -0.249 C  
HETATM    9  O   UNL     1      -8.244  15.894  66.020  1.00  0.00    -0.119 OA 
BRANCH   8  10
HETATM   10  C   UNL     1     -10.248  14.730  66.343  1.00  0.00    -0.291 A  
HETATM   11  C   UNL     1     -11.587  14.946  66.052  1.00  0.00    -0.226 A  
HETATM   12  C   UNL     1     -12.392  13.836  65.820  1.00  0.00    -0.523 A  
HETATM   13  C   UNL     1     -11.834  12.560  65.896  1.00  0.00    -0.489 A  
HETATM   14  C   UNL     1     -10.481  12.433  66.197  1.00  0.00    -0.248 A  
HETATM   15  N   UNL     1      -9.700  13.502  66.400  1.00  0.00    -0.288 NA 
BRANCH  14  16
HETATM   16  N   UNL     1      -9.934  11.145  66.286  1.00  0.00    -0.212 N  
HETATM   17  H   UNL     1      -9.609  10.827  67.199  1.00  0.00     0.000 HD 
HETATM   18  C   UNL     1      -9.806  10.275  65.214  1.00  0.00    -0.306 C  
HETATM   19  O   UNL     1     -10.134  10.521  64.059  1.00  0.00    -0.334 OA 
BRANCH  18  20
HETATM   20  C   UNL     1      -9.226   8.931  65.501  1.00  0.00    -0.242 A  
HETATM   21  C   UNL     1      -9.819   8.028  66.389  1.00  0.00    -0.167 A  
HETATM   22  C   UNL     1      -9.270   6.769  66.625  1.00  0.00    -0.184 A  
HETATM   23  F   UNL     1     -10.946   8.346  67.048  1.00  0.00    -0.345 F  
HETATM   24  C   UNL     1      -8.107   6.405  65.964  1.00  0.00    -0.120 A  
HETATM   25  C   UNL     1      -7.486   7.273  65.082  1.00  0.00    -0.087 A  
HETATM   26  F   UNL     1      -7.576   5.194  66.181  1.00  0.00    -0.082 F  
HETATM   27  C   UNL     1      -8.048   8.530  64.856  1.00  0.00    -0.145 A  
HETATM   28  F   UNL     1      -7.403   9.332  63.997  1.00  0.00    -0.097 F  
ENDBRANCH  18  20
ENDBRANCH  14  16
ENDBRANCH   8  10
ENDBRANCH   5   8
TORSDOF 4
ENDMDL
MODEL      108
REMARK 921   NORMALIZED FREE ENERGY PREDICTED BY IDOCK:   -5.42 KCAL/MOL
REMARK 922        TOTAL FREE ENERGY PREDICTED BY IDOCK:   -7.04 KCAL/MOL
REMARK 923 INTER-LIGAND FREE ENERGY PREDICTED BY IDOCK:   -6.60 KCAL/MOL
REMARK 924 INTRA-LIGAND FREE ENERGY PREDICTED BY IDOCK:   -0.44 KCAL/MOL
REMARK 927      BINDING AFFINITY PREDICTED BY RF-SCORE:    0.00 PKD
ROOT
HETATM    1  C   UNL     1     -11.340  15.385  64.767  1.00  0.00    -0.376 C  
HETATM    2  N   UNL     1     -11.695  13.983  64.958  1.00  0.00    -0.347 NA 
HETATM    3  C   UNL     1     -10.514  13.126  65.131  1.00  0.00    -0.324 C  
HETATM    4  C   UNL     1      -9.858  13.213  66.517  1.00  0.00    -0.265 C  
HETATM    5  C   UNL     1     -10.870  13.003  67.657  1.00  0.00    -0.256 C  
HETATM    6  C   UNL     1     -12.051  13.956  67.440  1.00  0.00    -0.380 C  
HETATM    7  C   UNL     1     -12.658  13.797  66.048  1.00  0.00    -0.408 C  
ENDROOT
BRANCH   5   8
HETATM    8  C   UNL     1     -11.275  11.522  67.773  1.00  0.00    -0.279 C  
HETATM    9  O   UNL     1     -11.344  10.772  66.798  1.00  0.00    -0.248 OA 
BRANCH   8  10
HETATM   10  C   UNL     1     -11.534  10.945  69.124  1.00  0.00    -0.303 A  
HETATM   11  C   UNL     1     -12.393  11.577  70.011  1.00  0.00    -0.287 A  
HETATM   12  C   UNL     1     -12.596  10.989  71.255  1.00  0.00    -0.517 A  
HETATM   13  C   UNL     1     -11.929   9.804  71.567  1.00  0.00    -0.488 A  
HETATM   14  C   UNL     1     -11.082   9.238  70.619  1.00  0.00    -0.276 A  
HETATM   15  N   UNL     1     -10.902   9.792  69.414  1.00  0.00    -0.231 NA 
BRANCH  14  16
HETATM   16  N   UNL     1     -10.405   8.055  70.950  1.00  0.00    -0.199 N  
HETATM   17  H   UNL     1     -10.719   7.188  70.514  1.00  0.00     0.000 HD 
HETATM   18  C   UNL     1      -9.337   7.987  71.830  1.00  0.00    -0.167 C  
HETATM   19  O   UNL     1      -8.861   8.938  72.442  1.00  0.00    -0.396 OA 
BRANCH  18  20
HETATM   20  C   UNL     1      -8.719   6.646  72.041  1.00  0.00    -0.127 A  
HETATM   21  C   UNL     1      -9.213   5.727  72.972  1.00  0.00    -0.140 A  
HETATM   22  C   UNL     1      -8.631   4.471  73.135  1.00  0.00    -0.101 A  
HETATM   23  F   UNL     1     -10.271   6.025  73.743  1.00  0.00    -0.176 F  
HETATM   24  C   UNL     1      -7.537   4.126  72.357  1.00  0.00    -0.073 A  
HETATM   25  C   UNL     1      -7.015   5.010  71.429  1.00  0.00    -0.049 A  
HETATM   26  F   UNL     1      -6.977   2.918  72.504  1.00  0.00    -0.027 F  
HETATM   27  C   UNL     1      -7.608   6.264  71.276  1.00  0.00    -0.094 A  
HETATM   28  F   UNL     1      -7.059   7.083  70.368  1.00  0.00    -0.060 F  
ENDBRANCH  18  20
ENDBRANCH  14  16
ENDBRANCH   8  10
ENDBRANCH   5   8
TORSDOF 4
ENDMDL
MODEL      109
REMARK 921   NORMALIZED FREE ENERGY PREDICTED BY IDOCK:   -5.40 KCAL/MOL
REMARK 922        TOTAL FREE ENERGY PREDICTED BY IDOCK:   -7.02 KCAL/MOL
REMARK 923 INTER-LIGAND FREE ENERGY PREDICTED BY IDOCK:   -6.63 KCAL/MOL
REMARK 924 INTRA-LIGAND FREE ENERGY PREDICTED BY IDOCK:   -0.39 KCAL/MOL
REMARK 927      BINDING AFFINITY PREDICTED BY RF-SCORE:    0.00 PKD
ROOT
HETATM    1  C   UNL     1     -11.482  15.729  71.154  1.00  0.00    -0.414 C  
HETATM    2  N   UNL     1     -12.060  15.584  69.822  1.00  0.00    -0.364 NA 
HETATM    3  C   UNL     1     -11.406  16.451  68.832  1.00  0.00    -0.272 C  
HETATM    4  C   UNL     1     -10.031  15.958  68.358  1.00  0.00    -0.222 C  
HETATM    5  C   UNL     1     -10.068  14.497  67.878  1.00  0.00    -0.227 C  
HETATM    6  C   UNL     1     -10.718  13.643  68.973  1.00  0.00    -0.194 C  
HETATM    7  C   UNL     1     -12.085  14.187  69.377  1.00  0.00    -0.328 C  
ENDROOT
BRANCH   5   8
HETATM    8  C   UNL     1     -10.753  14.380  66.505  1.00  0.00    -0.306 C  
HETATM    9  O   UNL     1     -11.425  15.290  66.017  1.00  0.00    -0.239 OA 
BRANCH   8  10
HETATM   10  C   UNL     1     -10.547  13.144  65.695  1.00  0.00    -0.277 A  
HETATM   11  C   UNL     1     -10.313  13.224  64.331  1.00  0.00    -0.372 A  
HETATM   12  C   UNL     1     -10.126  12.037  63.630  1.00  0.00    -0.439 A  
HETATM   13  C   UNL     1     -10.188  10.823  64.314  1.00  0.00    -0.422 A  
HETATM   14  C   UNL     1     -10.430  10.834  65.684  1.00  0.00    -0.186 A  
HETATM   15  N   UNL     1     -10.590  11.976  66.364  1.00  0.00    -0.235 NA 
BRANCH  14  16
HETATM   16  N   UNL     1     -10.506   9.606  66.359  1.00  0.00    -0.164 N  
HETATM   17  H   UNL     1     -11.318   9.015  66.184  1.00  0.00     0.000 HD 
HETATM   18  C   UNL     1      -9.549   9.145  67.250  1.00  0.00    -0.154 C  
HETATM   19  O   UNL     1      -8.532   9.749  67.574  1.00  0.00    -0.121 OA 
BRANCH  18  20
HETATM   20  C   UNL     1      -9.781   7.801  67.854  1.00  0.00    -0.181 A  
HETATM   21  C   UNL     1      -9.507   6.611  67.172  1.00  0.00    -0.136 A  
HETATM   22  C   UNL     1      -9.712   5.367  67.766  1.00  0.00    -0.160 A  
HETATM   23  F   UNL     1      -9.032   6.628  65.916  1.00  0.00    -0.157 F  
HETATM   24  C   UNL     1     -10.202   5.309  69.062  1.00  0.00    -0.199 A  
HETATM   25  C   UNL     1     -10.492   6.464  69.767  1.00  0.00    -0.266 A  
HETATM   26  F   UNL     1     -10.397   4.116  69.641  1.00  0.00    -0.186 F  
HETATM   27  C   UNL     1     -10.281   7.703  69.160  1.00  0.00    -0.203 A  
HETATM   28  F   UNL     1     -10.584   8.788  69.885  1.00  0.00    -0.206 F  
ENDBRANCH  18  20
ENDBRANCH  14  16
ENDBRANCH   8  10
ENDBRANCH   5   8
TORSDOF 4
ENDMDL
MODEL      110
REMARK 921   NORMALIZED FREE ENERGY PREDICTED BY IDOCK:   -5.37 KCAL/MOL
REMARK 922        TOTAL FREE ENERGY PREDICTED BY IDOCK:   -6.98 KCAL/MOL
REMARK 923 INTER-LIGAND FREE ENERGY PREDICTED BY IDOCK:   -6.99 KCAL/MOL
REMARK 924 INTRA-LIGAND FREE ENERGY PREDICTED BY IDOCK:    0.01 KCAL/MOL
REMARK 927      BINDING AFFINITY PREDICTED BY RF-SCORE:    0.00 PKD
ROOT
HETATM    1  C   UNL     1     -11.489  11.887  64.410  1.00  0.00    -0.320 C  
HETATM    2  N   UNL     1     -10.669  12.361  65.521  1.00  0.00    -0.272 NA 
HETATM    3  C   UNL     1     -11.330  12.180  66.821  1.00  0.00    -0.342 C  
HETATM    4  C   UNL     1     -11.321  10.738  67.348  1.00  0.00    -0.239 C  
HETATM    5  C   UNL     1      -9.910  10.126  67.352  1.00  0.00    -0.225 C  
HETATM    6  C   UNL     1      -9.297  10.308  65.959  1.00  0.00    -0.224 C  
HETATM    7  C   UNL     1      -9.328  11.767  65.514  1.00  0.00    -0.118 C  
ENDROOT
BRANCH   5   8
HETATM    8  C   UNL     1      -9.055  10.710  68.492  1.00  0.00    -0.159 C  
HETATM    9  O   UNL     1      -9.155  10.331  69.660  1.00  0.00    -0.196 OA 
BRANCH   8  10
HETATM   10  C   UNL     1      -8.014  11.728  68.168  1.00  0.00    -0.146 A  
HETATM   11  C   UNL     1      -6.702  11.348  67.932  1.00  0.00    -0.064 A  
HETATM   12  C   UNL     1      -5.778  12.344  67.632  1.00  0.00    -0.124 A  
HETATM   13  C   UNL     1      -6.196  13.674  67.590  1.00  0.00    -0.129 A  
HETATM   14  C   UNL     1      -7.532  13.967  67.843  1.00  0.00    -0.149 A  
HETATM   15  N   UNL     1      -8.427  13.009  68.111  1.00  0.00    -0.171 NA 
BRANCH  14  16
HETATM   16  N   UNL     1      -7.939  15.310  67.813  1.00  0.00    -0.136 N  
HETATM   17  H   UNL     1      -7.641  15.916  68.577  1.00  0.00     0.000 HD 
HETATM   18  C   UNL     1      -8.719  15.867  66.812  1.00  0.00    -0.269 C  
HETATM   19  O   UNL     1      -9.166  15.263  65.843  1.00  0.00    -0.315 OA 
BRANCH  18  20
HETATM   20  C   UNL     1      -9.031  17.321  66.929  1.00  0.00    -0.256 A  
HETATM   21  C   UNL     1      -8.203  18.314  66.398  1.00  0.00    -0.251 A  
HETATM   22  C   UNL     1      -8.527  19.666  66.503  1.00  0.00    -0.374 A  
HETATM   23  F   UNL     1      -7.062  17.998  65.765  1.00  0.00    -0.297 F  
HETATM   24  C   UNL     1      -9.696  20.033  67.150  1.00  0.00    -0.411 A  
HETATM   25  C   UNL     1     -10.539  19.079  67.694  1.00  0.00    -0.526 A  
HETATM   26  F   UNL     1     -10.017  21.330  67.249  1.00  0.00    -0.560 F  
HETATM   27  C   UNL     1     -10.202  17.730  67.582  1.00  0.00    -0.358 A  
HETATM   28  F   UNL     1     -11.050  16.850  68.132  1.00  0.00    -0.357 F  
ENDBRANCH  18  20
ENDBRANCH  14  16
ENDBRANCH   8  10
ENDBRANCH   5   8
TORSDOF 4
ENDMDL
MODEL      111
REMARK 921   NORMALIZED FREE ENERGY PREDICTED BY IDOCK:   -5.37 KCAL/MOL
REMARK 922        TOTAL FREE ENERGY PREDICTED BY IDOCK:   -6.98 KCAL/MOL
REMARK 923 INTER-LIGAND FREE ENERGY PREDICTED BY IDOCK:   -6.50 KCAL/MOL
REMARK 924 INTRA-LIGAND FREE ENERGY PREDICTED BY IDOCK:   -0.48 KCAL/MOL
REMARK 927      BINDING AFFINITY PREDICTED BY RF-SCORE:    0.00 PKD
ROOT
HETATM    1  C   UNL     1      -6.884  19.703  69.128  1.00  0.00    -0.348 C  
HETATM    2  N   UNL     1      -7.106  18.878  67.945  1.00  0.00    -0.231 NA 
HETATM    3  C   UNL     1      -6.799  17.461  68.185  1.00  0.00    -0.184 C  
HETATM    4  C   UNL     1      -7.865  16.704  68.990  1.00  0.00    -0.215 C  
HETATM    5  C   UNL     1      -9.275  16.874  68.400  1.00  0.00    -0.253 C  
HETATM    6  C   UNL     1      -9.547  18.372  68.217  1.00  0.00    -0.355 C  
HETATM    7  C   UNL     1      -8.454  19.049  67.394  1.00  0.00    -0.277 C  
ENDROOT
BRANCH   5   8
HETATM    8  C   UNL     1      -9.441  16.048  67.112  1.00  0.00    -0.216 C  
HETATM    9  O   UNL     1      -8.899  16.355  66.049  1.00  0.00    -0.373 OA 
BRANCH   8  10
HETATM   10  C   UNL     1     -10.236  14.786  67.157  1.00  0.00    -0.245 A  
HETATM   11  C   UNL     1     -11.368  14.635  66.371  1.00  0.00    -0.348 A  
HETATM   12  C   UNL     1     -12.066  13.434  66.455  1.00  0.00    -0.464 A  
HETATM   13  C   UNL     1     -11.614  12.441  67.323  1.00  0.00    -0.435 A  
HETATM   14  C   UNL     1     -10.469  12.677  68.079  1.00  0.00    -0.224 A  
HETATM   15  N   UNL     1      -9.785  13.824  67.984  1.00  0.00    -0.225 NA 
BRANCH  14  16
HETATM   16  N   UNL     1     -10.032  11.677  68.960  1.00  0.00    -0.413 N  
HETATM   17  H   UNL     1     -10.268  11.776  69.948  1.00  0.00     0.000 HD 
HETATM   18  C   UNL     1      -9.301  10.563  68.577  1.00  0.00    -0.168 C  
HETATM   19  O   UNL     1      -8.930  10.319  67.434  1.00  0.00    -0.134 OA 
BRANCH  18  20
HETATM   20  C   UNL     1      -8.947   9.588  69.647  1.00  0.00    -0.198 A  
HETATM   21  C   UNL     1      -7.781   9.697  70.411  1.00  0.00    -0.160 A  
HETATM   22  C   UNL     1      -7.482   8.784  71.421  1.00  0.00    -0.126 A  
HETATM   23  F   UNL     1      -6.905  10.693  70.197  1.00  0.00    -0.132 F  
HETATM   24  C   UNL     1      -8.361   7.742  71.672  1.00  0.00    -0.110 A  
HETATM   25  C   UNL     1      -9.522   7.595  70.933  1.00  0.00    -0.166 A  
HETATM   26  F   UNL     1      -8.083   6.864  72.645  1.00  0.00    -0.103 F  
HETATM   27  C   UNL     1      -9.809   8.517  69.926  1.00  0.00    -0.186 A  
HETATM   28  F   UNL     1     -10.943   8.325  69.238  1.00  0.00    -0.207 F  
ENDBRANCH  18  20
ENDBRANCH  14  16
ENDBRANCH   8  10
ENDBRANCH   5   8
TORSDOF 4
ENDMDL
MODEL      112
REMARK 921   NORMALIZED FREE ENERGY PREDICTED BY IDOCK:   -5.30 KCAL/MOL
REMARK 922        TOTAL FREE ENERGY PREDICTED BY IDOCK:   -6.89 KCAL/MOL
REMARK 923 INTER-LIGAND FREE ENERGY PREDICTED BY IDOCK:   -6.52 KCAL/MOL
REMARK 924 INTRA-LIGAND FREE ENERGY PREDICTED BY IDOCK:   -0.38 KCAL/MOL
REMARK 927      BINDING AFFINITY PREDICTED BY RF-SCORE:    0.00 PKD
ROOT
HETATM    1  C   UNL     1      -8.559  18.724  66.516  1.00  0.00    -0.305 C  
HETATM    2  N   UNL     1      -9.853  18.073  66.335  1.00  0.00    -0.352 NA 
HETATM    3  C   UNL     1      -9.743  16.809  65.593  1.00  0.00    -0.010 C  
HETATM    4  C   UNL     1      -9.194  15.632  66.412  1.00  0.00    -0.346 C  
HETATM    5  C   UNL     1      -9.955  15.435  67.734  1.00  0.00    -0.225 C  
HETATM    6  C   UNL     1      -9.993  16.776  68.477  1.00  0.00    -0.271 C  
HETATM    7  C   UNL     1     -10.565  17.890  67.603  1.00  0.00    -0.387 C  
ENDROOT
BRANCH   5   8
HETATM    8  C   UNL     1     -11.344  14.817  67.490  1.00  0.00    -0.344 C  
HETATM    9  O   UNL     1     -12.308  15.035  68.224  1.00  0.00    -0.043 OA 
BRANCH   8  10
HETATM   10  C   UNL     1     -11.557  13.970  66.280  1.00  0.00    -0.369 A  
HETATM   11  C   UNL     1     -12.215  14.476  65.170  1.00  0.00    -0.346 A  
HETATM   12  C   UNL     1     -12.381  13.639  64.071  1.00  0.00    -0.382 A  
HETATM   13  C   UNL     1     -11.894  12.333  64.128  1.00  0.00    -0.502 A  
HETATM   14  C   UNL     1     -11.247  11.905  65.283  1.00  0.00    -0.295 A  
HETATM   15  N   UNL     1     -11.069  12.716  66.334  1.00  0.00    -0.276 NA 
BRANCH  14  16
HETATM   16  N   UNL     1     -10.775  10.585  65.335  1.00  0.00    -0.069 N  
HETATM   17  H   UNL     1     -11.430   9.836  65.113  1.00  0.00     0.000 HD 
HETATM   18  C   UNL     1      -9.476  10.233  65.668  1.00  0.00    -0.221 C  
HETATM   19  O   UNL     1      -8.586  11.019  65.974  1.00  0.00    -0.171 OA 
BRANCH  18  20
HETATM   20  C   UNL     1      -9.143   8.780  65.643  1.00  0.00    -0.247 A  
HETATM   21  C   UNL     1      -8.210   8.236  64.756  1.00  0.00    -0.144 A  
HETATM   22  C   UNL     1      -7.900   6.877  64.767  1.00  0.00    -0.119 A  
HETATM   23  F   UNL     1      -7.576   9.009  63.859  1.00  0.00    -0.103 F  
HETATM   24  C   UNL     1      -8.534   6.046  65.677  1.00  0.00    -0.151 A  
HETATM   25  C   UNL     1      -9.469   6.546  66.568  1.00  0.00    -0.190 A  
HETATM   26  F   UNL     1      -8.237   4.740  65.697  1.00  0.00    -0.106 F  
HETATM   27  C   UNL     1      -9.769   7.908  66.546  1.00  0.00    -0.209 A  
HETATM   28  F   UNL     1     -10.685   8.337  67.425  1.00  0.00    -0.331 F  
ENDBRANCH  18  20
ENDBRANCH  14  16
ENDBRANCH   8  10
ENDBRANCH   5   8
TORSDOF 4
ENDMDL
MODEL      113
REMARK 921   NORMALIZED FREE ENERGY PREDICTED BY IDOCK:   -5.28 KCAL/MOL
REMARK 922        TOTAL FREE ENERGY PREDICTED BY IDOCK:   -6.87 KCAL/MOL
REMARK 923 INTER-LIGAND FREE ENERGY PREDICTED BY IDOCK:   -7.65 KCAL/MOL
REMARK 924 INTRA-LIGAND FREE ENERGY PREDICTED BY IDOCK:    0.78 KCAL/MOL
REMARK 927      BINDING AFFINITY PREDICTED BY RF-SCORE:    0.00 PKD
ROOT
HETATM    1  C   UNL     1      -7.247  11.049  66.747  1.00  0.00    -0.139 C  
HETATM    2  N   UNL     1      -8.611  11.037  67.265  1.00  0.00    -0.129 NA 
HETATM    3  C   UNL     1      -8.964  12.292  67.942  1.00  0.00    -0.186 C  
HETATM    4  C   UNL     1      -9.266  13.465  66.998  1.00  0.00    -0.242 C  
HETATM    5  C   UNL     1     -10.309  13.099  65.927  1.00  0.00    -0.295 C  
HETATM    6  C   UNL     1      -9.858  11.810  65.231  1.00  0.00    -0.267 C  
HETATM    7  C   UNL     1      -9.594  10.689  66.233  1.00  0.00    -0.185 C  
ENDROOT
BRANCH   5   8
HETATM    8  C   UNL     1     -11.722  13.022  66.532  1.00  0.00    -0.382 C  
HETATM    9  O   UNL     1     -12.743  13.026  65.842  1.00  0.00    -0.439 OA 
BRANCH   8  10
HETATM   10  C   UNL     1     -11.872  12.868  68.008  1.00  0.00    -0.343 A  
HETATM   11  C   UNL     1     -12.138  13.968  68.810  1.00  0.00    -0.338 A  
HETATM   12  C   UNL     1     -12.270  13.761  70.179  1.00  0.00    -0.425 A  
HETATM   13  C   UNL     1     -12.123  12.472  70.693  1.00  0.00    -0.312 A  
HETATM   14  C   UNL     1     -11.854  11.425  69.816  1.00  0.00    -0.364 A  
HETATM   15  N   UNL     1     -11.747  11.620  68.496  1.00  0.00    -0.344 NA 
BRANCH  14  16
HETATM   16  N   UNL     1     -11.693  10.136  70.345  1.00  0.00    -0.289 N  
HETATM   17  H   UNL     1     -10.963   9.545  69.948  1.00  0.00     0.000 HD 
HETATM   18  C   UNL     1     -12.461   9.612  71.373  1.00  0.00    -0.373 C  
HETATM   19  O   UNL     1     -13.383  10.193  71.936  1.00  0.00    -0.416 OA 
BRANCH  18  20
HETATM   20  C   UNL     1     -12.129   8.231  71.828  1.00  0.00    -0.364 A  
HETATM   21  C   UNL     1     -10.899   7.904  72.406  1.00  0.00    -0.317 A  
HETATM   22  C   UNL     1     -10.620   6.610  72.843  1.00  0.00    -0.272 A  
HETATM   23  F   UNL     1      -9.940   8.831  72.563  1.00  0.00    -0.353 F  
HETATM   24  C   UNL     1     -11.584   5.625  72.699  1.00  0.00    -0.251 A  
HETATM   25  C   UNL     1     -12.812   5.908  72.125  1.00  0.00     0.532 A  
HETATM   26  F   UNL     1     -11.325   4.380  73.122  1.00  0.00    -0.301 F  
HETATM   27  C   UNL     1     -13.077   7.207  71.692  1.00  0.00    -0.361 A  
HETATM   28  F   UNL     1     -14.279   7.424  71.139  1.00  0.00    -0.495 F  
ENDBRANCH  18  20
ENDBRANCH  14  16
ENDBRANCH   8  10
ENDBRANCH   5   8
TORSDOF 4
ENDMDL
MODEL      114
REMARK 921   NORMALIZED FREE ENERGY PREDICTED BY IDOCK:   -5.28 KCAL/MOL
REMARK 922        TOTAL FREE ENERGY PREDICTED BY IDOCK:   -6.87 KCAL/MOL
REMARK 923 INTER-LIGAND FREE ENERGY PREDICTED BY IDOCK:   -6.21 KCAL/MOL
REMARK 924 INTRA-LIGAND FREE ENERGY PREDICTED BY IDOCK:   -0.66 KCAL/MOL
REMARK 927      BINDING AFFINITY PREDICTED BY RF-SCORE:    0.00 PKD
ROOT
HETATM    1  C   UNL     1      -9.979  19.675  68.608  1.00  0.00    -0.458 C  
HETATM    2  N   UNL     1      -9.250  18.415  68.720  1.00  0.00    -0.292 NA 
HETATM    3  C   UNL     1     -10.149  17.261  68.860  1.00  0.00    -0.331 C  
HETATM    4  C   UNL     1     -10.833  16.822  67.557  1.00  0.00    -0.216 C  
HETATM    5  C   UNL     1      -9.827  16.608  66.412  1.00  0.00    -0.308 C  
HETATM    6  C   UNL     1      -8.955  17.863  66.292  1.00  0.00    -0.192 C  
HETATM    7  C   UNL     1      -8.298  18.224  67.622  1.00  0.00    -0.247 C  
ENDROOT
BRANCH   5   8
HETATM    8  C   UNL     1      -9.028  15.308  66.611  1.00  0.00    -0.291 C  
HETATM    9  O   UNL     1      -7.848  15.299  66.966  1.00  0.00    -0.210 OA 
BRANCH   8  10
HETATM   10  C   UNL     1      -9.718  13.998  66.431  1.00  0.00    -0.296 A  
HETATM   11  C   UNL     1     -10.759  13.865  65.525  1.00  0.00    -0.306 A  
HETATM   12  C   UNL     1     -11.362  12.617  65.400  1.00  0.00    -0.348 A  
HETATM   13  C   UNL     1     -10.910  11.559  66.188  1.00  0.00    -0.330 A  
HETATM   14  C   UNL     1      -9.861  11.780  67.075  1.00  0.00    -0.197 A  
HETATM   15  N   UNL     1      -9.266  12.975  67.182  1.00  0.00    -0.218 NA 
BRANCH  14  16
HETATM   16  N   UNL     1      -9.424  10.713  67.874  1.00  0.00    -0.157 N  
HETATM   17  H   UNL     1      -8.683  10.115  67.508  1.00  0.00     0.000 HD 
HETATM   18  C   UNL     1      -9.936  10.416  69.128  1.00  0.00    -0.223 C  
HETATM   19  O   UNL     1     -10.838  11.030  69.688  1.00  0.00    -0.240 OA 
BRANCH  18  20
HETATM   20  C   UNL     1      -9.331   9.259  69.847  1.00  0.00    -0.214 A  
HETATM   21  C   UNL     1      -9.996   8.040  70.008  1.00  0.00    -0.191 A  
HETATM   22  C   UNL     1      -9.401   6.965  70.666  1.00  0.00    -0.162 A  
HETATM   23  F   UNL     1     -11.239   7.862  69.530  1.00  0.00    -0.179 F  
HETATM   24  C   UNL     1      -8.119   7.109  71.175  1.00  0.00    -0.104 A  
HETATM   25  C   UNL     1      -7.430   8.302  71.041  1.00  0.00    -0.068 A  
HETATM   26  F   UNL     1      -7.539   6.078  71.803  1.00  0.00    -0.088 F  
HETATM   27  C   UNL     1      -8.038   9.369  70.380  1.00  0.00    -0.175 A  
HETATM   28  F   UNL     1      -7.328  10.502  70.284  1.00  0.00    -0.164 F  
ENDBRANCH  18  20
ENDBRANCH  14  16
ENDBRANCH   8  10
ENDBRANCH   5   8
TORSDOF 4
ENDMDL
MODEL      115
REMARK 921   NORMALIZED FREE ENERGY PREDICTED BY IDOCK:   -5.26 KCAL/MOL
REMARK 922        TOTAL FREE ENERGY PREDICTED BY IDOCK:   -6.84 KCAL/MOL
REMARK 923 INTER-LIGAND FREE ENERGY PREDICTED BY IDOCK:   -6.82 KCAL/MOL
REMARK 924 INTRA-LIGAND FREE ENERGY PREDICTED BY IDOCK:   -0.03 KCAL/MOL
REMARK 927      BINDING AFFINITY PREDICTED BY RF-SCORE:    0.00 PKD
ROOT
HETATM    1  C   UNL     1      -7.620   9.099  63.282  1.00  0.00    -0.107 C  
HETATM    2  N   UNL     1      -7.699  10.031  64.402  1.00  0.00    -0.143 NA 
HETATM    3  C   UNL     1      -8.571  11.178  64.114  1.00  0.00     0.273 C  
HETATM    4  C   UNL     1     -10.074  10.872  64.183  1.00  0.00    -0.416 C  
HETATM    5  C   UNL     1     -10.471  10.188  65.503  1.00  0.00    -0.076 C  
HETATM    6  C   UNL     1      -9.555   8.979  65.719  1.00  0.00    -0.287 C  
HETATM    7  C   UNL     1      -8.080   9.367  65.652  1.00  0.00    -0.112 C  
ENDROOT
BRANCH   5   8
HETATM    8  C   UNL     1     -10.467  11.191  66.671  1.00  0.00    -0.250 C  
HETATM    9  O   UNL     1     -10.065  10.899  67.798  1.00  0.00    -0.172 OA 
BRANCH   8  10
HETATM   10  C   UNL     1     -10.903  12.596  66.422  1.00  0.00    -0.269 A  
HETATM   11  C   UNL     1     -12.095  12.860  65.765  1.00  0.00    -0.513 A  
HETATM   12  C   UNL     1     -12.450  14.191  65.565  1.00  0.00    -0.495 A  
HETATM   13  C   UNL     1     -11.599  15.199  66.017  1.00  0.00    -0.080 A  
HETATM   14  C   UNL     1     -10.420  14.846  66.665  1.00  0.00    -0.292 A  
HETATM   15  N   UNL     1     -10.087  13.566  66.877  1.00  0.00    -0.251 NA 
BRANCH  14  16
HETATM   16  N   UNL     1      -9.565  15.868  67.103  1.00  0.00    -0.216 N  
HETATM   17  H   UNL     1      -8.923  15.658  67.867  1.00  0.00     0.000 HD 
HETATM   18  C   UNL     1      -9.537  17.146  66.565  1.00  0.00    -0.279 C  
HETATM   19  O   UNL     1     -10.259  17.549  65.660  1.00  0.00    -0.595 OA 
BRANCH  18  20
HETATM   20  C   UNL     1      -8.541  18.097  67.138  1.00  0.00    -0.250 A  
HETATM   21  C   UNL     1      -7.314  18.364  66.522  1.00  0.00    -0.234 A  
HETATM   22  C   UNL     1      -6.409  19.273  67.066  1.00  0.00    -0.189 A  
HETATM   23  F   UNL     1      -6.966  17.751  65.379  1.00  0.00    -0.265 F  
HETATM   24  C   UNL     1      -6.732  19.927  68.245  1.00  0.00    -0.288 A  
HETATM   25  C   UNL     1      -7.934  19.685  68.888  1.00  0.00    -0.285 A  
HETATM   26  F   UNL     1      -5.868  20.807  68.770  1.00  0.00    -0.308 F  
HETATM   27  C   UNL     1      -8.830  18.771  68.332  1.00  0.00    -0.342 A  
HETATM   28  F   UNL     1      -9.976  18.571  68.998  1.00  0.00    -0.375 F  
ENDBRANCH  18  20
ENDBRANCH  14  16
ENDBRANCH   8  10
ENDBRANCH   5   8
TORSDOF 4
ENDMDL
MODEL      116
REMARK 921   NORMALIZED FREE ENERGY PREDICTED BY IDOCK:   -5.19 KCAL/MOL
REMARK 922        TOTAL FREE ENERGY PREDICTED BY IDOCK:   -6.76 KCAL/MOL
REMARK 923 INTER-LIGAND FREE ENERGY PREDICTED BY IDOCK:   -6.15 KCAL/MOL
REMARK 924 INTRA-LIGAND FREE ENERGY PREDICTED BY IDOCK:   -0.61 KCAL/MOL
REMARK 927      BINDING AFFINITY PREDICTED BY RF-SCORE:    0.00 PKD
ROOT
HETATM    1  C   UNL     1      -7.813  20.335  67.336  1.00  0.00    -0.326 C  
HETATM    2  N   UNL     1      -7.886  19.159  68.197  1.00  0.00    -0.289 NA 
HETATM    3  C   UNL     1      -8.997  19.235  69.155  1.00  0.00    -0.137 C  
HETATM    4  C   UNL     1     -10.381  18.956  68.552  1.00  0.00    -0.312 C  
HETATM    5  C   UNL     1     -10.420  17.638  67.761  1.00  0.00    -0.379 C  
HETATM    6  C   UNL     1      -9.266  17.643  66.752  1.00  0.00    -0.281 C  
HETATM    7  C   UNL     1      -7.924  17.910  67.429  1.00  0.00    -0.213 C  
ENDROOT
BRANCH   5   8
HETATM    8  C   UNL     1     -10.418  16.422  68.706  1.00  0.00    -0.300 C  
HETATM    9  O   UNL     1     -10.189  16.518  69.912  1.00  0.00    -0.149 OA 
BRANCH   8  10
HETATM   10  C   UNL     1     -10.770  15.080  68.160  1.00  0.00    -0.256 A  
HETATM   11  C   UNL     1     -11.605  14.960  67.059  1.00  0.00    -0.314 A  
HETATM   12  C   UNL     1     -11.894  13.681  66.595  1.00  0.00    -0.447 A  
HETATM   13  C   UNL     1     -11.350  12.577  67.251  1.00  0.00    -0.373 A  
HETATM   14  C   UNL     1     -10.523  12.787  68.350  1.00  0.00    -0.243 A  
HETATM   15  N   UNL     1     -10.227  14.018  68.786  1.00  0.00    -0.224 NA 
BRANCH  14  16
HETATM   16  N   UNL     1      -9.993  11.669  69.011  1.00  0.00    -0.413 N  
HETATM   17  H   UNL     1     -10.356  11.446  69.938  1.00  0.00     0.000 HD 
HETATM   18  C   UNL     1      -9.008  10.846  68.487  1.00  0.00    -0.157 C  
HETATM   19  O   UNL     1      -8.465  10.997  67.398  1.00  0.00    -0.129 OA 
BRANCH  18  20
HETATM   20  C   UNL     1      -8.585   9.684  69.320  1.00  0.00    -0.153 A  
HETATM   21  C   UNL     1      -9.253   8.456  69.295  1.00  0.00    -0.154 A  
HETATM   22  C   UNL     1      -8.825   7.378  70.068  1.00  0.00    -0.141 A  
HETATM   23  F   UNL     1     -10.334   8.273  68.520  1.00  0.00    -0.205 F  
HETATM   24  C   UNL     1      -7.713   7.528  70.881  1.00  0.00    -0.090 A  
HETATM   25  C   UNL     1      -7.028   8.730  70.939  1.00  0.00    -0.072 A  
HETATM   26  F   UNL     1      -7.293   6.493  71.622  1.00  0.00    -0.080 F  
HETATM   27  C   UNL     1      -7.468   9.800  70.160  1.00  0.00    -0.164 A  
HETATM   28  F   UNL     1      -6.772  10.942  70.258  1.00  0.00    -0.151 F  
ENDBRANCH  18  20
ENDBRANCH  14  16
ENDBRANCH   8  10
ENDBRANCH   5   8
TORSDOF 4
ENDMDL
MODEL      117
REMARK 921   NORMALIZED FREE ENERGY PREDICTED BY IDOCK:   -5.14 KCAL/MOL
REMARK 922        TOTAL FREE ENERGY PREDICTED BY IDOCK:   -6.69 KCAL/MOL
REMARK 923 INTER-LIGAND FREE ENERGY PREDICTED BY IDOCK:   -6.12 KCAL/MOL
REMARK 924 INTRA-LIGAND FREE ENERGY PREDICTED BY IDOCK:   -0.58 KCAL/MOL
REMARK 927      BINDING AFFINITY PREDICTED BY RF-SCORE:    0.00 PKD
ROOT
HETATM    1  C   UNL     1     -11.415  15.208  64.784  1.00  0.00    -0.383 C  
HETATM    2  N   UNL     1     -11.826  14.929  66.157  1.00  0.00    -0.191 NA 
HETATM    3  C   UNL     1     -12.523  13.641  66.281  1.00  0.00    -0.366 C  
HETATM    4  C   UNL     1     -11.607  12.410  66.238  1.00  0.00    -0.449 C  
HETATM    5  C   UNL     1     -10.445  12.512  67.242  1.00  0.00    -0.232 C  
HETATM    6  C   UNL     1      -9.734  13.853  67.028  1.00  0.00    -0.250 C  
HETATM    7  C   UNL     1     -10.709  15.027  67.101  1.00  0.00    -0.303 C  
ENDROOT
BRANCH   5   8
HETATM    8  C   UNL     1     -10.935  12.287  68.683  1.00  0.00    -0.239 C  
HETATM    9  O   UNL     1     -11.366  13.199  69.390  1.00  0.00    -0.258 OA 
BRANCH   8  10
HETATM   10  C   UNL     1     -10.955  10.901  69.234  1.00  0.00    -0.244 A  
HETATM   11  C   UNL     1     -11.638  10.616  70.407  1.00  0.00    -0.441 A  
HETATM   12  C   UNL     1     -11.624   9.303  70.869  1.00  0.00    -0.364 A  
HETATM   13  C   UNL     1     -10.922   8.335  70.151  1.00  0.00    -0.222 A  
HETATM   14  C   UNL     1     -10.262   8.708  68.984  1.00  0.00    -0.207 A  
HETATM   15  N   UNL     1     -10.292   9.966  68.527  1.00  0.00    -0.187 NA 
BRANCH  14  16
HETATM   16  N   UNL     1      -9.547   7.728  68.278  1.00  0.00    -0.153 N  
HETATM   17  H   UNL     1      -8.552   7.628  68.477  1.00  0.00     0.000 HD 
HETATM   18  C   UNL     1     -10.106   6.888  67.328  1.00  0.00    -0.198 C  
HETATM   19  O   UNL     1     -11.279   6.902  66.971  1.00  0.00    -0.369 OA 
BRANCH  18  20
HETATM   20  C   UNL     1      -9.200   5.885  66.698  1.00  0.00    -0.147 A  
HETATM   21  C   UNL     1      -8.434   6.170  65.563  1.00  0.00    -0.149 A  
HETATM   22  C   UNL     1      -7.578   5.222  65.004  1.00  0.00    -0.082 A  
HETATM   23  F   UNL     1      -8.497   7.374  64.970  1.00  0.00    -0.137 F  
HETATM   24  C   UNL     1      -7.485   3.968  65.587  1.00  0.00    -0.081 A  
HETATM   25  C   UNL     1      -8.232   3.646  66.707  1.00  0.00    -0.096 A  
HETATM   26  F   UNL     1      -6.660   3.054  65.059  1.00  0.00    -0.034 F  
HETATM   27  C   UNL     1      -9.084   4.604  67.256  1.00  0.00    -0.123 A  
HETATM   28  F   UNL     1      -9.787   4.237  68.336  1.00  0.00    -0.212 F  
ENDBRANCH  18  20
ENDBRANCH  14  16
ENDBRANCH   8  10
ENDBRANCH   5   8
TORSDOF 4
ENDMDL
MODEL      118
REMARK 921   NORMALIZED FREE ENERGY PREDICTED BY IDOCK:   -5.12 KCAL/MOL
REMARK 922        TOTAL FREE ENERGY PREDICTED BY IDOCK:   -6.68 KCAL/MOL
REMARK 923 INTER-LIGAND FREE ENERGY PREDICTED BY IDOCK:   -6.13 KCAL/MOL
REMARK 924 INTRA-LIGAND FREE ENERGY PREDICTED BY IDOCK:   -0.54 KCAL/MOL
REMARK 927      BINDING AFFINITY PREDICTED BY RF-SCORE:    0.00 PKD
ROOT
HETATM    1  C   UNL     1      -8.113  17.247  66.386  1.00  0.00    -0.293 C  
HETATM    2  N   UNL     1      -9.306  16.990  67.186  1.00  0.00    -0.232 NA 
HETATM    3  C   UNL     1     -10.379  16.361  66.404  1.00  0.00    -0.313 C  
HETATM    4  C   UNL     1     -10.171  14.866  66.121  1.00  0.00    -0.314 C  
HETATM    5  C   UNL     1      -9.873  14.065  67.400  1.00  0.00    -0.240 C  
HETATM    6  C   UNL     1      -8.719  14.748  68.142  1.00  0.00    -0.168 C  
HETATM    7  C   UNL     1      -9.007  16.224  68.400  1.00  0.00    -0.203 C  
ENDROOT
BRANCH   5   8
HETATM    8  C   UNL     1     -11.143  13.883  68.251  1.00  0.00    -0.258 C  
HETATM    9  O   UNL     1     -12.016  14.748  68.335  1.00  0.00    -0.303 OA 
BRANCH   8  10
HETATM   10  C   UNL     1     -11.366  12.587  68.953  1.00  0.00    -0.297 A  
HETATM   11  C   UNL     1     -11.908  12.558  70.229  1.00  0.00    -0.305 A  
HETATM   12  C   UNL     1     -12.095  11.317  70.831  1.00  0.00    -0.406 A  
HETATM   13  C   UNL     1     -11.726  10.162  70.143  1.00  0.00    -0.330 A  
HETATM   14  C   UNL     1     -11.186  10.282  68.867  1.00  0.00    -0.207 A  
HETATM   15  N   UNL     1     -11.024  11.473  68.277  1.00  0.00    -0.207 NA 
BRANCH  14  16
HETATM   16  N   UNL     1     -10.804   9.114  68.190  1.00  0.00    -0.464 N  
HETATM   17  H   UNL     1     -11.484   8.680  67.565  1.00  0.00     0.000 HD 
HETATM   18  C   UNL     1      -9.562   8.509  68.315  1.00  0.00    -0.144 C  
HETATM   19  O   UNL     1      -8.653   8.902  69.038  1.00  0.00    -0.134 OA 
BRANCH  18  20
HETATM   20  C   UNL     1      -9.321   7.287  67.496  1.00  0.00    -0.144 A  
HETATM   21  C   UNL     1     -10.002   6.086  67.716  1.00  0.00    -0.131 A  
HETATM   22  C   UNL     1      -9.775   4.962  66.924  1.00  0.00    -0.193 A  
HETATM   23  F   UNL     1     -10.906   5.974  68.704  1.00  0.00    -0.261 F  
HETATM   24  C   UNL     1      -8.849   5.037  65.894  1.00  0.00    -0.134 A  
HETATM   25  C   UNL     1      -8.150   6.207  65.648  1.00  0.00    -0.128 A  
HETATM   26  F   UNL     1      -8.630   3.963  65.124  1.00  0.00    -0.109 F  
HETATM   27  C   UNL     1      -8.388   7.323  66.450  1.00  0.00    -0.124 A  
HETATM   28  F   UNL     1      -7.680   8.427  66.172  1.00  0.00    -0.089 F  
ENDBRANCH  18  20
ENDBRANCH  14  16
ENDBRANCH   8  10
ENDBRANCH   5   8
TORSDOF 4
ENDMDL
MODEL      119
REMARK 921   NORMALIZED FREE ENERGY PREDICTED BY IDOCK:   -5.11 KCAL/MOL
REMARK 922        TOTAL FREE ENERGY PREDICTED BY IDOCK:   -6.65 KCAL/MOL
REMARK 923 INTER-LIGAND FREE ENERGY PREDICTED BY IDOCK:   -6.18 KCAL/MOL
REMARK 924 INTRA-LIGAND FREE ENERGY PREDICTED BY IDOCK:   -0.47 KCAL/MOL
REMARK 927      BINDING AFFINITY PREDICTED BY RF-SCORE:    0.00 PKD
ROOT
HETATM    1  C   UNL     1     -11.438  15.858  69.587  1.00  0.00    -0.346 C  
HETATM    2  N   UNL     1     -11.935  15.057  68.473  1.00  0.00    -0.272 NA 
HETATM    3  C   UNL     1     -11.044  15.109  67.306  1.00  0.00    -0.332 C  
HETATM    4  C   UNL     1      -9.773  14.257  67.433  1.00  0.00    -0.235 C  
HETATM    5  C   UNL     1     -10.081  12.803  67.833  1.00  0.00    -0.231 C  
HETATM    6  C   UNL     1     -10.974  12.821  69.079  1.00  0.00    -0.241 C  
HETATM    7  C   UNL     1     -12.222  13.674  68.868  1.00  0.00    -0.186 C  
ENDROOT
BRANCH   5   8
HETATM    8  C   UNL     1     -10.675  12.016  66.650  1.00  0.00    -0.245 C  
HETATM    9  O   UNL     1     -11.531  12.487  65.900  1.00  0.00    -0.334 OA 
BRANCH   8  10
HETATM   10  C   UNL     1     -10.151  10.652  66.352  1.00  0.00    -0.225 A  
HETATM   11  C   UNL     1      -9.736  10.318  65.072  1.00  0.00    -0.370 A  
HETATM   12  C   UNL     1      -9.254   9.031  64.856  1.00  0.00    -0.056 A  
HETATM   13  C   UNL     1      -9.214   8.129  65.920  1.00  0.00    -0.158 A  
HETATM   14  C   UNL     1      -9.652   8.547  67.173  1.00  0.00    -0.178 A  
HETATM   15  N   UNL     1     -10.098   9.791  67.386  1.00  0.00    -0.194 NA 
BRANCH  14  16
HETATM   16  N   UNL     1      -9.622   7.627  68.232  1.00  0.00    -0.152 N  
HETATM   17  H   UNL     1      -8.868   7.709  68.913  1.00  0.00     0.000 HD 
HETATM   18  C   UNL     1     -10.551   6.614  68.412  1.00  0.00    -0.242 C  
HETATM   19  O   UNL     1     -11.498   6.380  67.669  1.00  0.00    -0.142 OA 
BRANCH  18  20
HETATM   20  C   UNL     1     -10.378   5.746  69.613  1.00  0.00    -0.330 A  
HETATM   21  C   UNL     1      -9.656   4.549  69.580  1.00  0.00    -0.199 A  
HETATM   22  C   UNL     1      -9.491   3.766  70.721  1.00  0.00    -0.236 A  
HETATM   23  F   UNL     1      -9.092   4.113  68.442  1.00  0.00    -0.121 F  
HETATM   24  C   UNL     1     -10.057   4.183  71.915  1.00  0.00    -0.154 A  
HETATM   25  C   UNL     1     -10.785   5.358  71.987  1.00  0.00    -0.281 A  
HETATM   26  F   UNL     1      -9.897   3.438  73.017  1.00  0.00    -0.144 F  
HETATM   27  C   UNL     1     -10.942   6.132  70.837  1.00  0.00    -0.297 A  
HETATM   28  F   UNL     1     -11.660   7.257  70.962  1.00  0.00    -0.280 F  
ENDBRANCH  18  20
ENDBRANCH  14  16
ENDBRANCH   8  10
ENDBRANCH   5   8
TORSDOF 4
ENDMDL
MODEL      120
REMARK 921   NORMALIZED FREE ENERGY PREDICTED BY IDOCK:   -5.10 KCAL/MOL
REMARK 922        TOTAL FREE ENERGY PREDICTED BY IDOCK:   -6.64 KCAL/MOL
REMARK 923 INTER-LIGAND FREE ENERGY PREDICTED BY IDOCK:   -5.82 KCAL/MOL
REMARK 924 INTRA-LIGAND FREE ENERGY PREDICTED BY IDOCK:   -0.83 KCAL/MOL
REMARK 927      BINDING AFFINITY PREDICTED BY RF-SCORE:    0.00 PKD
ROOT
HETATM    1  C   UNL     1      -5.351  16.623  68.144  1.00  0.00    -0.118 C  
HETATM    2  N   UNL     1      -6.631  15.963  68.377  1.00  0.00    -0.113 NA 
HETATM    3  C   UNL     1      -7.581  16.822  69.098  1.00  0.00    -0.181 C  
HETATM    4  C   UNL     1      -8.230  17.918  68.240  1.00  0.00    -0.292 C  
HETATM    5  C   UNL     1      -8.856  17.356  66.951  1.00  0.00    -0.259 C  
HETATM    6  C   UNL     1      -7.803  16.510  66.228  1.00  0.00    -0.266 C  
HETATM    7  C   UNL     1      -7.217  15.436  67.141  1.00  0.00    -0.144 C  
ENDROOT
BRANCH   5   8
HETATM    8  C   UNL     1     -10.164  16.603  67.252  1.00  0.00    -0.290 C  
HETATM    9  O   UNL     1     -10.922  16.923  68.169  1.00  0.00    -0.365 OA 
BRANCH   8  10
HETATM   10  C   UNL     1     -10.574  15.477  66.362  1.00  0.00    -0.311 A  
HETATM   11  C   UNL     1     -11.136  15.727  65.120  1.00  0.00    -0.332 A  
HETATM   12  C   UNL     1     -11.495  14.636  64.334  1.00  0.00    -0.272 A  
HETATM   13  C   UNL     1     -11.287  13.346  64.821  1.00  0.00    -0.356 A  
HETATM   14  C   UNL     1     -10.718  13.186  66.081  1.00  0.00    -0.278 A  
HETATM   15  N   UNL     1     -10.354  14.234  66.830  1.00  0.00    -0.267 NA 
BRANCH  14  16
HETATM   16  N   UNL     1     -10.528  11.884  66.567  1.00  0.00    -0.216 N  
HETATM   17  H   UNL     1     -11.349  11.366  66.880  1.00  0.00     0.000 HD 
HETATM   18  C   UNL     1      -9.296  11.254  66.651  1.00  0.00    -0.180 C  
HETATM   19  O   UNL     1      -8.222  11.753  66.331  1.00  0.00    -0.122 OA 
BRANCH  18  20
HETATM   20  C   UNL     1      -9.286   9.855  67.168  1.00  0.00    -0.170 A  
HETATM   21  C   UNL     1      -9.055   8.749  66.344  1.00  0.00    -0.177 A  
HETATM   22  C   UNL     1      -9.030   7.452  66.855  1.00  0.00    -0.150 A  
HETATM   23  F   UNL     1      -8.845   8.900  65.026  1.00  0.00    -0.192 F  
HETATM   24  C   UNL     1      -9.242   7.255  68.211  1.00  0.00    -0.133 A  
HETATM   25  C   UNL     1      -9.481   8.324  69.058  1.00  0.00    -0.155 A  
HETATM   26  F   UNL     1      -9.213   6.012  68.709  1.00  0.00    -0.123 F  
HETATM   27  C   UNL     1      -9.503   9.616  68.532  1.00  0.00    -0.141 A  
HETATM   28  F   UNL     1      -9.744  10.613  69.395  1.00  0.00    -0.215 F  
ENDBRANCH  18  20
ENDBRANCH  14  16
ENDBRANCH   8  10
ENDBRANCH   5   8
TORSDOF 4
ENDMDL
MODEL      121
REMARK 921   NORMALIZED FREE ENERGY PREDICTED BY IDOCK:   -5.08 KCAL/MOL
REMARK 922        TOTAL FREE ENERGY PREDICTED BY IDOCK:   -6.62 KCAL/MOL
REMARK 923 INTER-LIGAND FREE ENERGY PREDICTED BY IDOCK:   -6.43 KCAL/MOL
REMARK 924 INTRA-LIGAND FREE ENERGY PREDICTED BY IDOCK:   -0.19 KCAL/MOL
REMARK 927      BINDING AFFINITY PREDICTED BY RF-SCORE:    0.00 PKD
ROOT
HETATM    1  C   UNL     1      -9.943   5.164  68.113  1.00  0.00    -0.145 C  
HETATM    2  N   UNL     1      -9.512   5.857  66.904  1.00  0.00    -0.130 NA 
HETATM    3  C   UNL     1     -10.357   7.019  66.595  1.00  0.00    -0.144 C  
HETATM    4  C   UNL     1     -10.094   8.253  67.471  1.00  0.00    -0.287 C  
HETATM    5  C   UNL     1      -8.605   8.640  67.502  1.00  0.00    -0.135 C  
HETATM    6  C   UNL     1      -7.787   7.398  67.874  1.00  0.00    -0.118 C  
HETATM    7  C   UNL     1      -8.093   6.223  66.949  1.00  0.00    -0.109 C  
ENDROOT
BRANCH   5   8
HETATM    8  C   UNL     1      -8.175   9.299  66.179  1.00  0.00    -0.111 C  
HETATM    9  O   UNL     1      -7.206   8.909  65.526  1.00  0.00    -0.083 OA 
BRANCH   8  10
HETATM   10  C   UNL     1      -8.997  10.412  65.622  1.00  0.00    -0.176 A  
HETATM   11  C   UNL     1      -9.833  10.200  64.537  1.00  0.00    -0.334 A  
HETATM   12  C   UNL     1     -10.577  11.277  64.065  1.00  0.00    -0.450 A  
HETATM   13  C   UNL     1     -10.450  12.519  64.687  1.00  0.00    -0.344 A  
HETATM   14  C   UNL     1      -9.586  12.645  65.770  1.00  0.00    -0.110 A  
HETATM   15  N   UNL     1      -8.884  11.605  66.238  1.00  0.00    -0.188 NA 
BRANCH  14  16
HETATM   16  N   UNL     1      -9.455  13.902  66.378  1.00  0.00    -0.385 N  
HETATM   17  H   UNL     1      -8.513  14.256  66.543  1.00  0.00     0.000 HD 
HETATM   18  C   UNL     1     -10.522  14.696  66.769  1.00  0.00    -0.277 C  
HETATM   19  O   UNL     1     -11.706  14.398  66.652  1.00  0.00    -0.371 OA 
BRANCH  18  20
HETATM   20  C   UNL     1     -10.195  16.018  67.374  1.00  0.00    -0.273 A  
HETATM   21  C   UNL     1      -9.312  16.923  66.777  1.00  0.00    -0.251 A  
HETATM   22  C   UNL     1      -9.038  18.162  67.352  1.00  0.00    -0.253 A  
HETATM   23  F   UNL     1      -8.696  16.626  65.620  1.00  0.00    -0.261 F  
HETATM   24  C   UNL     1      -9.653  18.505  68.545  1.00  0.00    -0.358 A  
HETATM   25  C   UNL     1     -10.529  17.634  69.172  1.00  0.00    -0.128 A  
HETATM   26  F   UNL     1      -9.399  19.697  69.101  1.00  0.00    -0.411 F  
HETATM   27  C   UNL     1     -10.794  16.397  68.584  1.00  0.00    -0.331 A  
HETATM   28  F   UNL     1     -11.644  15.591  69.235  1.00  0.00    -0.270 F  
ENDBRANCH  18  20
ENDBRANCH  14  16
ENDBRANCH   8  10
ENDBRANCH   5   8
TORSDOF 4
ENDMDL
MODEL      122
REMARK 921   NORMALIZED FREE ENERGY PREDICTED BY IDOCK:   -5.07 KCAL/MOL
REMARK 922        TOTAL FREE ENERGY PREDICTED BY IDOCK:   -6.61 KCAL/MOL
REMARK 923 INTER-LIGAND FREE ENERGY PREDICTED BY IDOCK:   -6.00 KCAL/MOL
REMARK 924 INTRA-LIGAND FREE ENERGY PREDICTED BY IDOCK:   -0.61 KCAL/MOL
REMARK 927      BINDING AFFINITY PREDICTED BY RF-SCORE:    0.00 PKD
ROOT
HETATM    1  C   UNL     1      -5.485  18.769  70.540  1.00  0.00    -0.228 C  
HETATM    2  N   UNL     1      -5.538  18.419  69.124  1.00  0.00    -0.204 NA 
HETATM    3  C   UNL     1      -6.011  17.045  68.905  1.00  0.00    -0.158 C  
HETATM    4  C   UNL     1      -7.526  16.856  69.073  1.00  0.00    -0.220 C  
HETATM    5  C   UNL     1      -8.336  17.863  68.238  1.00  0.00    -0.286 C  
HETATM    6  C   UNL     1      -7.824  19.274  68.547  1.00  0.00    -0.383 C  
HETATM    7  C   UNL     1      -6.315  19.385  68.342  1.00  0.00    -0.241 C  
ENDROOT
BRANCH   5   8
HETATM    8  C   UNL     1      -8.302  17.499  66.743  1.00  0.00    -0.251 C  
HETATM    9  O   UNL     1      -7.541  18.045  65.942  1.00  0.00    -0.480 OA 
BRANCH   8  10
HETATM   10  C   UNL     1      -9.175  16.397  66.244  1.00  0.00    -0.315 A  
HETATM   11  C   UNL     1     -10.400  16.676  65.657  1.00  0.00    -0.310 A  
HETATM   12  C   UNL     1     -11.168  15.606  65.209  1.00  0.00    -0.236 A  
HETATM   13  C   UNL     1     -10.689  14.306  65.373  1.00  0.00    -0.353 A  
HETATM   14  C   UNL     1      -9.449  14.116  65.975  1.00  0.00    -0.160 A  
HETATM   15  N   UNL     1      -8.700  15.146  66.388  1.00  0.00    -0.249 NA 
BRANCH  14  16
HETATM   16  N   UNL     1      -8.985  12.804  66.148  1.00  0.00    -0.429 N  
HETATM   17  H   UNL     1      -8.450  12.383  65.388  1.00  0.00     0.000 HD 
HETATM   18  C   UNL     1      -9.205  12.041  67.284  1.00  0.00    -0.182 C  
HETATM   19  O   UNL     1      -9.842  12.403  68.268  1.00  0.00    -0.218 OA 
BRANCH  18  20
HETATM   20  C   UNL     1      -8.611  10.674  67.305  1.00  0.00    -0.126 A  
HETATM   21  C   UNL     1      -7.296  10.430  67.713  1.00  0.00    -0.087 A  
HETATM   22  C   UNL     1      -6.770   9.139  67.745  1.00  0.00    -0.065 A  
HETATM   23  F   UNL     1      -6.492  11.436  68.093  1.00  0.00    -0.054 F  
HETATM   24  C   UNL     1      -7.568   8.074  67.360  1.00  0.00    -0.097 A  
HETATM   25  C   UNL     1      -8.873   8.275  66.944  1.00  0.00    -0.155 A  
HETATM   26  F   UNL     1      -7.071   6.830  67.393  1.00  0.00    -0.072 F  
HETATM   27  C   UNL     1      -9.387   9.572  66.918  1.00  0.00    -0.146 A  
HETATM   28  F   UNL     1     -10.653   9.710  66.501  1.00  0.00    -0.296 F  
ENDBRANCH  18  20
ENDBRANCH  14  16
ENDBRANCH   8  10
ENDBRANCH   5   8
TORSDOF 4
ENDMDL
MODEL      123
REMARK 921   NORMALIZED FREE ENERGY PREDICTED BY IDOCK:   -5.06 KCAL/MOL
REMARK 922        TOTAL FREE ENERGY PREDICTED BY IDOCK:   -6.60 KCAL/MOL
REMARK 923 INTER-LIGAND FREE ENERGY PREDICTED BY IDOCK:   -6.39 KCAL/MOL
REMARK 924 INTRA-LIGAND FREE ENERGY PREDICTED BY IDOCK:   -0.21 KCAL/MOL
REMARK 927      BINDING AFFINITY PREDICTED BY RF-SCORE:    0.00 PKD
ROOT
HETATM    1  C   UNL     1     -10.852  19.836  65.647  1.00  0.00    -0.232 C  
HETATM    2  N   UNL     1     -10.097  19.819  66.896  1.00  0.00    -0.404 NA 
HETATM    3  C   UNL     1     -10.411  18.645  67.723  1.00  0.00    -0.411 C  
HETATM    4  C   UNL     1      -9.770  17.335  67.244  1.00  0.00    -0.262 C  
HETATM    5  C   UNL     1      -8.253  17.472  67.028  1.00  0.00    -0.240 C  
HETATM    6  C   UNL     1      -7.999  18.683  66.123  1.00  0.00    -0.229 C  
HETATM    7  C   UNL     1      -8.654  19.947  66.674  1.00  0.00    -0.337 C  
ENDROOT
BRANCH   5   8
HETATM    8  C   UNL     1      -7.503  17.527  68.371  1.00  0.00    -0.247 C  
HETATM    9  O   UNL     1      -7.321  18.576  68.989  1.00  0.00    -0.284 OA 
BRANCH   8  10
HETATM   10  C   UNL     1      -7.030  16.254  68.989  1.00  0.00    -0.188 A  
HETATM   11  C   UNL     1      -6.032  16.264  69.952  1.00  0.00    -0.188 A  
HETATM   12  C   UNL     1      -5.635  15.046  70.494  1.00  0.00    -0.140 A  
HETATM   13  C   UNL     1      -6.241  13.871  70.050  1.00  0.00    -0.131 A  
HETATM   14  C   UNL     1      -7.234  13.951  69.078  1.00  0.00    -0.078 A  
HETATM   15  N   UNL     1      -7.631  15.125  68.570  1.00  0.00    -0.115 NA 
BRANCH  14  16
HETATM   16  N   UNL     1      -7.826  12.762  68.628  1.00  0.00    -0.279 N  
HETATM   17  H   UNL     1      -7.216  11.969  68.433  1.00  0.00     0.000 HD 
HETATM   18  C   UNL     1      -9.188  12.594  68.429  1.00  0.00    -0.135 C  
HETATM   19  O   UNL     1     -10.041  13.458  68.602  1.00  0.00    -0.225 OA 
BRANCH  18  20
HETATM   20  C   UNL     1      -9.643  11.250  67.973  1.00  0.00    -0.182 A  
HETATM   21  C   UNL     1     -10.030  10.243  68.863  1.00  0.00    -0.201 A  
HETATM   22  C   UNL     1     -10.472   9.001  68.412  1.00  0.00    -0.234 A  
HETATM   23  F   UNL     1      -9.990  10.442  70.191  1.00  0.00    -0.258 F  
HETATM   24  C   UNL     1     -10.527   8.757  67.048  1.00  0.00    -0.268 A  
HETATM   25  C   UNL     1     -10.147   9.726  66.135  1.00  0.00    -0.315 A  
HETATM   26  F   UNL     1     -10.957   7.567  66.607  1.00  0.00    -0.390 F  
HETATM   27  C   UNL     1      -9.706  10.965  66.602  1.00  0.00    -0.189 A  
HETATM   28  F   UNL     1      -9.345  11.863  65.675  1.00  0.00    -0.227 F  
ENDBRANCH  18  20
ENDBRANCH  14  16
ENDBRANCH   8  10
ENDBRANCH   5   8
TORSDOF 4
ENDMDL
MODEL      124
REMARK 921   NORMALIZED FREE ENERGY PREDICTED BY IDOCK:   -5.05 KCAL/MOL
REMARK 922        TOTAL FREE ENERGY PREDICTED BY IDOCK:   -6.59 KCAL/MOL
REMARK 923 INTER-LIGAND FREE ENERGY PREDICTED BY IDOCK:   -6.43 KCAL/MOL
REMARK 924 INTRA-LIGAND FREE ENERGY PREDICTED BY IDOCK:   -0.15 KCAL/MOL
REMARK 927      BINDING AFFINITY PREDICTED BY RF-SCORE:    0.00 PKD
ROOT
HETATM    1  C   UNL     1      -9.268  20.147  66.579  1.00  0.00    -0.330 C  
HETATM    2  N   UNL     1      -9.206  19.019  67.503  1.00  0.00    -0.285 NA 
HETATM    3  C   UNL     1     -10.379  18.140  67.392  1.00  0.00    -0.389 C  
HETATM    4  C   UNL     1     -10.372  17.216  66.166  1.00  0.00    -0.327 C  
HETATM    5  C   UNL     1      -9.064  16.416  66.044  1.00  0.00    -0.317 C  
HETATM    6  C   UNL     1      -7.886  17.394  66.122  1.00  0.00    -0.293 C  
HETATM    7  C   UNL     1      -7.956  18.264  67.375  1.00  0.00    -0.231 C  
ENDROOT
BRANCH   5   8
HETATM    8  C   UNL     1      -9.006  15.285  67.087  1.00  0.00    -0.209 C  
HETATM    9  O   UNL     1      -8.235  15.304  68.048  1.00  0.00    -0.136 OA 
BRANCH   8  10
HETATM   10  C   UNL     1      -9.964  14.147  66.976  1.00  0.00    -0.260 A  
HETATM   11  C   UNL     1     -11.318  14.378  66.788  1.00  0.00    -0.360 A  
HETATM   12  C   UNL     1     -12.161  13.276  66.689  1.00  0.00    -0.359 A  
HETATM   13  C   UNL     1     -11.623  11.993  66.791  1.00  0.00    -0.391 A  
HETATM   14  C   UNL     1     -10.252  11.851  66.981  1.00  0.00    -0.210 A  
HETATM   15  N   UNL     1      -9.436  12.911  67.057  1.00  0.00    -0.228 NA 
BRANCH  14  16
HETATM   16  N   UNL     1      -9.724  10.557  67.097  1.00  0.00    -0.168 N  
HETATM   17  H   UNL     1      -9.369  10.267  68.008  1.00  0.00     0.000 HD 
HETATM   18  C   UNL     1      -9.653   9.646  66.054  1.00  0.00    -0.242 C  
HETATM   19  O   UNL     1     -10.021   9.857  64.904  1.00  0.00    -0.306 OA 
BRANCH  18  20
HETATM   20  C   UNL     1      -9.085   8.304  66.368  1.00  0.00    -0.226 A  
HETATM   21  C   UNL     1      -7.718   8.025  66.283  1.00  0.00    -0.091 A  
HETATM   22  C   UNL     1      -7.209   6.767  66.603  1.00  0.00    -0.073 A  
HETATM   23  F   UNL     1      -6.844   8.966  65.891  1.00  0.00    -0.068 F  
HETATM   24  C   UNL     1      -8.079   5.769  67.012  1.00  0.00    -0.102 A  
HETATM   25  C   UNL     1      -9.441   6.004  67.103  1.00  0.00    -0.125 A  
HETATM   26  F   UNL     1      -7.596   4.560  67.326  1.00  0.00    -0.080 F  
HETATM   27  C   UNL     1      -9.936   7.268  66.780  1.00  0.00    -0.217 A  
HETATM   28  F   UNL     1     -11.262   7.438  66.880  1.00  0.00    -0.411 F  
ENDBRANCH  18  20
ENDBRANCH  14  16
ENDBRANCH   8  10
ENDBRANCH   5   8
TORSDOF 4
ENDMDL
MODEL      125
REMARK 921   NORMALIZED FREE ENERGY PREDICTED BY IDOCK:   -4.99 KCAL/MOL
REMARK 922        TOTAL FREE ENERGY PREDICTED BY IDOCK:   -6.51 KCAL/MOL
REMARK 923 INTER-LIGAND FREE ENERGY PREDICTED BY IDOCK:   -6.96 KCAL/MOL
REMARK 924 INTRA-LIGAND FREE ENERGY PREDICTED BY IDOCK:    0.45 KCAL/MOL
REMARK 927      BINDING AFFINITY PREDICTED BY RF-SCORE:    0.00 PKD
ROOT
HETATM    1  C   UNL     1     -11.289   4.849  73.230  1.00  0.00    -0.327 C  
HETATM    2  N   UNL     1     -10.779   6.187  72.947  1.00  0.00    -0.234 NA 
HETATM    3  C   UNL     1      -9.618   6.165  72.047  1.00  0.00    -0.152 C  
HETATM    4  C   UNL     1      -9.959   5.914  70.570  1.00  0.00    -0.243 C  
HETATM    5  C   UNL     1     -11.046   6.870  70.051  1.00  0.00    -0.344 C  
HETATM    6  C   UNL     1     -12.242   6.811  71.008  1.00  0.00    -0.405 C  
HETATM    7  C   UNL     1     -11.826   7.086  72.451  1.00  0.00    -0.176 C  
ENDROOT
BRANCH   5   8
HETATM    8  C   UNL     1     -10.485   8.288  69.839  1.00  0.00    -0.223 C  
HETATM    9  O   UNL     1     -10.169   9.025  70.774  1.00  0.00    -0.207 OA 
BRANCH   8  10
HETATM   10  C   UNL     1     -10.248   8.773  68.449  1.00  0.00    -0.196 A  
HETATM   11  C   UNL     1     -10.216   7.885  67.385  1.00  0.00    -0.320 A  
HETATM   12  C   UNL     1      -9.994   8.398  66.111  1.00  0.00    -0.112 A  
HETATM   13  C   UNL     1      -9.804   9.771  65.952  1.00  0.00    -0.352 A  
HETATM   14  C   UNL     1      -9.850  10.592  67.074  1.00  0.00    -0.183 A  
HETATM   15  N   UNL     1     -10.084  10.101  68.298  1.00  0.00    -0.151 NA 
BRANCH  14  16
HETATM   16  N   UNL     1      -9.643  11.969  66.904  1.00  0.00    -0.199 N  
HETATM   17  H   UNL     1      -8.725  12.346  67.142  1.00  0.00     0.000 HD 
HETATM   18  C   UNL     1     -10.604  12.851  66.435  1.00  0.00    -0.271 C  
HETATM   19  O   UNL     1     -11.752  12.549  66.128  1.00  0.00    -0.377 OA 
BRANCH  18  20
HETATM   20  C   UNL     1     -10.197  14.278  66.291  1.00  0.00    -0.307 A  
HETATM   21  C   UNL     1     -11.001  15.230  65.657  1.00  0.00    -0.344 A  
HETATM   22  C   UNL     1     -10.608  16.564  65.553  1.00  0.00    -0.310 A  
HETATM   23  F   UNL     1     -12.186  14.890  65.125  1.00  0.00    -0.334 F  
HETATM   24  C   UNL     1      -9.391  16.954  66.090  1.00  0.00    -0.236 A  
HETATM   25  C   UNL     1      -8.564  16.039  66.720  1.00  0.00    -0.292 A  
HETATM   26  F   UNL     1      -9.010  18.235  65.999  1.00  0.00    -0.260 F  
HETATM   27  C   UNL     1      -8.970  14.708  66.816  1.00  0.00    -0.257 A  
HETATM   28  F   UNL     1      -8.129  13.865  67.430  1.00  0.00    -0.146 F  
ENDBRANCH  18  20
ENDBRANCH  14  16
ENDBRANCH   8  10
ENDBRANCH   5   8
TORSDOF 4
ENDMDL
MODEL      126
REMARK 921   NORMALIZED FREE ENERGY PREDICTED BY IDOCK:   -4.99 KCAL/MOL
REMARK 922        TOTAL FREE ENERGY PREDICTED BY IDOCK:   -6.51 KCAL/MOL
REMARK 923 INTER-LIGAND FREE ENERGY PREDICTED BY IDOCK:   -5.69 KCAL/MOL
REMARK 924 INTRA-LIGAND FREE ENERGY PREDICTED BY IDOCK:   -0.82 KCAL/MOL
REMARK 927      BINDING AFFINITY PREDICTED BY RF-SCORE:    0.00 PKD
ROOT
HETATM    1  C   UNL     1     -12.912  13.797  65.253  1.00  0.00    -0.278 C  
HETATM    2  N   UNL     1     -12.239  13.488  66.511  1.00  0.00    -0.401 NA 
HETATM    3  C   UNL     1     -11.148  12.519  66.337  1.00  0.00    -0.290 C  
HETATM    4  C   UNL     1      -9.867  13.102  65.722  1.00  0.00    -0.214 C  
HETATM    5  C   UNL     1      -9.382  14.358  66.465  1.00  0.00    -0.300 C  
HETATM    6  C   UNL     1     -10.552  15.342  66.572  1.00  0.00    -0.306 C  
HETATM    7  C   UNL     1     -11.780  14.694  67.206  1.00  0.00    -0.385 C  
ENDROOT
BRANCH   5   8
HETATM    8  C   UNL     1      -8.748  13.992  67.820  1.00  0.00    -0.185 C  
HETATM    9  O   UNL     1      -8.942  14.648  68.844  1.00  0.00    -0.181 OA 
BRANCH   8  10
HETATM   10  C   UNL     1      -7.916  12.758  67.921  1.00  0.00    -0.158 A  
HETATM   11  C   UNL     1      -6.708  12.662  67.247  1.00  0.00    -0.105 A  
HETATM   12  C   UNL     1      -5.976  11.487  67.383  1.00  0.00    -0.082 A  
HETATM   13  C   UNL     1      -6.480  10.456  68.175  1.00  0.00    -0.056 A  
HETATM   14  C   UNL     1      -7.703  10.635  68.815  1.00  0.00    -0.117 A  
HETATM   15  N   UNL     1      -8.399  11.773  68.702  1.00  0.00    -0.121 NA 
BRANCH  14  16
HETATM   16  N   UNL     1      -8.208   9.585  69.597  1.00  0.00    -0.125 N  
HETATM   17  H   UNL     1      -7.634   9.247  70.369  1.00  0.00     0.000 HD 
HETATM   18  C   UNL     1      -9.436   8.978  69.389  1.00  0.00    -0.159 C  
HETATM   19  O   UNL     1     -10.225   9.263  68.494  1.00  0.00    -0.187 OA 
BRANCH  18  20
HETATM   20  C   UNL     1      -9.824   7.895  70.338  1.00  0.00    -0.183 A  
HETATM   21  C   UNL     1     -10.693   8.109  71.411  1.00  0.00    -0.232 A  
HETATM   22  C   UNL     1     -11.057   7.076  72.273  1.00  0.00    -0.287 A  
HETATM   23  F   UNL     1     -11.212   9.325  71.649  1.00  0.00    -0.367 F  
HETATM   24  C   UNL     1     -10.543   5.806  72.061  1.00  0.00    -0.226 A  
HETATM   25  C   UNL     1      -9.674   5.555  71.013  1.00  0.00    -0.229 A  
HETATM   26  F   UNL     1     -10.893   4.806  72.881  1.00  0.00    -0.238 F  
HETATM   27  C   UNL     1      -9.318   6.599  70.159  1.00  0.00    -0.158 A  
HETATM   28  F   UNL     1      -8.470   6.302  69.165  1.00  0.00    -0.115 F  
ENDBRANCH  18  20
ENDBRANCH  14  16
ENDBRANCH   8  10
ENDBRANCH   5   8
TORSDOF 4
ENDMDL
MODEL      127
REMARK 921   NORMALIZED FREE ENERGY PREDICTED BY IDOCK:   -4.98 KCAL/MOL
REMARK 922        TOTAL FREE ENERGY PREDICTED BY IDOCK:   -6.50 KCAL/MOL
REMARK 923 INTER-LIGAND FREE ENERGY PREDICTED BY IDOCK:   -6.00 KCAL/MOL
REMARK 924 INTRA-LIGAND FREE ENERGY PREDICTED BY IDOCK:   -0.50 KCAL/MOL
REMARK 927      BINDING AFFINITY PREDICTED BY RF-SCORE:    0.00 PKD
ROOT
HETATM    1  C   UNL     1     -10.786  16.300  65.660  1.00  0.00    -0.286 C  
HETATM    2  N   UNL     1     -11.320  14.953  65.485  1.00  0.00    -0.350 NA 
HETATM    3  C   UNL     1     -10.263  13.958  65.258  1.00  0.00    -0.344 C  
HETATM    4  C   UNL     1      -9.485  13.553  66.518  1.00  0.00    -0.265 C  
HETATM    5  C   UNL     1     -10.414  13.124  67.667  1.00  0.00    -0.225 C  
HETATM    6  C   UNL     1     -11.461  14.224  67.880  1.00  0.00    -0.341 C  
HETATM    7  C   UNL     1     -12.202  14.558  66.588  1.00  0.00    -0.223 C  
ENDROOT
BRANCH   5   8
HETATM    8  C   UNL     1     -11.016  11.732  67.405  1.00  0.00    -0.262 C  
HETATM    9  O   UNL     1     -11.580  11.438  66.350  1.00  0.00    -0.369 OA 
BRANCH   8  10
HETATM   10  C   UNL     1     -10.856  10.667  68.438  1.00  0.00    -0.237 A  
HETATM   11  C   UNL     1     -11.229  10.896  69.753  1.00  0.00    -0.351 A  
HETATM   12  C   UNL     1     -11.059   9.863  70.670  1.00  0.00    -0.409 A  
HETATM   13  C   UNL     1     -10.516   8.652  70.241  1.00  0.00    -0.229 A  
HETATM   14  C   UNL     1     -10.165   8.508  68.902  1.00  0.00    -0.207 A  
HETATM   15  N   UNL     1     -10.348   9.494  68.014  1.00  0.00    -0.202 NA 
BRANCH  14  16
HETATM   16  N   UNL     1      -9.606   7.291  68.485  1.00  0.00    -0.140 N  
HETATM   17  H   UNL     1      -8.626   7.116  68.707  1.00  0.00     0.000 HD 
HETATM   18  C   UNL     1     -10.298   6.311  67.790  1.00  0.00    -0.195 C  
HETATM   19  O   UNL     1     -11.470   6.387  67.438  1.00  0.00    -0.157 OA 
BRANCH  18  20
HETATM   20  C   UNL     1      -9.549   5.067  67.453  1.00  0.00    -0.164 A  
HETATM   21  C   UNL     1      -9.336   4.041  68.379  1.00  0.00    -0.160 A  
HETATM   22  C   UNL     1      -8.651   2.878  68.033  1.00  0.00    -0.115 A  
HETATM   23  F   UNL     1      -9.789   4.143  69.639  1.00  0.00    -0.262 F  
HETATM   24  C   UNL     1      -8.168   2.735  66.742  1.00  0.00    -0.087 A  
HETATM   25  C   UNL     1      -8.352   3.731  65.798  1.00  0.00    -0.105 A  
HETATM   26  F   UNL     1      -7.513   1.617  66.401  1.00  0.00    -0.055 F  
HETATM   27  C   UNL     1      -9.040   4.890  66.158  1.00  0.00    -0.135 A  
HETATM   28  F   UNL     1      -9.185   5.824  65.207  1.00  0.00    -0.126 F  
ENDBRANCH  18  20
ENDBRANCH  14  16
ENDBRANCH   8  10
ENDBRANCH   5   8
TORSDOF 4
ENDMDL
MODEL      128
REMARK 921   NORMALIZED FREE ENERGY PREDICTED BY IDOCK:   -4.98 KCAL/MOL
REMARK 922        TOTAL FREE ENERGY PREDICTED BY IDOCK:   -6.49 KCAL/MOL
REMARK 923 INTER-LIGAND FREE ENERGY PREDICTED BY IDOCK:   -5.91 KCAL/MOL
REMARK 924 INTRA-LIGAND FREE ENERGY PREDICTED BY IDOCK:   -0.58 KCAL/MOL
REMARK 927      BINDING AFFINITY PREDICTED BY RF-SCORE:    0.00 PKD
ROOT
HETATM    1  C   UNL     1      -7.204   6.832  65.567  1.00  0.00    -0.077 C  
HETATM    2  N   UNL     1      -8.446   7.235  66.218  1.00  0.00    -0.128 NA 
HETATM    3  C   UNL     1      -8.293   7.381  67.673  1.00  0.00    -0.118 C  
HETATM    4  C   UNL     1      -7.573   8.663  68.114  1.00  0.00    -0.097 C  
HETATM    5  C   UNL     1      -8.192   9.926  67.490  1.00  0.00    -0.114 C  
HETATM    6  C   UNL     1      -8.280   9.725  65.973  1.00  0.00    -0.117 C  
HETATM    7  C   UNL     1      -9.023   8.440  65.615  1.00  0.00    -0.134 C  
ENDROOT
BRANCH   5   8
HETATM    8  C   UNL     1      -9.537  10.271  68.154  1.00  0.00    -0.140 C  
HETATM    9  O   UNL     1     -10.070   9.546  68.995  1.00  0.00    -0.179 OA 
BRANCH   8  10
HETATM   10  C   UNL     1     -10.199  11.566  67.822  1.00  0.00    -0.182 A  
HETATM   11  C   UNL     1     -11.414  11.589  67.155  1.00  0.00    -0.313 A  
HETATM   12  C   UNL     1     -11.983  12.828  66.875  1.00  0.00    -0.380 A  
HETATM   13  C   UNL     1     -11.314  13.989  67.263  1.00  0.00    -0.350 A  
HETATM   14  C   UNL     1     -10.097  13.875  67.927  1.00  0.00    -0.242 A  
HETATM   15  N   UNL     1      -9.558  12.684  68.214  1.00  0.00    -0.217 NA 
BRANCH  14  16
HETATM   16  N   UNL     1      -9.426  15.050  68.298  1.00  0.00    -0.192 N  
HETATM   17  H   UNL     1      -9.260  15.211  69.291  1.00  0.00     0.000 HD 
HETATM   18  C   UNL     1      -8.974  16.007  67.403  1.00  0.00    -0.191 C  
HETATM   19  O   UNL     1      -9.115  15.961  66.185  1.00  0.00    -0.310 OA 
BRANCH  18  20
HETATM   20  C   UNL     1      -8.254  17.181  67.976  1.00  0.00    -0.216 A  
HETATM   21  C   UNL     1      -6.909  17.129  68.355  1.00  0.00    -0.191 A  
HETATM   22  C   UNL     1      -6.253  18.246  68.868  1.00  0.00    -0.223 A  
HETATM   23  F   UNL     1      -6.201  15.994  68.234  1.00  0.00    -0.100 F  
HETATM   24  C   UNL     1      -6.950  19.435  69.008  1.00  0.00    -0.355 A  
HETATM   25  C   UNL     1      -8.285  19.526  68.650  1.00  0.00    -0.369 A  
HETATM   26  F   UNL     1      -6.324  20.515  69.496  1.00  0.00    -0.352 F  
HETATM   27  C   UNL     1      -8.929  18.399  68.137  1.00  0.00    -0.309 A  
HETATM   28  F   UNL     1     -10.222  18.541  67.813  1.00  0.00    -0.321 F  
ENDBRANCH  18  20
ENDBRANCH  14  16
ENDBRANCH   8  10
ENDBRANCH   5   8
TORSDOF 4
ENDMDL
MODEL      129
REMARK 921   NORMALIZED FREE ENERGY PREDICTED BY IDOCK:   -4.96 KCAL/MOL
REMARK 922        TOTAL FREE ENERGY PREDICTED BY IDOCK:   -6.47 KCAL/MOL
REMARK 923 INTER-LIGAND FREE ENERGY PREDICTED BY IDOCK:   -5.69 KCAL/MOL
REMARK 924 INTRA-LIGAND FREE ENERGY PREDICTED BY IDOCK:   -0.78 KCAL/MOL
REMARK 927      BINDING AFFINITY PREDICTED BY RF-SCORE:    0.00 PKD
ROOT
HETATM    1  C   UNL     1      -9.762  15.233  69.261  1.00  0.00    -0.254 C  
HETATM    2  N   UNL     1     -10.315  13.930  68.904  1.00  0.00    -0.199 NA 
HETATM    3  C   UNL     1     -11.618  14.041  68.234  1.00  0.00    -0.329 C  
HETATM    4  C   UNL     1     -11.547  14.485  66.766  1.00  0.00    -0.388 C  
HETATM    5  C   UNL     1     -10.571  13.626  65.943  1.00  0.00    -0.289 C  
HETATM    6  C   UNL     1      -9.223  13.590  66.672  1.00  0.00    -0.221 C  
HETATM    7  C   UNL     1      -9.375  13.125  68.118  1.00  0.00    -0.217 C  
ENDROOT
BRANCH   5   8
HETATM    8  C   UNL     1     -11.162  12.235  65.653  1.00  0.00    -0.333 C  
HETATM    9  O   UNL     1     -12.373  12.008  65.678  1.00  0.00    -0.470 OA 
BRANCH   8  10
HETATM   10  C   UNL     1     -10.246  11.125  65.261  1.00  0.00    -0.280 A  
HETATM   11  C   UNL     1      -9.834  10.980  63.945  1.00  0.00    -0.368 A  
HETATM   12  C   UNL     1      -8.977   9.927  63.641  1.00  0.00    -0.278 A  
HETATM   13  C   UNL     1      -8.575   9.059  64.656  1.00  0.00    -0.190 A  
HETATM   14  C   UNL     1      -9.038   9.277  65.950  1.00  0.00    -0.197 A  
HETATM   15  N   UNL     1      -9.847  10.302  66.248  1.00  0.00    -0.208 NA 
BRANCH  14  16
HETATM   16  N   UNL     1      -8.639   8.389  66.961  1.00  0.00    -0.121 N  
HETATM   17  H   UNL     1      -7.646   8.343  67.191  1.00  0.00     0.000 HD 
HETATM   18  C   UNL     1      -9.506   7.570  67.668  1.00  0.00    -0.138 C  
HETATM   19  O   UNL     1     -10.717   7.502  67.492  1.00  0.00    -0.256 OA 
BRANCH  18  20
HETATM   20  C   UNL     1      -8.907   6.710  68.728  1.00  0.00    -0.126 A  
HETATM   21  C   UNL     1      -8.959   7.041  70.086  1.00  0.00    -0.145 A  
HETATM   22  C   UNL     1      -8.411   6.210  71.061  1.00  0.00    -0.128 A  
HETATM   23  F   UNL     1      -9.544   8.178  70.498  1.00  0.00    -0.165 F  
HETATM   24  C   UNL     1      -7.798   5.028  70.675  1.00  0.00    -0.078 A  
HETATM   25  C   UNL     1      -7.721   4.667  69.341  1.00  0.00    -0.059 A  
HETATM   26  F   UNL     1      -7.275   4.221  71.608  1.00  0.00    -0.046 F  
HETATM   27  C   UNL     1      -8.274   5.509  68.376  1.00  0.00    -0.099 A  
HETATM   28  F   UNL     1      -8.166   5.115  67.099  1.00  0.00    -0.106 F  
ENDBRANCH  18  20
ENDBRANCH  14  16
ENDBRANCH   8  10
ENDBRANCH   5   8
TORSDOF 4
ENDMDL
MODEL      130
REMARK 921   NORMALIZED FREE ENERGY PREDICTED BY IDOCK:   -4.92 KCAL/MOL
REMARK 922        TOTAL FREE ENERGY PREDICTED BY IDOCK:   -6.42 KCAL/MOL
REMARK 923 INTER-LIGAND FREE ENERGY PREDICTED BY IDOCK:   -6.39 KCAL/MOL
REMARK 924 INTRA-LIGAND FREE ENERGY PREDICTED BY IDOCK:   -0.03 KCAL/MOL
REMARK 927      BINDING AFFINITY PREDICTED BY RF-SCORE:    0.00 PKD
ROOT
HETATM    1  C   UNL     1     -11.104  14.345  68.913  1.00  0.00    -0.259 C  
HETATM    2  N   UNL     1     -10.706  12.991  68.542  1.00  0.00    -0.250 NA 
HETATM    3  C   UNL     1     -11.746  12.293  67.774  1.00  0.00    -0.337 C  
HETATM    4  C   UNL     1     -11.859  12.730  66.306  1.00  0.00    -0.485 C  
HETATM    5  C   UNL     1     -10.505  12.684  65.577  1.00  0.00    -0.304 C  
HETATM    6  C   UNL     1      -9.480  13.466  66.406  1.00  0.00    -0.230 C  
HETATM    7  C   UNL     1      -9.416  12.963  67.846  1.00  0.00    -0.208 C  
ENDROOT
BRANCH   5   8
HETATM    8  C   UNL     1     -10.087  11.234  65.273  1.00  0.00    -0.267 C  
HETATM    9  O   UNL     1     -10.528  10.601  64.312  1.00  0.00    -0.349 OA 
BRANCH   8  10
HETATM   10  C   UNL     1      -9.056  10.581  66.132  1.00  0.00    -0.162 A  
HETATM   11  C   UNL     1      -7.706  10.745  65.864  1.00  0.00    -0.118 A  
HETATM   12  C   UNL     1      -6.792  10.114  66.702  1.00  0.00    -0.084 A  
HETATM   13  C   UNL     1      -7.262   9.341  67.764  1.00  0.00    -0.083 A  
HETATM   14  C   UNL     1      -8.635   9.228  67.960  1.00  0.00    -0.121 A  
HETATM   15  N   UNL     1      -9.515   9.851  67.166  1.00  0.00    -0.155 NA 
BRANCH  14  16
HETATM   16  N   UNL     1      -9.096   8.436  69.022  1.00  0.00    -0.147 N  
HETATM   17  H   UNL     1      -8.918   7.433  68.981  1.00  0.00     0.000 HD 
HETATM   18  C   UNL     1      -9.777   8.928  70.125  1.00  0.00    -0.179 C  
HETATM   19  O   UNL     1     -10.078  10.103  70.305  1.00  0.00    -0.227 OA 
BRANCH  18  20
HETATM   20  C   UNL     1     -10.167   7.942  71.173  1.00  0.00    -0.221 A  
HETATM   21  C   UNL     1     -11.184   7.002  70.982  1.00  0.00    -0.274 A  
HETATM   22  C   UNL     1     -11.516   6.076  71.970  1.00  0.00    -0.343 A  
HETATM   23  F   UNL     1     -11.879   6.959  69.834  1.00  0.00    -0.312 F  
HETATM   24  C   UNL     1     -10.821   6.089  73.170  1.00  0.00    -0.259 A  
HETATM   25  C   UNL     1      -9.812   7.007  73.399  1.00  0.00    -0.273 A  
HETATM   26  F   UNL     1     -11.131   5.197  74.121  1.00  0.00    -0.322 F  
HETATM   27  C   UNL     1      -9.490   7.929  72.401  1.00  0.00    -0.192 A  
HETATM   28  F   UNL     1      -8.509   8.799  72.678  1.00  0.00    -0.230 F  
ENDBRANCH  18  20
ENDBRANCH  14  16
ENDBRANCH   8  10
ENDBRANCH   5   8
TORSDOF 4
ENDMDL
MODEL      131
REMARK 921   NORMALIZED FREE ENERGY PREDICTED BY IDOCK:   -4.91 KCAL/MOL
REMARK 922        TOTAL FREE ENERGY PREDICTED BY IDOCK:   -6.42 KCAL/MOL
REMARK 923 INTER-LIGAND FREE ENERGY PREDICTED BY IDOCK:   -6.21 KCAL/MOL
REMARK 924 INTRA-LIGAND FREE ENERGY PREDICTED BY IDOCK:   -0.21 KCAL/MOL
REMARK 927      BINDING AFFINITY PREDICTED BY RF-SCORE:    0.00 PKD
ROOT
HETATM    1  C   UNL     1     -12.977  16.579  73.424  1.00  0.00    -0.042 C  
HETATM    2  N   UNL     1     -12.640  15.160  73.379  1.00  0.00    -0.485 NA 
HETATM    3  C   UNL     1     -13.770  14.332  72.933  1.00  0.00    -0.177 C  
HETATM    4  C   UNL     1     -14.041  14.380  71.422  1.00  0.00    -0.378 C  
HETATM    5  C   UNL     1     -12.778  14.091  70.593  1.00  0.00    -0.373 C  
HETATM    6  C   UNL     1     -11.656  15.017  71.077  1.00  0.00    -0.367 C  
HETATM    7  C   UNL     1     -11.437  14.900  72.583  1.00  0.00     0.036 C  
ENDROOT
BRANCH   5   8
HETATM    8  C   UNL     1     -12.415  12.596  70.635  1.00  0.00    -0.239 C  
HETATM    9  O   UNL     1     -12.643  11.883  71.613  1.00  0.00    -0.248 OA 
BRANCH   8  10
HETATM   10  C   UNL     1     -11.825  11.959  69.422  1.00  0.00    -0.327 A  
HETATM   11  C   UNL     1     -11.826  12.620  68.204  1.00  0.00    -0.366 A  
HETATM   12  C   UNL     1     -11.257  11.976  67.110  1.00  0.00    -0.374 A  
HETATM   13  C   UNL     1     -10.721  10.698  67.273  1.00  0.00    -0.338 A  
HETATM   14  C   UNL     1     -10.764  10.106  68.531  1.00  0.00    -0.230 A  
HETATM   15  N   UNL     1     -11.293  10.733  69.589  1.00  0.00    -0.269 NA 
BRANCH  14  16
HETATM   16  N   UNL     1     -10.236   8.814  68.680  1.00  0.00    -0.191 N  
HETATM   17  H   UNL     1      -9.460   8.544  68.076  1.00  0.00     0.000 HD 
HETATM   18  C   UNL     1     -10.701   7.882  69.594  1.00  0.00    -0.218 C  
HETATM   19  O   UNL     1     -11.634   8.055  70.371  1.00  0.00    -0.203 OA 
BRANCH  18  20
HETATM   20  C   UNL     1      -9.999   6.567  69.632  1.00  0.00    -0.186 A  
HETATM   21  C   UNL     1     -10.203   5.575  68.668  1.00  0.00    -0.193 A  
HETATM   22  C   UNL     1      -9.519   4.362  68.713  1.00  0.00    -0.227 A  
HETATM   23  F   UNL     1     -11.068   5.761  67.658  1.00  0.00    -0.325 F  
HETATM   24  C   UNL     1      -8.617   4.132  69.740  1.00  0.00    -0.064 A  
HETATM   25  C   UNL     1      -8.392   5.086  70.718  1.00  0.00    -0.107 A  
HETATM   26  F   UNL     1      -7.951   2.970  69.787  1.00  0.00    -0.044 F  
HETATM   27  C   UNL     1      -9.084   6.296  70.660  1.00  0.00    -0.151 A  
HETATM   28  F   UNL     1      -8.832   7.181  71.634  1.00  0.00    -0.120 F  
ENDBRANCH  18  20
ENDBRANCH  14  16
ENDBRANCH   8  10
ENDBRANCH   5   8
TORSDOF 4
ENDMDL
MODEL      132
REMARK 921   NORMALIZED FREE ENERGY PREDICTED BY IDOCK:   -4.88 KCAL/MOL
REMARK 922        TOTAL FREE ENERGY PREDICTED BY IDOCK:   -6.37 KCAL/MOL
REMARK 923 INTER-LIGAND FREE ENERGY PREDICTED BY IDOCK:   -6.43 KCAL/MOL
REMARK 924 INTRA-LIGAND FREE ENERGY PREDICTED BY IDOCK:    0.06 KCAL/MOL
REMARK 927      BINDING AFFINITY PREDICTED BY RF-SCORE:    0.00 PKD
ROOT
HETATM    1  C   UNL     1     -14.011   8.178  72.195  1.00  0.00    -0.272 C  
HETATM    2  N   UNL     1     -12.833   8.716  71.522  1.00  0.00    -0.327 NA 
HETATM    3  C   UNL     1     -11.708   8.922  72.445  1.00  0.00    -0.196 C  
HETATM    4  C   UNL     1     -10.968   7.638  72.848  1.00  0.00    -0.456 C  
HETATM    5  C   UNL     1     -10.541   6.803  71.629  1.00  0.00    -0.239 C  
HETATM    6  C   UNL     1     -11.767   6.587  70.734  1.00  0.00    -0.427 C  
HETATM    7  C   UNL     1     -12.436   7.909  70.365  1.00  0.00     0.514 C  
ENDROOT
BRANCH   5   8
HETATM    8  C   UNL     1      -9.345   7.447  70.905  1.00  0.00    -0.155 C  
HETATM    9  O   UNL     1      -8.208   7.458  71.379  1.00  0.00    -0.103 OA 
BRANCH   8  10
HETATM   10  C   UNL     1      -9.547   8.026  69.545  1.00  0.00    -0.164 A  
HETATM   11  C   UNL     1      -9.591   7.207  68.427  1.00  0.00    -0.137 A  
HETATM   12  C   UNL     1      -9.785   7.806  67.186  1.00  0.00    -0.243 A  
HETATM   13  C   UNL     1      -9.917   9.192  67.110  1.00  0.00    -0.280 A  
HETATM   14  C   UNL     1      -9.858   9.940  68.282  1.00  0.00    -0.147 A  
HETATM   15  N   UNL     1      -9.691   9.363  69.480  1.00  0.00    -0.173 NA 
BRANCH  14  16
HETATM   16  N   UNL     1      -9.976  11.335  68.193  1.00  0.00    -0.176 N  
HETATM   17  H   UNL     1      -9.258  11.904  68.640  1.00  0.00     0.000 HD 
HETATM   18  C   UNL     1     -11.006  11.990  67.535  1.00  0.00    -0.253 C  
HETATM   19  O   UNL     1     -11.946  11.443  66.969  1.00  0.00    -0.492 OA 
BRANCH  18  20
HETATM   20  C   UNL     1     -10.954  13.480  67.517  1.00  0.00    -0.283 A  
HETATM   21  C   UNL     1     -10.379  14.202  66.466  1.00  0.00    -0.284 A  
HETATM   22  C   UNL     1     -10.363  15.595  66.462  1.00  0.00    -0.296 A  
HETATM   23  F   UNL     1      -9.823  13.572  65.418  1.00  0.00    -0.287 F  
HETATM   24  C   UNL     1     -10.927  16.282  67.525  1.00  0.00    -0.207 A  
HETATM   25  C   UNL     1     -11.500  15.604  68.588  1.00  0.00    -0.381 A  
HETATM   26  F   UNL     1     -10.919  17.622  67.525  1.00  0.00    -0.349 F  
HETATM   27  C   UNL     1     -11.510  14.209  68.579  1.00  0.00    -0.300 A  
HETATM   28  F   UNL     1     -12.072  13.603  69.634  1.00  0.00    -0.321 F  
ENDBRANCH  18  20
ENDBRANCH  14  16
ENDBRANCH   8  10
ENDBRANCH   5   8
TORSDOF 4
ENDMDL
MODEL      133
REMARK 921   NORMALIZED FREE ENERGY PREDICTED BY IDOCK:   -4.87 KCAL/MOL
REMARK 922        TOTAL FREE ENERGY PREDICTED BY IDOCK:   -6.36 KCAL/MOL
REMARK 923 INTER-LIGAND FREE ENERGY PREDICTED BY IDOCK:   -6.69 KCAL/MOL
REMARK 924 INTRA-LIGAND FREE ENERGY PREDICTED BY IDOCK:    0.33 KCAL/MOL
REMARK 927      BINDING AFFINITY PREDICTED BY RF-SCORE:    0.00 PKD
ROOT
HETATM    1  C   UNL     1     -14.020   8.265  72.366  1.00  0.00    -0.165 C  
HETATM    2  N   UNL     1     -12.902   8.499  71.457  1.00  0.00    -0.323 NA 
HETATM    3  C   UNL     1     -11.681   8.905  72.167  1.00  0.00    -0.341 C  
HETATM    4  C   UNL     1     -10.944   7.761  72.879  1.00  0.00    -0.467 C  
HETATM    5  C   UNL     1     -10.674   6.569  71.945  1.00  0.00    -0.251 C  
HETATM    6  C   UNL     1     -11.993   6.169  71.274  1.00  0.00    -0.046 C  
HETATM    7  C   UNL     1     -12.654   7.354  70.575  1.00  0.00     0.184 C  
ENDROOT
BRANCH   5   8
HETATM    8  C   UNL     1      -9.540   6.886  70.954  1.00  0.00    -0.164 C  
HETATM    9  O   UNL     1      -8.363   6.999  71.302  1.00  0.00    -0.113 OA 
BRANCH   8  10
HETATM   10  C   UNL     1      -9.857   6.999  69.501  1.00  0.00    -0.160 A  
HETATM   11  C   UNL     1      -9.992   5.863  68.716  1.00  0.00    -0.195 A  
HETATM   12  C   UNL     1     -10.292   6.033  67.368  1.00  0.00    -0.268 A  
HETATM   13  C   UNL     1     -10.435   7.323  66.857  1.00  0.00    -0.369 A  
HETATM   14  C   UNL     1     -10.280   8.407  67.715  1.00  0.00    -0.224 A  
HETATM   15  N   UNL     1     -10.012   8.246  69.017  1.00  0.00    -0.184 NA 
BRANCH  14  16
HETATM   16  N   UNL     1     -10.411   9.701  67.187  1.00  0.00    -0.255 N  
HETATM   17  H   UNL     1     -10.908  10.395  67.745  1.00  0.00     0.000 HD 
HETATM   18  C   UNL     1      -9.910  10.096  65.956  1.00  0.00    -0.246 C  
HETATM   19  O   UNL     1      -9.310   9.371  65.170  1.00  0.00    -0.252 OA 
BRANCH  18  20
HETATM   20  C   UNL     1     -10.119  11.520  65.569  1.00  0.00    -0.286 A  
HETATM   21  C   UNL     1     -10.879  11.896  64.457  1.00  0.00    -0.316 A  
HETATM   22  C   UNL     1     -11.077  13.235  64.127  1.00  0.00    -0.393 A  
HETATM   23  F   UNL     1     -11.449  10.972  63.665  1.00  0.00    -0.337 F  
HETATM   24  C   UNL     1     -10.505  14.218  64.919  1.00  0.00    -0.430 A  
HETATM   25  C   UNL     1      -9.740  13.887  66.025  1.00  0.00    -0.270 A  
HETATM   26  F   UNL     1     -10.696  15.508  64.612  1.00  0.00    -0.417 F  
HETATM   27  C   UNL     1      -9.551  12.542  66.343  1.00  0.00    -0.247 A  
HETATM   28  F   UNL     1      -8.798  12.279  67.420  1.00  0.00    -0.158 F  
ENDBRANCH  18  20
ENDBRANCH  14  16
ENDBRANCH   8  10
ENDBRANCH   5   8
TORSDOF 4
ENDMDL
MODEL      134
REMARK 921   NORMALIZED FREE ENERGY PREDICTED BY IDOCK:   -4.79 KCAL/MOL
REMARK 922        TOTAL FREE ENERGY PREDICTED BY IDOCK:   -6.26 KCAL/MOL
REMARK 923 INTER-LIGAND FREE ENERGY PREDICTED BY IDOCK:   -5.89 KCAL/MOL
REMARK 924 INTRA-LIGAND FREE ENERGY PREDICTED BY IDOCK:   -0.37 KCAL/MOL
REMARK 927      BINDING AFFINITY PREDICTED BY RF-SCORE:    0.00 PKD
ROOT
HETATM    1  C   UNL     1      -6.395  19.996  65.992  1.00  0.00    -0.204 C  
HETATM    2  N   UNL     1      -7.544  19.180  65.612  1.00  0.00    -0.457 NA 
HETATM    3  C   UNL     1      -7.376  17.769  65.987  1.00  0.00    -0.272 C  
HETATM    4  C   UNL     1      -7.583  17.476  67.480  1.00  0.00    -0.209 C  
HETATM    5  C   UNL     1      -8.915  18.036  68.007  1.00  0.00    -0.274 C  
HETATM    6  C   UNL     1      -9.005  19.517  67.622  1.00  0.00    -0.373 C  
HETATM    7  C   UNL     1      -8.805  19.725  66.123  1.00  0.00    -0.336 C  
ENDROOT
BRANCH   5   8
HETATM    8  C   UNL     1     -10.105  17.191  67.520  1.00  0.00    -0.301 C  
HETATM    9  O   UNL     1     -10.710  17.434  66.475  1.00  0.00    -0.229 OA 
BRANCH   8  10
HETATM   10  C   UNL     1     -10.509  15.987  68.303  1.00  0.00    -0.269 A  
HETATM   11  C   UNL     1     -11.572  16.045  69.191  1.00  0.00    -0.337 A  
HETATM   12  C   UNL     1     -11.903  14.889  69.891  1.00  0.00    -0.355 A  
HETATM   13  C   UNL     1     -11.156  13.729  69.684  1.00  0.00    -0.094 A  
HETATM   14  C   UNL     1     -10.102  13.759  68.776  1.00  0.00    -0.136 A  
HETATM   15  N   UNL     1      -9.796  14.866  68.087  1.00  0.00    -0.215 NA 
BRANCH  14  16
HETATM   16  N   UNL     1      -9.349  12.591  68.588  1.00  0.00    -0.404 N  
HETATM   17  H   UNL     1      -8.384  12.588  68.918  1.00  0.00     0.000 HD 
HETATM   18  C   UNL     1      -9.829  11.441  67.982  1.00  0.00    -0.184 C  
HETATM   19  O   UNL     1     -10.957  11.301  67.521  1.00  0.00    -0.230 OA 
BRANCH  18  20
HETATM   20  C   UNL     1      -8.894  10.283  67.894  1.00  0.00    -0.122 A  
HETATM   21  C   UNL     1      -9.115   9.081  68.573  1.00  0.00    -0.133 A  
HETATM   22  C   UNL     1      -8.237   8.006  68.457  1.00  0.00    -0.126 A  
HETATM   23  F   UNL     1     -10.189   8.922  69.363  1.00  0.00    -0.186 F  
HETATM   24  C   UNL     1      -7.116   8.131  67.651  1.00  0.00    -0.087 A  
HETATM   25  C   UNL     1      -6.858   9.307  66.967  1.00  0.00    -0.080 A  
HETATM   26  F   UNL     1      -6.270   7.099  67.530  1.00  0.00    -0.037 F  
HETATM   27  C   UNL     1      -7.747  10.376  67.092  1.00  0.00    -0.100 A  
HETATM   28  F   UNL     1      -7.446  11.492  66.413  1.00  0.00    -0.135 F  
ENDBRANCH  18  20
ENDBRANCH  14  16
ENDBRANCH   8  10
ENDBRANCH   5   8
TORSDOF 4
ENDMDL
MODEL      135
REMARK 921   NORMALIZED FREE ENERGY PREDICTED BY IDOCK:   -4.78 KCAL/MOL
REMARK 922        TOTAL FREE ENERGY PREDICTED BY IDOCK:   -6.26 KCAL/MOL
REMARK 923 INTER-LIGAND FREE ENERGY PREDICTED BY IDOCK:   -5.75 KCAL/MOL
REMARK 924 INTRA-LIGAND FREE ENERGY PREDICTED BY IDOCK:   -0.51 KCAL/MOL
REMARK 927      BINDING AFFINITY PREDICTED BY RF-SCORE:    0.00 PKD
ROOT
HETATM    1  C   UNL     1     -11.143  15.700  69.770  1.00  0.00    -0.313 C  
HETATM    2  N   UNL     1     -11.874  15.123  68.647  1.00  0.00    -0.329 NA 
HETATM    3  C   UNL     1     -11.422  15.653  67.354  1.00  0.00    -0.086 C  
HETATM    4  C   UNL     1     -10.086  15.080  66.859  1.00  0.00    -0.249 C  
HETATM    5  C   UNL     1     -10.073  13.541  66.865  1.00  0.00    -0.256 C  
HETATM    6  C   UNL     1     -10.510  13.056  68.252  1.00  0.00    -0.258 C  
HETATM    7  C   UNL     1     -11.851  13.657  68.664  1.00  0.00    -0.374 C  
ENDROOT
BRANCH   5   8
HETATM    8  C   UNL     1     -10.919  12.975  65.710  1.00  0.00    -0.277 C  
HETATM    9  O   UNL     1     -12.047  13.392  65.444  1.00  0.00    -0.372 OA 
BRANCH   8  10
HETATM   10  C   UNL     1     -10.332  11.923  64.829  1.00  0.00    -0.281 A  
HETATM   11  C   UNL     1     -10.065  12.186  63.494  1.00  0.00    -0.410 A  
HETATM   12  C   UNL     1      -9.515  11.166  62.725  1.00  0.00    -0.357 A  
HETATM   13  C   UNL     1      -9.263   9.927  63.313  1.00  0.00    -0.274 A  
HETATM   14  C   UNL     1      -9.562   9.748  64.660  1.00  0.00    -0.174 A  
HETATM   15  N   UNL     1     -10.073  10.735  65.407  1.00  0.00    -0.270 NA 
BRANCH  14  16
HETATM   16  N   UNL     1      -9.319   8.493  65.238  1.00  0.00    -0.410 N  
HETATM   17  H   UNL     1     -10.107   7.854  65.341  1.00  0.00     0.000 HD 
HETATM   18  C   UNL     1      -8.076   8.063  65.677  1.00  0.00    -0.121 C  
HETATM   19  O   UNL     1      -7.043   8.723  65.635  1.00  0.00    -0.081 OA 
BRANCH  18  20
HETATM   20  C   UNL     1      -7.998   6.685  66.239  1.00  0.00    -0.108 A  
HETATM   21  C   UNL     1      -7.889   5.547  65.434  1.00  0.00    -0.100 A  
HETATM   22  C   UNL     1      -7.796   4.270  65.984  1.00  0.00    -0.094 A  
HETATM   23  F   UNL     1      -7.867   5.648  64.095  1.00  0.00    -0.083 F  
HETATM   24  C   UNL     1      -7.815   4.125  67.363  1.00  0.00    -0.091 A  
HETATM   25  C   UNL     1      -7.928   5.226  68.194  1.00  0.00    -0.091 A  
HETATM   26  F   UNL     1      -7.720   2.901  67.899  1.00  0.00    -0.056 F  
HETATM   27  C   UNL     1      -8.020   6.498  67.629  1.00  0.00    -0.114 A  
HETATM   28  F   UNL     1      -8.134   7.528  68.479  1.00  0.00    -0.116 F  
ENDBRANCH  18  20
ENDBRANCH  14  16
ENDBRANCH   8  10
ENDBRANCH   5   8
TORSDOF 4
ENDMDL
MODEL      136
REMARK 921   NORMALIZED FREE ENERGY PREDICTED BY IDOCK:   -4.78 KCAL/MOL
REMARK 922        TOTAL FREE ENERGY PREDICTED BY IDOCK:   -6.25 KCAL/MOL
REMARK 923 INTER-LIGAND FREE ENERGY PREDICTED BY IDOCK:   -5.47 KCAL/MOL
REMARK 924 INTRA-LIGAND FREE ENERGY PREDICTED BY IDOCK:   -0.78 KCAL/MOL
REMARK 927      BINDING AFFINITY PREDICTED BY RF-SCORE:    0.00 PKD
ROOT
HETATM    1  C   UNL     1     -12.185  14.944  64.233  1.00  0.00    -0.344 C  
HETATM    2  N   UNL     1     -12.047  13.723  65.021  1.00  0.00    -0.382 NA 
HETATM    3  C   UNL     1     -10.657  13.249  65.077  1.00  0.00    -0.346 C  
HETATM    4  C   UNL     1      -9.749  14.040  66.029  1.00  0.00    -0.280 C  
HETATM    5  C   UNL     1     -10.350  14.167  67.440  1.00  0.00    -0.256 C  
HETATM    6  C   UNL     1     -11.779  14.708  67.312  1.00  0.00    -0.406 C  
HETATM    7  C   UNL     1     -12.622  13.860  66.362  1.00  0.00    -0.268 C  
ENDROOT
BRANCH   5   8
HETATM    8  C   UNL     1     -10.253  12.836  68.207  1.00  0.00    -0.244 C  
HETATM    9  O   UNL     1     -11.157  12.418  68.932  1.00  0.00    -0.241 OA 
BRANCH   8  10
HETATM   10  C   UNL     1      -9.046  11.979  68.020  1.00  0.00    -0.188 A  
HETATM   11  C   UNL     1      -7.783  12.458  68.333  1.00  0.00    -0.144 A  
HETATM   12  C   UNL     1      -6.697  11.610  68.140  1.00  0.00    -0.063 A  
HETATM   13  C   UNL     1      -6.913  10.327  67.637  1.00  0.00    -0.084 A  
HETATM   14  C   UNL     1      -8.214   9.928  67.347  1.00  0.00    -0.118 A  
HETATM   15  N   UNL     1      -9.263  10.735  67.551  1.00  0.00    -0.143 NA 
BRANCH  14  16
HETATM   16  N   UNL     1      -8.418   8.641  66.827  1.00  0.00    -0.114 N  
HETATM   17  H   UNL     1      -8.132   8.465  65.864  1.00  0.00     0.000 HD 
HETATM   18  C   UNL     1      -8.984   7.592  67.537  1.00  0.00    -0.126 C  
HETATM   19  O   UNL     1      -9.391   7.657  68.692  1.00  0.00    -0.147 OA 
BRANCH  18  20
HETATM   20  C   UNL     1      -9.097   6.284  66.831  1.00  0.00    -0.132 A  
HETATM   21  C   UNL     1      -7.982   5.509  66.497  1.00  0.00    -0.101 A  
HETATM   22  C   UNL     1      -8.115   4.278  65.857  1.00  0.00    -0.098 A  
HETATM   23  F   UNL     1      -6.738   5.926  66.786  1.00  0.00    -0.050 F  
HETATM   24  C   UNL     1      -9.382   3.813  65.542  1.00  0.00    -0.160 A  
HETATM   25  C   UNL     1     -10.510   4.554  65.850  1.00  0.00    -0.262 A  
HETATM   26  F   UNL     1      -9.518   2.628  64.931  1.00  0.00    -0.148 F  
HETATM   27  C   UNL     1     -10.362   5.784  66.491  1.00  0.00    -0.209 A  
HETATM   28  F   UNL     1     -11.486   6.462  66.761  1.00  0.00    -0.419 F  
ENDBRANCH  18  20
ENDBRANCH  14  16
ENDBRANCH   8  10
ENDBRANCH   5   8
TORSDOF 4
ENDMDL
MODEL      137
REMARK 921   NORMALIZED FREE ENERGY PREDICTED BY IDOCK:   -4.78 KCAL/MOL
REMARK 922        TOTAL FREE ENERGY PREDICTED BY IDOCK:   -6.25 KCAL/MOL
REMARK 923 INTER-LIGAND FREE ENERGY PREDICTED BY IDOCK:   -6.08 KCAL/MOL
REMARK 924 INTRA-LIGAND FREE ENERGY PREDICTED BY IDOCK:   -0.17 KCAL/MOL
REMARK 927      BINDING AFFINITY PREDICTED BY RF-SCORE:    0.00 PKD
ROOT
HETATM    1  C   UNL     1     -13.674   7.969  71.801  1.00  0.00    -0.359 C  
HETATM    2  N   UNL     1     -12.402   8.685  71.817  1.00  0.00    -0.325 NA 
HETATM    3  C   UNL     1     -11.491   8.184  72.856  1.00  0.00    -0.205 C  
HETATM    4  C   UNL     1     -10.809   6.851  72.520  1.00  0.00    -0.277 C  
HETATM    5  C   UNL     1     -10.121   6.876  71.144  1.00  0.00    -0.204 C  
HETATM    6  C   UNL     1     -11.136   7.363  70.103  1.00  0.00    -0.265 C  
HETATM    7  C   UNL     1     -11.757   8.699  70.500  1.00  0.00    -0.081 C  
ENDROOT
BRANCH   5   8
HETATM    8  C   UNL     1      -8.824   7.705  71.186  1.00  0.00    -0.137 C  
HETATM    9  O   UNL     1      -8.225   7.949  72.234  1.00  0.00    -0.109 OA 
BRANCH   8  10
HETATM   10  C   UNL     1      -8.225   8.180  69.905  1.00  0.00    -0.118 A  
HETATM   11  C   UNL     1      -7.056   7.614  69.419  1.00  0.00    -0.075 A  
HETATM   12  C   UNL     1      -6.548   8.098  68.217  1.00  0.00    -0.060 A  
HETATM   13  C   UNL     1      -7.218   9.128  67.558  1.00  0.00    -0.080 A  
HETATM   14  C   UNL     1      -8.384   9.641  68.118  1.00  0.00    -0.117 A  
HETATM   15  N   UNL     1      -8.885   9.163  69.264  1.00  0.00    -0.140 NA 
BRANCH  14  16
HETATM   16  N   UNL     1      -9.041  10.687  67.454  1.00  0.00    -0.139 N  
HETATM   17  H   UNL     1      -8.905  11.635  67.806  1.00  0.00     0.000 HD 
HETATM   18  C   UNL     1      -9.862  10.518  66.351  1.00  0.00    -0.210 C  
HETATM   19  O   UNL     1     -10.134   9.442  65.828  1.00  0.00    -0.288 OA 
BRANCH  18  20
HETATM   20  C   UNL     1     -10.456  11.750  65.756  1.00  0.00    -0.302 A  
HETATM   21  C   UNL     1     -10.248  12.118  64.423  1.00  0.00    -0.306 A  
HETATM   22  C   UNL     1     -10.831  13.263  63.883  1.00  0.00    -0.178 A  
HETATM   23  F   UNL     1      -9.477  11.374  63.612  1.00  0.00    -0.217 F  
HETATM   24  C   UNL     1     -11.634  14.057  64.688  1.00  0.00    -0.392 A  
HETATM   25  C   UNL     1     -11.858  13.729  66.015  1.00  0.00    -0.415 A  
HETATM   26  F   UNL     1     -12.202  15.156  64.175  1.00  0.00    -0.487 F  
HETATM   27  C   UNL     1     -11.268  12.580  66.541  1.00  0.00    -0.307 A  
HETATM   28  F   UNL     1     -11.514  12.314  67.831  1.00  0.00    -0.283 F  
ENDBRANCH  18  20
ENDBRANCH  14  16
ENDBRANCH   8  10
ENDBRANCH   5   8
TORSDOF 4
ENDMDL
MODEL      138
REMARK 921   NORMALIZED FREE ENERGY PREDICTED BY IDOCK:   -4.74 KCAL/MOL
REMARK 922        TOTAL FREE ENERGY PREDICTED BY IDOCK:   -6.21 KCAL/MOL
REMARK 923 INTER-LIGAND FREE ENERGY PREDICTED BY IDOCK:   -6.14 KCAL/MOL
REMARK 924 INTRA-LIGAND FREE ENERGY PREDICTED BY IDOCK:   -0.07 KCAL/MOL
REMARK 927      BINDING AFFINITY PREDICTED BY RF-SCORE:    0.00 PKD
ROOT
HETATM    1  C   UNL     1     -10.279  20.054  66.789  1.00  0.00    -0.462 C  
HETATM    2  N   UNL     1     -10.175  19.078  67.869  1.00  0.00    -0.380 NA 
HETATM    3  C   UNL     1     -10.814  17.799  67.531  1.00  0.00    -0.211 C  
HETATM    4  C   UNL     1     -10.005  16.915  66.571  1.00  0.00    -0.309 C  
HETATM    5  C   UNL     1      -8.558  16.704  67.049  1.00  0.00    -0.220 C  
HETATM    6  C   UNL     1      -7.938  18.076  67.340  1.00  0.00    -0.227 C  
HETATM    7  C   UNL     1      -8.791  18.886  68.313  1.00  0.00    -0.332 C  
ENDROOT
BRANCH   5   8
HETATM    8  C   UNL     1      -8.502  15.728  68.238  1.00  0.00    -0.164 C  
HETATM    9  O   UNL     1      -9.200  15.864  69.243  1.00  0.00    -0.238 OA 
BRANCH   8  10
HETATM   10  C   UNL     1      -7.619  14.529  68.151  1.00  0.00    -0.125 A  
HETATM   11  C   UNL     1      -6.269  14.665  67.864  1.00  0.00    -0.171 A  
HETATM   12  C   UNL     1      -5.495  13.510  67.799  1.00  0.00    -0.072 A  
HETATM   13  C   UNL     1      -6.099  12.271  68.014  1.00  0.00    -0.070 A  
HETATM   14  C   UNL     1      -7.461  12.226  68.294  1.00  0.00    -0.119 A  
HETATM   15  N   UNL     1      -8.203  13.337  68.377  1.00  0.00    -0.153 NA 
BRANCH  14  16
HETATM   16  N   UNL     1      -8.061  10.973  68.493  1.00  0.00    -0.133 N  
HETATM   17  H   UNL     1      -7.486  10.225  68.881  1.00  0.00     0.000 HD 
HETATM   18  C   UNL     1      -9.384  10.685  68.197  1.00  0.00    -0.151 C  
HETATM   19  O   UNL     1     -10.189  11.473  67.711  1.00  0.00    -0.177 OA 
BRANCH  18  20
HETATM   20  C   UNL     1      -9.859   9.305  68.501  1.00  0.00    -0.173 A  
HETATM   21  C   UNL     1     -10.045   8.843  69.807  1.00  0.00    -0.199 A  
HETATM   22  C   UNL     1     -10.510   7.555  70.066  1.00  0.00    -0.231 A  
HETATM   23  F   UNL     1      -9.781   9.630  70.863  1.00  0.00    -0.314 F  
HETATM   24  C   UNL     1     -10.794   6.712  69.003  1.00  0.00    -0.277 A  
HETATM   25  C   UNL     1     -10.617   7.130  67.695  1.00  0.00    -0.318 A  
HETATM   26  F   UNL     1     -11.247   5.474  69.244  1.00  0.00    -0.353 F  
HETATM   27  C   UNL     1     -10.150   8.422  67.451  1.00  0.00    -0.236 A  
HETATM   28  F   UNL     1      -9.992   8.773  66.167  1.00  0.00    -0.321 F  
ENDBRANCH  18  20
ENDBRANCH  14  16
ENDBRANCH   8  10
ENDBRANCH   5   8
TORSDOF 4
ENDMDL
MODEL      139
REMARK 921   NORMALIZED FREE ENERGY PREDICTED BY IDOCK:   -4.73 KCAL/MOL
REMARK 922        TOTAL FREE ENERGY PREDICTED BY IDOCK:   -6.19 KCAL/MOL
REMARK 923 INTER-LIGAND FREE ENERGY PREDICTED BY IDOCK:   -6.12 KCAL/MOL
REMARK 924 INTRA-LIGAND FREE ENERGY PREDICTED BY IDOCK:   -0.07 KCAL/MOL
REMARK 927      BINDING AFFINITY PREDICTED BY RF-SCORE:    0.00 PKD
ROOT
HETATM    1  C   UNL     1      -8.943  18.821  66.707  1.00  0.00    -0.308 C  
HETATM    2  N   UNL     1      -8.784  17.538  66.031  1.00  0.00    -0.524 NA 
HETATM    3  C   UNL     1      -7.892  16.627  66.762  1.00  0.00    -0.255 C  
HETATM    4  C   UNL     1      -8.523  15.969  67.998  1.00  0.00    -0.164 C  
HETATM    5  C   UNL     1      -9.867  15.292  67.678  1.00  0.00    -0.217 C  
HETATM    6  C   UNL     1     -10.763  16.307  66.959  1.00  0.00    -0.233 C  
HETATM    7  C   UNL     1     -10.073  16.903  65.735  1.00  0.00    -0.229 C  
ENDROOT
BRANCH   5   8
HETATM    8  C   UNL     1      -9.657  13.982  66.898  1.00  0.00    -0.271 C  
HETATM    9  O   UNL     1     -10.121  13.796  65.772  1.00  0.00    -0.300 OA 
BRANCH   8  10
HETATM   10  C   UNL     1      -8.803  12.913  67.493  1.00  0.00    -0.192 A  
HETATM   11  C   UNL     1      -7.439  12.879  67.247  1.00  0.00    -0.092 A  
HETATM   12  C   UNL     1      -6.695  11.859  67.833  1.00  0.00    -0.079 A  
HETATM   13  C   UNL     1      -7.342  10.913  68.629  1.00  0.00    -0.101 A  
HETATM   14  C   UNL     1      -8.715  11.021  68.822  1.00  0.00    -0.145 A  
HETATM   15  N   UNL     1      -9.429  12.013  68.275  1.00  0.00    -0.199 NA 
BRANCH  14  16
HETATM   16  N   UNL     1      -9.357  10.055  69.612  1.00  0.00    -0.246 N  
HETATM   17  H   UNL     1     -10.125  10.362  70.209  1.00  0.00     0.000 HD 
HETATM   18  C   UNL     1      -9.016   8.712  69.633  1.00  0.00    -0.145 C  
HETATM   19  O   UNL     1      -8.108   8.201  68.986  1.00  0.00    -0.112 OA 
BRANCH  18  20
HETATM   20  C   UNL     1      -9.827   7.824  70.514  1.00  0.00    -0.182 A  
HETATM   21  C   UNL     1      -9.730   7.852  71.908  1.00  0.00    -0.177 A  
HETATM   22  C   UNL     1     -10.515   7.026  72.711  1.00  0.00    -0.266 A  
HETATM   23  F   UNL     1      -8.872   8.682  72.525  1.00  0.00    -0.276 F  
HETATM   24  C   UNL     1     -11.412   6.155  72.112  1.00  0.00    -0.311 A  
HETATM   25  C   UNL     1     -11.533   6.093  70.735  1.00  0.00    -0.321 A  
HETATM   26  F   UNL     1     -12.174   5.363  72.878  1.00  0.00    -0.322 F  
HETATM   27  C   UNL     1     -10.741   6.926  69.944  1.00  0.00    -0.246 A  
HETATM   28  F   UNL     1     -10.895   6.820  68.616  1.00  0.00    -0.207 F  
ENDBRANCH  18  20
ENDBRANCH  14  16
ENDBRANCH   8  10
ENDBRANCH   5   8
TORSDOF 4
ENDMDL
MODEL      140
REMARK 921   NORMALIZED FREE ENERGY PREDICTED BY IDOCK:   -4.71 KCAL/MOL
REMARK 922        TOTAL FREE ENERGY PREDICTED BY IDOCK:   -6.17 KCAL/MOL
REMARK 923 INTER-LIGAND FREE ENERGY PREDICTED BY IDOCK:   -5.88 KCAL/MOL
REMARK 924 INTRA-LIGAND FREE ENERGY PREDICTED BY IDOCK:   -0.29 KCAL/MOL
REMARK 927      BINDING AFFINITY PREDICTED BY RF-SCORE:    0.00 PKD
ROOT
HETATM    1  C   UNL     1      -9.371  18.310  67.717  1.00  0.00    -0.271 C  
HETATM    2  N   UNL     1     -10.416  17.383  67.294  1.00  0.00    -0.337 NA 
HETATM    3  C   UNL     1      -9.920  16.377  66.346  1.00  0.00    -0.303 C  
HETATM    4  C   UNL     1      -9.092  15.251  66.983  1.00  0.00    -0.245 C  
HETATM    5  C   UNL     1      -9.818  14.589  68.166  1.00  0.00    -0.223 C  
HETATM    6  C   UNL     1     -10.269  15.688  69.136  1.00  0.00    -0.233 C  
HETATM    7  C   UNL     1     -11.098  16.758  68.432  1.00  0.00    -0.266 C  
ENDROOT
BRANCH   5   8
HETATM    8  C   UNL     1     -10.961  13.680  67.678  1.00  0.00    -0.267 C  
HETATM    9  O   UNL     1     -12.123  14.074  67.565  1.00  0.00    -0.391 OA 
BRANCH   8  10
HETATM   10  C   UNL     1     -10.647  12.283  67.259  1.00  0.00    -0.224 A  
HETATM   11  C   UNL     1     -10.845  11.877  65.948  1.00  0.00    -0.342 A  
HETATM   12  C   UNL     1     -10.531  10.562  65.617  1.00  0.00    -0.213 A  
HETATM   13  C   UNL     1     -10.044   9.707  66.606  1.00  0.00    -0.307 A  
HETATM   14  C   UNL     1      -9.878  10.197  67.898  1.00  0.00    -0.151 A  
HETATM   15  N   UNL     1     -10.160  11.467  68.213  1.00  0.00    -0.193 NA 
BRANCH  14  16
HETATM   16  N   UNL     1      -9.401   9.324  68.887  1.00  0.00    -0.149 N  
HETATM   17  H   UNL     1      -8.628   8.705  68.645  1.00  0.00     0.000 HD 
HETATM   18  C   UNL     1      -9.912   9.248  70.174  1.00  0.00    -0.215 C  
HETATM   19  O   UNL     1     -10.848   9.914  70.604  1.00  0.00    -0.301 OA 
BRANCH  18  20
HETATM   20  C   UNL     1      -9.262   8.281  71.103  1.00  0.00    -0.200 A  
HETATM   21  C   UNL     1      -9.883   7.099  71.516  1.00  0.00    -0.171 A  
HETATM   22  C   UNL     1      -9.246   6.199  72.369  1.00  0.00    -0.139 A  
HETATM   23  F   UNL     1     -11.123   6.788  71.102  1.00  0.00    -0.263 F  
HETATM   24  C   UNL     1      -7.966   6.484  72.818  1.00  0.00    -0.102 A  
HETATM   25  C   UNL     1      -7.319   7.647  72.437  1.00  0.00    -0.086 A  
HETATM   26  F   UNL     1      -7.345   5.621  73.633  1.00  0.00    -0.083 F  
HETATM   27  C   UNL     1      -7.970   8.538  71.583  1.00  0.00    -0.142 A  
HETATM   28  F   UNL     1      -7.300   9.651  71.250  1.00  0.00    -0.066 F  
ENDBRANCH  18  20
ENDBRANCH  14  16
ENDBRANCH   8  10
ENDBRANCH   5   8
TORSDOF 4
ENDMDL
MODEL      141
REMARK 921   NORMALIZED FREE ENERGY PREDICTED BY IDOCK:   -4.69 KCAL/MOL
REMARK 922        TOTAL FREE ENERGY PREDICTED BY IDOCK:   -6.14 KCAL/MOL
REMARK 923 INTER-LIGAND FREE ENERGY PREDICTED BY IDOCK:   -6.52 KCAL/MOL
REMARK 924 INTRA-LIGAND FREE ENERGY PREDICTED BY IDOCK:    0.37 KCAL/MOL
REMARK 927      BINDING AFFINITY PREDICTED BY RF-SCORE:    0.00 PKD
ROOT
HETATM    1  C   UNL     1      -6.588  10.640  66.289  1.00  0.00    -0.126 C  
HETATM    2  N   UNL     1      -7.309  10.274  67.504  1.00  0.00    -0.088 NA 
HETATM    3  C   UNL     1      -7.872   8.918  67.433  1.00  0.00    -0.097 C  
HETATM    4  C   UNL     1      -6.848   7.790  67.625  1.00  0.00    -0.069 C  
HETATM    5  C   UNL     1      -6.005   7.975  68.898  1.00  0.00    -0.039 C  
HETATM    6  C   UNL     1      -5.413   9.389  68.887  1.00  0.00    -0.037 C  
HETATM    7  C   UNL     1      -6.493  10.453  68.709  1.00  0.00    -0.051 C  
ENDROOT
BRANCH   5   8
HETATM    8  C   UNL     1      -6.826   7.652  70.160  1.00  0.00    -0.050 C  
HETATM    9  O   UNL     1      -6.305   7.396  71.246  1.00  0.00    -0.036 OA 
BRANCH   8  10
HETATM   10  C   UNL     1      -8.315   7.715  70.091  1.00  0.00    -0.130 A  
HETATM   11  C   UNL     1      -9.048   6.630  69.634  1.00  0.00    -0.142 A  
HETATM   12  C   UNL     1     -10.434   6.748  69.597  1.00  0.00    -0.243 A  
HETATM   13  C   UNL     1     -11.029   7.941  70.005  1.00  0.00    -0.208 A  
HETATM   14  C   UNL     1     -10.218   8.981  70.448  1.00  0.00    -0.209 A  
HETATM   15  N   UNL     1      -8.886   8.862  70.504  1.00  0.00    -0.172 NA 
BRANCH  14  16
HETATM   16  N   UNL     1     -10.827  10.182  70.843  1.00  0.00    -0.359 N  
HETATM   17  H   UNL     1     -10.624  10.535  71.778  1.00  0.00     0.000 HD 
HETATM   18  C   UNL     1     -11.687  10.920  70.044  1.00  0.00    -0.345 C  
HETATM   19  O   UNL     1     -12.037  10.615  68.910  1.00  0.00    -0.361 OA 
BRANCH  18  20
HETATM   20  C   UNL     1     -12.219  12.189  70.619  1.00  0.00    -0.392 A  
HETATM   21  C   UNL     1     -13.065  12.216  71.731  1.00  0.00    -0.352 A  
HETATM   22  C   UNL     1     -13.533  13.416  72.264  1.00  0.00    -0.683 A  
HETATM   23  F   UNL     1     -13.458  11.079  72.329  1.00  0.00    -0.549 F  
HETATM   24  C   UNL     1     -13.151  14.612  71.674  1.00  0.00    -0.346 A  
HETATM   25  C   UNL     1     -12.319  14.627  70.568  1.00  0.00    -0.400 A  
HETATM   26  F   UNL     1     -13.591  15.770  72.184  1.00  0.00    -0.485 F  
HETATM   27  C   UNL     1     -11.858  13.417  70.046  1.00  0.00    -0.294 A  
HETATM   28  F   UNL     1     -11.061  13.490  68.971  1.00  0.00    -0.251 F  
ENDBRANCH  18  20
ENDBRANCH  14  16
ENDBRANCH   8  10
ENDBRANCH   5   8
TORSDOF 4
ENDMDL
MODEL      142
REMARK 921   NORMALIZED FREE ENERGY PREDICTED BY IDOCK:   -4.68 KCAL/MOL
REMARK 922        TOTAL FREE ENERGY PREDICTED BY IDOCK:   -6.12 KCAL/MOL
REMARK 923 INTER-LIGAND FREE ENERGY PREDICTED BY IDOCK:   -5.65 KCAL/MOL
REMARK 924 INTRA-LIGAND FREE ENERGY PREDICTED BY IDOCK:   -0.47 KCAL/MOL
REMARK 927      BINDING AFFINITY PREDICTED BY RF-SCORE:    0.00 PKD
ROOT
HETATM    1  C   UNL     1      -6.679   5.744  62.853  1.00  0.00    -0.036 C  
HETATM    2  N   UNL     1      -5.992   7.007  63.100  1.00  0.00    -0.040 NA 
HETATM    3  C   UNL     1      -6.773   8.166  62.646  1.00  0.00    -0.086 C  
HETATM    4  C   UNL     1      -7.942   8.550  63.566  1.00  0.00    -0.161 C  
HETATM    5  C   UNL     1      -7.502   8.714  65.031  1.00  0.00    -0.088 C  
HETATM    6  C   UNL     1      -6.735   7.456  65.453  1.00  0.00    -0.048 C  
HETATM    7  C   UNL     1      -5.582   7.152  64.500  1.00  0.00    -0.033 C  
ENDROOT
BRANCH   5   8
HETATM    8  C   UNL     1      -6.715  10.022  65.231  1.00  0.00    -0.117 C  
HETATM    9  O   UNL     1      -6.018  10.522  64.347  1.00  0.00    -0.129 OA 
BRANCH   8  10
HETATM   10  C   UNL     1      -6.848  10.758  66.522  1.00  0.00    -0.130 A  
HETATM   11  C   UNL     1      -5.951  11.760  66.860  1.00  0.00    -0.140 A  
HETATM   12  C   UNL     1      -6.129  12.412  68.077  1.00  0.00    -0.075 A  
HETATM   13  C   UNL     1      -7.183  12.032  68.908  1.00  0.00    -0.089 A  
HETATM   14  C   UNL     1      -8.035  11.014  68.492  1.00  0.00    -0.137 A  
HETATM   15  N   UNL     1      -7.878  10.400  67.312  1.00  0.00    -0.106 NA 
BRANCH  14  16
HETATM   16  N   UNL     1      -9.082  10.630  69.342  1.00  0.00    -0.393 N  
HETATM   17  H   UNL     1      -8.840  10.178  70.224  1.00  0.00     0.000 HD 
HETATM   18  C   UNL     1     -10.426  10.824  69.063  1.00  0.00    -0.215 C  
HETATM   19  O   UNL     1     -10.870  11.335  68.040  1.00  0.00    -0.191 OA 
BRANCH  18  20
HETATM   20  C   UNL     1     -11.402  10.378  70.097  1.00  0.00    -0.397 A  
HETATM   21  C   UNL     1     -12.217  11.271  70.800  1.00  0.00    -0.380 A  
HETATM   22  C   UNL     1     -13.137  10.827  71.748  1.00  0.00    -0.573 A  
HETATM   23  F   UNL     1     -12.140  12.594  70.583  1.00  0.00    -0.421 F  
HETATM   24  C   UNL     1     -13.246   9.469  72.001  1.00  0.00    -0.452 A  
HETATM   25  C   UNL     1     -12.453   8.553  71.331  1.00  0.00    -0.327 A  
HETATM   26  F   UNL     1     -14.133   9.035  72.907  1.00  0.00    -0.475 F  
HETATM   27  C   UNL     1     -11.536   9.012  70.384  1.00  0.00    -0.173 A  
HETATM   28  F   UNL     1     -10.790   8.084  69.770  1.00  0.00    -0.241 F  
ENDBRANCH  18  20
ENDBRANCH  14  16
ENDBRANCH   8  10
ENDBRANCH   5   8
TORSDOF 4
ENDMDL
MODEL      143
REMARK 921   NORMALIZED FREE ENERGY PREDICTED BY IDOCK:   -4.63 KCAL/MOL
REMARK 922        TOTAL FREE ENERGY PREDICTED BY IDOCK:   -6.07 KCAL/MOL
REMARK 923 INTER-LIGAND FREE ENERGY PREDICTED BY IDOCK:   -5.61 KCAL/MOL
REMARK 924 INTRA-LIGAND FREE ENERGY PREDICTED BY IDOCK:   -0.46 KCAL/MOL
REMARK 927      BINDING AFFINITY PREDICTED BY RF-SCORE:    0.00 PKD
ROOT
HETATM    1  C   UNL     1     -11.478  15.931  64.106  1.00  0.00    -0.052 C  
HETATM    2  N   UNL     1     -11.535  15.683  65.543  1.00  0.00    -0.024 NA 
HETATM    3  C   UNL     1     -11.654  14.253  65.859  1.00  0.00    -0.358 C  
HETATM    4  C   UNL     1     -10.352  13.454  65.709  1.00  0.00    -0.296 C  
HETATM    5  C   UNL     1      -9.181  14.096  66.474  1.00  0.00    -0.247 C  
HETATM    6  C   UNL     1      -9.085  15.571  66.065  1.00  0.00    -0.316 C  
HETATM    7  C   UNL     1     -10.413  16.299  66.257  1.00  0.00    -0.308 C  
ENDROOT
BRANCH   5   8
HETATM    8  C   UNL     1      -9.321  13.877  67.991  1.00  0.00    -0.204 C  
HETATM    9  O   UNL     1      -8.753  14.587  68.822  1.00  0.00    -0.174 OA 
BRANCH   8  10
HETATM   10  C   UNL     1     -10.232  12.804  68.487  1.00  0.00    -0.200 A  
HETATM   11  C   UNL     1     -11.437  13.125  69.093  1.00  0.00    -0.358 A  
HETATM   12  C   UNL     1     -12.245  12.080  69.532  1.00  0.00    -0.176 A  
HETATM   13  C   UNL     1     -11.815  10.765  69.359  1.00  0.00    -0.370 A  
HETATM   14  C   UNL     1     -10.590  10.533  68.742  1.00  0.00    -0.207 A  
HETATM   15  N   UNL     1      -9.821  11.536  68.300  1.00  0.00    -0.197 NA 
BRANCH  14  16
HETATM   16  N   UNL     1     -10.161   9.206  68.586  1.00  0.00    -0.188 N  
HETATM   17  H   UNL     1      -9.989   8.659  69.429  1.00  0.00     0.000 HD 
HETATM   18  C   UNL     1      -9.955   8.591  67.361  1.00  0.00    -0.214 C  
HETATM   19  O   UNL     1     -10.103   9.125  66.267  1.00  0.00    -0.286 OA 
BRANCH  18  20
HETATM   20  C   UNL     1      -9.525   7.164  67.386  1.00  0.00    -0.156 A  
HETATM   21  C   UNL     1     -10.381   6.113  67.044  1.00  0.00    -0.237 A  
HETATM   22  C   UNL     1      -9.949   4.787  67.055  1.00  0.00    -0.235 A  
HETATM   23  F   UNL     1     -11.655   6.346  66.689  1.00  0.00    -0.318 F  
HETATM   24  C   UNL     1      -8.641   4.505  67.415  1.00  0.00    -0.104 A  
HETATM   25  C   UNL     1      -7.765   5.518  67.767  1.00  0.00    -0.092 A  
HETATM   26  F   UNL     1      -8.217   3.234  67.422  1.00  0.00    -0.080 F  
HETATM   27  C   UNL     1      -8.211   6.840  67.752  1.00  0.00    -0.120 A  
HETATM   28  F   UNL     1      -7.323   7.779  68.106  1.00  0.00    -0.092 F  
ENDBRANCH  18  20
ENDBRANCH  14  16
ENDBRANCH   8  10
ENDBRANCH   5   8
TORSDOF 4
ENDMDL
MODEL      144
REMARK 921   NORMALIZED FREE ENERGY PREDICTED BY IDOCK:   -4.60 KCAL/MOL
REMARK 922        TOTAL FREE ENERGY PREDICTED BY IDOCK:   -6.03 KCAL/MOL
REMARK 923 INTER-LIGAND FREE ENERGY PREDICTED BY IDOCK:   -5.34 KCAL/MOL
REMARK 924 INTRA-LIGAND FREE ENERGY PREDICTED BY IDOCK:   -0.69 KCAL/MOL
REMARK 927      BINDING AFFINITY PREDICTED BY RF-SCORE:    0.00 PKD
ROOT
HETATM    1  C   UNL     1      -8.494   5.344  65.096  1.00  0.00    -0.150 C  
HETATM    2  N   UNL     1      -7.436   6.348  65.075  1.00  0.00    -0.078 NA 
HETATM    3  C   UNL     1      -7.409   7.107  63.817  1.00  0.00    -0.089 C  
HETATM    4  C   UNL     1      -8.508   8.171  63.688  1.00  0.00     0.104 C  
HETATM    5  C   UNL     1      -8.555   9.113  64.903  1.00  0.00    -0.208 C  
HETATM    6  C   UNL     1      -8.627   8.261  66.176  1.00  0.00    -0.156 C  
HETATM    7  C   UNL     1      -7.494   7.240  66.238  1.00  0.00    -0.083 C  
ENDROOT
BRANCH   5   8
HETATM    8  C   UNL     1      -7.378  10.106  64.882  1.00  0.00    -0.136 C  
HETATM    9  O   UNL     1      -6.749  10.370  63.857  1.00  0.00    -0.100 OA 
BRANCH   8  10
HETATM   10  C   UNL     1      -7.020  10.832  66.135  1.00  0.00    -0.124 A  
HETATM   11  C   UNL     1      -5.705  10.883  66.572  1.00  0.00    -0.101 A  
HETATM   12  C   UNL     1      -5.433  11.578  67.746  1.00  0.00    -0.049 A  
HETATM   13  C   UNL     1      -6.481  12.184  68.439  1.00  0.00    -0.056 A  
HETATM   14  C   UNL     1      -7.773  12.082  67.931  1.00  0.00    -0.134 A  
HETATM   15  N   UNL     1      -8.033  11.431  66.790  1.00  0.00    -0.158 NA 
BRANCH  14  16
HETATM   16  N   UNL     1      -8.821  12.683  68.644  1.00  0.00    -0.386 N  
HETATM   17  H   UNL     1      -9.075  12.282  69.547  1.00  0.00     0.000 HD 
HETATM   18  C   UNL     1      -9.535  13.785  68.201  1.00  0.00    -0.212 C  
HETATM   19  O   UNL     1      -9.358  14.362  67.134  1.00  0.00    -0.203 OA 
BRANCH  18  20
HETATM   20  C   UNL     1     -10.599  14.308  69.106  1.00  0.00    -0.201 A  
HETATM   21  C   UNL     1     -11.785  13.611  69.356  1.00  0.00    -0.324 A  
HETATM   22  C   UNL     1     -12.755  14.110  70.223  1.00  0.00    -0.287 A  
HETATM   23  F   UNL     1     -12.029  12.428  68.768  1.00  0.00    -0.320 F  
HETATM   24  C   UNL     1     -12.541  15.328  70.850  1.00  0.00    -0.412 A  
HETATM   25  C   UNL     1     -11.382  16.051  70.623  1.00  0.00    -0.424 A  
HETATM   26  F   UNL     1     -13.467  15.811  71.688  1.00  0.00    -0.514 F  
HETATM   27  C   UNL     1     -10.419  15.539  69.753  1.00  0.00    -0.301 A  
HETATM   28  F   UNL     1      -9.320  16.283  69.565  1.00  0.00    -0.239 F  
ENDBRANCH  18  20
ENDBRANCH  14  16
ENDBRANCH   8  10
ENDBRANCH   5   8
TORSDOF 4
ENDMDL
MODEL      145
REMARK 921   NORMALIZED FREE ENERGY PREDICTED BY IDOCK:   -4.58 KCAL/MOL
REMARK 922        TOTAL FREE ENERGY PREDICTED BY IDOCK:   -6.00 KCAL/MOL
REMARK 923 INTER-LIGAND FREE ENERGY PREDICTED BY IDOCK:   -5.54 KCAL/MOL
REMARK 924 INTRA-LIGAND FREE ENERGY PREDICTED BY IDOCK:   -0.47 KCAL/MOL
REMARK 927      BINDING AFFINITY PREDICTED BY RF-SCORE:    0.00 PKD
ROOT
HETATM    1  C   UNL     1     -11.442   5.399  72.958  1.00  0.00    -0.259 C  
HETATM    2  N   UNL     1     -10.418   5.816  72.005  1.00  0.00    -0.211 NA 
HETATM    3  C   UNL     1     -10.989   6.485  70.828  1.00  0.00    -0.276 C  
HETATM    4  C   UNL     1     -11.441   7.932  71.071  1.00  0.00    -0.298 C  
HETATM    5  C   UNL     1     -10.338   8.789  71.716  1.00  0.00    -0.413 C  
HETATM    6  C   UNL     1      -9.819   8.057  72.959  1.00  0.00    -0.352 C  
HETATM    7  C   UNL     1      -9.375   6.633  72.633  1.00  0.00    -0.139 C  
ENDROOT
BRANCH   5   8
HETATM    8  C   UNL     1      -9.241   9.142  70.696  1.00  0.00    -0.258 C  
HETATM    9  O   UNL     1      -8.056   9.265  71.008  1.00  0.00    -0.251 OA 
BRANCH   8  10
HETATM   10  C   UNL     1      -9.607   9.277  69.256  1.00  0.00    -0.161 A  
HETATM   11  C   UNL     1      -9.984  10.505  68.734  1.00  0.00    -0.200 A  
HETATM   12  C   UNL     1     -10.311  10.569  67.383  1.00  0.00    -0.269 A  
HETATM   13  C   UNL     1     -10.257   9.407  66.613  1.00  0.00    -0.319 A  
HETATM   14  C   UNL     1      -9.870   8.215  67.217  1.00  0.00    -0.197 A  
HETATM   15  N   UNL     1      -9.536   8.156  68.512  1.00  0.00    -0.142 NA 
BRANCH  14  16
HETATM   16  N   UNL     1      -9.834   7.051  66.436  1.00  0.00    -0.401 N  
HETATM   17  H   UNL     1     -10.709   6.725  66.025  1.00  0.00     0.000 HD 
HETATM   18  C   UNL     1      -8.687   6.313  66.186  1.00  0.00    -0.145 C  
HETATM   19  O   UNL     1      -7.571   6.569  66.624  1.00  0.00    -0.091 OA 
BRANCH  18  20
HETATM   20  C   UNL     1      -8.832   5.117  65.308  1.00  0.00    -0.152 A  
HETATM   21  C   UNL     1      -9.339   3.899  65.771  1.00  0.00    -0.162 A  
HETATM   22  C   UNL     1      -9.485   2.801  64.926  1.00  0.00    -0.108 A  
HETATM   23  F   UNL     1      -9.706   3.746  67.054  1.00  0.00    -0.218 F  
HETATM   24  C   UNL     1      -9.117   2.918  63.594  1.00  0.00    -0.096 A  
HETATM   25  C   UNL     1      -8.605   4.105  63.099  1.00  0.00    -0.103 A  
HETATM   26  F   UNL     1      -9.260   1.868  62.775  1.00  0.00    -0.087 F  
HETATM   27  C   UNL     1      -8.465   5.197  63.957  1.00  0.00    -0.123 A  
HETATM   28  F   UNL     1      -7.959   6.319  63.426  1.00  0.00    -0.102 F  
ENDBRANCH  18  20
ENDBRANCH  14  16
ENDBRANCH   8  10
ENDBRANCH   5   8
TORSDOF 4
ENDMDL
MODEL      146
REMARK 921   NORMALIZED FREE ENERGY PREDICTED BY IDOCK:   -4.57 KCAL/MOL
REMARK 922        TOTAL FREE ENERGY PREDICTED BY IDOCK:   -6.00 KCAL/MOL
REMARK 923 INTER-LIGAND FREE ENERGY PREDICTED BY IDOCK:   -5.63 KCAL/MOL
REMARK 924 INTRA-LIGAND FREE ENERGY PREDICTED BY IDOCK:   -0.36 KCAL/MOL
REMARK 927      BINDING AFFINITY PREDICTED BY RF-SCORE:    0.00 PKD
ROOT
HETATM    1  C   UNL     1      -5.405  10.793  68.447  1.00  0.00    -0.040 C  
HETATM    2  N   UNL     1      -6.736  10.196  68.406  1.00  0.00    -0.054 NA 
HETATM    3  C   UNL     1      -7.783  11.135  68.832  1.00  0.00    -0.137 C  
HETATM    4  C   UNL     1      -8.158  12.193  67.784  1.00  0.00    -0.152 C  
HETATM    5  C   UNL     1      -8.492  11.570  66.418  1.00  0.00    -0.138 C  
HETATM    6  C   UNL     1      -7.343  10.640  66.014  1.00  0.00    -0.132 C  
HETATM    7  C   UNL     1      -7.042   9.609  67.099  1.00  0.00    -0.086 C  
ENDROOT
BRANCH   5   8
HETATM    8  C   UNL     1      -9.871  10.886  66.443  1.00  0.00    -0.207 C  
HETATM    9  O   UNL     1     -10.341  10.302  65.466  1.00  0.00    -0.258 OA 
BRANCH   8  10
HETATM   10  C   UNL     1     -10.648  10.866  67.716  1.00  0.00    -0.217 A  
HETATM   11  C   UNL     1     -11.334  11.992  68.143  1.00  0.00    -0.349 A  
HETATM   12  C   UNL     1     -12.044  11.911  69.337  1.00  0.00    -0.277 A  
HETATM   13  C   UNL     1     -12.031  10.718  70.059  1.00  0.00    -0.427 A  
HETATM   14  C   UNL     1     -11.314   9.636  69.559  1.00  0.00    -0.040 A  
HETATM   15  N   UNL     1     -10.647   9.706  68.399  1.00  0.00    -0.223 NA 
BRANCH  14  16
HETATM   16  N   UNL     1     -11.296   8.445  70.301  1.00  0.00    -0.427 N  
HETATM   17  H   UNL     1     -12.168   7.923  70.387  1.00  0.00     0.000 HD 
HETATM   18  C   UNL     1     -10.170   7.931  70.925  1.00  0.00    -0.198 C  
HETATM   19  O   UNL     1      -9.060   8.452  70.925  1.00  0.00    -0.143 OA 
BRANCH  18  20
HETATM   20  C   UNL     1     -10.330   6.637  71.647  1.00  0.00    -0.227 A  
HETATM   21  C   UNL     1     -10.875   6.553  72.932  1.00  0.00    -0.258 A  
HETATM   22  C   UNL     1     -11.034   5.329  73.579  1.00  0.00    -0.353 A  
HETATM   23  F   UNL     1     -11.267   7.657  73.590  1.00  0.00    -0.359 F  
HETATM   24  C   UNL     1     -10.641   4.167  72.933  1.00  0.00    -0.167 A  
HETATM   25  C   UNL     1     -10.092   4.208  71.663  1.00  0.00    -0.198 A  
HETATM   26  F   UNL     1     -10.797   2.986  73.546  1.00  0.00    -0.225 F  
HETATM   27  C   UNL     1      -9.938   5.441  71.028  1.00  0.00    -0.199 A  
HETATM   28  F   UNL     1      -9.396   5.424  69.802  1.00  0.00    -0.143 F  
ENDBRANCH  18  20
ENDBRANCH  14  16
ENDBRANCH   8  10
ENDBRANCH   5   8
TORSDOF 4
ENDMDL
MODEL      147
REMARK 921   NORMALIZED FREE ENERGY PREDICTED BY IDOCK:   -4.52 KCAL/MOL
REMARK 922        TOTAL FREE ENERGY PREDICTED BY IDOCK:   -5.93 KCAL/MOL
REMARK 923 INTER-LIGAND FREE ENERGY PREDICTED BY IDOCK:   -6.02 KCAL/MOL
REMARK 924 INTRA-LIGAND FREE ENERGY PREDICTED BY IDOCK:    0.09 KCAL/MOL
REMARK 927      BINDING AFFINITY PREDICTED BY RF-SCORE:    0.00 PKD
ROOT
HETATM    1  C   UNL     1     -12.748  15.376  74.086  1.00  0.00    -0.424 C  
HETATM    2  N   UNL     1     -12.984  15.861  72.730  1.00  0.00    -0.469 NA 
HETATM    3  C   UNL     1     -11.759  16.368  72.096  1.00  0.00    -0.368 C  
HETATM    4  C   UNL     1     -10.795  15.279  71.606  1.00  0.00     0.081 C  
HETATM    5  C   UNL     1     -11.493  14.239  70.713  1.00  0.00    -0.082 C  
HETATM    6  C   UNL     1     -12.732  13.719  71.450  1.00  0.00    -0.450 C  
HETATM    7  C   UNL     1     -13.647  14.859  71.890  1.00  0.00    -0.407 C  
ENDROOT
BRANCH   5   8
HETATM    8  C   UNL     1     -11.792  14.817  69.317  1.00  0.00    -0.318 C  
HETATM    9  O   UNL     1     -12.387  15.882  69.152  1.00  0.00    -0.178 OA 
BRANCH   8  10
HETATM   10  C   UNL     1     -11.287  14.098  68.112  1.00  0.00    -0.290 A  
HETATM   11  C   UNL     1     -11.471  14.628  66.844  1.00  0.00    -0.372 A  
HETATM   12  C   UNL     1     -10.975  13.913  65.758  1.00  0.00    -0.285 A  
HETATM   13  C   UNL     1     -10.326  12.698  65.980  1.00  0.00    -0.287 A  
HETATM   14  C   UNL     1     -10.186  12.238  67.286  1.00  0.00    -0.210 A  
HETATM   15  N   UNL     1     -10.645  12.935  68.333  1.00  0.00    -0.248 NA 
BRANCH  14  16
HETATM   16  N   UNL     1      -9.546  11.008  67.496  1.00  0.00    -0.163 N  
HETATM   17  H   UNL     1      -8.952  10.914  68.320  1.00  0.00     0.000 HD 
HETATM   18  C   UNL     1      -9.666   9.911  66.656  1.00  0.00    -0.198 C  
HETATM   19  O   UNL     1     -10.326   9.879  65.623  1.00  0.00    -0.220 OA 
BRANCH  18  20
HETATM   20  C   UNL     1      -8.934   8.674  67.053  1.00  0.00    -0.152 A  
HETATM   21  C   UNL     1      -9.589   7.479  67.366  1.00  0.00    -0.149 A  
HETATM   22  C   UNL     1      -8.881   6.329  67.713  1.00  0.00    -0.111 A  
HETATM   23  F   UNL     1     -10.929   7.398  67.340  1.00  0.00    -0.331 F  
HETATM   24  C   UNL     1      -7.496   6.373  67.751  1.00  0.00    -0.093 A  
HETATM   25  C   UNL     1      -6.812   7.539  67.454  1.00  0.00    -0.071 A  
HETATM   26  F   UNL     1      -6.810   5.270  68.078  1.00  0.00    -0.053 F  
HETATM   27  C   UNL     1      -7.533   8.682  67.108  1.00  0.00    -0.088 A  
HETATM   28  F   UNL     1      -6.820   9.784  66.836  1.00  0.00    -0.078 F  
ENDBRANCH  18  20
ENDBRANCH  14  16
ENDBRANCH   8  10
ENDBRANCH   5   8
TORSDOF 4
ENDMDL
MODEL      148
REMARK 921   NORMALIZED FREE ENERGY PREDICTED BY IDOCK:   -4.49 KCAL/MOL
REMARK 922        TOTAL FREE ENERGY PREDICTED BY IDOCK:   -5.89 KCAL/MOL
REMARK 923 INTER-LIGAND FREE ENERGY PREDICTED BY IDOCK:   -5.56 KCAL/MOL
REMARK 924 INTRA-LIGAND FREE ENERGY PREDICTED BY IDOCK:   -0.34 KCAL/MOL
REMARK 927      BINDING AFFINITY PREDICTED BY RF-SCORE:    0.00 PKD
ROOT
HETATM    1  C   UNL     1      -6.126  17.410  66.243  1.00  0.00    -0.203 C  
HETATM    2  N   UNL     1      -7.106  17.416  67.324  1.00  0.00    -0.162 NA 
HETATM    3  C   UNL     1      -8.235  18.316  67.051  1.00  0.00    -0.239 C  
HETATM    4  C   UNL     1      -9.258  17.771  66.043  1.00  0.00    -0.045 C  
HETATM    5  C   UNL     1      -9.748  16.361  66.413  1.00  0.00    -0.308 C  
HETATM    6  C   UNL     1      -8.525  15.465  66.639  1.00  0.00    -0.296 C  
HETATM    7  C   UNL     1      -7.566  16.066  67.664  1.00  0.00    -0.146 C  
ENDROOT
BRANCH   5   8
HETATM    8  C   UNL     1     -10.720  16.406  67.606  1.00  0.00    -0.312 C  
HETATM    9  O   UNL     1     -11.123  17.461  68.096  1.00  0.00    -0.259 OA 
BRANCH   8  10
HETATM   10  C   UNL     1     -11.252  15.125  68.156  1.00  0.00    -0.320 A  
HETATM   11  C   UNL     1     -12.114  15.126  69.242  1.00  0.00    -0.278 A  
HETATM   12  C   UNL     1     -12.579  13.901  69.708  1.00  0.00    -0.113 A  
HETATM   13  C   UNL     1     -12.160  12.728  69.080  1.00  0.00    -0.206 A  
HETATM   14  C   UNL     1     -11.291  12.817  67.997  1.00  0.00    -0.292 A  
HETATM   15  N   UNL     1     -10.858  13.997  67.535  1.00  0.00    -0.267 NA 
BRANCH  14  16
HETATM   16  N   UNL     1     -10.864  11.631  67.383  1.00  0.00    -0.236 N  
HETATM   17  H   UNL     1     -11.365  11.317  66.552  1.00  0.00     0.000 HD 
HETATM   18  C   UNL     1      -9.806  10.856  67.832  1.00  0.00    -0.172 C  
HETATM   19  O   UNL     1      -9.124  11.095  68.823  1.00  0.00    -0.177 OA 
BRANCH  18  20
HETATM   20  C   UNL     1      -9.474   9.640  67.036  1.00  0.00    -0.195 A  
HETATM   21  C   UNL     1      -8.662   9.682  65.898  1.00  0.00    -0.144 A  
HETATM   22  C   UNL     1      -8.349   8.527  65.183  1.00  0.00    -0.178 A  
HETATM   23  F   UNL     1      -8.153  10.843  65.455  1.00  0.00    -0.159 F  
HETATM   24  C   UNL     1      -8.856   7.309  65.608  1.00  0.00    -0.014 A  
HETATM   25  C   UNL     1      -9.668   7.227  66.727  1.00  0.00    -0.260 A  
HETATM   26  F   UNL     1      -8.554   6.195  64.929  1.00  0.00    -0.144 F  
HETATM   27  C   UNL     1      -9.973   8.391  67.433  1.00  0.00    -0.212 A  
HETATM   28  F   UNL     1     -10.768   8.255  68.504  1.00  0.00    -0.224 F  
ENDBRANCH  18  20
ENDBRANCH  14  16
ENDBRANCH   8  10
ENDBRANCH   5   8
TORSDOF 4
ENDMDL
MODEL      149
REMARK 921   NORMALIZED FREE ENERGY PREDICTED BY IDOCK:   -4.48 KCAL/MOL
REMARK 922        TOTAL FREE ENERGY PREDICTED BY IDOCK:   -5.88 KCAL/MOL
REMARK 923 INTER-LIGAND FREE ENERGY PREDICTED BY IDOCK:   -6.16 KCAL/MOL
REMARK 924 INTRA-LIGAND FREE ENERGY PREDICTED BY IDOCK:    0.28 KCAL/MOL
REMARK 927      BINDING AFFINITY PREDICTED BY RF-SCORE:    0.00 PKD
ROOT
HETATM    1  C   UNL     1     -11.563  16.089  71.520  1.00  0.00    -0.456 C  
HETATM    2  N   UNL     1     -11.081  15.097  70.564  1.00  0.00    -0.276 NA 
HETATM    3  C   UNL     1     -12.052  14.837  69.492  1.00  0.00    -0.290 C  
HETATM    4  C   UNL     1     -12.125  15.930  68.416  1.00  0.00     0.202 C  
HETATM    5  C   UNL     1     -10.741  16.277  67.840  1.00  0.00    -0.329 C  
HETATM    6  C   UNL     1      -9.793  16.581  69.006  1.00  0.00    -0.266 C  
HETATM    7  C   UNL     1      -9.763  15.442  70.022  1.00  0.00    -0.034 C  
ENDROOT
BRANCH   5   8
HETATM    8  C   UNL     1     -10.238  15.170  66.898  1.00  0.00    -0.259 C  
HETATM    9  O   UNL     1     -10.608  15.072  65.727  1.00  0.00    -0.303 OA 
BRANCH   8  10
HETATM   10  C   UNL     1      -9.209  14.209  67.392  1.00  0.00    -0.204 A  
HETATM   11  C   UNL     1      -7.861  14.430  67.153  1.00  0.00    -0.111 A  
HETATM   12  C   UNL     1      -6.950  13.500  67.642  1.00  0.00    -0.176 A  
HETATM   13  C   UNL     1      -7.418  12.386  68.339  1.00  0.00    -0.123 A  
HETATM   14  C   UNL     1      -8.788  12.240  68.533  1.00  0.00    -0.068 A  
HETATM   15  N   UNL     1      -9.666  13.145  68.080  1.00  0.00    -0.224 NA 
BRANCH  14  16
HETATM   16  N   UNL     1      -9.249  11.109  69.222  1.00  0.00    -0.399 N  
HETATM   17  H   UNL     1      -8.882  10.938  70.158  1.00  0.00     0.000 HD 
HETATM   18  C   UNL     1     -10.170  10.206  68.714  1.00  0.00    -0.186 C  
HETATM   19  O   UNL     1     -10.683  10.268  67.601  1.00  0.00    -0.246 OA 
BRANCH  18  20
HETATM   20  C   UNL     1     -10.567   9.075  69.600  1.00  0.00    -0.230 A  
HETATM   21  C   UNL     1     -10.152   7.759  69.374  1.00  0.00    -0.195 A  
HETATM   22  C   UNL     1     -10.519   6.721  70.229  1.00  0.00    -0.238 A  
HETATM   23  F   UNL     1      -9.380   7.449  68.319  1.00  0.00    -0.140 F  
HETATM   24  C   UNL     1     -11.315   7.001  71.329  1.00  0.00    -0.274 A  
HETATM   25  C   UNL     1     -11.751   8.290  71.584  1.00  0.00    -0.341 A  
HETATM   26  F   UNL     1     -11.666   6.009  72.159  1.00  0.00    -0.326 F  
HETATM   27  C   UNL     1     -11.376   9.318  70.719  1.00  0.00    -0.287 A  
HETATM   28  F   UNL     1     -11.831  10.545  71.009  1.00  0.00    -0.381 F  
ENDBRANCH  18  20
ENDBRANCH  14  16
ENDBRANCH   8  10
ENDBRANCH   5   8
TORSDOF 4
ENDMDL
MODEL      150
REMARK 921   NORMALIZED FREE ENERGY PREDICTED BY IDOCK:   -4.47 KCAL/MOL
REMARK 922        TOTAL FREE ENERGY PREDICTED BY IDOCK:   -5.87 KCAL/MOL
REMARK 923 INTER-LIGAND FREE ENERGY PREDICTED BY IDOCK:   -5.55 KCAL/MOL
REMARK 924 INTRA-LIGAND FREE ENERGY PREDICTED BY IDOCK:   -0.33 KCAL/MOL
REMARK 927      BINDING AFFINITY PREDICTED BY RF-SCORE:    0.00 PKD
ROOT
HETATM    1  C   UNL     1     -10.353   4.371  73.988  1.00  0.00    -0.221 C  
HETATM    2  N   UNL     1      -9.133   4.480  73.195  1.00  0.00    -0.118 NA 
HETATM    3  C   UNL     1      -9.113   3.537  72.068  1.00  0.00    -0.108 C  
HETATM    4  C   UNL     1      -9.997   3.942  70.879  1.00  0.00    -0.134 C  
HETATM    5  C   UNL     1      -9.718   5.380  70.407  1.00  0.00    -0.254 C  
HETATM    6  C   UNL     1      -9.799   6.314  71.619  1.00  0.00    -0.184 C  
HETATM    7  C   UNL     1      -8.881   5.854  72.749  1.00  0.00    -0.124 C  
ENDROOT
BRANCH   5   8
HETATM    8  C   UNL     1      -8.385   5.464  69.641  1.00  0.00    -0.100 C  
HETATM    9  O   UNL     1      -7.754   4.465  69.292  1.00  0.00    -0.055 OA 
BRANCH   8  10
HETATM   10  C   UNL     1      -7.862   6.802  69.242  1.00  0.00    -0.110 A  
HETATM   11  C   UNL     1      -6.683   7.291  69.785  1.00  0.00    -0.044 A  
HETATM   12  C   UNL     1      -6.244   8.545  69.371  1.00  0.00    -0.037 A  
HETATM   13  C   UNL     1      -7.000   9.261  68.443  1.00  0.00    -0.067 A  
HETATM   14  C   UNL     1      -8.173   8.696  67.950  1.00  0.00    -0.115 A  
HETATM   15  N   UNL     1      -8.586   7.481  68.332  1.00  0.00    -0.125 NA 
BRANCH  14  16
HETATM   16  N   UNL     1      -8.933   9.432  67.029  1.00  0.00    -0.129 N  
HETATM   17  H   UNL     1      -9.302   8.941  66.215  1.00  0.00     0.000 HD 
HETATM   18  C   UNL     1      -9.215  10.784  67.153  1.00  0.00    -0.147 C  
HETATM   19  O   UNL     1      -8.827  11.508  68.063  1.00  0.00    -0.146 OA 
BRANCH  18  20
HETATM   20  C   UNL     1     -10.065  11.396  66.091  1.00  0.00    -0.271 A  
HETATM   21  C   UNL     1     -11.267  12.051  66.372  1.00  0.00    -0.337 A  
HETATM   22  C   UNL     1     -12.033  12.634  65.364  1.00  0.00    -0.496 A  
HETATM   23  F   UNL     1     -11.726  12.144  67.631  1.00  0.00    -0.349 F  
HETATM   24  C   UNL     1     -11.593  12.560  64.051  1.00  0.00    -0.413 A  
HETATM   25  C   UNL     1     -10.411  11.914  63.732  1.00  0.00    -0.451 A  
HETATM   26  F   UNL     1     -12.321  13.124  63.078  1.00  0.00    -0.606 F  
HETATM   27  C   UNL     1      -9.654  11.336  64.751  1.00  0.00    -0.235 A  
HETATM   28  F   UNL     1      -8.522  10.718  64.385  1.00  0.00    -0.172 F  
ENDBRANCH  18  20
ENDBRANCH  14  16
ENDBRANCH   8  10
ENDBRANCH   5   8
TORSDOF 4
ENDMDL
MODEL      151
REMARK 921   NORMALIZED FREE ENERGY PREDICTED BY IDOCK:   -4.47 KCAL/MOL
REMARK 922        TOTAL FREE ENERGY PREDICTED BY IDOCK:   -5.87 KCAL/MOL
REMARK 923 INTER-LIGAND FREE ENERGY PREDICTED BY IDOCK:   -5.74 KCAL/MOL
REMARK 924 INTRA-LIGAND FREE ENERGY PREDICTED BY IDOCK:   -0.14 KCAL/MOL
REMARK 927      BINDING AFFINITY PREDICTED BY RF-SCORE:    0.00 PKD
ROOT
HETATM    1  C   UNL     1      -9.180   4.727  65.605  1.00  0.00    -0.152 C  
HETATM    2  N   UNL     1      -8.960   5.401  66.881  1.00  0.00    -0.110 NA 
HETATM    3  C   UNL     1      -8.325   6.716  66.715  1.00  0.00    -0.115 C  
HETATM    4  C   UNL     1      -9.267   7.823  66.221  1.00  0.00    -0.217 C  
HETATM    5  C   UNL     1     -10.545   7.926  67.071  1.00  0.00    -0.381 C  
HETATM    6  C   UNL     1     -11.179   6.534  67.165  1.00  0.00    -0.313 C  
HETATM    7  C   UNL     1     -10.186   5.494  67.679  1.00  0.00    -0.193 C  
ENDROOT
BRANCH   5   8
HETATM    8  C   UNL     1     -10.253   8.573  68.437  1.00  0.00    -0.203 C  
HETATM    9  O   UNL     1     -10.752   8.166  69.487  1.00  0.00    -0.227 OA 
BRANCH   8  10
HETATM   10  C   UNL     1      -9.276   9.698  68.513  1.00  0.00    -0.137 A  
HETATM   11  C   UNL     1      -8.007   9.499  69.035  1.00  0.00    -0.092 A  
HETATM   12  C   UNL     1      -7.139  10.586  69.076  1.00  0.00    -0.081 A  
HETATM   13  C   UNL     1      -7.574  11.824  68.605  1.00  0.00    -0.125 A  
HETATM   14  C   UNL     1      -8.865  11.937  68.098  1.00  0.00    -0.178 A  
HETATM   15  N   UNL     1      -9.695  10.887  68.039  1.00  0.00    -0.161 NA 
BRANCH  14  16
HETATM   16  N   UNL     1      -9.297  13.191  67.641  1.00  0.00    -0.197 N  
HETATM   17  H   UNL     1     -10.292  13.404  67.703  1.00  0.00     0.000 HD 
HETATM   18  C   UNL     1      -8.459  14.159  67.110  1.00  0.00    -0.195 C  
HETATM   19  O   UNL     1      -7.248  14.041  66.956  1.00  0.00     0.003 OA 
BRANCH  18  20
HETATM   20  C   UNL     1      -9.089  15.447  66.701  1.00  0.00    -0.310 A  
HETATM   21  C   UNL     1      -8.791  16.663  67.323  1.00  0.00    -0.192 A  
HETATM   22  C   UNL     1      -9.378  17.857  66.908  1.00  0.00    -0.276 A  
HETATM   23  F   UNL     1      -7.922  16.722  68.346  1.00  0.00    -0.186 F  
HETATM   24  C   UNL     1     -10.280  17.838  65.856  1.00  0.00    -0.225 A  
HETATM   25  C   UNL     1     -10.606  16.653  65.218  1.00  0.00    -0.224 A  
HETATM   26  F   UNL     1     -10.843  18.983  65.448  1.00  0.00    -0.527 F  
HETATM   27  C   UNL     1     -10.011  15.465  65.644  1.00  0.00    -0.362 A  
HETATM   28  F   UNL     1     -10.367  14.347  64.996  1.00  0.00    -0.361 F  
ENDBRANCH  18  20
ENDBRANCH  14  16
ENDBRANCH   8  10
ENDBRANCH   5   8
TORSDOF 4
ENDMDL
MODEL      152
REMARK 921   NORMALIZED FREE ENERGY PREDICTED BY IDOCK:   -4.45 KCAL/MOL
REMARK 922        TOTAL FREE ENERGY PREDICTED BY IDOCK:   -5.84 KCAL/MOL
REMARK 923 INTER-LIGAND FREE ENERGY PREDICTED BY IDOCK:   -5.71 KCAL/MOL
REMARK 924 INTRA-LIGAND FREE ENERGY PREDICTED BY IDOCK:   -0.13 KCAL/MOL
REMARK 927      BINDING AFFINITY PREDICTED BY RF-SCORE:    0.00 PKD
ROOT
HETATM    1  C   UNL     1     -10.129  19.690  67.374  1.00  0.00    -0.410 C  
HETATM    2  N   UNL     1      -9.933  18.560  68.276  1.00  0.00    -0.357 NA 
HETATM    3  C   UNL     1     -10.845  17.445  67.982  1.00  0.00    -0.281 C  
HETATM    4  C   UNL     1     -10.458  16.610  66.753  1.00  0.00    -0.261 C  
HETATM    5  C   UNL     1      -8.997  16.134  66.805  1.00  0.00    -0.270 C  
HETATM    6  C   UNL     1      -8.099  17.348  67.069  1.00  0.00    -0.240 C  
HETATM    7  C   UNL     1      -8.537  18.115  68.314  1.00  0.00    -0.288 C  
ENDROOT
BRANCH   5   8
HETATM    8  C   UNL     1      -8.821  14.994  67.825  1.00  0.00    -0.171 C  
HETATM    9  O   UNL     1      -7.965  15.019  68.710  1.00  0.00    -0.142 OA 
BRANCH   8  10
HETATM   10  C   UNL     1      -9.762  13.837  67.788  1.00  0.00    -0.230 A  
HETATM   11  C   UNL     1     -10.941  13.861  68.518  1.00  0.00    -0.277 A  
HETATM   12  C   UNL     1     -11.780  12.754  68.441  1.00  0.00    -0.380 A  
HETATM   13  C   UNL     1     -11.406  11.668  67.650  1.00  0.00    -0.362 A  
HETATM   14  C   UNL     1     -10.203  11.725  66.953  1.00  0.00    -0.209 A  
HETATM   15  N   UNL     1      -9.405  12.798  67.009  1.00  0.00    -0.222 NA 
BRANCH  14  16
HETATM   16  N   UNL     1      -9.830  10.620  66.173  1.00  0.00    -0.208 N  
HETATM   17  H   UNL     1     -10.567   9.998  65.843  1.00  0.00     0.000 HD 
HETATM   18  C   UNL     1      -8.523  10.319  65.821  1.00  0.00    -0.157 C  
HETATM   19  O   UNL     1      -7.533  10.961  66.156  1.00  0.00    -0.140 OA 
BRANCH  18  20
HETATM   20  C   UNL     1      -8.315   9.119  64.961  1.00  0.00    -0.165 A  
HETATM   21  C   UNL     1      -8.328   7.816  65.470  1.00  0.00    -0.146 A  
HETATM   22  C   UNL     1      -8.152   6.709  64.642  1.00  0.00    -0.088 A  
HETATM   23  F   UNL     1      -8.513   7.588  66.780  1.00  0.00    -0.113 F  
HETATM   24  C   UNL     1      -7.958   6.904  63.283  1.00  0.00    -0.066 A  
HETATM   25  C   UNL     1      -7.932   8.178  62.743  1.00  0.00    -0.159 A  
HETATM   26  F   UNL     1      -7.795   5.844  62.481  1.00  0.00    -0.062 F  
HETATM   27  C   UNL     1      -8.110   9.277  63.583  1.00  0.00    -0.155 A  
HETATM   28  F   UNL     1      -8.070  10.488  63.008  1.00  0.00    -0.149 F  
ENDBRANCH  18  20
ENDBRANCH  14  16
ENDBRANCH   8  10
ENDBRANCH   5   8
TORSDOF 4
ENDMDL
MODEL      153
REMARK 921   NORMALIZED FREE ENERGY PREDICTED BY IDOCK:   -4.44 KCAL/MOL
REMARK 922        TOTAL FREE ENERGY PREDICTED BY IDOCK:   -5.84 KCAL/MOL
REMARK 923 INTER-LIGAND FREE ENERGY PREDICTED BY IDOCK:   -5.67 KCAL/MOL
REMARK 924 INTRA-LIGAND FREE ENERGY PREDICTED BY IDOCK:   -0.17 KCAL/MOL
REMARK 927      BINDING AFFINITY PREDICTED BY RF-SCORE:    0.00 PKD
ROOT
HETATM    1  C   UNL     1      -9.755  10.109  64.121  1.00  0.00    -0.233 C  
HETATM    2  N   UNL     1      -9.494  10.947  65.288  1.00  0.00    -0.206 NA 
HETATM    3  C   UNL     1     -10.518  10.787  66.330  1.00  0.00    -0.226 C  
HETATM    4  C   UNL     1     -10.397   9.495  67.152  1.00  0.00    -0.320 C  
HETATM    5  C   UNL     1      -8.984   9.298  67.726  1.00  0.00    -0.131 C  
HETATM    6  C   UNL     1      -7.972   9.432  66.582  1.00  0.00    -0.108 C  
HETATM    7  C   UNL     1      -8.145  10.746  65.825  1.00  0.00    -0.135 C  
ENDROOT
BRANCH   5   8
HETATM    8  C   UNL     1      -8.724  10.253  68.905  1.00  0.00    -0.152 C  
HETATM    9  O   UNL     1      -9.282  10.131  69.996  1.00  0.00    -0.166 OA 
BRANCH   8  10
HETATM   10  C   UNL     1      -7.709  11.335  68.751  1.00  0.00    -0.138 A  
HETATM   11  C   UNL     1      -6.386  11.120  69.110  1.00  0.00    -0.064 A  
HETATM   12  C   UNL     1      -5.485  12.166  68.940  1.00  0.00    -0.050 A  
HETATM   13  C   UNL     1      -5.939  13.383  68.431  1.00  0.00    -0.092 A  
HETATM   14  C   UNL     1      -7.284  13.514  68.099  1.00  0.00    -0.117 A  
HETATM   15  N   UNL     1      -8.149  12.501  68.242  1.00  0.00    -0.161 NA 
BRANCH  14  16
HETATM   16  N   UNL     1      -7.733  14.747  67.602  1.00  0.00    -0.165 N  
HETATM   17  H   UNL     1      -7.584  14.945  66.613  1.00  0.00     0.000 HD 
HETATM   18  C   UNL     1      -8.364  15.714  68.368  1.00  0.00    -0.162 C  
HETATM   19  O   UNL     1      -8.595  15.627  69.570  1.00  0.00    -0.258 OA 
BRANCH  18  20
HETATM   20  C   UNL     1      -8.800  16.954  67.665  1.00  0.00    -0.215 A  
HETATM   21  C   UNL     1     -10.129  17.186  67.299  1.00  0.00    -0.294 A  
HETATM   22  C   UNL     1     -10.515  18.364  66.661  1.00  0.00    -0.415 A  
HETATM   23  F   UNL     1     -11.085  16.277  67.553  1.00  0.00    -0.318 F  
HETATM   24  C   UNL     1      -9.557  19.326  66.381  1.00  0.00    -0.371 A  
HETATM   25  C   UNL     1      -8.230  19.131  66.722  1.00  0.00    -0.292 A  
HETATM   26  F   UNL     1      -9.922  20.463  65.773  1.00  0.00    -0.507 F  
HETATM   27  C   UNL     1      -7.858  17.948  67.360  1.00  0.00    -0.208 A  
HETATM   28  F   UNL     1      -6.560  17.809  67.662  1.00  0.00    -0.168 F  
ENDBRANCH  18  20
ENDBRANCH  14  16
ENDBRANCH   8  10
ENDBRANCH   5   8
TORSDOF 4
ENDMDL
MODEL      154
REMARK 921   NORMALIZED FREE ENERGY PREDICTED BY IDOCK:   -4.44 KCAL/MOL
REMARK 922        TOTAL FREE ENERGY PREDICTED BY IDOCK:   -5.83 KCAL/MOL
REMARK 923 INTER-LIGAND FREE ENERGY PREDICTED BY IDOCK:   -5.79 KCAL/MOL
REMARK 924 INTRA-LIGAND FREE ENERGY PREDICTED BY IDOCK:   -0.04 KCAL/MOL
REMARK 927      BINDING AFFINITY PREDICTED BY RF-SCORE:    0.00 PKD
ROOT
HETATM    1  C   UNL     1      -7.200  15.303  69.829  1.00  0.00    -0.146 C  
HETATM    2  N   UNL     1      -8.562  15.466  69.330  1.00  0.00    -0.254 NA 
HETATM    3  C   UNL     1      -8.770  16.773  68.692  1.00  0.00    -0.255 C  
HETATM    4  C   UNL     1      -8.172  16.899  67.283  1.00  0.00    -0.205 C  
HETATM    5  C   UNL     1      -8.611  15.752  66.357  1.00  0.00    -0.346 C  
HETATM    6  C   UNL     1      -8.325  14.422  67.063  1.00  0.00    -0.172 C  
HETATM    7  C   UNL     1      -8.965  14.367  68.448  1.00  0.00    -0.188 C  
ENDROOT
BRANCH   5   8
HETATM    8  C   UNL     1     -10.076  15.923  65.917  1.00  0.00    -0.352 C  
HETATM    9  O   UNL     1     -10.659  17.008  65.953  1.00  0.00    -0.318 OA 
BRANCH   8  10
HETATM   10  C   UNL     1     -10.807  14.749  65.360  1.00  0.00    -0.363 A  
HETATM   11  C   UNL     1     -12.192  14.746  65.291  1.00  0.00    -0.158 A  
HETATM   12  C   UNL     1     -12.818  13.622  64.759  1.00  0.00    -0.176 A  
HETATM   13  C   UNL     1     -12.039  12.548  64.327  1.00  0.00    -0.507 A  
HETATM   14  C   UNL     1     -10.655  12.633  64.435  1.00  0.00    -0.364 A  
HETATM   15  N   UNL     1     -10.051  13.722  64.928  1.00  0.00    -0.328 NA 
BRANCH  14  16
HETATM   16  N   UNL     1      -9.883  11.541  64.012  1.00  0.00    -0.295 N  
HETATM   17  H   UNL     1      -9.977  11.237  63.043  1.00  0.00     0.000 HD 
HETATM   18  C   UNL     1      -9.000  10.847  64.825  1.00  0.00    -0.140 C  
HETATM   19  O   UNL     1      -8.794  11.084  66.011  1.00  0.00    -0.182 OA 
BRANCH  18  20
HETATM   20  C   UNL     1      -8.241   9.728  64.197  1.00  0.00    -0.158 A  
HETATM   21  C   UNL     1      -8.210   8.440  64.740  1.00  0.00    -0.160 A  
HETATM   22  C   UNL     1      -7.511   7.405  64.122  1.00  0.00    -0.099 A  
HETATM   23  F   UNL     1      -8.860   8.155  65.880  1.00  0.00    -0.147 F  
HETATM   24  C   UNL     1      -6.827   7.660  62.944  1.00  0.00    -0.071 A  
HETATM   25  C   UNL     1      -6.828   8.923  62.378  1.00  0.00    -0.093 A  
HETATM   26  F   UNL     1      -6.157   6.668  62.341  1.00  0.00    -0.032 F  
HETATM   27  C   UNL     1      -7.533   9.950  63.007  1.00  0.00    -0.130 A  
HETATM   28  F   UNL     1      -7.495  11.154  62.420  1.00  0.00    -0.154 F  
ENDBRANCH  18  20
ENDBRANCH  14  16
ENDBRANCH   8  10
ENDBRANCH   5   8
TORSDOF 4
ENDMDL
MODEL      155
REMARK 921   NORMALIZED FREE ENERGY PREDICTED BY IDOCK:   -4.40 KCAL/MOL
REMARK 922        TOTAL FREE ENERGY PREDICTED BY IDOCK:   -5.78 KCAL/MOL
REMARK 923 INTER-LIGAND FREE ENERGY PREDICTED BY IDOCK:   -5.28 KCAL/MOL
REMARK 924 INTRA-LIGAND FREE ENERGY PREDICTED BY IDOCK:   -0.50 KCAL/MOL
REMARK 927      BINDING AFFINITY PREDICTED BY RF-SCORE:    0.00 PKD
ROOT
HETATM    1  C   UNL     1      -5.157  14.460  69.568  1.00  0.00    -0.090 C  
HETATM    2  N   UNL     1      -6.605  14.387  69.728  1.00  0.00    -0.146 NA 
HETATM    3  C   UNL     1      -7.276  15.631  69.326  1.00  0.00    -0.198 C  
HETATM    4  C   UNL     1      -7.391  15.833  67.808  1.00  0.00    -0.167 C  
HETATM    5  C   UNL     1      -8.010  14.614  67.102  1.00  0.00    -0.184 C  
HETATM    6  C   UNL     1      -7.238  13.361  67.529  1.00  0.00    -0.163 C  
HETATM    7  C   UNL     1      -7.181  13.222  69.048  1.00  0.00    -0.007 C  
ENDROOT
BRANCH   5   8
HETATM    8  C   UNL     1      -9.526  14.532  67.360  1.00  0.00    -0.202 C  
HETATM    9  O   UNL     1     -10.196  15.508  67.701  1.00  0.00    -0.248 OA 
BRANCH   8  10
HETATM   10  C   UNL     1     -10.232  13.239  67.128  1.00  0.00    -0.246 A  
HETATM   11  C   UNL     1     -10.843  12.976  65.911  1.00  0.00    -0.291 A  
HETATM   12  C   UNL     1     -11.484  11.751  65.753  1.00  0.00    -0.258 A  
HETATM   13  C   UNL     1     -11.497  10.846  66.814  1.00  0.00     0.202 A  
HETATM   14  C   UNL     1     -10.861  11.192  68.002  1.00  0.00    -0.225 A  
HETATM   15  N   UNL     1     -10.226  12.362  68.149  1.00  0.00    -0.219 NA 
BRANCH  14  16
HETATM   16  N   UNL     1     -10.893  10.280  69.068  1.00  0.00    -0.218 N  
HETATM   17  H   UNL     1     -11.428  10.535  69.898  1.00  0.00     0.000 HD 
HETATM   18  C   UNL     1     -10.246   9.054  69.067  1.00  0.00    -0.205 C  
HETATM   19  O   UNL     1      -9.554   8.619  68.152  1.00  0.00    -0.143 OA 
BRANCH  18  20
HETATM   20  C   UNL     1     -10.415   8.200  70.277  1.00  0.00    -0.219 A  
HETATM   21  C   UNL     1      -9.887   8.547  71.524  1.00  0.00    -0.239 A  
HETATM   22  C   UNL     1     -10.077   7.743  72.646  1.00  0.00    -0.320 A  
HETATM   23  F   UNL     1      -9.176   9.676  71.684  1.00  0.00    -0.030 F  
HETATM   24  C   UNL     1     -10.805   6.570  72.522  1.00  0.00    -0.239 A  
HETATM   25  C   UNL     1     -11.339   6.188  71.303  1.00  0.00    -0.335 A  
HETATM   26  F   UNL     1     -10.996   5.795  73.598  1.00  0.00    -0.270 F  
HETATM   27  C   UNL     1     -11.141   7.003  70.189  1.00  0.00    -0.285 A  
HETATM   28  F   UNL     1     -11.674   6.583  69.033  1.00  0.00    -0.335 F  
ENDBRANCH  18  20
ENDBRANCH  14  16
ENDBRANCH   8  10
ENDBRANCH   5   8
TORSDOF 4
ENDMDL
MODEL      156
REMARK 921   NORMALIZED FREE ENERGY PREDICTED BY IDOCK:   -4.38 KCAL/MOL
REMARK 922        TOTAL FREE ENERGY PREDICTED BY IDOCK:   -5.76 KCAL/MOL
REMARK 923 INTER-LIGAND FREE ENERGY PREDICTED BY IDOCK:   -5.46 KCAL/MOL
REMARK 924 INTRA-LIGAND FREE ENERGY PREDICTED BY IDOCK:   -0.30 KCAL/MOL
REMARK 927      BINDING AFFINITY PREDICTED BY RF-SCORE:    0.00 PKD
ROOT
HETATM    1  C   UNL     1      -7.209   2.723  66.956  1.00  0.00    -0.057 C  
HETATM    2  N   UNL     1      -8.299   3.576  66.493  1.00  0.00    -0.100 NA 
HETATM    3  C   UNL     1      -9.015   4.220  67.602  1.00  0.00    -0.118 C  
HETATM    4  C   UNL     1      -8.275   5.406  68.238  1.00  0.00    -0.095 C  
HETATM    5  C   UNL     1      -7.821   6.440  67.193  1.00  0.00    -0.108 C  
HETATM    6  C   UNL     1      -7.045   5.710  66.092  1.00  0.00    -0.068 C  
HETATM    7  C   UNL     1      -7.852   4.557  65.500  1.00  0.00    -0.094 C  
ENDROOT
BRANCH   5   8
HETATM    8  C   UNL     1      -9.013   7.265  66.675  1.00  0.00    -0.150 C  
HETATM    9  O   UNL     1     -10.164   7.101  67.082  1.00  0.00    -0.204 OA 
BRANCH   8  10
HETATM   10  C   UNL     1      -8.765   8.356  65.687  1.00  0.00    -0.172 A  
HETATM   11  C   UNL     1      -8.281   8.066  64.421  1.00  0.00    -0.085 A  
HETATM   12  C   UNL     1      -8.073   9.125  63.543  1.00  0.00    -0.159 A  
HETATM   13  C   UNL     1      -8.346  10.426  63.966  1.00  0.00    -0.139 A  
HETATM   14  C   UNL     1      -8.828  10.628  65.255  1.00  0.00    -0.189 A  
HETATM   15  N   UNL     1      -9.048   9.608  66.094  1.00  0.00    -0.153 NA 
BRANCH  14  16
HETATM   16  N   UNL     1      -9.085  11.941  65.675  1.00  0.00    -0.422 N  
HETATM   17  H   UNL     1      -8.309  12.603  65.675  1.00  0.00     0.000 HD 
HETATM   18  C   UNL     1     -10.326  12.400  66.090  1.00  0.00    -0.247 C  
HETATM   19  O   UNL     1     -11.345  11.720  66.161  1.00  0.00    -0.330 OA 
BRANCH  18  20
HETATM   20  C   UNL     1     -10.421  13.837  66.474  1.00  0.00    -0.282 A  
HETATM   21  C   UNL     1     -10.350  14.268  67.803  1.00  0.00    -0.238 A  
HETATM   22  C   UNL     1     -10.420  15.620  68.135  1.00  0.00    -0.259 A  
HETATM   23  F   UNL     1     -10.211  13.389  68.808  1.00  0.00    -0.231 F  
HETATM   24  C   UNL     1     -10.564  16.558  67.125  1.00  0.00    -0.270 A  
HETATM   25  C   UNL     1     -10.644  16.171  65.798  1.00  0.00    -0.347 A  
HETATM   26  F   UNL     1     -10.626  17.860  67.437  1.00  0.00    -0.356 F  
HETATM   27  C   UNL     1     -10.573  14.814  65.480  1.00  0.00    -0.359 A  
HETATM   28  F   UNL     1     -10.661  14.495  64.182  1.00  0.00    -0.229 F  
ENDBRANCH  18  20
ENDBRANCH  14  16
ENDBRANCH   8  10
ENDBRANCH   5   8
TORSDOF 4
ENDMDL
MODEL      157
REMARK 921   NORMALIZED FREE ENERGY PREDICTED BY IDOCK:   -4.34 KCAL/MOL
REMARK 922        TOTAL FREE ENERGY PREDICTED BY IDOCK:   -5.71 KCAL/MOL
REMARK 923 INTER-LIGAND FREE ENERGY PREDICTED BY IDOCK:   -5.68 KCAL/MOL
REMARK 924 INTRA-LIGAND FREE ENERGY PREDICTED BY IDOCK:   -0.03 KCAL/MOL
REMARK 927      BINDING AFFINITY PREDICTED BY RF-SCORE:    0.00 PKD
ROOT
HETATM    1  C   UNL     1      -6.257   9.829  64.543  1.00  0.00    -0.105 C  
HETATM    2  N   UNL     1      -6.911  10.637  65.567  1.00  0.00    -0.097 NA 
HETATM    3  C   UNL     1      -8.133  10.005  66.084  1.00  0.00    -0.122 C  
HETATM    4  C   UNL     1      -7.889   8.848  67.063  1.00  0.00    -0.102 C  
HETATM    5  C   UNL     1      -6.941   9.241  68.209  1.00  0.00    -0.072 C  
HETATM    6  C   UNL     1      -5.672   9.851  67.601  1.00  0.00    -0.039 C  
HETATM    7  C   UNL     1      -5.996  11.003  66.653  1.00  0.00    -0.114 C  
ENDROOT
BRANCH   5   8
HETATM    8  C   UNL     1      -7.647  10.156  69.226  1.00  0.00    -0.117 C  
HETATM    9  O   UNL     1      -7.183  10.394  70.341  1.00  0.00    -0.266 OA 
BRANCH   8  10
HETATM   10  C   UNL     1      -8.914  10.838  68.830  1.00  0.00    -0.170 A  
HETATM   11  C   UNL     1     -10.130  10.179  68.921  1.00  0.00    -0.211 A  
HETATM   12  C   UNL     1     -11.277  10.869  68.540  1.00  0.00    -0.335 A  
HETATM   13  C   UNL     1     -11.163  12.179  68.076  1.00  0.00    -0.319 A  
HETATM   14  C   UNL     1      -9.902  12.764  68.014  1.00  0.00    -0.226 A  
HETATM   15  N   UNL     1      -8.800  12.109  68.400  1.00  0.00    -0.171 NA 
BRANCH  14  16
HETATM   16  N   UNL     1      -9.797  14.077  67.532  1.00  0.00    -0.232 N  
HETATM   17  H   UNL     1      -9.927  14.230  66.532  1.00  0.00     0.000 HD 
HETATM   18  C   UNL     1      -9.529  15.182  68.326  1.00  0.00    -0.201 C  
HETATM   19  O   UNL     1      -9.332  15.153  69.536  1.00  0.00    -0.207 OA 
BRANCH  18  20
HETATM   20  C   UNL     1      -9.482  16.507  67.644  1.00  0.00    -0.225 A  
HETATM   21  C   UNL     1      -8.339  16.980  66.992  1.00  0.00    -0.203 A  
HETATM   22  C   UNL     1      -8.327  18.214  66.344  1.00  0.00    -0.272 A  
HETATM   23  F   UNL     1      -7.208  16.256  66.967  1.00  0.00    -0.179 F  
HETATM   24  C   UNL     1      -9.475  18.991  66.348  1.00  0.00    -0.347 A  
HETATM   25  C   UNL     1     -10.625  18.561  66.988  1.00  0.00    -0.421 A  
HETATM   26  F   UNL     1      -9.472  20.175  65.722  1.00  0.00    -0.434 F  
HETATM   27  C   UNL     1     -10.622  17.324  67.632  1.00  0.00    -0.350 A  
HETATM   28  F   UNL     1     -11.760  16.959  68.240  1.00  0.00    -0.138 F  
ENDBRANCH  18  20
ENDBRANCH  14  16
ENDBRANCH   8  10
ENDBRANCH   5   8
TORSDOF 4
ENDMDL
MODEL      158
REMARK 921   NORMALIZED FREE ENERGY PREDICTED BY IDOCK:   -4.34 KCAL/MOL
REMARK 922        TOTAL FREE ENERGY PREDICTED BY IDOCK:   -5.70 KCAL/MOL
REMARK 923 INTER-LIGAND FREE ENERGY PREDICTED BY IDOCK:   -5.36 KCAL/MOL
REMARK 924 INTRA-LIGAND FREE ENERGY PREDICTED BY IDOCK:   -0.35 KCAL/MOL
REMARK 927      BINDING AFFINITY PREDICTED BY RF-SCORE:    0.00 PKD
ROOT
HETATM    1  C   UNL     1      -8.459  19.656  67.752  1.00  0.00    -0.318 C  
HETATM    2  N   UNL     1      -9.446  18.871  67.016  1.00  0.00    -0.302 NA 
HETATM    3  C   UNL     1      -8.849  17.705  66.350  1.00  0.00    -0.236 C  
HETATM    4  C   UNL     1      -8.522  16.532  67.286  1.00  0.00    -0.201 C  
HETATM    5  C   UNL     1      -9.726  16.122  68.152  1.00  0.00    -0.222 C  
HETATM    6  C   UNL     1     -10.270  17.374  68.851  1.00  0.00    -0.352 C  
HETATM    7  C   UNL     1     -10.585  18.486  67.854  1.00  0.00    -0.348 C  
ENDROOT
BRANCH   5   8
HETATM    8  C   UNL     1     -10.776  15.365  67.320  1.00  0.00    -0.307 C  
HETATM    9  O   UNL     1     -11.945  15.740  67.224  1.00  0.00     0.267 OA 
BRANCH   8  10
HETATM   10  C   UNL     1     -10.356  14.164  66.541  1.00  0.00    -0.284 A  
HETATM   11  C   UNL     1     -10.462  14.144  65.159  1.00  0.00    -0.422 A  
HETATM   12  C   UNL     1     -10.051  12.997  64.488  1.00  0.00    -0.254 A  
HETATM   13  C   UNL     1      -9.561  11.916  65.222  1.00  0.00    -0.156 A  
HETATM   14  C   UNL     1      -9.491  12.019  66.608  1.00  0.00    -0.217 A  
HETATM   15  N   UNL     1      -9.867  13.130  67.253  1.00  0.00    -0.228 NA 
BRANCH  14  16
HETATM   16  N   UNL     1      -9.011  10.920  67.336  1.00  0.00    -0.136 N  
HETATM   17  H   UNL     1      -8.044  10.635  67.187  1.00  0.00     0.000 HD 
HETATM   18  C   UNL     1      -9.767  10.196  68.245  1.00  0.00    -0.141 C  
HETATM   19  O   UNL     1     -10.944  10.408  68.515  1.00  0.00    -0.223 OA 
BRANCH  18  20
HETATM   20  C   UNL     1      -9.083   9.075  68.951  1.00  0.00    -0.140 A  
HETATM   21  C   UNL     1      -9.241   8.837  70.319  1.00  0.00    -0.174 A  
HETATM   22  C   UNL     1      -8.608   7.769  70.952  1.00  0.00    -0.128 A  
HETATM   23  F   UNL     1     -10.016   9.633  71.074  1.00  0.00    -0.336 F  
HETATM   24  C   UNL     1      -7.799   6.924  70.207  1.00  0.00    -0.109 A  
HETATM   25  C   UNL     1      -7.612   7.131  68.850  1.00  0.00    -0.100 A  
HETATM   26  F   UNL     1      -7.192   5.892  70.807  1.00  0.00    -0.069 F  
HETATM   27  C   UNL     1      -8.253   8.204  68.231  1.00  0.00    -0.129 A  
HETATM   28  F   UNL     1      -8.032   8.360  66.918  1.00  0.00    -0.094 F  
ENDBRANCH  18  20
ENDBRANCH  14  16
ENDBRANCH   8  10
ENDBRANCH   5   8
TORSDOF 4
ENDMDL
MODEL      159
REMARK 921   NORMALIZED FREE ENERGY PREDICTED BY IDOCK:   -4.32 KCAL/MOL
REMARK 922        TOTAL FREE ENERGY PREDICTED BY IDOCK:   -5.68 KCAL/MOL
REMARK 923 INTER-LIGAND FREE ENERGY PREDICTED BY IDOCK:   -6.05 KCAL/MOL
REMARK 924 INTRA-LIGAND FREE ENERGY PREDICTED BY IDOCK:    0.37 KCAL/MOL
REMARK 927      BINDING AFFINITY PREDICTED BY RF-SCORE:    0.00 PKD
ROOT
HETATM    1  C   UNL     1      -5.327  18.022  70.711  1.00  0.00    -0.250 C  
HETATM    2  N   UNL     1      -5.340  17.457  69.365  1.00  0.00    -0.165 NA 
HETATM    3  C   UNL     1      -5.675  16.026  69.362  1.00  0.00    -0.125 C  
HETATM    4  C   UNL     1      -7.164  15.718  69.574  1.00  0.00    -0.186 C  
HETATM    5  C   UNL     1      -8.067  16.502  68.606  1.00  0.00    -0.233 C  
HETATM    6  C   UNL     1      -7.697  17.987  68.691  1.00  0.00    -0.304 C  
HETATM    7  C   UNL     1      -6.205  18.213  68.454  1.00  0.00    -0.191 C  
ENDROOT
BRANCH   5   8
HETATM    8  C   UNL     1      -7.992  15.921  67.182  1.00  0.00    -0.209 C  
HETATM    9  O   UNL     1      -7.007  16.063  66.456  1.00  0.00    -0.171 OA 
BRANCH   8  10
HETATM   10  C   UNL     1      -9.125  15.094  66.676  1.00  0.00    -0.280 A  
HETATM   11  C   UNL     1     -10.259  15.694  66.151  1.00  0.00    -0.327 A  
HETATM   12  C   UNL     1     -11.282  14.870  65.692  1.00  0.00    -0.347 A  
HETATM   13  C   UNL     1     -11.137  13.486  65.784  1.00  0.00    -0.295 A  
HETATM   14  C   UNL     1      -9.966  12.966  66.328  1.00  0.00    -0.270 A  
HETATM   15  N   UNL     1      -8.972  13.758  66.751  1.00  0.00    -0.221 NA 
BRANCH  14  16
HETATM   16  N   UNL     1      -9.837  11.573  66.430  1.00  0.00    -0.200 N  
HETATM   17  H   UNL     1      -9.162  11.111  65.821  1.00  0.00     0.000 HD 
HETATM   18  C   UNL     1     -10.567  10.783  67.304  1.00  0.00    -0.257 C  
HETATM   19  O   UNL     1     -11.424  11.192  68.080  1.00  0.00    -0.284 OA 
BRANCH  18  20
HETATM   20  C   UNL     1     -10.277   9.321  67.295  1.00  0.00    -0.315 A  
HETATM   21  C   UNL     1     -10.583   8.486  68.374  1.00  0.00    -0.111 A  
HETATM   22  C   UNL     1     -10.321   7.117  68.334  1.00  0.00    -0.220 A  
HETATM   23  F   UNL     1     -11.144   8.977  69.492  1.00  0.00    -0.230 F  
HETATM   24  C   UNL     1      -9.743   6.572  67.199  1.00  0.00    -0.143 A  
HETATM   25  C   UNL     1      -9.420   7.367  66.112  1.00  0.00    -0.076 A  
HETATM   26  F   UNL     1      -9.494   5.257  67.151  1.00  0.00    -0.117 F  
HETATM   27  C   UNL     1      -9.687   8.735  66.166  1.00  0.00    -0.250 A  
HETATM   28  F   UNL     1      -9.349   9.458  65.089  1.00  0.00    -0.267 F  
ENDBRANCH  18  20
ENDBRANCH  14  16
ENDBRANCH   8  10
ENDBRANCH   5   8
TORSDOF 4
ENDMDL
MODEL      160
REMARK 921   NORMALIZED FREE ENERGY PREDICTED BY IDOCK:   -4.31 KCAL/MOL
REMARK 922        TOTAL FREE ENERGY PREDICTED BY IDOCK:   -5.67 KCAL/MOL
REMARK 923 INTER-LIGAND FREE ENERGY PREDICTED BY IDOCK:   -6.26 KCAL/MOL
REMARK 924 INTRA-LIGAND FREE ENERGY PREDICTED BY IDOCK:    0.59 KCAL/MOL
REMARK 927      BINDING AFFINITY PREDICTED BY RF-SCORE:    0.00 PKD
ROOT
HETATM    1  C   UNL     1      -8.012   6.673  69.070  1.00  0.00    -0.112 C  
HETATM    2  N   UNL     1      -8.047   7.317  67.761  1.00  0.00    -0.114 NA 
HETATM    3  C   UNL     1      -9.406   7.713  67.368  1.00  0.00    -0.141 C  
HETATM    4  C   UNL     1      -9.934   8.972  68.071  1.00  0.00    -0.213 C  
HETATM    5  C   UNL     1      -8.957  10.156  67.961  1.00  0.00    -0.125 C  
HETATM    6  C   UNL     1      -7.573   9.688  68.427  1.00  0.00    -0.081 C  
HETATM    7  C   UNL     1      -7.113   8.444  67.672  1.00  0.00    -0.083 C  
ENDROOT
BRANCH   5   8
HETATM    8  C   UNL     1      -8.969  10.756  66.544  1.00  0.00    -0.156 C  
HETATM    9  O   UNL     1      -8.279  10.309  65.626  1.00  0.00    -0.141 OA 
BRANCH   8  10
HETATM   10  C   UNL     1      -9.899  11.882  66.241  1.00  0.00    -0.225 A  
HETATM   11  C   UNL     1     -11.233  11.639  65.949  1.00  0.00    -0.296 A  
HETATM   12  C   UNL     1     -12.052  12.731  65.679  1.00  0.00    -0.514 A  
HETATM   13  C   UNL     1     -11.507  14.014  65.701  1.00  0.00    -0.319 A  
HETATM   14  C   UNL     1     -10.157  14.169  66.001  1.00  0.00    -0.316 A  
HETATM   15  N   UNL     1      -9.372  13.121  66.282  1.00  0.00    -0.183 NA 
BRANCH  14  16
HETATM   16  N   UNL     1      -9.617  15.463  66.005  1.00  0.00    -0.323 N  
HETATM   17  H   UNL     1     -10.130  16.196  65.515  1.00  0.00     0.000 HD 
HETATM   18  C   UNL     1      -8.430  15.812  66.631  1.00  0.00    -0.288 C  
HETATM   19  O   UNL     1      -7.698  15.040  67.241  1.00  0.00    -0.186 OA 
BRANCH  18  20
HETATM   20  C   UNL     1      -8.023  17.244  66.556  1.00  0.00    -0.318 A  
HETATM   21  C   UNL     1      -6.684  17.647  66.537  1.00  0.00    -0.233 A  
HETATM   22  C   UNL     1      -6.329  18.992  66.445  1.00  0.00    -0.209 A  
HETATM   23  F   UNL     1      -5.690  16.747  66.606  1.00  0.00    -0.192 F  
HETATM   24  C   UNL     1      -7.326  19.952  66.373  1.00  0.00    -0.272 A  
HETATM   25  C   UNL     1      -8.663  19.594  66.395  1.00  0.00    -0.404 A  
HETATM   26  F   UNL     1      -6.992  21.246  66.278  1.00  0.00    -0.218 F  
HETATM   27  C   UNL     1      -9.004  18.244  66.488  1.00  0.00    -0.274 A  
HETATM   28  F   UNL     1     -10.313  17.954  66.511  1.00  0.00    -0.324 F  
ENDBRANCH  18  20
ENDBRANCH  14  16
ENDBRANCH   8  10
ENDBRANCH   5   8
TORSDOF 4
ENDMDL
MODEL      161
REMARK 921   NORMALIZED FREE ENERGY PREDICTED BY IDOCK:   -4.25 KCAL/MOL
REMARK 922        TOTAL FREE ENERGY PREDICTED BY IDOCK:   -5.60 KCAL/MOL
REMARK 923 INTER-LIGAND FREE ENERGY PREDICTED BY IDOCK:   -5.08 KCAL/MOL
REMARK 924 INTRA-LIGAND FREE ENERGY PREDICTED BY IDOCK:   -0.52 KCAL/MOL
REMARK 927      BINDING AFFINITY PREDICTED BY RF-SCORE:    0.00 PKD
ROOT
HETATM    1  C   UNL     1      -6.843   1.636  66.149  1.00  0.00    -0.038 C  
HETATM    2  N   UNL     1      -7.425   2.744  65.399  1.00  0.00    -0.071 NA 
HETATM    3  C   UNL     1      -8.727   3.161  65.938  1.00  0.00    -0.129 C  
HETATM    4  C   UNL     1      -8.649   3.992  67.227  1.00  0.00    -0.106 C  
HETATM    5  C   UNL     1      -7.694   5.190  67.093  1.00  0.00    -0.092 C  
HETATM    6  C   UNL     1      -6.346   4.681  66.571  1.00  0.00    -0.036 C  
HETATM    7  C   UNL     1      -6.505   3.879  65.281  1.00  0.00    -0.032 C  
ENDROOT
BRANCH   5   8
HETATM    8  C   UNL     1      -8.317   6.303  66.231  1.00  0.00    -0.122 C  
HETATM    9  O   UNL     1      -9.045   6.069  65.265  1.00  0.00    -0.004 OA 
BRANCH   8  10
HETATM   10  C   UNL     1      -8.090   7.728  66.612  1.00  0.00    -0.111 A  
HETATM   11  C   UNL     1      -7.064   8.460  66.034  1.00  0.00    -0.069 A  
HETATM   12  C   UNL     1      -6.905   9.784  66.428  1.00  0.00    -0.088 A  
HETATM   13  C   UNL     1      -7.766  10.320  67.385  1.00  0.00    -0.095 A  
HETATM   14  C   UNL     1      -8.768   9.515  67.916  1.00  0.00    -0.119 A  
HETATM   15  N   UNL     1      -8.936   8.245  67.523  1.00  0.00    -0.134 NA 
BRANCH  14  16
HETATM   16  N   UNL     1      -9.619  10.060  68.890  1.00  0.00    -0.173 N  
HETATM   17  H   UNL     1      -9.234  10.227  69.819  1.00  0.00     0.000 HD 
HETATM   18  C   UNL     1     -10.948  10.386  68.670  1.00  0.00    -0.243 C  
HETATM   19  O   UNL     1     -11.552  10.226  67.615  1.00  0.00    -0.299 OA 
BRANCH  18  20
HETATM   20  C   UNL     1     -11.694  10.983  69.815  1.00  0.00    -0.410 A  
HETATM   21  C   UNL     1     -12.275  10.208  70.822  1.00  0.00    -0.338 A  
HETATM   22  C   UNL     1     -12.950  10.791  71.894  1.00  0.00    -0.524 A  
HETATM   23  F   UNL     1     -12.201   8.867  70.793  1.00  0.00    -0.282 F  
HETATM   24  C   UNL     1     -13.048  12.172  71.960  1.00  0.00    -0.357 A  
HETATM   25  C   UNL     1     -12.491  12.974  70.979  1.00  0.00    -0.385 A  
HETATM   26  F   UNL     1     -13.689  12.740  72.991  1.00  0.00    -0.261 F  
HETATM   27  C   UNL     1     -11.819  12.377  69.912  1.00  0.00    -0.305 A  
HETATM   28  F   UNL     1     -11.305  13.200  68.988  1.00  0.00    -0.256 F  
ENDBRANCH  18  20
ENDBRANCH  14  16
ENDBRANCH   8  10
ENDBRANCH   5   8
TORSDOF 4
ENDMDL
MODEL      162
REMARK 921   NORMALIZED FREE ENERGY PREDICTED BY IDOCK:   -4.24 KCAL/MOL
REMARK 922        TOTAL FREE ENERGY PREDICTED BY IDOCK:   -5.59 KCAL/MOL
REMARK 923 INTER-LIGAND FREE ENERGY PREDICTED BY IDOCK:   -5.86 KCAL/MOL
REMARK 924 INTRA-LIGAND FREE ENERGY PREDICTED BY IDOCK:    0.27 KCAL/MOL
REMARK 927      BINDING AFFINITY PREDICTED BY RF-SCORE:    0.00 PKD
ROOT
HETATM    1  C   UNL     1     -10.219  12.080  63.353  1.00  0.00    -0.426 C  
HETATM    2  N   UNL     1      -9.930  12.741  64.621  1.00  0.00    -0.190 NA 
HETATM    3  C   UNL     1     -11.024  13.622  65.054  1.00  0.00    -0.346 C  
HETATM    4  C   UNL     1     -12.241  12.891  65.640  1.00  0.00    -0.519 C  
HETATM    5  C   UNL     1     -11.849  11.904  66.753  1.00  0.00    -0.170 C  
HETATM    6  C   UNL     1     -10.740  10.988  66.222  1.00  0.00    -0.273 C  
HETATM    7  C   UNL     1      -9.561  11.788  65.673  1.00  0.00    -0.220 C  
ENDROOT
BRANCH   5   8
HETATM    8  C   UNL     1     -11.479  12.646  68.049  1.00  0.00    -0.318 C  
HETATM    9  O   UNL     1     -10.989  13.777  68.052  1.00  0.00    -0.241 OA 
BRANCH   8  10
HETATM   10  C   UNL     1     -11.782  12.007  69.363  1.00  0.00    -0.340 A  
HETATM   11  C   UNL     1     -12.731  12.555  70.213  1.00  0.00     0.115 A  
HETATM   12  C   UNL     1     -12.972  11.911  71.423  1.00  0.00    -0.385 A  
HETATM   13  C   UNL     1     -12.253  10.758  71.738  1.00  0.00    -0.012 A  
HETATM   14  C   UNL     1     -11.317  10.278  70.828  1.00  0.00    -0.337 A  
HETATM   15  N   UNL     1     -11.098  10.884  69.654  1.00  0.00    -0.259 NA 
BRANCH  14  16
HETATM   16  N   UNL     1     -10.589   9.126  71.162  1.00  0.00    -0.281 N  
HETATM   17  H   UNL     1      -9.877   8.805  70.507  1.00  0.00     0.000 HD 
HETATM   18  C   UNL     1     -10.775   8.396  72.326  1.00  0.00    -0.347 C  
HETATM   19  O   UNL     1     -11.601   8.648  73.196  1.00  0.00     0.182 OA 
BRANCH  18  20
HETATM   20  C   UNL     1      -9.889   7.214  72.529  1.00  0.00    -0.183 A  
HETATM   21  C   UNL     1     -10.251   5.924  72.129  1.00  0.00    -0.195 A  
HETATM   22  C   UNL     1      -9.397   4.838  72.311  1.00  0.00    -0.158 A  
HETATM   23  F   UNL     1     -11.440   5.687  71.552  1.00  0.00    -0.300 F  
HETATM   24  C   UNL     1      -8.160   5.041  72.904  1.00  0.00    -0.105 A  
HETATM   25  C   UNL     1      -7.768   6.303  73.319  1.00  0.00    -0.099 A  
HETATM   26  F   UNL     1      -7.331   4.003  73.076  1.00  0.00    -0.060 F  
HETATM   27  C   UNL     1      -8.633   7.380  73.131  1.00  0.00    -0.139 A  
HETATM   28  F   UNL     1      -8.206   8.577  73.556  1.00  0.00    -0.253 F  
ENDBRANCH  18  20
ENDBRANCH  14  16
ENDBRANCH   8  10
ENDBRANCH   5   8
TORSDOF 4
ENDMDL
MODEL      163
REMARK 921   NORMALIZED FREE ENERGY PREDICTED BY IDOCK:   -4.21 KCAL/MOL
REMARK 922        TOTAL FREE ENERGY PREDICTED BY IDOCK:   -5.55 KCAL/MOL
REMARK 923 INTER-LIGAND FREE ENERGY PREDICTED BY IDOCK:   -5.46 KCAL/MOL
REMARK 924 INTRA-LIGAND FREE ENERGY PREDICTED BY IDOCK:   -0.09 KCAL/MOL
REMARK 927      BINDING AFFINITY PREDICTED BY RF-SCORE:    0.00 PKD
ROOT
HETATM    1  C   UNL     1     -10.380   3.347  63.442  1.00  0.00    -0.220 C  
HETATM    2  N   UNL     1      -9.091   3.634  64.061  1.00  0.00    -0.114 NA 
HETATM    3  C   UNL     1      -9.189   4.661  65.108  1.00  0.00    -0.156 C  
HETATM    4  C   UNL     1      -9.787   4.167  66.433  1.00  0.00    -0.214 C  
HETATM    5  C   UNL     1      -9.081   2.905  66.958  1.00  0.00    -0.188 C  
HETATM    6  C   UNL     1      -9.053   1.862  65.835  1.00  0.00    -0.050 C  
HETATM    7  C   UNL     1      -8.431   2.422  64.558  1.00  0.00    -0.089 C  
ENDROOT
BRANCH   5   8
HETATM    8  C   UNL     1      -7.693   3.242  67.533  1.00  0.00    -0.076 C  
HETATM    9  O   UNL     1      -6.660   3.161  66.867  1.00  0.00    -0.036 OA 
BRANCH   8  10
HETATM   10  C   UNL     1      -7.592   3.751  68.931  1.00  0.00    -0.053 A  
HETATM   11  C   UNL     1      -6.736   3.151  69.842  1.00  0.00    -0.034 A  
HETATM   12  C   UNL     1      -6.683   3.673  71.131  1.00  0.00    -0.031 A  
HETATM   13  C   UNL     1      -7.490   4.763  71.459  1.00  0.00    -0.078 A  
HETATM   14  C   UNL     1      -8.322   5.304  70.484  1.00  0.00    -0.112 A  
HETATM   15  N   UNL     1      -8.359   4.815  69.238  1.00  0.00    -0.080 NA 
BRANCH  14  16
HETATM   16  N   UNL     1      -9.139   6.390  70.830  1.00  0.00    -0.150 N  
HETATM   17  H   UNL     1      -8.742   7.115  71.427  1.00  0.00     0.000 HD 
HETATM   18  C   UNL     1     -10.453   6.542  70.413  1.00  0.00    -0.212 C  
HETATM   19  O   UNL     1     -11.070   5.748  69.711  1.00  0.00    -0.369 OA 
BRANCH  18  20
HETATM   20  C   UNL     1     -11.162   7.777  70.856  1.00  0.00    -0.284 A  
HETATM   21  C   UNL     1     -10.793   9.054  70.423  1.00  0.00    -0.246 A  
HETATM   22  C   UNL     1     -11.486  10.191  70.834  1.00  0.00    -0.444 A  
HETATM   23  F   UNL     1      -9.755   9.228  69.589  1.00  0.00    -0.159 F  
HETATM   24  C   UNL     1     -12.564  10.053  71.694  1.00  0.00    -0.427 A  
HETATM   25  C   UNL     1     -12.956   8.806  72.150  1.00  0.00    -0.457 A  
HETATM   26  F   UNL     1     -13.238  11.142  72.089  1.00  0.00    -0.572 F  
HETATM   27  C   UNL     1     -12.254   7.676  71.730  1.00  0.00    -0.311 A  
HETATM   28  F   UNL     1     -12.672   6.495  72.206  1.00  0.00    -0.303 F  
ENDBRANCH  18  20
ENDBRANCH  14  16
ENDBRANCH   8  10
ENDBRANCH   5   8
TORSDOF 4
ENDMDL
MODEL      164
REMARK 921   NORMALIZED FREE ENERGY PREDICTED BY IDOCK:   -4.21 KCAL/MOL
REMARK 922        TOTAL FREE ENERGY PREDICTED BY IDOCK:   -5.55 KCAL/MOL
REMARK 923 INTER-LIGAND FREE ENERGY PREDICTED BY IDOCK:   -4.98 KCAL/MOL
REMARK 924 INTRA-LIGAND FREE ENERGY PREDICTED BY IDOCK:   -0.57 KCAL/MOL
REMARK 927      BINDING AFFINITY PREDICTED BY RF-SCORE:    0.00 PKD
ROOT
HETATM    1  C   UNL     1     -10.597   4.229  73.356  1.00  0.00    -0.208 C  
HETATM    2  N   UNL     1      -9.355   4.448  72.623  1.00  0.00    -0.128 NA 
HETATM    3  C   UNL     1      -9.327   3.726  71.343  1.00  0.00    -0.138 C  
HETATM    4  C   UNL     1     -10.170   4.364  70.230  1.00  0.00    -0.040 C  
HETATM    5  C   UNL     1      -9.848   5.855  70.033  1.00  0.00    -0.225 C  
HETATM    6  C   UNL     1      -9.939   6.555  71.394  1.00  0.00    -0.202 C  
HETATM    7  C   UNL     1      -9.062   5.873  72.441  1.00  0.00    -0.140 C  
ENDROOT
BRANCH   5   8
HETATM    8  C   UNL     1      -8.494   6.042  69.325  1.00  0.00    -0.115 C  
HETATM    9  O   UNL     1      -8.000   5.180  68.596  1.00  0.00    -0.085 OA 
BRANCH   8  10
HETATM   10  C   UNL     1      -7.774   7.341  69.467  1.00  0.00    -0.113 A  
HETATM   11  C   UNL     1      -6.406   7.370  69.692  1.00  0.00    -0.031 A  
HETATM   12  C   UNL     1      -5.791   8.613  69.813  1.00  0.00    -0.029 A  
HETATM   13  C   UNL     1      -6.564   9.770  69.714  1.00  0.00    -0.060 A  
HETATM   14  C   UNL     1      -7.931   9.649  69.489  1.00  0.00    -0.125 A  
HETATM   15  N   UNL     1      -8.522   8.455  69.352  1.00  0.00    -0.123 NA 
BRANCH  14  16
HETATM   16  N   UNL     1      -8.701  10.819  69.406  1.00  0.00    -0.383 N  
HETATM   17  H   UNL     1      -8.869  11.341  70.265  1.00  0.00     0.000 HD 
HETATM   18  C   UNL     1      -9.249  11.312  68.231  1.00  0.00    -0.176 C  
HETATM   19  O   UNL     1      -9.148  10.786  67.128  1.00  0.00    -0.144 OA 
BRANCH  18  20
HETATM   20  C   UNL     1     -10.015  12.587  68.327  1.00  0.00    -0.229 A  
HETATM   21  C   UNL     1      -9.580  13.775  67.732  1.00  0.00    -0.219 A  
HETATM   22  C   UNL     1     -10.326  14.949  67.818  1.00  0.00    -0.244 A  
HETATM   23  F   UNL     1      -8.423  13.824  67.052  1.00  0.00    -0.201 F  
HETATM   24  C   UNL     1     -11.526  14.939  68.511  1.00  0.00    -0.315 A  
HETATM   25  C   UNL     1     -11.988  13.785  69.120  1.00  0.00    -0.403 A  
HETATM   26  F   UNL     1     -12.250  16.063  68.593  1.00  0.00    -0.332 F  
HETATM   27  C   UNL     1     -11.231  12.617  69.026  1.00  0.00    -0.269 A  
HETATM   28  F   UNL     1     -11.722  11.530  69.638  1.00  0.00    -0.302 F  
ENDBRANCH  18  20
ENDBRANCH  14  16
ENDBRANCH   8  10
ENDBRANCH   5   8
TORSDOF 4
ENDMDL
MODEL      165
REMARK 921   NORMALIZED FREE ENERGY PREDICTED BY IDOCK:   -4.18 KCAL/MOL
REMARK 922        TOTAL FREE ENERGY PREDICTED BY IDOCK:   -5.51 KCAL/MOL
REMARK 923 INTER-LIGAND FREE ENERGY PREDICTED BY IDOCK:   -5.55 KCAL/MOL
REMARK 924 INTRA-LIGAND FREE ENERGY PREDICTED BY IDOCK:    0.04 KCAL/MOL
REMARK 927      BINDING AFFINITY PREDICTED BY RF-SCORE:    0.00 PKD
ROOT
HETATM    1  C   UNL     1     -10.892   5.752  72.092  1.00  0.00    -0.244 C  
HETATM    2  N   UNL     1     -10.066   6.919  71.797  1.00  0.00    -0.185 NA 
HETATM    3  C   UNL     1      -9.732   7.020  70.370  1.00  0.00    -0.176 C  
HETATM    4  C   UNL     1     -10.876   7.528  69.480  1.00  0.00    -0.184 C  
HETATM    5  C   UNL     1     -11.486   8.840  70.003  1.00  0.00     0.047 C  
HETATM    6  C   UNL     1     -11.852   8.651  71.479  1.00  0.00    -0.366 C  
HETATM    7  C   UNL     1     -10.660   8.162  72.299  1.00  0.00    -0.309 C  
ENDROOT
BRANCH   5   8
HETATM    8  C   UNL     1     -10.548  10.032  69.739  1.00  0.00    -0.267 C  
HETATM    9  O   UNL     1      -9.357   9.892  69.459  1.00  0.00    -0.193 OA 
BRANCH   8  10
HETATM   10  C   UNL     1     -11.110  11.413  69.756  1.00  0.00    -0.126 A  
HETATM   11  C   UNL     1     -12.324  11.676  70.372  1.00  0.00    -0.373 A  
HETATM   12  C   UNL     1     -12.794  12.985  70.357  1.00  0.00     0.084 A  
HETATM   13  C   UNL     1     -12.042  13.974  69.722  1.00  0.00    -0.405 A  
HETATM   14  C   UNL     1     -10.835  13.623  69.126  1.00  0.00    -0.152 A  
HETATM   15  N   UNL     1     -10.371  12.367  69.157  1.00  0.00     0.063 NA 
BRANCH  14  16
HETATM   16  N   UNL     1     -10.094  14.622  68.478  1.00  0.00    -0.232 N  
HETATM   17  H   UNL     1      -9.622  14.377  67.608  1.00  0.00     0.000 HD 
HETATM   18  C   UNL     1      -9.962  15.922  68.942  1.00  0.00    -0.225 C  
HETATM   19  O   UNL     1     -10.455  16.358  69.977  1.00  0.00    -0.244 OA 
BRANCH  18  20
HETATM   20  C   UNL     1      -9.159  16.859  68.106  1.00  0.00    -0.231 A  
HETATM   21  C   UNL     1      -9.671  17.475  66.960  1.00  0.00    -0.284 A  
HETATM   22  C   UNL     1      -8.907  18.364  66.206  1.00  0.00    -0.204 A  
HETATM   23  F   UNL     1     -10.925  17.230  66.545  1.00  0.00    -0.185 F  
HETATM   24  C   UNL     1      -7.608  18.643  66.601  1.00  0.00    -0.241 A  
HETATM   25  C   UNL     1      -7.062  18.048  67.727  1.00  0.00    -0.207 A  
HETATM   26  F   UNL     1      -6.870  19.501  65.885  1.00  0.00    -0.216 F  
HETATM   27  C   UNL     1      -7.839  17.160  68.471  1.00  0.00    -0.257 A  
HETATM   28  F   UNL     1      -7.259  16.610  69.547  1.00  0.00    -0.235 F  
ENDBRANCH  18  20
ENDBRANCH  14  16
ENDBRANCH   8  10
ENDBRANCH   5   8
TORSDOF 4
ENDMDL
MODEL      166
REMARK 921   NORMALIZED FREE ENERGY PREDICTED BY IDOCK:   -4.18 KCAL/MOL
REMARK 922        TOTAL FREE ENERGY PREDICTED BY IDOCK:   -5.51 KCAL/MOL
REMARK 923 INTER-LIGAND FREE ENERGY PREDICTED BY IDOCK:   -5.05 KCAL/MOL
REMARK 924 INTRA-LIGAND FREE ENERGY PREDICTED BY IDOCK:   -0.46 KCAL/MOL
REMARK 927      BINDING AFFINITY PREDICTED BY RF-SCORE:    0.00 PKD
ROOT
HETATM    1  C   UNL     1     -10.122   3.084  63.872  1.00  0.00    -0.171 C  
HETATM    2  N   UNL     1      -8.909   3.851  64.133  1.00  0.00    -0.113 NA 
HETATM    3  C   UNL     1      -9.199   5.214  64.600  1.00  0.00     0.101 C  
HETATM    4  C   UNL     1      -9.647   5.306  66.066  1.00  0.00    -0.166 C  
HETATM    5  C   UNL     1      -8.678   4.586  67.019  1.00  0.00    -0.104 C  
HETATM    6  C   UNL     1      -8.455   3.161  66.500  1.00  0.00    -0.109 C  
HETATM    7  C   UNL     1      -7.996   3.154  65.044  1.00  0.00    -0.082 C  
ENDROOT
BRANCH   5   8
HETATM    8  C   UNL     1      -7.381   5.393  67.206  1.00  0.00    -0.083 C  
HETATM    9  O   UNL     1      -6.289   5.003  66.789  1.00  0.00    -0.037 OA 
BRANCH   8  10
HETATM   10  C   UNL     1      -7.448   6.732  67.859  1.00  0.00    -0.098 A  
HETATM   11  C   UNL     1      -6.927   6.926  69.130  1.00  0.00    -0.078 A  
HETATM   12  C   UNL     1      -7.016   8.199  69.685  1.00  0.00    -0.049 A  
HETATM   13  C   UNL     1      -7.628   9.219  68.957  1.00  0.00    -0.074 A  
HETATM   14  C   UNL     1      -8.126   8.937  67.689  1.00  0.00    -0.106 A  
HETATM   15  N   UNL     1      -8.023   7.718  67.145  1.00  0.00    -0.115 NA 
BRANCH  14  16
HETATM   16  N   UNL     1      -8.753   9.968  66.973  1.00  0.00    -0.132 N  
HETATM   17  H   UNL     1      -8.160  10.675  66.538  1.00  0.00     0.000 HD 
HETATM   18  C   UNL     1     -10.125  10.088  66.817  1.00  0.00    -0.226 C  
HETATM   19  O   UNL     1     -10.961   9.329  67.295  1.00  0.00    -0.166 OA 
BRANCH  18  20
HETATM   20  C   UNL     1     -10.614  11.234  65.997  1.00  0.00    -0.314 A  
HETATM   21  C   UNL     1     -10.447  11.293  64.610  1.00  0.00    -0.325 A  
HETATM   22  C   UNL     1     -10.931  12.365  63.863  1.00  0.00    -0.467 A  
HETATM   23  F   UNL     1      -9.812  10.312  63.948  1.00  0.00    -0.340 F  
HETATM   24  C   UNL     1     -11.592  13.397  64.510  1.00  0.00    -0.371 A  
HETATM   25  C   UNL     1     -11.772  13.378  65.883  1.00  0.00    -0.389 A  
HETATM   26  F   UNL     1     -12.066  14.428  63.797  1.00  0.00    -0.435 F  
HETATM   27  C   UNL     1     -11.281  12.299  66.618  1.00  0.00    -0.316 A  
HETATM   28  F   UNL     1     -11.478  12.335  67.944  1.00  0.00    -0.283 F  
ENDBRANCH  18  20
ENDBRANCH  14  16
ENDBRANCH   8  10
ENDBRANCH   5   8
TORSDOF 4
ENDMDL
MODEL      167
REMARK 921   NORMALIZED FREE ENERGY PREDICTED BY IDOCK:   -4.13 KCAL/MOL
REMARK 922        TOTAL FREE ENERGY PREDICTED BY IDOCK:   -5.45 KCAL/MOL
REMARK 923 INTER-LIGAND FREE ENERGY PREDICTED BY IDOCK:   -5.02 KCAL/MOL
REMARK 924 INTRA-LIGAND FREE ENERGY PREDICTED BY IDOCK:   -0.43 KCAL/MOL
REMARK 927      BINDING AFFINITY PREDICTED BY RF-SCORE:    0.00 PKD
ROOT
HETATM    1  C   UNL     1     -12.500  14.854  64.240  1.00  0.00    -0.157 C  
HETATM    2  N   UNL     1     -12.597  13.566  64.919  1.00  0.00    -0.627 NA 
HETATM    3  C   UNL     1     -12.326  12.437  64.019  1.00  0.00    -0.488 C  
HETATM    4  C   UNL     1     -10.841  12.223  63.691  1.00  0.00    -0.522 C  
HETATM    5  C   UNL     1      -9.968  12.148  64.956  1.00  0.00    -0.242 C  
HETATM    6  C   UNL     1     -10.267  13.374  65.826  1.00  0.00    -0.300 C  
HETATM    7  C   UNL     1     -11.759  13.508  66.121  1.00  0.00    -0.365 C  
ENDROOT
BRANCH   5   8
HETATM    8  C   UNL     1     -10.159  10.804  65.682  1.00  0.00    -0.267 C  
HETATM    9  O   UNL     1     -11.156  10.549  66.359  1.00  0.00    -0.029 OA 
BRANCH   8  10
HETATM   10  C   UNL     1      -9.131   9.736  65.514  1.00  0.00    -0.196 A  
HETATM   11  C   UNL     1      -8.301   9.723  64.403  1.00  0.00    -0.169 A  
HETATM   12  C   UNL     1      -7.360   8.703  64.303  1.00  0.00    -0.104 A  
HETATM   13  C   UNL     1      -7.292   7.737  65.306  1.00  0.00    -0.078 A  
HETATM   14  C   UNL     1      -8.165   7.824  66.386  1.00  0.00    -0.116 A  
HETATM   15  N   UNL     1      -9.057   8.816  66.494  1.00  0.00    -0.151 NA 
BRANCH  14  16
HETATM   16  N   UNL     1      -8.097   6.838  67.382  1.00  0.00    -0.117 N  
HETATM   17  H   UNL     1      -7.389   6.942  68.109  1.00  0.00     0.000 HD 
HETATM   18  C   UNL     1      -8.930   5.731  67.442  1.00  0.00    -0.108 C  
HETATM   19  O   UNL     1      -9.812   5.463  66.634  1.00  0.00    -0.146 OA 
BRANCH  18  20
HETATM   20  C   UNL     1      -8.733   4.800  68.590  1.00  0.00    -0.111 A  
HETATM   21  C   UNL     1      -8.328   3.472  68.423  1.00  0.00    -0.082 A  
HETATM   22  C   UNL     1      -8.130   2.627  69.513  1.00  0.00    -0.057 A  
HETATM   23  F   UNL     1      -8.114   2.964  67.198  1.00  0.00    -0.075 F  
HETATM   24  C   UNL     1      -8.341   3.114  70.794  1.00  0.00    -0.060 A  
HETATM   25  C   UNL     1      -8.748   4.421  71.001  1.00  0.00    -0.136 A  
HETATM   26  F   UNL     1      -8.146   2.309  71.847  1.00  0.00    -0.049 F  
HETATM   27  C   UNL     1      -8.942   5.256  69.900  1.00  0.00    -0.119 A  
HETATM   28  F   UNL     1      -9.342   6.509  70.157  1.00  0.00    -0.154 F  
ENDBRANCH  18  20
ENDBRANCH  14  16
ENDBRANCH   8  10
ENDBRANCH   5   8
TORSDOF 4
ENDMDL
MODEL      168
REMARK 921   NORMALIZED FREE ENERGY PREDICTED BY IDOCK:   -4.10 KCAL/MOL
REMARK 922        TOTAL FREE ENERGY PREDICTED BY IDOCK:   -5.41 KCAL/MOL
REMARK 923 INTER-LIGAND FREE ENERGY PREDICTED BY IDOCK:   -5.26 KCAL/MOL
REMARK 924 INTRA-LIGAND FREE ENERGY PREDICTED BY IDOCK:   -0.15 KCAL/MOL
REMARK 927      BINDING AFFINITY PREDICTED BY RF-SCORE:    0.00 PKD
ROOT
HETATM    1  C   UNL     1     -11.840   5.974  72.608  1.00  0.00    -0.123 C  
HETATM    2  N   UNL     1     -11.081   7.060  71.995  1.00  0.00    -0.236 NA 
HETATM    3  C   UNL     1      -9.653   7.006  72.338  1.00  0.00    -0.145 C  
HETATM    4  C   UNL     1      -8.853   5.935  71.580  1.00  0.00    -0.139 C  
HETATM    5  C   UNL     1      -9.057   6.022  70.058  1.00  0.00    -0.152 C  
HETATM    6  C   UNL     1     -10.562   6.028  69.769  1.00  0.00    -0.356 C  
HETATM    7  C   UNL     1     -11.282   7.129  70.545  1.00  0.00    -0.290 C  
ENDROOT
BRANCH   5   8
HETATM    8  C   UNL     1      -8.301   7.224  69.464  1.00  0.00    -0.133 C  
HETATM    9  O   UNL     1      -7.500   7.895  70.117  1.00  0.00    -0.075 OA 
BRANCH   8  10
HETATM   10  C   UNL     1      -8.490   7.559  68.023  1.00  0.00    -0.123 A  
HETATM   11  C   UNL     1      -8.376   6.579  67.048  1.00  0.00    -0.113 A  
HETATM   12  C   UNL     1      -8.567   6.953  65.721  1.00  0.00    -0.139 A  
HETATM   13  C   UNL     1      -8.851   8.285  65.421  1.00  0.00    -0.116 A  
HETATM   14  C   UNL     1      -8.945   9.204  66.461  1.00  0.00    -0.148 A  
HETATM   15  N   UNL     1      -8.783   8.843  67.740  1.00  0.00    -0.125 NA 
BRANCH  14  16
HETATM   16  N   UNL     1      -9.217  10.544  66.146  1.00  0.00    -0.165 N  
HETATM   17  H   UNL     1      -9.454  10.768  65.180  1.00  0.00     0.000 HD 
HETATM   18  C   UNL     1      -9.185  11.584  67.063  1.00  0.00    -0.176 C  
HETATM   19  O   UNL     1      -8.901  11.472  68.250  1.00  0.00    -0.155 OA 
BRANCH  18  20
HETATM   20  C   UNL     1      -9.531  12.942  66.555  1.00  0.00    -0.251 A  
HETATM   21  C   UNL     1      -8.647  14.023  66.632  1.00  0.00     0.049 A  
HETATM   22  C   UNL     1      -8.985  15.279  66.131  1.00  0.00    -0.251 A  
HETATM   23  F   UNL     1      -7.435  13.886  67.194  1.00  0.00    -0.179 F  
HETATM   24  C   UNL     1     -10.228  15.461  65.544  1.00  0.00    -0.382 A  
HETATM   25  C   UNL     1     -11.133  14.417  65.454  1.00  0.00    -0.331 A  
HETATM   26  F   UNL     1     -10.557  16.664  65.054  1.00  0.00    -0.341 F  
HETATM   27  C   UNL     1     -10.781  13.165  65.960  1.00  0.00    -0.276 A  
HETATM   28  F   UNL     1     -11.696  12.193  65.852  1.00  0.00    -0.394 F  
ENDBRANCH  18  20
ENDBRANCH  14  16
ENDBRANCH   8  10
ENDBRANCH   5   8
TORSDOF 4
ENDMDL
MODEL      169
REMARK 921   NORMALIZED FREE ENERGY PREDICTED BY IDOCK:   -4.09 KCAL/MOL
REMARK 922        TOTAL FREE ENERGY PREDICTED BY IDOCK:   -5.41 KCAL/MOL
REMARK 923 INTER-LIGAND FREE ENERGY PREDICTED BY IDOCK:   -5.44 KCAL/MOL
REMARK 924 INTRA-LIGAND FREE ENERGY PREDICTED BY IDOCK:    0.03 KCAL/MOL
REMARK 927      BINDING AFFINITY PREDICTED BY RF-SCORE:    0.00 PKD
ROOT
HETATM    1  C   UNL     1      -5.139   7.624  73.638  1.00  0.00    -0.041 C  
HETATM    2  N   UNL     1      -6.161   6.764  73.051  1.00  0.00    -0.057 NA 
HETATM    3  C   UNL     1      -7.432   7.470  72.838  1.00  0.00    -0.081 C  
HETATM    4  C   UNL     1      -7.443   8.416  71.628  1.00  0.00    -0.118 C  
HETATM    5  C   UNL     1      -6.970   7.721  70.339  1.00  0.00    -0.046 C  
HETATM    6  C   UNL     1      -5.623   7.045  70.617  1.00  0.00    -0.024 C  
HETATM    7  C   UNL     1      -5.698   6.111  71.823  1.00  0.00    -0.031 C  
ENDROOT
BRANCH   5   8
HETATM    8  C   UNL     1      -8.048   6.766  69.796  1.00  0.00    -0.126 C  
HETATM    9  O   UNL     1      -8.809   6.134  70.530  1.00  0.00    -0.143 OA 
BRANCH   8  10
HETATM   10  C   UNL     1      -8.230   6.642  68.320  1.00  0.00    -0.114 A  
HETATM   11  C   UNL     1      -7.757   5.531  67.640  1.00  0.00    -0.093 A  
HETATM   12  C   UNL     1      -7.960   5.471  66.264  1.00  0.00    -0.105 A  
HETATM   13  C   UNL     1      -8.616   6.524  65.625  1.00  0.00    -0.132 A  
HETATM   14  C   UNL     1      -9.057   7.603  66.384  1.00  0.00    -0.174 A  
HETATM   15  N   UNL     1      -8.880   7.652  67.711  1.00  0.00    -0.126 NA 
BRANCH  14  16
HETATM   16  N   UNL     1      -9.701   8.663  65.729  1.00  0.00    -0.461 N  
HETATM   17  H   UNL     1     -10.218   8.452  64.875  1.00  0.00     0.000 HD 
HETATM   18  C   UNL     1      -9.682   9.978  66.166  1.00  0.00    -0.227 C  
HETATM   19  O   UNL     1      -9.092  10.386  67.160  1.00  0.00    -0.139 OA 
BRANCH  18  20
HETATM   20  C   UNL     1     -10.449  10.969  65.357  1.00  0.00    -0.306 A  
HETATM   21  C   UNL     1     -11.431  11.796  65.911  1.00  0.00    -0.207 A  
HETATM   22  C   UNL     1     -12.119  12.730  65.138  1.00  0.00    -0.498 A  
HETATM   23  F   UNL     1     -11.744  11.719  67.215  1.00  0.00    -0.378 F  
HETATM   24  C   UNL     1     -11.824  12.839  63.788  1.00  0.00    -0.499 A  
HETATM   25  C   UNL     1     -10.864  12.034  63.201  1.00  0.00    -0.275 A  
HETATM   26  F   UNL     1     -12.478  13.738  63.041  1.00  0.00    -0.485 F  
HETATM   27  C   UNL     1     -10.183  11.103  63.987  1.00  0.00    -0.361 A  
HETATM   28  F   UNL     1      -9.267  10.346  63.366  1.00  0.00    -0.193 F  
ENDBRANCH  18  20
ENDBRANCH  14  16
ENDBRANCH   8  10
ENDBRANCH   5   8
TORSDOF 4
ENDMDL
MODEL      170
REMARK 921   NORMALIZED FREE ENERGY PREDICTED BY IDOCK:   -4.01 KCAL/MOL
REMARK 922        TOTAL FREE ENERGY PREDICTED BY IDOCK:   -5.31 KCAL/MOL
REMARK 923 INTER-LIGAND FREE ENERGY PREDICTED BY IDOCK:   -5.53 KCAL/MOL
REMARK 924 INTRA-LIGAND FREE ENERGY PREDICTED BY IDOCK:    0.23 KCAL/MOL
REMARK 927      BINDING AFFINITY PREDICTED BY RF-SCORE:    0.00 PKD
ROOT
HETATM    1  C   UNL     1      -5.148  13.925  70.587  1.00  0.00    -0.107 C  
HETATM    2  N   UNL     1      -6.403  14.602  70.279  1.00  0.00    -0.176 NA 
HETATM    3  C   UNL     1      -6.191  15.930  69.685  1.00  0.00    -0.177 C  
HETATM    4  C   UNL     1      -5.766  15.910  68.210  1.00  0.00    -0.113 C  
HETATM    5  C   UNL     1      -6.708  15.058  67.342  1.00  0.00    -0.104 C  
HETATM    6  C   UNL     1      -6.850  13.676  67.991  1.00  0.00    -0.138 C  
HETATM    7  C   UNL     1      -7.289  13.780  69.450  1.00  0.00     0.182 C  
ENDROOT
BRANCH   5   8
HETATM    8  C   UNL     1      -8.048  15.777  67.105  1.00  0.00    -0.211 C  
HETATM    9  O   UNL     1      -8.166  17.002  67.165  1.00  0.00    -0.179 OA 
BRANCH   8  10
HETATM   10  C   UNL     1      -9.245  14.973  66.721  1.00  0.00    -0.257 A  
HETATM   11  C   UNL     1      -9.688  14.947  65.408  1.00  0.00    -0.211 A  
HETATM   12  C   UNL     1     -10.808  14.177  65.111  1.00  0.00    -0.380 A  
HETATM   13  C   UNL     1     -11.443  13.474  66.135  1.00  0.00    -0.348 A  
HETATM   14  C   UNL     1     -10.933  13.557  67.426  1.00  0.00    -0.272 A  
HETATM   15  N   UNL     1      -9.843  14.282  67.710  1.00  0.00    -0.220 NA 
BRANCH  14  16
HETATM   16  N   UNL     1     -11.589  12.858  68.451  1.00  0.00    -0.311 N  
HETATM   17  H   UNL     1     -12.426  13.278  68.854  1.00  0.00     0.000 HD 
HETATM   18  C   UNL     1     -11.174  11.633  68.950  1.00  0.00    -0.246 C  
HETATM   19  O   UNL     1     -10.181  11.017  68.579  1.00  0.00    -0.177 OA 
BRANCH  18  20
HETATM   20  C   UNL     1     -12.012  11.022  70.021  1.00  0.00    -0.430 A  
HETATM   21  C   UNL     1     -12.766  11.787  70.916  1.00  0.00    -0.235 A  
HETATM   22  C   UNL     1     -13.559  11.191  71.896  1.00  0.00    -0.108 A  
HETATM   23  F   UNL     1     -12.754  13.128  70.861  1.00  0.00    -0.392 F  
HETATM   24  C   UNL     1     -13.598   9.808  71.986  1.00  0.00    -0.349 A  
HETATM   25  C   UNL     1     -12.860   9.017  71.122  1.00  0.00    -0.215 A  
HETATM   26  F   UNL     1     -14.362   9.229  72.922  1.00  0.00    -0.375 F  
HETATM   27  C   UNL     1     -12.072   9.627  70.147  1.00  0.00     0.109 A  
HETATM   28  F   UNL     1     -11.374   8.813  69.341  1.00  0.00    -0.093 F  
ENDBRANCH  18  20
ENDBRANCH  14  16
ENDBRANCH   8  10
ENDBRANCH   5   8
TORSDOF 4
ENDMDL
MODEL      171
REMARK 921   NORMALIZED FREE ENERGY PREDICTED BY IDOCK:   -3.99 KCAL/MOL
REMARK 922        TOTAL FREE ENERGY PREDICTED BY IDOCK:   -5.28 KCAL/MOL
REMARK 923 INTER-LIGAND FREE ENERGY PREDICTED BY IDOCK:   -6.03 KCAL/MOL
REMARK 924 INTRA-LIGAND FREE ENERGY PREDICTED BY IDOCK:    0.75 KCAL/MOL
REMARK 927      BINDING AFFINITY PREDICTED BY RF-SCORE:    0.00 PKD
ROOT
HETATM    1  C   UNL     1      -5.146  11.109  67.972  1.00  0.00    -0.043 C  
HETATM    2  N   UNL     1      -6.428  10.697  68.535  1.00  0.00    -0.054 NA 
HETATM    3  C   UNL     1      -7.078   9.649  67.737  1.00  0.00    -0.081 C  
HETATM    4  C   UNL     1      -6.479   8.246  67.915  1.00  0.00    -0.057 C  
HETATM    5  C   UNL     1      -6.379   7.836  69.394  1.00  0.00    -0.035 C  
HETATM    6  C   UNL     1      -5.652   8.950  70.158  1.00  0.00    -0.027 C  
HETATM    7  C   UNL     1      -6.316  10.308  69.944  1.00  0.00    -0.082 C  
ENDROOT
BRANCH   5   8
HETATM    8  C   UNL     1      -7.763   7.485  69.969  1.00  0.00    -0.094 C  
HETATM    9  O   UNL     1      -7.972   7.371  71.177  1.00  0.00    -0.097 OA 
BRANCH   8  10
HETATM   10  C   UNL     1      -8.919   7.339  69.037  1.00  0.00    -0.134 A  
HETATM   11  C   UNL     1      -9.446   6.088  68.754  1.00  0.00    -0.137 A  
HETATM   12  C   UNL     1     -10.526   6.017  67.880  1.00  0.00    -0.294 A  
HETATM   13  C   UNL     1     -11.028   7.191  67.318  1.00  0.00    -0.333 A  
HETATM   14  C   UNL     1     -10.437   8.405  67.654  1.00  0.00    -0.239 A  
HETATM   15  N   UNL     1      -9.411   8.477  68.511  1.00  0.00    -0.139 NA 
BRANCH  14  16
HETATM   16  N   UNL     1     -10.940   9.577  67.071  1.00  0.00    -0.192 N  
HETATM   17  H   UNL     1     -11.759  10.009  67.499  1.00  0.00     0.000 HD 
HETATM   18  C   UNL     1     -10.397  10.187  65.950  1.00  0.00    -0.151 C  
HETATM   19  O   UNL     1      -9.429   9.776  65.320  1.00  0.00    -0.241 OA 
BRANCH  18  20
HETATM   20  C   UNL     1     -11.047  11.446  65.485  1.00  0.00    -0.203 A  
HETATM   21  C   UNL     1     -11.580  12.390  66.369  1.00  0.00    -0.384 A  
HETATM   22  C   UNL     1     -12.163  13.569  65.910  1.00  0.00    -0.507 A  
HETATM   23  F   UNL     1     -11.545  12.191  67.697  1.00  0.00    -0.323 F  
HETATM   24  C   UNL     1     -12.219  13.811  64.546  1.00  0.00    -0.403 A  
HETATM   25  C   UNL     1     -11.708  12.898  63.639  1.00  0.00    -0.572 A  
HETATM   26  F   UNL     1     -12.773  14.946  64.099  1.00  0.00    -0.463 F  
HETATM   27  C   UNL     1     -11.127  11.722  64.113  1.00  0.00    -0.374 A  
HETATM   28  F   UNL     1     -10.654  10.871  63.192  1.00  0.00    -0.372 F  
ENDBRANCH  18  20
ENDBRANCH  14  16
ENDBRANCH   8  10
ENDBRANCH   5   8
TORSDOF 4
ENDMDL
MODEL      172
REMARK 921   NORMALIZED FREE ENERGY PREDICTED BY IDOCK:   -3.98 KCAL/MOL
REMARK 922        TOTAL FREE ENERGY PREDICTED BY IDOCK:   -5.27 KCAL/MOL
REMARK 923 INTER-LIGAND FREE ENERGY PREDICTED BY IDOCK:   -5.33 KCAL/MOL
REMARK 924 INTRA-LIGAND FREE ENERGY PREDICTED BY IDOCK:    0.06 KCAL/MOL
REMARK 927      BINDING AFFINITY PREDICTED BY RF-SCORE:    0.00 PKD
ROOT
HETATM    1  C   UNL     1     -10.468   5.493  74.056  1.00  0.00    -0.279 C  
HETATM    2  N   UNL     1     -11.019   5.376  72.710  1.00  0.00    -0.259 NA 
HETATM    3  C   UNL     1     -11.904   6.498  72.368  1.00  0.00    -0.197 C  
HETATM    4  C   UNL     1     -11.175   7.805  72.024  1.00  0.00    -0.327 C  
HETATM    5  C   UNL     1     -10.091   7.604  70.950  1.00  0.00    -0.194 C  
HETATM    6  C   UNL     1      -9.179   6.453  71.389  1.00  0.00    -0.150 C  
HETATM    7  C   UNL     1      -9.975   5.187  71.698  1.00  0.00    -0.184 C  
ENDROOT
BRANCH   5   8
HETATM    8  C   UNL     1     -10.718   7.408  69.558  1.00  0.00    -0.224 C  
HETATM    9  O   UNL     1     -11.561   6.541  69.324  1.00  0.00    -0.309 OA 
BRANCH   8  10
HETATM   10  C   UNL     1     -10.345   8.343  68.457  1.00  0.00    -0.200 A  
HETATM   11  C   UNL     1     -10.344   7.917  67.137  1.00  0.00    -0.398 A  
HETATM   12  C   UNL     1      -9.990   8.835  66.154  1.00  0.00    -0.244 A  
HETATM   13  C   UNL     1      -9.644  10.134  66.527  1.00  0.00    -0.236 A  
HETATM   14  C   UNL     1      -9.670  10.478  67.875  1.00  0.00    -0.153 A  
HETATM   15  N   UNL     1     -10.030   9.600  68.820  1.00  0.00    -0.167 NA 
BRANCH  14  16
HETATM   16  N   UNL     1      -9.305  11.783  68.239  1.00  0.00    -0.189 N  
HETATM   17  H   UNL     1      -9.778  12.205  69.038  1.00  0.00     0.000 HD 
HETATM   18  C   UNL     1      -8.343  12.536  67.584  1.00  0.00    -0.172 C  
HETATM   19  O   UNL     1      -7.705  12.172  66.602  1.00  0.00    -0.031 OA 
BRANCH  18  20
HETATM   20  C   UNL     1      -8.064  13.896  68.129  1.00  0.00    -0.150 A  
HETATM   21  C   UNL     1      -7.278  14.106  69.266  1.00  0.00    -0.049 A  
HETATM   22  C   UNL     1      -7.014  15.388  69.743  1.00  0.00    -0.152 A  
HETATM   23  F   UNL     1      -6.745  13.072  69.938  1.00  0.00    -0.066 F  
HETATM   24  C   UNL     1      -7.546  16.481  69.077  1.00  0.00    -0.233 A  
HETATM   25  C   UNL     1      -8.335  16.314  67.951  1.00  0.00    -0.170 A  
HETATM   26  F   UNL     1      -7.292  17.717  69.527  1.00  0.00    -0.164 F  
HETATM   27  C   UNL     1      -8.591  15.024  67.485  1.00  0.00    -0.180 A  
HETATM   28  F   UNL     1      -9.365  14.921  66.396  1.00  0.00    -0.251 F  
ENDBRANCH  18  20
ENDBRANCH  14  16
ENDBRANCH   8  10
ENDBRANCH   5   8
TORSDOF 4
ENDMDL
MODEL      173
REMARK 921   NORMALIZED FREE ENERGY PREDICTED BY IDOCK:   -3.96 KCAL/MOL
REMARK 922        TOTAL FREE ENERGY PREDICTED BY IDOCK:   -5.25 KCAL/MOL
REMARK 923 INTER-LIGAND FREE ENERGY PREDICTED BY IDOCK:   -5.06 KCAL/MOL
REMARK 924 INTRA-LIGAND FREE ENERGY PREDICTED BY IDOCK:   -0.19 KCAL/MOL
REMARK 927      BINDING AFFINITY PREDICTED BY RF-SCORE:    0.00 PKD
ROOT
HETATM    1  C   UNL     1     -10.361   3.295  63.396  1.00  0.00    -0.214 C  
HETATM    2  N   UNL     1      -9.016   3.422  63.949  1.00  0.00    -0.092 NA 
HETATM    3  C   UNL     1      -8.685   4.810  64.302  1.00  0.00    -0.143 C  
HETATM    4  C   UNL     1      -9.334   5.311  65.600  1.00  0.00    -0.126 C  
HETATM    5  C   UNL     1      -9.083   4.362  66.784  1.00  0.00    -0.133 C  
HETATM    6  C   UNL     1      -9.489   2.944  66.365  1.00  0.00     0.023 C  
HETATM    7  C   UNL     1      -8.791   2.513  65.078  1.00  0.00    -0.121 C  
ENDROOT
BRANCH   5   8
HETATM    8  C   UNL     1      -7.632   4.473  67.286  1.00  0.00    -0.085 C  
HETATM    9  O   UNL     1      -6.681   3.961  66.693  1.00  0.00    -0.045 OA 
BRANCH   8  10
HETATM   10  C   UNL     1      -7.346   5.286  68.504  1.00  0.00    -0.071 A  
HETATM   11  C   UNL     1      -6.185   5.082  69.234  1.00  0.00    -0.030 A  
HETATM   12  C   UNL     1      -5.973   5.874  70.358  1.00  0.00    -0.025 A  
HETATM   13  C   UNL     1      -6.929   6.826  70.713  1.00  0.00    -0.067 A  
HETATM   14  C   UNL     1      -8.068   6.962  69.925  1.00  0.00    -0.125 A  
HETATM   15  N   UNL     1      -8.263   6.215  68.831  1.00  0.00    -0.111 NA 
BRANCH  14  16
HETATM   16  N   UNL     1      -9.029   7.912  70.301  1.00  0.00    -0.150 N  
HETATM   17  H   UNL     1      -8.706   8.850  70.537  1.00  0.00     0.000 HD 
HETATM   18  C   UNL     1     -10.390   7.659  70.371  1.00  0.00    -0.214 C  
HETATM   19  O   UNL     1     -10.923   6.580  70.136  1.00  0.00    -0.261 OA 
BRANCH  18  20
HETATM   20  C   UNL     1     -11.269   8.799  70.762  1.00  0.00    -0.309 A  
HETATM   21  C   UNL     1     -12.041   8.790  71.928  1.00  0.00    -0.363 A  
HETATM   22  C   UNL     1     -12.839   9.877  72.282  1.00  0.00    -0.345 A  
HETATM   23  F   UNL     1     -12.038   7.729  72.751  1.00  0.00    -0.309 F  
HETATM   24  C   UNL     1     -12.870  10.991  71.457  1.00  0.00    -0.450 A  
HETATM   25  C   UNL     1     -12.125  11.035  70.291  1.00  0.00    -0.448 A  
HETATM   26  F   UNL     1     -13.630  12.041  71.795  1.00  0.00    -0.425 F  
HETATM   27  C   UNL     1     -11.330   9.940  69.949  1.00  0.00    -0.222 A  
HETATM   28  F   UNL     1     -10.635  10.034  68.808  1.00  0.00    -0.193 F  
ENDBRANCH  18  20
ENDBRANCH  14  16
ENDBRANCH   8  10
ENDBRANCH   5   8
TORSDOF 4
ENDMDL
MODEL      174
REMARK 921   NORMALIZED FREE ENERGY PREDICTED BY IDOCK:   -3.95 KCAL/MOL
REMARK 922        TOTAL FREE ENERGY PREDICTED BY IDOCK:   -5.23 KCAL/MOL
REMARK 923 INTER-LIGAND FREE ENERGY PREDICTED BY IDOCK:   -5.02 KCAL/MOL
REMARK 924 INTRA-LIGAND FREE ENERGY PREDICTED BY IDOCK:   -0.21 KCAL/MOL
REMARK 927      BINDING AFFINITY PREDICTED BY RF-SCORE:    0.00 PKD
ROOT
HETATM    1  C   UNL     1     -11.597  15.504  64.560  1.00  0.00    -0.283 C  
HETATM    2  N   UNL     1     -11.810  14.082  64.812  1.00  0.00    -0.381 NA 
HETATM    3  C   UNL     1     -10.555  13.318  64.806  1.00  0.00    -0.386 C  
HETATM    4  C   UNL     1      -9.702  13.479  66.073  1.00  0.00    -0.233 C  
HETATM    5  C   UNL     1     -10.508  13.214  67.357  1.00  0.00    -0.243 C  
HETATM    6  C   UNL     1     -11.777  14.072  67.320  1.00  0.00    -0.420 C  
HETATM    7  C   UNL     1     -12.577  13.844  66.039  1.00  0.00    -0.423 C  
ENDROOT
BRANCH   5   8
HETATM    8  C   UNL     1     -10.776  11.709  67.543  1.00  0.00    -0.215 C  
HETATM    9  O   UNL     1     -11.894  11.211  67.407  1.00  0.00    -0.570 OA 
BRANCH   8  10
HETATM   10  C   UNL     1      -9.630  10.800  67.836  1.00  0.00    -0.160 A  
HETATM   11  C   UNL     1      -8.713  11.114  68.827  1.00  0.00    -0.130 A  
HETATM   12  C   UNL     1      -7.668  10.224  69.056  1.00  0.00    -0.110 A  
HETATM   13  C   UNL     1      -7.575   9.067  68.283  1.00  0.00    -0.091 A  
HETATM   14  C   UNL     1      -8.538   8.830  67.306  1.00  0.00    -0.121 A  
HETATM   15  N   UNL     1      -9.556   9.675  67.099  1.00  0.00    -0.161 NA 
BRANCH  14  16
HETATM   16  N   UNL     1      -8.426   7.670  66.525  1.00  0.00    -0.127 N  
HETATM   17  H   UNL     1      -8.684   6.781  66.952  1.00  0.00     0.000 HD 
HETATM   18  C   UNL     1      -7.988   7.655  65.209  1.00  0.00    -0.129 C  
HETATM   19  O   UNL     1      -7.629   8.638  64.571  1.00  0.00    -0.102 OA 
BRANCH  18  20
HETATM   20  C   UNL     1      -7.960   6.332  64.523  1.00  0.00    -0.121 A  
HETATM   21  C   UNL     1      -7.680   5.139  65.197  1.00  0.00    -0.084 A  
HETATM   22  C   UNL     1      -7.681   3.911  64.537  1.00  0.00    -0.081 A  
HETATM   23  F   UNL     1      -7.401   5.136  66.511  1.00  0.00    -0.078 F  
HETATM   24  C   UNL     1      -7.964   3.872  63.181  1.00  0.00    -0.079 A  
HETATM   25  C   UNL     1      -8.240   5.032  62.477  1.00  0.00    -0.093 A  
HETATM   26  F   UNL     1      -7.973   2.695  62.541  1.00  0.00    -0.061 F  
HETATM   27  C   UNL     1      -8.236   6.254  63.150  1.00  0.00     0.002 A  
HETATM   28  F   UNL     1      -8.504   7.345  62.420  1.00  0.00    -0.141 F  
ENDBRANCH  18  20
ENDBRANCH  14  16
ENDBRANCH   8  10
ENDBRANCH   5   8
TORSDOF 4
ENDMDL
MODEL      175
REMARK 921   NORMALIZED FREE ENERGY PREDICTED BY IDOCK:   -3.93 KCAL/MOL
REMARK 922        TOTAL FREE ENERGY PREDICTED BY IDOCK:   -5.20 KCAL/MOL
REMARK 923 INTER-LIGAND FREE ENERGY PREDICTED BY IDOCK:   -4.59 KCAL/MOL
REMARK 924 INTRA-LIGAND FREE ENERGY PREDICTED BY IDOCK:   -0.60 KCAL/MOL
REMARK 927      BINDING AFFINITY PREDICTED BY RF-SCORE:    0.00 PKD
ROOT
HETATM    1  C   UNL     1     -11.123  16.341  64.591  1.00  0.00    -0.246 C  
HETATM    2  N   UNL     1     -10.957  15.362  65.661  1.00  0.00    -0.337 NA 
HETATM    3  C   UNL     1      -9.591  14.823  65.717  1.00  0.00    -0.254 C  
HETATM    4  C   UNL     1      -8.554  15.770  66.337  1.00  0.00    -0.346 C  
HETATM    5  C   UNL     1      -8.997  16.305  67.710  1.00  0.00    -0.193 C  
HETATM    6  C   UNL     1     -10.406  16.892  67.570  1.00  0.00    -0.318 C  
HETATM    7  C   UNL     1     -11.381  15.886  66.963  1.00  0.00     0.085 C  
ENDROOT
BRANCH   5   8
HETATM    8  C   UNL     1      -8.878  15.218  68.794  1.00  0.00    -0.192 C  
HETATM    9  O   UNL     1      -9.557  15.226  69.821  1.00  0.00    -0.231 OA 
BRANCH   8  10
HETATM   10  C   UNL     1      -7.953  14.070  68.570  1.00  0.00    -0.141 A  
HETATM   11  C   UNL     1      -6.579  14.242  68.651  1.00  0.00    -0.090 A  
HETATM   12  C   UNL     1      -5.768  13.132  68.436  1.00  0.00    -0.081 A  
HETATM   13  C   UNL     1      -6.358  11.903  68.140  1.00  0.00    -0.052 A  
HETATM   14  C   UNL     1      -7.745  11.819  68.075  1.00  0.00    -0.123 A  
HETATM   15  N   UNL     1      -8.528  12.882  68.303  1.00  0.00    -0.171 NA 
BRANCH  14  16
HETATM   16  N   UNL     1      -8.326  10.581  67.762  1.00  0.00    -0.111 N  
HETATM   17  H   UNL     1      -8.782  10.484  66.855  1.00  0.00     0.000 HD 
HETATM   18  C   UNL     1      -8.322   9.481  68.605  1.00  0.00    -0.117 C  
HETATM   19  O   UNL     1      -7.832   9.452  69.729  1.00  0.00    -0.090 OA 
BRANCH  18  20
HETATM   20  C   UNL     1      -8.964   8.236  68.094  1.00  0.00    -0.139 A  
HETATM   21  C   UNL     1     -10.328   7.973  68.249  1.00  0.00    -0.197 A  
HETATM   22  C   UNL     1     -10.909   6.812  67.743  1.00  0.00    -0.339 A  
HETATM   23  F   UNL     1     -11.130   8.837  68.893  1.00  0.00    -0.140 F  
HETATM   24  C   UNL     1     -10.115   5.895  67.072  1.00  0.00    -0.183 A  
HETATM   25  C   UNL     1      -8.759   6.116  66.904  1.00  0.00    -0.109 A  
HETATM   26  F   UNL     1     -10.668   4.779  66.578  1.00  0.00    -0.297 F  
HETATM   27  C   UNL     1      -8.191   7.283  67.415  1.00  0.00    -0.116 A  
HETATM   28  F   UNL     1      -6.873   7.444  67.229  1.00  0.00    -0.066 F  
ENDBRANCH  18  20
ENDBRANCH  14  16
ENDBRANCH   8  10
ENDBRANCH   5   8
TORSDOF 4
ENDMDL
MODEL      176
REMARK 921   NORMALIZED FREE ENERGY PREDICTED BY IDOCK:   -3.91 KCAL/MOL
REMARK 922        TOTAL FREE ENERGY PREDICTED BY IDOCK:   -5.18 KCAL/MOL
REMARK 923 INTER-LIGAND FREE ENERGY PREDICTED BY IDOCK:   -4.35 KCAL/MOL
REMARK 924 INTRA-LIGAND FREE ENERGY PREDICTED BY IDOCK:   -0.83 KCAL/MOL
REMARK 927      BINDING AFFINITY PREDICTED BY RF-SCORE:    0.00 PKD
ROOT
HETATM    1  C   UNL     1     -11.197  12.032  67.988  1.00  0.00    -0.258 C  
HETATM    2  N   UNL     1     -10.258  11.000  68.415  1.00  0.00    -0.177 NA 
HETATM    3  C   UNL     1     -10.591   9.679  67.866  1.00  0.00    -0.255 C  
HETATM    4  C   UNL     1     -10.223   9.490  66.387  1.00  0.00    -0.302 C  
HETATM    5  C   UNL     1      -8.758   9.859  66.098  1.00  0.00    -0.150 C  
HETATM    6  C   UNL     1      -8.491  11.262  66.655  1.00  0.00    -0.168 C  
HETATM    7  C   UNL     1      -8.866  11.364  68.131  1.00  0.00    -0.162 C  
ENDROOT
BRANCH   5   8
HETATM    8  C   UNL     1      -7.797   8.781  66.632  1.00  0.00    -0.100 C  
HETATM    9  O   UNL     1      -6.743   9.055  67.208  1.00  0.00    -0.068 OA 
BRANCH   8  10
HETATM   10  C   UNL     1      -8.181   7.345  66.512  1.00  0.00    -0.120 A  
HETATM   11  C   UNL     1      -8.045   6.675  65.305  1.00  0.00    -0.130 A  
HETATM   12  C   UNL     1      -8.417   5.335  65.256  1.00  0.00    -0.147 A  
HETATM   13  C   UNL     1      -8.915   4.723  66.406  1.00  0.00    -0.113 A  
HETATM   14  C   UNL     1      -9.021   5.469  67.575  1.00  0.00    -0.107 A  
HETATM   15  N   UNL     1      -8.645   6.753  67.629  1.00  0.00    -0.121 NA 
BRANCH  14  16
HETATM   16  N   UNL     1      -9.538   4.847  68.721  1.00  0.00    -0.146 N  
HETATM   17  H   UNL     1     -10.532   4.621  68.733  1.00  0.00     0.000 HD 
HETATM   18  C   UNL     1      -8.785   4.519  69.838  1.00  0.00    -0.073 C  
HETATM   19  O   UNL     1      -7.588   4.743  69.976  1.00  0.00    -0.054 OA 
BRANCH  18  20
HETATM   20  C   UNL     1      -9.498   3.834  70.954  1.00  0.00    -0.236 A  
HETATM   21  C   UNL     1      -9.625   2.443  71.027  1.00  0.00    -0.133 A  
HETATM   22  C   UNL     1     -10.278   1.825  72.092  1.00  0.00    -0.227 A  
HETATM   23  F   UNL     1      -9.118   1.652  70.067  1.00  0.00    -0.106 F  
HETATM   24  C   UNL     1     -10.815   2.608  73.102  1.00  0.00    -0.141 A  
HETATM   25  C   UNL     1     -10.715   3.988  73.063  1.00  0.00    -0.251 A  
HETATM   26  F   UNL     1     -11.439   2.020  74.132  1.00  0.00    -0.226 F  
HETATM   27  C   UNL     1     -10.059   4.593  71.991  1.00  0.00    -0.197 A  
HETATM   28  F   UNL     1      -9.997   5.932  72.001  1.00  0.00    -0.183 F  
ENDBRANCH  18  20
ENDBRANCH  14  16
ENDBRANCH   8  10
ENDBRANCH   5   8
TORSDOF 4
ENDMDL
MODEL      177
REMARK 921   NORMALIZED FREE ENERGY PREDICTED BY IDOCK:   -3.90 KCAL/MOL
REMARK 922        TOTAL FREE ENERGY PREDICTED BY IDOCK:   -5.17 KCAL/MOL
REMARK 923 INTER-LIGAND FREE ENERGY PREDICTED BY IDOCK:   -4.27 KCAL/MOL
REMARK 924 INTRA-LIGAND FREE ENERGY PREDICTED BY IDOCK:   -0.90 KCAL/MOL
REMARK 927      BINDING AFFINITY PREDICTED BY RF-SCORE:    0.00 PKD
ROOT
HETATM    1  C   UNL     1     -13.294   8.879  71.583  1.00  0.00    -0.365 C  
HETATM    2  N   UNL     1     -11.979   8.447  71.121  1.00  0.00    -0.289 NA 
HETATM    3  C   UNL     1     -10.912   8.790  72.071  1.00  0.00    -0.368 C  
HETATM    4  C   UNL     1     -10.843   7.886  73.310  1.00  0.00    -0.192 C  
HETATM    5  C   UNL     1     -10.799   6.393  72.942  1.00  0.00    -0.286 C  
HETATM    6  C   UNL     1     -11.962   6.094  71.989  1.00  0.00    -0.310 C  
HETATM    7  C   UNL     1     -11.952   7.022  70.777  1.00  0.00    -0.345 C  
ENDROOT
BRANCH   5   8
HETATM    8  C   UNL     1      -9.419   5.997  72.388  1.00  0.00    -0.145 C  
HETATM    9  O   UNL     1      -8.397   6.643  72.624  1.00  0.00    -0.109 OA 
BRANCH   8  10
HETATM   10  C   UNL     1      -9.291   4.746  71.585  1.00  0.00    -0.145 A  
HETATM   11  C   UNL     1      -9.693   3.527  72.108  1.00  0.00    -0.230 A  
HETATM   12  C   UNL     1      -9.552   2.396  71.309  1.00  0.00    -0.222 A  
HETATM   13  C   UNL     1      -9.009   2.526  70.031  1.00  0.00    -0.161 A  
HETATM   14  C   UNL     1      -8.630   3.788  69.586  1.00  0.00    -0.069 A  
HETATM   15  N   UNL     1      -8.784   4.880  70.345  1.00  0.00    -0.098 NA 
BRANCH  14  16
HETATM   16  N   UNL     1      -8.071   3.905  68.304  1.00  0.00    -0.076 N  
HETATM   17  H   UNL     1      -7.054   3.913  68.226  1.00  0.00     0.000 HD 
HETATM   18  C   UNL     1      -8.811   4.008  67.136  1.00  0.00    -0.119 C  
HETATM   19  O   UNL     1     -10.035   4.030  67.073  1.00  0.00    -0.176 OA 
BRANCH  18  20
HETATM   20  C   UNL     1      -8.047   4.096  65.859  1.00  0.00    -0.101 A  
HETATM   21  C   UNL     1      -7.701   5.315  65.269  1.00  0.00    -0.084 A  
HETATM   22  C   UNL     1      -6.967   5.371  64.086  1.00  0.00    -0.048 A  
HETATM   23  F   UNL     1      -8.065   6.481  65.829  1.00  0.00    -0.103 F  
HETATM   24  C   UNL     1      -6.574   4.189  63.478  1.00  0.00    -0.034 A  
HETATM   25  C   UNL     1      -6.902   2.962  64.027  1.00  0.00    -0.036 A  
HETATM   26  F   UNL     1      -5.863   4.236  62.343  1.00  0.00    -0.012 F  
HETATM   27  C   UNL     1      -7.636   2.921  65.212  1.00  0.00    -0.077 A  
HETATM   28  F   UNL     1      -7.931   1.707  65.697  1.00  0.00    -0.068 F  
ENDBRANCH  18  20
ENDBRANCH  14  16
ENDBRANCH   8  10
ENDBRANCH   5   8
TORSDOF 4
ENDMDL
MODEL      178
REMARK 921   NORMALIZED FREE ENERGY PREDICTED BY IDOCK:   -3.79 KCAL/MOL
REMARK 922        TOTAL FREE ENERGY PREDICTED BY IDOCK:   -5.02 KCAL/MOL
REMARK 923 INTER-LIGAND FREE ENERGY PREDICTED BY IDOCK:   -4.81 KCAL/MOL
REMARK 924 INTRA-LIGAND FREE ENERGY PREDICTED BY IDOCK:   -0.22 KCAL/MOL
REMARK 927      BINDING AFFINITY PREDICTED BY RF-SCORE:    0.00 PKD
ROOT
HETATM    1  C   UNL     1     -10.191  20.110  69.888  1.00  0.00     0.421 C  
HETATM    2  N   UNL     1      -9.552  18.917  69.342  1.00  0.00    -0.039 NA 
HETATM    3  C   UNL     1     -10.477  18.106  68.538  1.00  0.00    -0.250 C  
HETATM    4  C   UNL     1     -10.768  18.666  67.138  1.00  0.00    -0.433 C  
HETATM    5  C   UNL     1      -9.482  18.982  66.356  1.00  0.00    -0.375 C  
HETATM    6  C   UNL     1      -8.585  19.865  67.231  1.00  0.00    -0.384 C  
HETATM    7  C   UNL     1      -8.329  19.232  68.597  1.00  0.00    -0.372 C  
ENDROOT
BRANCH   5   8
HETATM    8  C   UNL     1      -8.800  17.692  65.864  1.00  0.00     0.123 C  
HETATM    9  O   UNL     1      -7.576  17.560  65.824  1.00  0.00    -0.514 OA 
BRANCH   8  10
HETATM   10  C   UNL     1      -9.647  16.525  65.481  1.00  0.00     0.146 A  
HETATM   11  C   UNL     1     -10.888  16.715  64.892  1.00  0.00    -0.158 A  
HETATM   12  C   UNL     1     -11.630  15.588  64.554  1.00  0.00    -0.283 A  
HETATM   13  C   UNL     1     -11.111  14.322  64.825  1.00  0.00    -0.398 A  
HETATM   14  C   UNL     1      -9.857  14.222  65.421  1.00  0.00    -0.221 A  
HETATM   15  N   UNL     1      -9.133  15.306  65.728  1.00  0.00    -0.122 NA 
BRANCH  14  16
HETATM   16  N   UNL     1      -9.351  12.944  65.702  1.00  0.00    -0.453 N  
HETATM   17  H   UNL     1      -9.307  12.270  64.939  1.00  0.00     0.000 HD 
HETATM   18  C   UNL     1      -8.906  12.538  66.951  1.00  0.00    -0.203 C  
HETATM   19  O   UNL     1      -8.914  13.229  67.964  1.00  0.00    -0.177 OA 
BRANCH  18  20
HETATM   20  C   UNL     1      -8.373  11.150  67.059  1.00  0.00    -0.144 A  
HETATM   21  C   UNL     1      -9.204  10.029  67.159  1.00  0.00    -0.141 A  
HETATM   22  C   UNL     1      -8.681   8.740  67.238  1.00  0.00    -0.133 A  
HETATM   23  F   UNL     1     -10.540  10.159  67.182  1.00  0.00    -0.263 F  
HETATM   24  C   UNL     1      -7.307   8.564  67.218  1.00  0.00    -0.088 A  
HETATM   25  C   UNL     1      -6.451   9.649  67.126  1.00  0.00    -0.070 A  
HETATM   26  F   UNL     1      -6.798   7.327  67.287  1.00  0.00    -0.065 F  
HETATM   27  C   UNL     1      -6.988  10.934  67.048  1.00  0.00    -0.105 A  
HETATM   28  F   UNL     1      -6.114  11.947  66.966  1.00  0.00    -0.106 F  
ENDBRANCH  18  20
ENDBRANCH  14  16
ENDBRANCH   8  10
ENDBRANCH   5   8
TORSDOF 4
ENDMDL
MODEL      179
REMARK 921   NORMALIZED FREE ENERGY PREDICTED BY IDOCK:   -3.76 KCAL/MOL
REMARK 922        TOTAL FREE ENERGY PREDICTED BY IDOCK:   -4.99 KCAL/MOL
REMARK 923 INTER-LIGAND FREE ENERGY PREDICTED BY IDOCK:   -4.24 KCAL/MOL
REMARK 924 INTRA-LIGAND FREE ENERGY PREDICTED BY IDOCK:   -0.75 KCAL/MOL
REMARK 927      BINDING AFFINITY PREDICTED BY RF-SCORE:    0.00 PKD
ROOT
HETATM    1  C   UNL     1     -11.092   6.481  69.886  1.00  0.00    -0.371 C  
HETATM    2  N   UNL     1      -9.974   6.758  68.990  1.00  0.00    -0.152 NA 
HETATM    3  C   UNL     1     -10.415   7.027  67.614  1.00  0.00    -0.237 C  
HETATM    4  C   UNL     1     -11.017   8.422  67.396  1.00  0.00     0.103 C  
HETATM    5  C   UNL     1     -10.099   9.543  67.914  1.00  0.00    -0.234 C  
HETATM    6  C   UNL     1      -9.715   9.225  69.363  1.00  0.00    -0.175 C  
HETATM    7  C   UNL     1      -9.110   7.830  69.495  1.00  0.00    -0.146 C  
ENDROOT
BRANCH   5   8
HETATM    8  C   UNL     1      -8.894   9.750  66.979  1.00  0.00    -0.135 C  
HETATM    9  O   UNL     1      -8.856   9.302  65.832  1.00  0.00    -0.147 OA 
BRANCH   8  10
HETATM   10  C   UNL     1      -7.747  10.580  67.448  1.00  0.00    -0.102 A  
HETATM   11  C   UNL     1      -6.599   9.984  67.947  1.00  0.00    -0.063 A  
HETATM   12  C   UNL     1      -5.562  10.812  68.366  1.00  0.00    -0.043 A  
HETATM   13  C   UNL     1      -5.716  12.195  68.280  1.00  0.00    -0.052 A  
HETATM   14  C   UNL     1      -6.903  12.711  67.768  1.00  0.00    -0.128 A  
HETATM   15  N   UNL     1      -7.894  11.915  67.346  1.00  0.00    -0.149 NA 
BRANCH  14  16
HETATM   16  N   UNL     1      -7.052  14.104  67.700  1.00  0.00    -0.175 N  
HETATM   17  H   UNL     1      -6.807  14.568  66.826  1.00  0.00     0.000 HD 
HETATM   18  C   UNL     1      -7.512  14.892  68.744  1.00  0.00    -0.132 C  
HETATM   19  O   UNL     1      -7.828  14.481  69.855  1.00  0.00     0.150 OA 
BRANCH  18  20
HETATM   20  C   UNL     1      -7.635  16.355  68.482  1.00  0.00    -0.188 A  
HETATM   21  C   UNL     1      -6.534  17.160  68.175  1.00  0.00    -0.147 A  
HETATM   22  C   UNL     1      -6.676  18.521  67.913  1.00  0.00    -0.218 A  
HETATM   23  F   UNL     1      -5.295  16.644  68.119  1.00  0.00    -0.104 F  
HETATM   24  C   UNL     1      -7.939  19.091  67.961  1.00  0.00    -0.289 A  
HETATM   25  C   UNL     1      -9.053  18.328  68.269  1.00  0.00    -0.318 A  
HETATM   26  F   UNL     1      -8.085  20.398  67.705  1.00  0.00    -0.335 F  
HETATM   27  C   UNL     1      -8.895  16.966  68.528  1.00  0.00    -0.251 A  
HETATM   28  F   UNL     1     -10.006  16.278  68.826  1.00  0.00    -0.204 F  
ENDBRANCH  18  20
ENDBRANCH  14  16
ENDBRANCH   8  10
ENDBRANCH   5   8
TORSDOF 4
ENDMDL
MODEL      180
REMARK 921   NORMALIZED FREE ENERGY PREDICTED BY IDOCK:   -3.75 KCAL/MOL
REMARK 922        TOTAL FREE ENERGY PREDICTED BY IDOCK:   -4.98 KCAL/MOL
REMARK 923 INTER-LIGAND FREE ENERGY PREDICTED BY IDOCK:   -4.63 KCAL/MOL
REMARK 924 INTRA-LIGAND FREE ENERGY PREDICTED BY IDOCK:   -0.35 KCAL/MOL
REMARK 927      BINDING AFFINITY PREDICTED BY RF-SCORE:    0.00 PKD
ROOT
HETATM    1  C   UNL     1      -6.747   1.702  65.919  1.00  0.00    -0.027 C  
HETATM    2  N   UNL     1      -7.213   2.604  64.871  1.00  0.00    -0.057 NA 
HETATM    3  C   UNL     1      -8.419   3.345  65.266  1.00  0.00    -0.100 C  
HETATM    4  C   UNL     1      -8.167   4.505  66.239  1.00  0.00    -0.106 C  
HETATM    5  C   UNL     1      -7.068   5.459  65.739  1.00  0.00    -0.067 C  
HETATM    6  C   UNL     1      -5.827   4.629  65.388  1.00  0.00    -0.022 C  
HETATM    7  C   UNL     1      -6.157   3.508  64.406  1.00  0.00    -0.022 C  
ENDROOT
BRANCH   5   8
HETATM    8  C   UNL     1      -7.579   6.338  64.583  1.00  0.00    -0.098 C  
HETATM    9  O   UNL     1      -8.403   5.940  63.759  1.00  0.00    -0.093 OA 
BRANCH   8  10
HETATM   10  C   UNL     1      -7.112   7.751  64.487  1.00  0.00    -0.065 A  
HETATM   11  C   UNL     1      -5.939   8.065  63.818  1.00  0.00    -0.062 A  
HETATM   12  C   UNL     1      -5.558   9.402  63.759  1.00  0.00    -0.071 A  
HETATM   13  C   UNL     1      -6.354  10.366  64.375  1.00  0.00    -0.045 A  
HETATM   14  C   UNL     1      -7.516   9.964  65.028  1.00  0.00    -0.134 A  
HETATM   15  N   UNL     1      -7.894   8.681  65.068  1.00  0.00    -0.109 NA 
BRANCH  14  16
HETATM   16  N   UNL     1      -8.301  10.941  65.658  1.00  0.00    -0.268 N  
HETATM   17  H   UNL     1      -7.837  11.590  66.293  1.00  0.00     0.000 HD 
HETATM   18  C   UNL     1      -9.667  11.084  65.472  1.00  0.00    -0.229 C  
HETATM   19  O   UNL     1     -10.363  10.371  64.756  1.00  0.00    -0.320 OA 
BRANCH  18  20
HETATM   20  C   UNL     1     -10.335  12.199  66.203  1.00  0.00    -0.264 A  
HETATM   21  C   UNL     1     -10.572  13.447  65.619  1.00  0.00    -0.282 A  
HETATM   22  C   UNL     1     -11.217  14.467  66.316  1.00  0.00    -0.342 A  
HETATM   23  F   UNL     1     -10.184  13.706  64.360  1.00  0.00    -0.438 F  
HETATM   24  C   UNL     1     -11.633  14.239  67.618  1.00  0.00    -0.368 A  
HETATM   25  C   UNL     1     -11.412  13.018  68.233  1.00  0.00    -0.347 A  
HETATM   26  F   UNL     1     -12.259  15.213  68.292  1.00  0.00    -0.282 F  
HETATM   27  C   UNL     1     -10.764  12.006  67.524  1.00  0.00    -0.226 A  
HETATM   28  F   UNL     1     -10.571  10.847  68.169  1.00  0.00    -0.183 F  
ENDBRANCH  18  20
ENDBRANCH  14  16
ENDBRANCH   8  10
ENDBRANCH   5   8
TORSDOF 4
ENDMDL
MODEL      181
REMARK 921   NORMALIZED FREE ENERGY PREDICTED BY IDOCK:   -3.74 KCAL/MOL
REMARK 922        TOTAL FREE ENERGY PREDICTED BY IDOCK:   -4.97 KCAL/MOL
REMARK 923 INTER-LIGAND FREE ENERGY PREDICTED BY IDOCK:   -4.90 KCAL/MOL
REMARK 924 INTRA-LIGAND FREE ENERGY PREDICTED BY IDOCK:   -0.07 KCAL/MOL
REMARK 927      BINDING AFFINITY PREDICTED BY RF-SCORE:    0.00 PKD
ROOT
HETATM    1  C   UNL     1      -9.858   5.725  69.939  1.00  0.00    -0.179 C  
HETATM    2  N   UNL     1      -8.783   5.906  68.968  1.00  0.00    -0.114 NA 
HETATM    3  C   UNL     1      -9.075   5.256  67.683  1.00  0.00    -0.109 C  
HETATM    4  C   UNL     1     -10.083   6.009  66.801  1.00  0.00    -0.235 C  
HETATM    5  C   UNL     1      -9.698   7.485  66.603  1.00  0.00    -0.273 C  
HETATM    6  C   UNL     1      -9.452   8.112  67.980  1.00  0.00    -0.155 C  
HETATM    7  C   UNL     1      -8.429   7.317  68.788  1.00  0.00    -0.129 C  
ENDROOT
BRANCH   5   8
HETATM    8  C   UNL     1      -8.511   7.624  65.632  1.00  0.00    -0.142 C  
HETATM    9  O   UNL     1      -8.285   6.809  64.737  1.00  0.00    -0.121 OA 
BRANCH   8  10
HETATM   10  C   UNL     1      -7.633   8.826  65.729  1.00  0.00    -0.086 A  
HETATM   11  C   UNL     1      -6.325   8.785  65.270  1.00  0.00    -0.060 A  
HETATM   12  C   UNL     1      -5.556   9.939  65.384  1.00  0.00    -0.063 A  
HETATM   13  C   UNL     1      -6.118  11.080  65.958  1.00  0.00    -0.094 A  
HETATM   14  C   UNL     1      -7.439  11.034  66.394  1.00  0.00    -0.131 A  
HETATM   15  N   UNL     1      -8.186   9.930  66.267  1.00  0.00    -0.113 NA 
BRANCH  14  16
HETATM   16  N   UNL     1      -7.988  12.182  66.984  1.00  0.00    -0.259 N  
HETATM   17  H   UNL     1      -7.527  12.562  67.810  1.00  0.00     0.000 HD 
HETATM   18  C   UNL     1      -9.119  12.835  66.516  1.00  0.00    -0.147 C  
HETATM   19  O   UNL     1      -9.788  12.487  65.549  1.00  0.00    -0.250 OA 
BRANCH  18  20
HETATM   20  C   UNL     1      -9.544  14.059  67.252  1.00  0.00    -0.238 A  
HETATM   21  C   UNL     1     -10.776  14.155  67.907  1.00  0.00    -0.240 A  
HETATM   22  C   UNL     1     -11.142  15.304  68.607  1.00  0.00    -0.282 A  
HETATM   23  F   UNL     1     -11.652  13.138  67.885  1.00  0.00    -0.288 F  
HETATM   24  C   UNL     1     -10.265  16.376  68.653  1.00  0.00    -0.258 A  
HETATM   25  C   UNL     1      -9.039  16.322  68.013  1.00  0.00    -0.188 A  
HETATM   26  F   UNL     1     -10.608  17.481  69.329  1.00  0.00    -0.341 F  
HETATM   27  C   UNL     1      -8.685  15.166  67.316  1.00  0.00    -0.202 A  
HETATM   28  F   UNL     1      -7.490  15.170  66.710  1.00  0.00    -0.206 F  
ENDBRANCH  18  20
ENDBRANCH  14  16
ENDBRANCH   8  10
ENDBRANCH   5   8
TORSDOF 4
ENDMDL
MODEL      182
REMARK 921   NORMALIZED FREE ENERGY PREDICTED BY IDOCK:   -3.73 KCAL/MOL
REMARK 922        TOTAL FREE ENERGY PREDICTED BY IDOCK:   -4.95 KCAL/MOL
REMARK 923 INTER-LIGAND FREE ENERGY PREDICTED BY IDOCK:   -4.71 KCAL/MOL
REMARK 924 INTRA-LIGAND FREE ENERGY PREDICTED BY IDOCK:   -0.24 KCAL/MOL
REMARK 927      BINDING AFFINITY PREDICTED BY RF-SCORE:    0.00 PKD
ROOT
HETATM    1  C   UNL     1     -11.552  14.146  69.763  1.00  0.00    -0.290 C  
HETATM    2  N   UNL     1     -11.564  13.623  68.401  1.00  0.00    -0.319 NA 
HETATM    3  C   UNL     1     -10.313  13.902  67.684  1.00  0.00    -0.242 C  
HETATM    4  C   UNL     1      -9.132  13.005  68.084  1.00  0.00    -0.204 C  
HETATM    5  C   UNL     1      -9.487  11.509  68.022  1.00  0.00    -0.181 C  
HETATM    6  C   UNL     1     -10.773  11.281  68.825  1.00  0.00    -0.240 C  
HETATM    7  C   UNL     1     -11.901  12.196  68.357  1.00  0.00    -0.303 C  
ENDROOT
BRANCH   5   8
HETATM    8  C   UNL     1      -9.565  11.017  66.565  1.00  0.00    -0.195 C  
HETATM    9  O   UNL     1      -9.924  11.742  65.636  1.00  0.00    -0.227 OA 
BRANCH   8  10
HETATM   10  C   UNL     1      -9.126   9.628  66.245  1.00  0.00    -0.160 A  
HETATM   11  C   UNL     1      -8.559   9.331  65.014  1.00  0.00    -0.200 A  
HETATM   12  C   UNL     1      -8.167   8.018  64.776  1.00  0.00    -0.124 A  
HETATM   13  C   UNL     1      -8.364   7.056  65.766  1.00  0.00    -0.143 A  
HETATM   14  C   UNL     1      -8.943   7.439  66.972  1.00  0.00    -0.130 A  
HETATM   15  N   UNL     1      -9.302   8.707  67.211  1.00  0.00    -0.148 NA 
BRANCH  14  16
HETATM   16  N   UNL     1      -9.151   6.460  67.955  1.00  0.00    -0.114 N  
HETATM   17  H   UNL     1      -9.512   5.554  67.657  1.00  0.00     0.000 HD 
HETATM   18  C   UNL     1      -8.897   6.644  69.305  1.00  0.00    -0.133 C  
HETATM   19  O   UNL     1      -8.480   7.679  69.813  1.00  0.00    -0.131 OA 
BRANCH  18  20
HETATM   20  C   UNL     1      -9.150   5.481  70.203  1.00  0.00    -0.162 A  
HETATM   21  C   UNL     1     -10.312   5.361  70.973  1.00  0.00    -0.236 A  
HETATM   22  C   UNL     1     -10.535   4.254  71.789  1.00  0.00    -0.026 A  
HETATM   23  F   UNL     1     -11.257   6.315  70.949  1.00  0.00    -0.312 F  
HETATM   24  C   UNL     1      -9.583   3.248  71.841  1.00  0.00    -0.151 A  
HETATM   25  C   UNL     1      -8.417   3.333  71.099  1.00  0.00    -0.098 A  
HETATM   26  F   UNL     1      -9.794   2.178  72.618  1.00  0.00    -0.135 F  
HETATM   27  C   UNL     1      -8.206   4.447  70.286  1.00  0.00    -0.066 A  
HETATM   28  F   UNL     1      -7.059   4.480  69.594  1.00  0.00    -0.046 F  
ENDBRANCH  18  20
ENDBRANCH  14  16
ENDBRANCH   8  10
ENDBRANCH   5   8
TORSDOF 4
ENDMDL
MODEL      183
REMARK 921   NORMALIZED FREE ENERGY PREDICTED BY IDOCK:   -3.71 KCAL/MOL
REMARK 922        TOTAL FREE ENERGY PREDICTED BY IDOCK:   -4.93 KCAL/MOL
REMARK 923 INTER-LIGAND FREE ENERGY PREDICTED BY IDOCK:   -5.20 KCAL/MOL
REMARK 924 INTRA-LIGAND FREE ENERGY PREDICTED BY IDOCK:    0.28 KCAL/MOL
REMARK 927      BINDING AFFINITY PREDICTED BY RF-SCORE:    0.00 PKD
ROOT
HETATM    1  C   UNL     1     -11.626  11.908  64.440  1.00  0.00    -0.292 C  
HETATM    2  N   UNL     1     -10.714  12.365  65.484  1.00  0.00    -0.272 NA 
HETATM    3  C   UNL     1     -11.343  12.374  66.811  1.00  0.00    -0.335 C  
HETATM    4  C   UNL     1     -11.490  10.990  67.459  1.00  0.00    -0.266 C  
HETATM    5  C   UNL     1     -10.163  10.210  67.478  1.00  0.00    -0.257 C  
HETATM    6  C   UNL     1      -9.585  10.201  66.058  1.00  0.00    -0.265 C  
HETATM    7  C   UNL     1      -9.456  11.612  65.491  1.00  0.00    -0.195 C  
ENDROOT
BRANCH   5   8
HETATM    8  C   UNL     1      -9.203  10.775  68.540  1.00  0.00    -0.174 C  
HETATM    9  O   UNL     1      -9.448  10.737  69.747  1.00  0.00     0.072 OA 
BRANCH   8  10
HETATM   10  C   UNL     1      -7.889  11.333  68.106  1.00  0.00    -0.127 A  
HETATM   11  C   UNL     1      -6.903  10.503  67.594  1.00  0.00    -0.074 A  
HETATM   12  C   UNL     1      -5.700  11.083  67.203  1.00  0.00    -0.059 A  
HETATM   13  C   UNL     1      -5.526  12.459  67.348  1.00  0.00    -0.117 A  
HETATM   14  C   UNL     1      -6.568  13.218  67.873  1.00  0.00    -0.145 A  
HETATM   15  N   UNL     1      -7.734  12.664  68.231  1.00  0.00    -0.129 NA 
BRANCH  14  16
HETATM   16  N   UNL     1      -6.377  14.599  68.029  1.00  0.00    -0.142 N  
HETATM   17  H   UNL     1      -5.668  15.050  67.451  1.00  0.00     0.000 HD 
HETATM   18  C   UNL     1      -7.088  15.391  68.916  1.00  0.00    -0.131 C  
HETATM   19  O   UNL     1      -7.955  14.989  69.686  1.00  0.00    -0.184 OA 
BRANCH  18  20
HETATM   20  C   UNL     1      -6.771  16.847  68.926  1.00  0.00    -0.199 A  
HETATM   21  C   UNL     1      -5.992  17.443  69.923  1.00  0.00    -0.232 A  
HETATM   22  C   UNL     1      -5.691  18.803  69.898  1.00  0.00    -0.253 A  
HETATM   23  F   UNL     1      -5.504  16.718  70.944  1.00  0.00    -0.202 F  
HETATM   24  C   UNL     1      -6.177  19.585  68.861  1.00  0.00    -0.258 A  
HETATM   25  C   UNL     1      -6.956  19.034  67.858  1.00  0.00    -0.250 A  
HETATM   26  F   UNL     1      -5.886  20.892  68.828  1.00  0.00    -0.324 F  
HETATM   27  C   UNL     1      -7.249  17.670  67.896  1.00  0.00    -0.204 A  
HETATM   28  F   UNL     1      -8.012  17.191  66.904  1.00  0.00    -0.191 F  
ENDBRANCH  18  20
ENDBRANCH  14  16
ENDBRANCH   8  10
ENDBRANCH   5   8
TORSDOF 4
ENDMDL
MODEL      184
REMARK 921   NORMALIZED FREE ENERGY PREDICTED BY IDOCK:   -3.68 KCAL/MOL
REMARK 922        TOTAL FREE ENERGY PREDICTED BY IDOCK:   -4.90 KCAL/MOL
REMARK 923 INTER-LIGAND FREE ENERGY PREDICTED BY IDOCK:   -4.35 KCAL/MOL
REMARK 924 INTRA-LIGAND FREE ENERGY PREDICTED BY IDOCK:   -0.55 KCAL/MOL
REMARK 927      BINDING AFFINITY PREDICTED BY RF-SCORE:    0.00 PKD
ROOT
HETATM    1  C   UNL     1     -13.915  15.500  72.711  1.00  0.00    -0.459 C  
HETATM    2  N   UNL     1     -13.312  15.939  71.457  1.00  0.00    -0.403 NA 
HETATM    3  C   UNL     1     -11.851  16.066  71.553  1.00  0.00    -0.486 C  
HETATM    4  C   UNL     1     -11.090  14.732  71.524  1.00  0.00     0.211 C  
HETATM    5  C   UNL     1     -11.494  13.855  70.327  1.00  0.00    -0.122 C  
HETATM    6  C   UNL     1     -13.021  13.727  70.312  1.00  0.00     0.043 C  
HETATM    7  C   UNL     1     -13.703  15.092  70.325  1.00  0.00     0.537 C  
ENDROOT
BRANCH   5   8
HETATM    8  C   UNL     1     -10.899  14.398  69.015  1.00  0.00    -0.252 C  
HETATM    9  O   UNL     1     -10.266  15.453  68.957  1.00  0.00    -0.212 OA 
BRANCH   8  10
HETATM   10  C   UNL     1     -11.033  13.588  67.769  1.00  0.00    -0.266 A  
HETATM   11  C   UNL     1     -12.056  13.841  66.868  1.00  0.00    -0.454 A  
HETATM   12  C   UNL     1     -12.126  13.054  65.722  1.00  0.00    -0.510 A  
HETATM   13  C   UNL     1     -11.183  12.045  65.528  1.00  0.00    -0.372 A  
HETATM   14  C   UNL     1     -10.190  11.858  66.485  1.00  0.00    -0.203 A  
HETATM   15  N   UNL     1     -10.109  12.627  67.578  1.00  0.00    -0.210 NA 
BRANCH  14  16
HETATM   16  N   UNL     1      -9.256  10.830  66.287  1.00  0.00    -0.168 N  
HETATM   17  H   UNL     1      -8.648  10.889  65.470  1.00  0.00     0.000 HD 
HETATM   18  C   UNL     1      -9.105   9.739  67.129  1.00  0.00    -0.135 C  
HETATM   19  O   UNL     1      -9.772   9.523  68.135  1.00  0.00    -0.143 OA 
BRANCH  18  20
HETATM   20  C   UNL     1      -8.039   8.758  66.777  1.00  0.00    -0.104 A  
HETATM   21  C   UNL     1      -6.681   9.091  66.766  1.00  0.00    -0.076 A  
HETATM   22  C   UNL     1      -5.702   8.150  66.454  1.00  0.00    -0.040 A  
HETATM   23  F   UNL     1      -6.273  10.337  67.060  1.00  0.00    -0.055 F  
HETATM   24  C   UNL     1      -6.083   6.853  66.145  1.00  0.00    -0.035 A  
HETATM   25  C   UNL     1      -7.418   6.486  66.139  1.00  0.00    -0.081 A  
HETATM   26  F   UNL     1      -5.147   5.942  65.851  1.00  0.00    -0.008 F  
HETATM   27  C   UNL     1      -8.388   7.439  66.453  1.00  0.00    -0.127 A  
HETATM   28  F   UNL     1      -9.664   7.031  66.426  1.00  0.00    -0.220 F  
ENDBRANCH  18  20
ENDBRANCH  14  16
ENDBRANCH   8  10
ENDBRANCH   5   8
TORSDOF 4
ENDMDL
MODEL      185
REMARK 921   NORMALIZED FREE ENERGY PREDICTED BY IDOCK:   -3.65 KCAL/MOL
REMARK 922        TOTAL FREE ENERGY PREDICTED BY IDOCK:   -4.85 KCAL/MOL
REMARK 923 INTER-LIGAND FREE ENERGY PREDICTED BY IDOCK:   -4.81 KCAL/MOL
REMARK 924 INTRA-LIGAND FREE ENERGY PREDICTED BY IDOCK:   -0.05 KCAL/MOL
REMARK 927      BINDING AFFINITY PREDICTED BY RF-SCORE:    0.00 PKD
ROOT
HETATM    1  C   UNL     1      -9.776   3.763  65.801  1.00  0.00    -0.135 C  
HETATM    2  N   UNL     1      -9.082   4.872  65.154  1.00  0.00    -0.156 NA 
HETATM    3  C   UNL     1      -9.649   6.177  65.520  1.00  0.00     0.442 C  
HETATM    4  C   UNL     1      -9.263   6.672  66.921  1.00  0.00    -0.158 C  
HETATM    5  C   UNL     1      -7.743   6.642  67.154  1.00  0.00    -0.100 C  
HETATM    6  C   UNL     1      -7.224   5.244  66.797  1.00  0.00    -0.078 C  
HETATM    7  C   UNL     1      -7.635   4.832  65.386  1.00  0.00    -0.081 C  
ENDROOT
BRANCH   5   8
HETATM    8  C   UNL     1      -7.042   7.781  66.392  1.00  0.00    -0.071 C  
HETATM    9  O   UNL     1      -5.818   7.848  66.272  1.00  0.00    -0.039 OA 
BRANCH   8  10
HETATM   10  C   UNL     1      -7.873   8.816  65.710  1.00  0.00    -0.099 A  
HETATM   11  C   UNL     1      -7.893   8.908  64.326  1.00  0.00    -0.134 A  
HETATM   12  C   UNL     1      -8.690   9.891  63.749  1.00  0.00    -0.226 A  
HETATM   13  C   UNL     1      -9.423  10.746  64.571  1.00  0.00    -0.297 A  
HETATM   14  C   UNL     1      -9.344  10.585  65.951  1.00  0.00    -0.181 A  
HETATM   15  N   UNL     1      -8.593   9.626  66.508  1.00  0.00    -0.126 NA 
BRANCH  14  16
HETATM   16  N   UNL     1     -10.074  11.460  66.769  1.00  0.00    -0.211 N  
HETATM   17  H   UNL     1     -11.062  11.257  66.922  1.00  0.00     0.000 HD 
HETATM   18  C   UNL     1      -9.541  12.583  67.383  1.00  0.00    -0.192 C  
HETATM   19  O   UNL     1      -8.380  12.963  67.279  1.00  0.00    -0.178 OA 
BRANCH  18  20
HETATM   20  C   UNL     1     -10.461  13.382  68.242  1.00  0.00    -0.256 A  
HETATM   21  C   UNL     1     -11.295  12.799  69.201  1.00  0.00    -0.281 A  
HETATM   22  C   UNL     1     -12.131  13.570  70.007  1.00  0.00    -0.411 A  
HETATM   23  F   UNL     1     -11.318  11.468  69.379  1.00  0.00    -0.261 F  
HETATM   24  C   UNL     1     -12.136  14.948  69.853  1.00  0.00    -0.332 A  
HETATM   25  C   UNL     1     -11.329  15.563  68.911  1.00  0.00    -0.329 A  
HETATM   26  F   UNL     1     -12.932  15.696  70.629  1.00  0.00    -0.469 F  
HETATM   27  C   UNL     1     -10.498  14.778  68.111  1.00  0.00    -0.239 A  
HETATM   28  F   UNL     1      -9.742  15.424  67.212  1.00  0.00    -0.209 F  
ENDBRANCH  18  20
ENDBRANCH  14  16
ENDBRANCH   8  10
ENDBRANCH   5   8
TORSDOF 4
ENDMDL
MODEL      186
REMARK 921   NORMALIZED FREE ENERGY PREDICTED BY IDOCK:   -3.62 KCAL/MOL
REMARK 922        TOTAL FREE ENERGY PREDICTED BY IDOCK:   -4.82 KCAL/MOL
REMARK 923 INTER-LIGAND FREE ENERGY PREDICTED BY IDOCK:   -5.70 KCAL/MOL
REMARK 924 INTRA-LIGAND FREE ENERGY PREDICTED BY IDOCK:    0.88 KCAL/MOL
REMARK 927      BINDING AFFINITY PREDICTED BY RF-SCORE:    0.00 PKD
ROOT
HETATM    1  C   UNL     1     -12.037   8.041  71.927  1.00  0.00    -0.317 C  
HETATM    2  N   UNL     1     -11.081   8.263  70.847  1.00  0.00    -0.256 NA 
HETATM    3  C   UNL     1      -9.910   9.035  71.286  1.00  0.00    -0.306 C  
HETATM    4  C   UNL     1      -8.889   8.235  72.108  1.00  0.00    -0.265 C  
HETATM    5  C   UNL     1      -8.466   6.933  71.407  1.00  0.00    -0.119 C  
HETATM    6  C   UNL     1      -9.729   6.158  71.018  1.00  0.00    -0.202 C  
HETATM    7  C   UNL     1     -10.685   7.014  70.190  1.00  0.00    -0.240 C  
ENDROOT
BRANCH   5   8
HETATM    8  C   UNL     1      -7.520   7.220  70.227  1.00  0.00    -0.084 C  
HETATM    9  O   UNL     1      -6.296   7.109  70.313  1.00  0.00    -0.033 OA 
BRANCH   8  10
HETATM   10  C   UNL     1      -8.102   7.584  68.903  1.00  0.00    -0.127 A  
HETATM   11  C   UNL     1      -8.576   6.603  68.045  1.00  0.00    -0.118 A  
HETATM   12  C   UNL     1      -9.111   7.004  66.825  1.00  0.00    -0.162 A  
HETATM   13  C   UNL     1      -9.143   8.362  66.508  1.00  0.00    -0.217 A  
HETATM   14  C   UNL     1      -8.644   9.280  67.426  1.00  0.00    -0.122 A  
HETATM   15  N   UNL     1      -8.147   8.897  68.609  1.00  0.00    -0.110 NA 
BRANCH  14  16
HETATM   16  N   UNL     1      -8.667  10.642  67.090  1.00  0.00    -0.130 N  
HETATM   17  H   UNL     1      -7.788  11.081  66.817  1.00  0.00     0.000 HD 
HETATM   18  C   UNL     1      -9.807  11.431  67.105  1.00  0.00    -0.190 C  
HETATM   19  O   UNL     1     -10.927  11.050  67.427  1.00  0.00    -0.255 OA 
BRANCH  18  20
HETATM   20  C   UNL     1      -9.649  12.854  66.689  1.00  0.00    -0.257 A  
HETATM   21  C   UNL     1     -10.491  13.464  65.754  1.00  0.00    -0.290 A  
HETATM   22  C   UNL     1     -10.336  14.802  65.397  1.00  0.00    -0.410 A  
HETATM   23  F   UNL     1     -11.484  12.777  65.166  1.00  0.00    -0.320 F  
HETATM   24  C   UNL     1      -9.321  15.545  65.981  1.00  0.00    -0.344 A  
HETATM   25  C   UNL     1      -8.463  14.976  66.906  1.00  0.00    -0.269 A  
HETATM   26  F   UNL     1      -9.170  16.834  65.647  1.00  0.00    -0.244 F  
HETATM   27  C   UNL     1      -8.630  13.635  67.254  1.00  0.00    -0.214 A  
HETATM   28  F   UNL     1      -7.768  13.133  68.150  1.00  0.00    -0.104 F  
ENDBRANCH  18  20
ENDBRANCH  14  16
ENDBRANCH   8  10
ENDBRANCH   5   8
TORSDOF 4
ENDMDL
MODEL      187
REMARK 921   NORMALIZED FREE ENERGY PREDICTED BY IDOCK:   -3.49 KCAL/MOL
REMARK 922        TOTAL FREE ENERGY PREDICTED BY IDOCK:   -4.66 KCAL/MOL
REMARK 923 INTER-LIGAND FREE ENERGY PREDICTED BY IDOCK:   -4.69 KCAL/MOL
REMARK 924 INTRA-LIGAND FREE ENERGY PREDICTED BY IDOCK:    0.04 KCAL/MOL
REMARK 927      BINDING AFFINITY PREDICTED BY RF-SCORE:    0.00 PKD
ROOT
HETATM    1  C   UNL     1     -10.460   4.663  66.405  1.00  0.00    -0.163 C  
HETATM    2  N   UNL     1      -9.290   5.477  66.092  1.00  0.00    -0.157 NA 
HETATM    3  C   UNL     1      -9.416   6.853  66.591  1.00  0.00    -0.166 C  
HETATM    4  C   UNL     1      -9.197   7.008  68.103  1.00  0.00    -0.130 C  
HETATM    5  C   UNL     1      -7.880   6.365  68.572  1.00  0.00    -0.105 C  
HETATM    6  C   UNL     1      -7.834   4.922  68.057  1.00  0.00    -0.083 C  
HETATM    7  C   UNL     1      -8.043   4.853  66.547  1.00  0.00    -0.107 C  
ENDROOT
BRANCH   5   8
HETATM    8  C   UNL     1      -6.667   7.217  68.155  1.00  0.00    -0.061 C  
HETATM    9  O   UNL     1      -5.526   6.994  68.562  1.00  0.00    -0.016 OA 
BRANCH   8  10
HETATM   10  C   UNL     1      -6.860   8.317  67.166  1.00  0.00    -0.070 A  
HETATM   11  C   UNL     1      -6.331   8.221  65.888  1.00  0.00    -0.052 A  
HETATM   12  C   UNL     1      -6.546   9.279  65.011  1.00  0.00    -0.077 A  
HETATM   13  C   UNL     1      -7.270  10.389  65.445  1.00  0.00    -0.121 A  
HETATM   14  C   UNL     1      -7.764  10.405  66.745  1.00  0.00    -0.114 A  
HETATM   15  N   UNL     1      -7.575   9.379  67.585  1.00  0.00    -0.088 NA 
BRANCH  14  16
HETATM   16  N   UNL     1      -8.477  11.534  67.176  1.00  0.00    -0.152 N  
HETATM   17  H   UNL     1      -7.960  12.270  67.656  1.00  0.00     0.000 HD 
HETATM   18  C   UNL     1      -9.839  11.714  66.992  1.00  0.00    -0.193 C  
HETATM   19  O   UNL     1     -10.593  10.912  66.450  1.00  0.00    -0.254 OA 
BRANCH  18  20
HETATM   20  C   UNL     1     -10.425  12.991  67.490  1.00  0.00    -0.229 A  
HETATM   21  C   UNL     1     -10.327  14.192  66.782  1.00  0.00    -0.274 A  
HETATM   22  C   UNL     1     -10.901  15.369  67.259  1.00  0.00    -0.316 A  
HETATM   23  F   UNL     1      -9.673  14.253  65.610  1.00  0.00    -0.319 F  
HETATM   24  C   UNL     1     -11.584  15.348  68.465  1.00  0.00    -0.359 A  
HETATM   25  C   UNL     1     -11.698  14.180  69.199  1.00  0.00    -0.368 A  
HETATM   26  F   UNL     1     -12.144  16.474  68.927  1.00  0.00    -0.168 F  
HETATM   27  C   UNL     1     -11.118  13.009  68.709  1.00  0.00    -0.270 A  
HETATM   28  F   UNL     1     -11.253  11.909  69.463  1.00  0.00    -0.277 F  
ENDBRANCH  18  20
ENDBRANCH  14  16
ENDBRANCH   8  10
ENDBRANCH   5   8
TORSDOF 4
ENDMDL
MODEL      188
REMARK 921   NORMALIZED FREE ENERGY PREDICTED BY IDOCK:   -3.47 KCAL/MOL
REMARK 922        TOTAL FREE ENERGY PREDICTED BY IDOCK:   -4.63 KCAL/MOL
REMARK 923 INTER-LIGAND FREE ENERGY PREDICTED BY IDOCK:   -4.08 KCAL/MOL
REMARK 924 INTRA-LIGAND FREE ENERGY PREDICTED BY IDOCK:   -0.55 KCAL/MOL
REMARK 927      BINDING AFFINITY PREDICTED BY RF-SCORE:    0.00 PKD
ROOT
HETATM    1  C   UNL     1      -9.803   4.667  64.789  1.00  0.00     0.037 C  
HETATM    2  N   UNL     1      -8.547   5.115  65.383  1.00  0.00    -0.141 NA 
HETATM    3  C   UNL     1      -7.439   5.111  64.417  1.00  0.00    -0.065 C  
HETATM    4  C   UNL     1      -7.457   6.278  63.419  1.00  0.00    -0.079 C  
HETATM    5  C   UNL     1      -7.580   7.643  64.117  1.00  0.00    -0.113 C  
HETATM    6  C   UNL     1      -8.778   7.593  65.073  1.00  0.00     0.136 C  
HETATM    7  C   UNL     1      -8.679   6.418  66.042  1.00  0.00    -0.151 C  
ENDROOT
BRANCH   5   8
HETATM    8  C   UNL     1      -6.256   8.042  64.795  1.00  0.00    -0.049 C  
HETATM    9  O   UNL     1      -5.156   7.703  64.357  1.00  0.00    -0.028 OA 
BRANCH   8  10
HETATM   10  C   UNL     1      -6.294   8.930  65.993  1.00  0.00    -0.057 A  
HETATM   11  C   UNL     1      -5.820   8.485  67.218  1.00  0.00    -0.043 A  
HETATM   12  C   UNL     1      -5.878   9.360  68.298  1.00  0.00    -0.041 A  
HETATM   13  C   UNL     1      -6.415  10.635  68.115  1.00  0.00    -0.062 A  
HETATM   14  C   UNL     1      -6.870  10.999  66.852  1.00  0.00    -0.121 A  
HETATM   15  N   UNL     1      -6.796  10.165  65.807  1.00  0.00    -0.111 NA 
BRANCH  14  16
HETATM   16  N   UNL     1      -7.422  12.278  66.684  1.00  0.00    -0.373 N  
HETATM   17  H   UNL     1      -6.841  12.994  66.249  1.00  0.00     0.000 HD 
HETATM   18  C   UNL     1      -8.705  12.632  67.070  1.00  0.00    -0.198 C  
HETATM   19  O   UNL     1      -9.510  11.887  67.620  1.00  0.00    -0.175 OA 
BRANCH  18  20
HETATM   20  C   UNL     1      -9.134  14.032  66.787  1.00  0.00    -0.250 A  
HETATM   21  C   UNL     1      -8.373  15.143  67.161  1.00  0.00    -0.219 A  
HETATM   22  C   UNL     1      -8.784  16.442  66.866  1.00  0.00    -0.233 A  
HETATM   23  F   UNL     1      -7.212  14.996  67.821  1.00  0.00    -0.112 F  
HETATM   24  C   UNL     1      -9.977  16.635  66.187  1.00  0.00    -0.337 A  
HETATM   25  C   UNL     1     -10.762  15.560  65.804  1.00  0.00    -0.362 A  
HETATM   26  F   UNL     1     -10.376  17.880  65.894  1.00  0.00    -0.354 F  
HETATM   27  C   UNL     1     -10.337  14.266  66.106  1.00  0.00    -0.299 A  
HETATM   28  F   UNL     1     -11.137  13.264  65.718  1.00  0.00    -0.283 F  
ENDBRANCH  18  20
ENDBRANCH  14  16
ENDBRANCH   8  10
ENDBRANCH   5   8
TORSDOF 4
ENDMDL
MODEL      189
REMARK 921   NORMALIZED FREE ENERGY PREDICTED BY IDOCK:   -3.45 KCAL/MOL
REMARK 922        TOTAL FREE ENERGY PREDICTED BY IDOCK:   -4.61 KCAL/MOL
REMARK 923 INTER-LIGAND FREE ENERGY PREDICTED BY IDOCK:   -4.83 KCAL/MOL
REMARK 924 INTRA-LIGAND FREE ENERGY PREDICTED BY IDOCK:    0.22 KCAL/MOL
REMARK 927      BINDING AFFINITY PREDICTED BY RF-SCORE:    0.00 PKD
ROOT
HETATM    1  C   UNL     1     -10.238   5.354  73.905  1.00  0.00    -0.237 C  
HETATM    2  N   UNL     1     -10.226   5.273  72.447  1.00  0.00    -0.189 NA 
HETATM    3  C   UNL     1     -10.884   6.426  71.818  1.00  0.00    -0.241 C  
HETATM    4  C   UNL     1     -10.052   7.717  71.817  1.00  0.00    -0.210 C  
HETATM    5  C   UNL     1      -8.641   7.501  71.242  1.00  0.00    -0.122 C  
HETATM    6  C   UNL     1      -7.995   6.317  71.971  1.00  0.00    -0.109 C  
HETATM    7  C   UNL     1      -8.875   5.070  71.914  1.00  0.00    -0.129 C  
ENDROOT
BRANCH   5   8
HETATM    8  C   UNL     1      -8.682   7.345  69.712  1.00  0.00    -0.141 C  
HETATM    9  O   UNL     1      -9.258   6.410  69.153  1.00  0.00    -0.134 OA 
BRANCH   8  10
HETATM   10  C   UNL     1      -8.059   8.398  68.858  1.00  0.00    -0.114 A  
HETATM   11  C   UNL     1      -6.949   8.111  68.078  1.00  0.00    -0.077 A  
HETATM   12  C   UNL     1      -6.415   9.134  67.301  1.00  0.00    -0.060 A  
HETATM   13  C   UNL     1      -7.001  10.399  67.341  1.00  0.00    -0.085 A  
HETATM   14  C   UNL     1      -8.112  10.601  68.154  1.00  0.00    -0.114 A  
HETATM   15  N   UNL     1      -8.640   9.612  68.887  1.00  0.00    -0.122 NA 
BRANCH  14  16
HETATM   16  N   UNL     1      -8.683  11.881  68.199  1.00  0.00    -0.168 N  
HETATM   17  H   UNL     1      -9.648  11.962  68.520  1.00  0.00     0.000 HD 
HETATM   18  C   UNL     1      -8.023  13.045  67.834  1.00  0.00    -0.157 C  
HETATM   19  O   UNL     1      -6.872  13.104  67.414  1.00  0.00    -0.163 OA 
BRANCH  18  20
HETATM   20  C   UNL     1      -8.779  14.322  67.973  1.00  0.00    -0.177 A  
HETATM   21  C   UNL     1      -8.614  15.181  69.064  1.00  0.00    -0.219 A  
HETATM   22  C   UNL     1      -9.317  16.380  69.161  1.00  0.00    -0.224 A  
HETATM   23  F   UNL     1      -7.766  14.877  70.061  1.00  0.00    -0.163 F  
HETATM   24  C   UNL     1     -10.202  16.729  68.153  1.00  0.00    -0.301 A  
HETATM   25  C   UNL     1     -10.398  15.903  67.059  1.00  0.00    -0.297 A  
HETATM   26  F   UNL     1     -10.877  17.883  68.237  1.00  0.00    -0.358 F  
HETATM   27  C   UNL     1      -9.687  14.705  66.976  1.00  0.00    -0.243 A  
HETATM   28  F   UNL     1      -9.919  13.941  65.899  1.00  0.00    -0.282 F  
ENDBRANCH  18  20
ENDBRANCH  14  16
ENDBRANCH   8  10
ENDBRANCH   5   8
TORSDOF 4
ENDMDL
MODEL      190
REMARK 921   NORMALIZED FREE ENERGY PREDICTED BY IDOCK:   -3.21 KCAL/MOL
REMARK 922        TOTAL FREE ENERGY PREDICTED BY IDOCK:   -4.31 KCAL/MOL
REMARK 923 INTER-LIGAND FREE ENERGY PREDICTED BY IDOCK:   -4.76 KCAL/MOL
REMARK 924 INTRA-LIGAND FREE ENERGY PREDICTED BY IDOCK:    0.44 KCAL/MOL
REMARK 927      BINDING AFFINITY PREDICTED BY RF-SCORE:    0.00 PKD
ROOT
HETATM    1  C   UNL     1      -6.546  17.155  67.811  1.00  0.00    -0.145 C  
HETATM    2  N   UNL     1      -6.806  15.750  68.110  1.00  0.00    -0.114 NA 
HETATM    3  C   UNL     1      -7.757  15.581  69.218  1.00  0.00    -0.223 C  
HETATM    4  C   UNL     1      -9.225  15.838  68.846  1.00  0.00    -0.227 C  
HETATM    5  C   UNL     1      -9.663  15.035  67.609  1.00  0.00    -0.215 C  
HETATM    6  C   UNL     1      -8.657  15.291  66.481  1.00  0.00    -0.264 C  
HETATM    7  C   UNL     1      -7.226  14.998  66.924  1.00  0.00     0.398 C  
ENDROOT
BRANCH   5   8
HETATM    8  C   UNL     1      -9.852  13.546  67.952  1.00  0.00    -0.235 C  
HETATM    9  O   UNL     1      -9.158  12.657  67.458  1.00  0.00    -0.176 OA 
BRANCH   8  10
HETATM   10  C   UNL     1     -10.870  13.161  68.972  1.00  0.00    -0.161 A  
HETATM   11  C   UNL     1     -11.836  14.065  69.384  1.00  0.00    -0.381 A  
HETATM   12  C   UNL     1     -12.760  13.646  70.336  1.00  0.00    -0.210 A  
HETATM   13  C   UNL     1     -12.677  12.350  70.844  1.00  0.00    -0.273 A  
HETATM   14  C   UNL     1     -11.673  11.507  70.377  1.00  0.00    -0.234 A  
HETATM   15  N   UNL     1     -10.796  11.902  69.446  1.00  0.00    -0.104 NA 
BRANCH  14  16
HETATM   16  N   UNL     1     -11.589  10.210  70.905  1.00  0.00    -0.351 N  
HETATM   17  H   UNL     1     -10.859   9.595  70.547  1.00  0.00     0.000 HD 
HETATM   18  C   UNL     1     -12.435   9.710  71.883  1.00  0.00    -0.377 C  
HETATM   19  O   UNL     1     -13.366  10.321  72.395  1.00  0.00    -0.325 OA 
BRANCH  18  20
HETATM   20  C   UNL     1     -12.180   8.316  72.347  1.00  0.00    -0.412 A  
HETATM   21  C   UNL     1     -10.985   7.935  72.967  1.00  0.00    -0.333 A  
HETATM   22  C   UNL     1     -10.779   6.630  73.411  1.00  0.00    -0.315 A  
HETATM   23  F   UNL     1      -9.992   8.819  73.157  1.00  0.00    -0.152 F  
HETATM   24  C   UNL     1     -11.780   5.688  73.233  1.00  0.00     0.255 A  
HETATM   25  C   UNL     1     -12.974   6.025  72.618  1.00  0.00     0.589 A  
HETATM   26  F   UNL     1     -11.590   4.433  73.663  1.00  0.00    -0.343 F  
HETATM   27  C   UNL     1     -13.167   7.334  72.178  1.00  0.00     0.005 A  
HETATM   28  F   UNL     1     -14.338   7.604  71.585  1.00  0.00    -0.434 F  
ENDBRANCH  18  20
ENDBRANCH  14  16
ENDBRANCH   8  10
ENDBRANCH   5   8
TORSDOF 4
ENDMDL
MODEL      191
REMARK 921   NORMALIZED FREE ENERGY PREDICTED BY IDOCK:   -3.17 KCAL/MOL
REMARK 922        TOTAL FREE ENERGY PREDICTED BY IDOCK:   -4.26 KCAL/MOL
REMARK 923 INTER-LIGAND FREE ENERGY PREDICTED BY IDOCK:   -4.87 KCAL/MOL
REMARK 924 INTRA-LIGAND FREE ENERGY PREDICTED BY IDOCK:    0.61 KCAL/MOL
REMARK 927      BINDING AFFINITY PREDICTED BY RF-SCORE:    0.00 PKD
ROOT
HETATM    1  C   UNL     1      -7.504   8.343  62.774  1.00  0.00    -0.104 C  
HETATM    2  N   UNL     1      -8.120   8.315  64.096  1.00  0.00    -0.152 NA 
HETATM    3  C   UNL     1      -7.900   7.038  64.789  1.00  0.00    -0.126 C  
HETATM    4  C   UNL     1      -6.491   6.862  65.373  1.00  0.00    -0.046 C  
HETATM    5  C   UNL     1      -6.070   8.051  66.253  1.00  0.00    -0.045 C  
HETATM    6  C   UNL     1      -6.282   9.344  65.457  1.00  0.00    -0.065 C  
HETATM    7  C   UNL     1      -7.708   9.453  64.925  1.00  0.00    -0.111 C  
ENDROOT
BRANCH   5   8
HETATM    8  C   UNL     1      -6.801   8.025  67.608  1.00  0.00    -0.070 C  
HETATM    9  O   UNL     1      -6.250   7.682  68.655  1.00  0.00    -0.033 OA 
BRANCH   8  10
HETATM   10  C   UNL     1      -8.215   8.495  67.678  1.00  0.00    -0.118 A  
HETATM   11  C   UNL     1      -9.264   7.616  67.460  1.00  0.00    -0.145 A  
HETATM   12  C   UNL     1     -10.561   8.113  67.543  1.00  0.00    -0.291 A  
HETATM   13  C   UNL     1     -10.757   9.464  67.828  1.00  0.00    -0.290 A  
HETATM   14  C   UNL     1      -9.647  10.278  68.031  1.00  0.00    -0.145 A  
HETATM   15  N   UNL     1      -8.399   9.797  67.972  1.00  0.00    -0.110 NA 
BRANCH  14  16
HETATM   16  N   UNL     1      -9.856  11.638  68.302  1.00  0.00    -0.194 N  
HETATM   17  H   UNL     1     -10.048  11.908  69.267  1.00  0.00     0.000 HD 
HETATM   18  C   UNL     1      -9.819  12.640  67.344  1.00  0.00    -0.205 C  
HETATM   19  O   UNL     1      -9.618  12.468  66.147  1.00  0.00    -0.249 OA 
BRANCH  18  20
HETATM   20  C   UNL     1     -10.036  14.036  67.820  1.00  0.00    -0.236 A  
HETATM   21  C   UNL     1     -11.165  14.784  67.472  1.00  0.00    -0.332 A  
HETATM   22  C   UNL     1     -11.356  16.080  67.947  1.00  0.00    -0.218 A  
HETATM   23  F   UNL     1     -12.110  14.274  66.666  1.00  0.00    -0.400 F  
HETATM   24  C   UNL     1     -10.403  16.642  68.781  1.00  0.00    -0.301 A  
HETATM   25  C   UNL     1      -9.268  15.937  69.143  1.00  0.00    -0.253 A  
HETATM   26  F   UNL     1     -10.583  17.886  69.246  1.00  0.00    -0.310 F  
HETATM   27  C   UNL     1      -9.090  14.640  68.661  1.00  0.00    -0.189 A  
HETATM   28  F   UNL     1      -7.971  14.005  69.038  1.00  0.00    -0.130 F  
ENDBRANCH  18  20
ENDBRANCH  14  16
ENDBRANCH   8  10
ENDBRANCH   5   8
TORSDOF 4
ENDMDL
MODEL      192
REMARK 921   NORMALIZED FREE ENERGY PREDICTED BY IDOCK:   -3.17 KCAL/MOL
REMARK 922        TOTAL FREE ENERGY PREDICTED BY IDOCK:   -4.26 KCAL/MOL
REMARK 923 INTER-LIGAND FREE ENERGY PREDICTED BY IDOCK:   -4.81 KCAL/MOL
REMARK 924 INTRA-LIGAND FREE ENERGY PREDICTED BY IDOCK:    0.55 KCAL/MOL
REMARK 927      BINDING AFFINITY PREDICTED BY RF-SCORE:    0.00 PKD
ROOT
HETATM    1  C   UNL     1      -5.128  10.467  69.161  1.00  0.00    -0.038 C  
HETATM    2  N   UNL     1      -6.546  10.728  68.933  1.00  0.00    -0.053 NA 
HETATM    3  C   UNL     1      -7.028  11.894  69.686  1.00  0.00     0.136 C  
HETATM    4  C   UNL     1      -6.619  13.251  69.094  1.00  0.00    -0.105 C  
HETATM    5  C   UNL     1      -6.972  13.368  67.602  1.00  0.00    -0.168 C  
HETATM    6  C   UNL     1      -6.403  12.147  66.870  1.00  0.00    -0.011 C  
HETATM    7  C   UNL     1      -6.868  10.840  67.507  1.00  0.00    -0.079 C  
ENDROOT
BRANCH   5   8
HETATM    8  C   UNL     1      -8.486  13.566  67.403  1.00  0.00    -0.200 C  
HETATM    9  O   UNL     1      -9.024  14.673  67.447  1.00  0.00    -0.178 OA 
BRANCH   8  10
HETATM   10  C   UNL     1      -9.335  12.383  67.078  1.00  0.00    -0.204 A  
HETATM   11  C   UNL     1      -9.817  12.190  65.792  1.00  0.00    -0.264 A  
HETATM   12  C   UNL     1     -10.601  11.067  65.550  1.00  0.00    -0.267 A  
HETATM   13  C   UNL     1     -10.880  10.190  66.599  1.00  0.00    -0.084 A  
HETATM   14  C   UNL     1     -10.357  10.461  67.860  1.00  0.00    -0.190 A  
HETATM   15  N   UNL     1      -9.586  11.531  68.090  1.00  0.00    -0.181 NA 
BRANCH  14  16
HETATM   16  N   UNL     1     -10.657   9.580  68.910  1.00  0.00    -0.219 N  
HETATM   17  H   UNL     1     -11.457   9.800  69.503  1.00  0.00     0.000 HD 
HETATM   18  C   UNL     1      -9.936   8.431  69.196  1.00  0.00    -0.196 C  
HETATM   19  O   UNL     1      -8.943   8.048  68.586  1.00  0.00    -0.134 OA 
BRANCH  18  20
HETATM   20  C   UNL     1     -10.417   7.598  70.335  1.00  0.00    -0.221 A  
HETATM   21  C   UNL     1     -10.945   6.315  70.160  1.00  0.00    -0.347 A  
HETATM   22  C   UNL     1     -11.368   5.547  71.243  1.00  0.00     0.056 A  
HETATM   23  F   UNL     1     -11.061   5.776  68.935  1.00  0.00    -0.360 F  
HETATM   24  C   UNL     1     -11.265   6.068  72.523  1.00  0.00    -0.290 A  
HETATM   25  C   UNL     1     -10.753   7.336  72.737  1.00  0.00    -0.340 A  
HETATM   26  F   UNL     1     -11.664   5.333  73.570  1.00  0.00    -0.281 F  
HETATM   27  C   UNL     1     -10.333   8.094  71.643  1.00  0.00    -0.224 A  
HETATM   28  F   UNL     1      -9.852   9.317  71.907  1.00  0.00    -0.372 F  
ENDBRANCH  18  20
ENDBRANCH  14  16
ENDBRANCH   8  10
ENDBRANCH   5   8
TORSDOF 4
ENDMDL
MODEL      193
REMARK 921   NORMALIZED FREE ENERGY PREDICTED BY IDOCK:   -3.09 KCAL/MOL
REMARK 922        TOTAL FREE ENERGY PREDICTED BY IDOCK:   -4.17 KCAL/MOL
REMARK 923 INTER-LIGAND FREE ENERGY PREDICTED BY IDOCK:   -3.87 KCAL/MOL
REMARK 924 INTRA-LIGAND FREE ENERGY PREDICTED BY IDOCK:   -0.30 KCAL/MOL
REMARK 927      BINDING AFFINITY PREDICTED BY RF-SCORE:    0.00 PKD
ROOT
HETATM    1  C   UNL     1      -5.142  10.335  69.643  1.00  0.00    -0.038 C  
HETATM    2  N   UNL     1      -6.364   9.889  68.982  1.00  0.00    -0.040 NA 
HETATM    3  C   UNL     1      -7.464  10.852  69.132  1.00  0.00    -0.130 C  
HETATM    4  C   UNL     1      -7.355  12.092  68.233  1.00  0.00    -0.095 C  
HETATM    5  C   UNL     1      -7.135  11.725  66.755  1.00  0.00    -0.047 C  
HETATM    6  C   UNL     1      -5.950  10.757  66.666  1.00  0.00    -0.089 C  
HETATM    7  C   UNL     1      -6.140   9.545  67.574  1.00  0.00    -0.053 C  
ENDROOT
BRANCH   5   8
HETATM    8  C   UNL     1      -8.429  11.188  66.117  1.00  0.00    -0.156 C  
HETATM    9  O   UNL     1      -8.457  10.674  64.998  1.00  0.00    -0.177 OA 
BRANCH   8  10
HETATM   10  C   UNL     1      -9.695  11.225  66.906  1.00  0.00    -0.192 A  
HETATM   11  C   UNL     1     -10.523  12.337  66.863  1.00  0.00    -0.240 A  
HETATM   12  C   UNL     1     -11.691  12.311  67.617  1.00  0.00    -0.403 A  
HETATM   13  C   UNL     1     -11.982  11.185  68.388  1.00  0.00    -0.211 A  
HETATM   14  C   UNL     1     -11.095  10.113  68.375  1.00  0.00    -0.218 A  
HETATM   15  N   UNL     1      -9.980  10.128  67.634  1.00  0.00    -0.174 NA 
BRANCH  14  16
HETATM   16  N   UNL     1     -11.389   8.992  69.166  1.00  0.00    -0.349 N  
HETATM   17  H   UNL     1     -11.764   8.166  68.701  1.00  0.00     0.000 HD 
HETATM   18  C   UNL     1     -11.205   8.935  70.538  1.00  0.00    -0.252 C  
HETATM   19  O   UNL     1     -10.782   9.852  71.235  1.00  0.00    -0.240 OA 
BRANCH  18  20
HETATM   20  C   UNL     1     -11.546   7.650  71.212  1.00  0.00    -0.302 A  
HETATM   21  C   UNL     1     -10.572   6.763  71.682  1.00  0.00    -0.214 A  
HETATM   22  C   UNL     1     -10.916   5.577  72.329  1.00  0.00    -0.296 A  
HETATM   23  F   UNL     1      -9.264   7.028  71.528  1.00  0.00    -0.151 F  
HETATM   24  C   UNL     1     -12.256   5.268  72.507  1.00  0.00     0.361 A  
HETATM   25  C   UNL     1     -13.250   6.117  72.050  1.00  0.00     0.500 A  
HETATM   26  F   UNL     1     -12.594   4.133  73.132  1.00  0.00    -0.033 F  
HETATM   27  C   UNL     1     -12.890   7.301  71.405  1.00  0.00    -0.382 A  
HETATM   28  F   UNL     1     -13.892   8.082  70.979  1.00  0.00    -0.250 F  
ENDBRANCH  18  20
ENDBRANCH  14  16
ENDBRANCH   8  10
ENDBRANCH   5   8
TORSDOF 4
ENDMDL
MODEL      194
REMARK 921   NORMALIZED FREE ENERGY PREDICTED BY IDOCK:   -3.01 KCAL/MOL
REMARK 922        TOTAL FREE ENERGY PREDICTED BY IDOCK:   -4.07 KCAL/MOL
REMARK 923 INTER-LIGAND FREE ENERGY PREDICTED BY IDOCK:   -4.28 KCAL/MOL
REMARK 924 INTRA-LIGAND FREE ENERGY PREDICTED BY IDOCK:    0.21 KCAL/MOL
REMARK 927      BINDING AFFINITY PREDICTED BY RF-SCORE:    0.00 PKD
ROOT
HETATM    1  C   UNL     1     -13.380  16.309  73.204  1.00  0.00    -0.233 C  
HETATM    2  N   UNL     1     -13.363  14.851  73.279  1.00  0.00    -0.534 NA 
HETATM    3  C   UNL     1     -14.304  14.232  72.335  1.00  0.00    -0.303 C  
HETATM    4  C   UNL     1     -13.832  14.225  70.873  1.00  0.00     0.061 C  
HETATM    5  C   UNL     1     -12.420  13.636  70.718  1.00  0.00    -0.432 C  
HETATM    6  C   UNL     1     -11.483  14.354  71.695  1.00  0.00     0.372 C  
HETATM    7  C   UNL     1     -12.011  14.303  73.126  1.00  0.00     0.424 C  
ENDROOT
BRANCH   5   8
HETATM    8  C   UNL     1     -12.437  12.105  70.879  1.00  0.00    -0.279 C  
HETATM    9  O   UNL     1     -13.249  11.520  71.597  1.00  0.00    -0.411 OA 
BRANCH   8  10
HETATM   10  C   UNL     1     -11.476  11.282  70.088  1.00  0.00    -0.247 A  
HETATM   11  C   UNL     1     -11.084  11.678  68.818  1.00  0.00    -0.283 A  
HETATM   12  C   UNL     1     -10.184  10.870  68.131  1.00  0.00    -0.197 A  
HETATM   13  C   UNL     1      -9.720   9.700  68.732  1.00  0.00    -0.167 A  
HETATM   14  C   UNL     1     -10.167   9.376  70.009  1.00  0.00    -0.229 A  
HETATM   15  N   UNL     1     -11.018  10.163  70.680  1.00  0.00    -0.314 NA 
BRANCH  14  16
HETATM   16  N   UNL     1      -9.706   8.189  70.597  1.00  0.00    -0.170 N  
HETATM   17  H   UNL     1      -9.918   7.309  70.126  1.00  0.00     0.000 HD 
HETATM   18  C   UNL     1      -8.981   8.132  71.777  1.00  0.00    -0.163 C  
HETATM   19  O   UNL     1      -8.667   9.100  72.463  1.00  0.00    -0.190 OA 
BRANCH  18  20
HETATM   20  C   UNL     1      -8.549   6.783  72.240  1.00  0.00    -0.121 A  
HETATM   21  C   UNL     1      -8.269   6.499  73.580  1.00  0.00    -0.114 A  
HETATM   22  C   UNL     1      -7.887   5.223  73.992  1.00  0.00    -0.097 A  
HETATM   23  F   UNL     1      -8.362   7.452  74.522  1.00  0.00    -0.182 F  
HETATM   24  C   UNL     1      -7.779   4.213  73.049  1.00  0.00    -0.081 A  
HETATM   25  C   UNL     1      -8.041   4.455  71.711  1.00  0.00    -0.097 A  
HETATM   26  F   UNL     1      -7.418   2.983  73.438  1.00  0.00    -0.045 F  
HETATM   27  C   UNL     1      -8.423   5.737  71.314  1.00  0.00    -0.128 A  
HETATM   28  F   UNL     1      -8.659   5.917  70.007  1.00  0.00    -0.120 F  
ENDBRANCH  18  20
ENDBRANCH  14  16
ENDBRANCH   8  10
ENDBRANCH   5   8
TORSDOF 4
ENDMDL
MODEL      195
REMARK 921   NORMALIZED FREE ENERGY PREDICTED BY IDOCK:   -2.60 KCAL/MOL
REMARK 922        TOTAL FREE ENERGY PREDICTED BY IDOCK:   -3.56 KCAL/MOL
REMARK 923 INTER-LIGAND FREE ENERGY PREDICTED BY IDOCK:   -3.29 KCAL/MOL
REMARK 924 INTRA-LIGAND FREE ENERGY PREDICTED BY IDOCK:   -0.27 KCAL/MOL
REMARK 927      BINDING AFFINITY PREDICTED BY RF-SCORE:    0.00 PKD
ROOT
HETATM    1  C   UNL     1      -5.376  17.077  71.520  1.00  0.00     0.274 C  
HETATM    2  N   UNL     1      -5.230  16.664  70.128  1.00  0.00    -0.175 NA 
HETATM    3  C   UNL     1      -5.252  15.202  69.973  1.00  0.00    -0.105 C  
HETATM    4  C   UNL     1      -6.647  14.569  70.080  1.00  0.00    -0.128 C  
HETATM    5  C   UNL     1      -7.668  15.243  69.146  1.00  0.00    -0.200 C  
HETATM    6  C   UNL     1      -7.625  16.755  69.390  1.00  0.00     0.009 C  
HETATM    7  C   UNL     1      -6.210  17.311  69.250  1.00  0.00    -0.237 C  
ENDROOT
BRANCH   5   8
HETATM    8  C   UNL     1      -7.429  14.839  67.680  1.00  0.00    -0.184 C  
HETATM    9  O   UNL     1      -6.479  15.261  67.020  1.00  0.00    -0.250 OA 
BRANCH   8  10
HETATM   10  C   UNL     1      -8.343  13.847  67.044  1.00  0.00    -0.092 A  
HETATM   11  C   UNL     1      -9.617  14.217  66.638  1.00  0.00    -0.301 A  
HETATM   12  C   UNL     1     -10.421  13.247  66.048  1.00  0.00    -0.289 A  
HETATM   13  C   UNL     1      -9.929  11.951  65.896  1.00  0.00    -0.261 A  
HETATM   14  C   UNL     1      -8.640  11.665  66.333  1.00  0.00    -0.143 A  
HETATM   15  N   UNL     1      -7.856  12.602  66.883  1.00  0.00    -0.023 NA 
BRANCH  14  16
HETATM   16  N   UNL     1      -8.160  10.354  66.189  1.00  0.00    -0.133 N  
HETATM   17  H   UNL     1      -7.380  10.199  65.551  1.00  0.00     0.000 HD 
HETATM   18  C   UNL     1      -8.678   9.256  66.857  1.00  0.00    -0.127 C  
HETATM   19  O   UNL     1      -9.623   9.283  67.639  1.00  0.00    -0.138 OA 
BRANCH  18  20
HETATM   20  C   UNL     1      -8.023   7.941  66.603  1.00  0.00    -0.103 A  
HETATM   21  C   UNL     1      -7.435   7.183  67.619  1.00  0.00    -0.101 A  
HETATM   22  C   UNL     1      -6.847   5.946  67.360  1.00  0.00    -0.063 A  
HETATM   23  F   UNL     1      -7.417   7.623  68.888  1.00  0.00    -0.085 F  
HETATM   24  C   UNL     1      -6.845   5.457  66.063  1.00  0.00    -0.058 A  
HETATM   25  C   UNL     1      -7.413   6.180  65.028  1.00  0.00    -0.082 A  
HETATM   26  F   UNL     1      -6.288   4.266  65.807  1.00  0.00    -0.029 F  
HETATM   27  C   UNL     1      -7.997   7.417  65.302  1.00  0.00    -0.127 A  
HETATM   28  F   UNL     1      -8.526   8.077  64.263  1.00  0.00    -0.138 F  
ENDBRANCH  18  20
ENDBRANCH  14  16
ENDBRANCH   8  10
ENDBRANCH   5   8
TORSDOF 4
ENDMDL
MODEL      196
REMARK 921   NORMALIZED FREE ENERGY PREDICTED BY IDOCK:   -2.30 KCAL/MOL
REMARK 922        TOTAL FREE ENERGY PREDICTED BY IDOCK:   -3.19 KCAL/MOL
REMARK 923 INTER-LIGAND FREE ENERGY PREDICTED BY IDOCK:   -3.56 KCAL/MOL
REMARK 924 INTRA-LIGAND FREE ENERGY PREDICTED BY IDOCK:    0.36 KCAL/MOL
REMARK 927      BINDING AFFINITY PREDICTED BY RF-SCORE:    0.00 PKD
ROOT
HETATM    1  C   UNL     1     -11.879  11.963  66.745  1.00  0.00    -0.087 C  
HETATM    2  N   UNL     1     -10.817  11.176  67.364  1.00  0.00    -0.249 NA 
HETATM    3  C   UNL     1      -9.608  11.117  66.531  1.00  0.00    -0.197 C  
HETATM    4  C   UNL     1      -8.756  12.395  66.547  1.00  0.00    -0.059 C  
HETATM    5  C   UNL     1      -8.425  12.858  67.976  1.00  0.00    -0.178 C  
HETATM    6  C   UNL     1      -9.730  12.941  68.775  1.00  0.00     0.058 C  
HETATM    7  C   UNL     1     -10.510  11.630  68.724  1.00  0.00    -0.204 C  
ENDROOT
BRANCH   5   8
HETATM    8  C   UNL     1      -7.356  11.955  68.618  1.00  0.00    -0.115 C  
HETATM    9  O   UNL     1      -6.608  12.344  69.516  1.00  0.00    -0.110 OA 
BRANCH   8  10
HETATM   10  C   UNL     1      -7.259  10.529  68.190  1.00  0.00    -0.087 A  
HETATM   11  C   UNL     1      -6.534  10.178  67.061  1.00  0.00    -0.069 A  
HETATM   12  C   UNL     1      -6.477   8.832  66.714  1.00  0.00    -0.060 A  
HETATM   13  C   UNL     1      -7.151   7.896  67.498  1.00  0.00    -0.083 A  
HETATM   14  C   UNL     1      -7.857   8.335  68.614  1.00  0.00    -0.120 A  
HETATM   15  N   UNL     1      -7.896   9.628  68.961  1.00  0.00    -0.076 NA 
BRANCH  14  16
HETATM   16  N   UNL     1      -8.544   7.386  69.386  1.00  0.00    -0.133 N  
HETATM   17  H   UNL     1      -9.263   6.828  68.927  1.00  0.00     0.000 HD 
HETATM   18  C   UNL     1      -8.308   7.158  70.733  1.00  0.00    -0.128 C  
HETATM   19  O   UNL     1      -7.491   7.760  71.421  1.00  0.00    -0.072 OA 
BRANCH  18  20
HETATM   20  C   UNL     1      -9.114   6.088  71.388  1.00  0.00    -0.149 A  
HETATM   21  C   UNL     1     -10.229   6.366  72.185  1.00  0.00    -0.186 A  
HETATM   22  C   UNL     1     -10.980   5.347  72.769  1.00  0.00    -0.328 A  
HETATM   23  F   UNL     1     -10.617   7.631  72.414  1.00  0.00    -0.231 F  
HETATM   24  C   UNL     1     -10.611   4.028  72.556  1.00  0.00    -0.066 A  
HETATM   25  C   UNL     1      -9.510   3.712  71.778  1.00  0.00    -0.210 A  
HETATM   26  F   UNL     1     -11.332   3.043  73.109  1.00  0.00    -0.250 F  
HETATM   27  C   UNL     1      -8.768   4.743  71.200  1.00  0.00    -0.118 A  
HETATM   28  F   UNL     1      -7.709   4.381  70.462  1.00  0.00    -0.050 F  
ENDBRANCH  18  20
ENDBRANCH  14  16
ENDBRANCH   8  10
ENDBRANCH   5   8
TORSDOF 4
ENDMDL
MODEL      197
REMARK 921   NORMALIZED FREE ENERGY PREDICTED BY IDOCK:   -2.20 KCAL/MOL
REMARK 922        TOTAL FREE ENERGY PREDICTED BY IDOCK:   -3.07 KCAL/MOL
REMARK 923 INTER-LIGAND FREE ENERGY PREDICTED BY IDOCK:   -3.22 KCAL/MOL
REMARK 924 INTRA-LIGAND FREE ENERGY PREDICTED BY IDOCK:    0.15 KCAL/MOL
REMARK 927      BINDING AFFINITY PREDICTED BY RF-SCORE:    0.00 PKD
ROOT
HETATM    1  C   UNL     1     -12.030   9.606  69.070  1.00  0.00     0.905 C  
HETATM    2  N   UNL     1     -10.813   8.820  69.244  1.00  0.00    -0.140 NA 
HETATM    3  C   UNL     1      -9.828   9.498  70.098  1.00  0.00    -0.244 C  
HETATM    4  C   UNL     1     -10.146   9.454  71.600  1.00  0.00    -0.063 C  
HETATM    5  C   UNL     1     -10.423   8.024  72.097  1.00  0.00    -0.329 C  
HETATM    6  C   UNL     1     -11.488   7.394  71.193  1.00  0.00    -0.303 C  
HETATM    7  C   UNL     1     -11.092   7.462  69.720  1.00  0.00    -0.152 C  
ENDROOT
BRANCH   5   8
HETATM    8  C   UNL     1      -9.121   7.208  72.193  1.00  0.00    -0.129 C  
HETATM    9  O   UNL     1      -8.053   7.699  72.558  1.00  0.00    -0.101 OA 
BRANCH   8  10
HETATM   10  C   UNL     1      -9.159   5.746  71.897  1.00  0.00    -0.138 A  
HETATM   11  C   UNL     1      -8.974   4.815  72.908  1.00  0.00    -0.124 A  
HETATM   12  C   UNL     1      -9.024   3.466  72.571  1.00  0.00    -0.115 A  
HETATM   13  C   UNL     1      -9.245   3.102  71.243  1.00  0.00    -0.193 A  
HETATM   14  C   UNL     1      -9.419   4.102  70.291  1.00  0.00    -0.181 A  
HETATM   15  N   UNL     1      -9.392   5.400  70.617  1.00  0.00    -0.157 NA 
BRANCH  14  16
HETATM   16  N   UNL     1      -9.626   3.724  68.956  1.00  0.00    -0.163 N  
HETATM   17  H   UNL     1     -10.488   3.229  68.729  1.00  0.00     0.000 HD 
HETATM   18  C   UNL     1      -8.736   3.980  67.925  1.00  0.00    -0.101 C  
HETATM   19  O   UNL     1      -7.655   4.547  68.046  1.00  0.00    -0.075 OA 
BRANCH  18  20
HETATM   20  C   UNL     1      -9.135   3.530  66.560  1.00  0.00    -0.172 A  
HETATM   21  C   UNL     1      -8.730   2.305  66.022  1.00  0.00    -0.119 A  
HETATM   22  C   UNL     1      -9.134   1.897  64.752  1.00  0.00    -0.129 A  
HETATM   23  F   UNL     1      -7.934   1.475  66.716  1.00  0.00    -0.065 F  
HETATM   24  C   UNL     1      -9.955   2.726  64.005  1.00  0.00    -0.142 A  
HETATM   25  C   UNL     1     -10.373   3.949  64.500  1.00  0.00    -0.231 A  
HETATM   26  F   UNL     1     -10.353   2.337  62.786  1.00  0.00    -0.097 F  
HETATM   27  C   UNL     1      -9.961   4.345  65.773  1.00  0.00    -0.239 A  
HETATM   28  F   UNL     1     -10.390   5.541  66.200  1.00  0.00    -0.218 F  
ENDBRANCH  18  20
ENDBRANCH  14  16
ENDBRANCH   8  10
ENDBRANCH   5   8
TORSDOF 4
ENDMDL
MODEL      198
REMARK 921   NORMALIZED FREE ENERGY PREDICTED BY IDOCK:   -2.12 KCAL/MOL
REMARK 922        TOTAL FREE ENERGY PREDICTED BY IDOCK:   -2.97 KCAL/MOL
REMARK 923 INTER-LIGAND FREE ENERGY PREDICTED BY IDOCK:   -3.70 KCAL/MOL
REMARK 924 INTRA-LIGAND FREE ENERGY PREDICTED BY IDOCK:    0.73 KCAL/MOL
REMARK 927      BINDING AFFINITY PREDICTED BY RF-SCORE:    0.00 PKD
ROOT
HETATM    1  C   UNL     1      -5.429  10.605  68.859  1.00  0.00    -0.041 C  
HETATM    2  N   UNL     1      -6.805  10.156  69.045  1.00  0.00    -0.054 NA 
HETATM    3  C   UNL     1      -7.712  11.259  69.390  1.00  0.00     0.092 C  
HETATM    4  C   UNL     1      -8.100  12.162  68.210  1.00  0.00    -0.166 C  
HETATM    5  C   UNL     1      -8.633  11.359  67.011  1.00  0.00    -0.157 C  
HETATM    6  C   UNL     1      -7.621  10.257  66.676  1.00  0.00    -0.110 C  
HETATM    7  C   UNL     1      -7.300   9.394  67.894  1.00  0.00    -0.083 C  
ENDROOT
BRANCH   5   8
HETATM    8  C   UNL     1     -10.057  10.839  67.279  1.00  0.00    -0.196 C  
HETATM    9  O   UNL     1     -10.840  10.547  66.375  1.00  0.00    -0.146 OA 
BRANCH   8  10
HETATM   10  C   UNL     1     -10.493  10.613  68.688  1.00  0.00    -0.191 A  
HETATM   11  C   UNL     1     -11.364  11.496  69.309  1.00  0.00    -0.353 A  
HETATM   12  C   UNL     1     -11.737  11.230  70.623  1.00  0.00    -0.264 A  
HETATM   13  C   UNL     1     -11.219  10.105  71.265  1.00  0.00    -0.143 A  
HETATM   14  C   UNL     1     -10.348   9.274  70.569  1.00  0.00    -0.254 A  
HETATM   15  N   UNL     1     -10.004   9.516  69.297  1.00  0.00    -0.178 NA 
BRANCH  14  16
HETATM   16  N   UNL     1      -9.822   8.154  71.230  1.00  0.00    -0.159 N  
HETATM   17  H   UNL     1     -10.331   7.273  71.156  1.00  0.00     0.000 HD 
HETATM   18  C   UNL     1      -8.654   8.165  71.977  1.00  0.00    -0.162 C  
HETATM   19  O   UNL     1      -7.946   9.148  72.170  1.00  0.00    -0.310 OA 
BRANCH  18  20
HETATM   20  C   UNL     1      -8.230   6.872  72.586  1.00  0.00    -0.115 A  
HETATM   21  C   UNL     1      -9.096   6.073  73.338  1.00  0.00    -0.131 A  
HETATM   22  C   UNL     1      -8.682   4.858  73.880  1.00  0.00    -0.108 A  
HETATM   23  F   UNL     1     -10.365   6.452  73.563  1.00  0.00    -0.188 F  
HETATM   24  C   UNL     1      -7.380   4.433  73.670  1.00  0.00    -0.076 A  
HETATM   25  C   UNL     1      -6.489   5.198  72.936  1.00  0.00    -0.056 A  
HETATM   26  F   UNL     1      -6.976   3.262  74.183  1.00  0.00    -0.039 F  
HETATM   27  C   UNL     1      -6.918   6.413  72.400  1.00  0.00    -0.074 A  
HETATM   28  F   UNL     1      -6.014   7.116  71.704  1.00  0.00    -0.036 F  
ENDBRANCH  18  20
ENDBRANCH  14  16
ENDBRANCH   8  10
ENDBRANCH   5   8
TORSDOF 4
ENDMDL
MODEL      199
REMARK 921   NORMALIZED FREE ENERGY PREDICTED BY IDOCK:   -2.03 KCAL/MOL
REMARK 922        TOTAL FREE ENERGY PREDICTED BY IDOCK:   -2.86 KCAL/MOL
REMARK 923 INTER-LIGAND FREE ENERGY PREDICTED BY IDOCK:   -2.83 KCAL/MOL
REMARK 924 INTRA-LIGAND FREE ENERGY PREDICTED BY IDOCK:   -0.03 KCAL/MOL
REMARK 927      BINDING AFFINITY PREDICTED BY RF-SCORE:    0.00 PKD
ROOT
HETATM    1  C   UNL     1      -8.340   6.483  70.947  1.00  0.00    -0.126 C  
HETATM    2  N   UNL     1      -7.823   7.183  69.776  1.00  0.00    -0.115 NA 
HETATM    3  C   UNL     1      -8.896   7.707  68.918  1.00  0.00    -0.135 C  
HETATM    4  C   UNL     1      -9.580   8.974  69.452  1.00  0.00    -0.160 C  
HETATM    5  C   UNL     1      -8.569  10.076  69.812  1.00  0.00    -0.192 C  
HETATM    6  C   UNL     1      -7.507   9.476  70.741  1.00  0.00    -0.099 C  
HETATM    7  C   UNL     1      -6.863   8.232  70.134  1.00  0.00    -0.039 C  
ENDROOT
BRANCH   5   8
HETATM    8  C   UNL     1      -7.991  10.736  68.547  1.00  0.00    -0.130 C  
HETATM    9  O   UNL     1      -7.029  11.504  68.577  1.00  0.00    -0.071 OA 
BRANCH   8  10
HETATM   10  C   UNL     1      -8.572  10.387  67.218  1.00  0.00    -0.126 A  
HETATM   11  C   UNL     1      -9.493  11.224  66.607  1.00  0.00    -0.204 A  
HETATM   12  C   UNL     1      -9.997  10.845  65.366  1.00  0.00    -0.319 A  
HETATM   13  C   UNL     1      -9.571   9.648  64.793  1.00  0.00    -0.197 A  
HETATM   14  C   UNL     1      -8.645   8.866  65.476  1.00  0.00    -0.168 A  
HETATM   15  N   UNL     1      -8.144   9.238  66.661  1.00  0.00    -0.107 NA 
BRANCH  14  16
HETATM   16  N   UNL     1      -8.235   7.655  64.897  1.00  0.00    -0.239 N  
HETATM   17  H   UNL     1      -7.503   7.690  64.187  1.00  0.00     0.000 HD 
HETATM   18  C   UNL     1      -8.759   6.415  65.226  1.00  0.00     0.024 C  
HETATM   19  O   UNL     1      -9.651   6.218  66.044  1.00  0.00    -0.078 OA 
BRANCH  18  20
HETATM   20  C   UNL     1      -8.181   5.231  64.528  1.00  0.00    -0.135 A  
HETATM   21  C   UNL     1      -8.761   4.674  63.384  1.00  0.00    -0.132 A  
HETATM   22  C   UNL     1      -8.190   3.580  62.737  1.00  0.00    -0.073 A  
HETATM   23  F   UNL     1      -9.893   5.178  62.867  1.00  0.00     0.175 F  
HETATM   24  C   UNL     1      -7.021   3.030  63.240  1.00  0.00    -0.043 A  
HETATM   25  C   UNL     1      -6.420   3.549  64.374  1.00  0.00    -0.034 A  
HETATM   26  F   UNL     1      -6.463   1.982  62.619  1.00  0.00    -0.009 F  
HETATM   27  C   UNL     1      -7.003   4.645  65.012  1.00  0.00    -0.061 A  
HETATM   28  F   UNL     1      -6.383   5.103  66.108  1.00  0.00    -0.034 F  
ENDBRANCH  18  20
ENDBRANCH  14  16
ENDBRANCH   8  10
ENDBRANCH   5   8
TORSDOF 4
ENDMDL
MODEL      200
REMARK 921   NORMALIZED FREE ENERGY PREDICTED BY IDOCK:   -2.00 KCAL/MOL
REMARK 922        TOTAL FREE ENERGY PREDICTED BY IDOCK:   -2.82 KCAL/MOL
REMARK 923 INTER-LIGAND FREE ENERGY PREDICTED BY IDOCK:   -3.39 KCAL/MOL
REMARK 924 INTRA-LIGAND FREE ENERGY PREDICTED BY IDOCK:    0.57 KCAL/MOL
REMARK 927      BINDING AFFINITY PREDICTED BY RF-SCORE:    0.00 PKD
ROOT
HETATM    1  C   UNL     1     -11.679  11.403  68.713  1.00  0.00    -0.339 C  
HETATM    2  N   UNL     1     -10.401  10.735  68.483  1.00  0.00    -0.176 NA 
HETATM    3  C   UNL     1     -10.307  10.157  67.135  1.00  0.00    -0.238 C  
HETATM    4  C   UNL     1     -10.045  11.179  66.019  1.00  0.00    -0.292 C  
HETATM    5  C   UNL     1      -8.835  12.080  66.323  1.00  0.00    -0.075 C  
HETATM    6  C   UNL     1      -9.019  12.684  67.720  1.00  0.00    -0.189 C  
HETATM    7  C   UNL     1      -9.259  11.606  68.775  1.00  0.00    -0.033 C  
ENDROOT
BRANCH   5   8
HETATM    8  C   UNL     1      -7.512  11.314  66.143  1.00  0.00     0.045 C  
HETATM    9  O   UNL     1      -6.416  11.807  66.411  1.00  0.00    -0.003 OA 
BRANCH   8  10
HETATM   10  C   UNL     1      -7.553   9.893  65.689  1.00  0.00    -0.119 A  
HETATM   11  C   UNL     1      -7.306   9.567  64.365  1.00  0.00    -0.115 A  
HETATM   12  C   UNL     1      -7.356   8.224  64.003  1.00  0.00    -0.103 A  
HETATM   13  C   UNL     1      -7.657   7.267  64.971  1.00  0.00    -0.107 A  
HETATM   14  C   UNL     1      -7.894   7.682  66.278  1.00  0.00    -0.091 A  
HETATM   15  N   UNL     1      -7.827   8.972  66.632  1.00  0.00    -0.099 NA 
BRANCH  14  16
HETATM   16  N   UNL     1      -8.212   6.712  67.240  1.00  0.00    -0.120 N  
HETATM   17  H   UNL     1      -8.581   5.819  66.913  1.00  0.00     0.000 HD 
HETATM   18  C   UNL     1      -8.056   6.887  68.606  1.00  0.00    -0.121 C  
HETATM   19  O   UNL     1      -7.642   7.907  69.147  1.00  0.00    -0.094 OA 
BRANCH  18  20
HETATM   20  C   UNL     1      -8.419   5.735  69.480  1.00  0.00    -0.112 A  
HETATM   21  C   UNL     1      -7.675   4.552  69.515  1.00  0.00    -0.055 A  
HETATM   22  C   UNL     1      -8.022   3.496  70.356  1.00  0.00    -0.051 A  
HETATM   23  F   UNL     1      -6.593   4.392  68.735  1.00  0.00    -0.040 F  
HETATM   24  C   UNL     1      -9.133   3.622  71.177  1.00  0.00    -0.109 A  
HETATM   25  C   UNL     1      -9.899   4.776  71.167  1.00  0.00    -0.260 A  
HETATM   26  F   UNL     1      -9.469   2.614  71.993  1.00  0.00    -0.136 F  
HETATM   27  C   UNL     1      -9.539   5.824  70.319  1.00  0.00    -0.164 A  
HETATM   28  F   UNL     1     -10.318   6.914  70.346  1.00  0.00    -0.200 F  
ENDBRANCH  18  20
ENDBRANCH  14  16
ENDBRANCH   8  10
ENDBRANCH   5   8
TORSDOF 4
ENDMDL
MODEL      201
REMARK 921   NORMALIZED FREE ENERGY PREDICTED BY IDOCK:   -1.97 KCAL/MOL
REMARK 922        TOTAL FREE ENERGY PREDICTED BY IDOCK:   -2.78 KCAL/MOL
REMARK 923 INTER-LIGAND FREE ENERGY PREDICTED BY IDOCK:   -2.34 KCAL/MOL
REMARK 924 INTRA-LIGAND FREE ENERGY PREDICTED BY IDOCK:   -0.44 KCAL/MOL
REMARK 927      BINDING AFFINITY PREDICTED BY RF-SCORE:    0.00 PKD
ROOT
HETATM    1  C   UNL     1     -10.811   3.853  64.216  1.00  0.00    -0.143 C  
HETATM    2  N   UNL     1      -9.889   3.595  65.317  1.00  0.00    -0.143 NA 
HETATM    3  C   UNL     1      -8.797   2.690  64.932  1.00  0.00    -0.121 C  
HETATM    4  C   UNL     1      -7.697   3.341  64.082  1.00  0.00    -0.077 C  
HETATM    5  C   UNL     1      -7.152   4.631  64.719  1.00  0.00    -0.062 C  
HETATM    6  C   UNL     1      -8.336   5.546  65.053  1.00  0.00    -0.146 C  
HETATM    7  C   UNL     1      -9.376   4.832  65.913  1.00  0.00    -0.159 C  
ENDROOT
BRANCH   5   8
HETATM    8  C   UNL     1      -6.246   4.315  65.923  1.00  0.00    -0.032 C  
HETATM    9  O   UNL     1      -5.255   3.589  65.838  1.00  0.00    -0.008 OA 
BRANCH   8  10
HETATM   10  C   UNL     1      -6.534   4.963  67.236  1.00  0.00    -0.045 A  
HETATM   11  C   UNL     1      -7.034   4.222  68.296  1.00  0.00    -0.052 A  
HETATM   12  C   UNL     1      -7.278   4.882  69.496  1.00  0.00    -0.056 A  
HETATM   13  C   UNL     1      -7.025   6.251  69.586  1.00  0.00    -0.071 A  
HETATM   14  C   UNL     1      -6.526   6.919  68.472  1.00  0.00    -0.036 A  
HETATM   15  N   UNL     1      -6.270   6.281  67.323  1.00  0.00    -0.031 NA 
BRANCH  14  16
HETATM   16  N   UNL     1      -6.289   8.298  68.570  1.00  0.00    -0.052 N  
HETATM   17  H   UNL     1      -5.370   8.602  68.892  1.00  0.00     0.000 HD 
HETATM   18  C   UNL     1      -7.222   9.274  68.258  1.00  0.00    -0.077 C  
HETATM   19  O   UNL     1      -8.368   9.063  67.878  1.00  0.00    -0.116 OA 
BRANCH  18  20
HETATM   20  C   UNL     1      -6.786  10.693  68.395  1.00  0.00    -0.060 A  
HETATM   21  C   UNL     1      -6.508  11.506  67.291  1.00  0.00    -0.110 A  
HETATM   22  C   UNL     1      -6.122  12.836  67.444  1.00  0.00    -0.123 A  
HETATM   23  F   UNL     1      -6.606  11.029  66.040  1.00  0.00    -0.122 F  
HETATM   24  C   UNL     1      -6.009  13.365  68.721  1.00  0.00    -0.084 A  
HETATM   25  C   UNL     1      -6.269  12.592  69.839  1.00  0.00    -0.094 A  
HETATM   26  F   UNL     1      -5.644  14.645  68.875  1.00  0.00    -0.084 F  
HETATM   27  C   UNL     1      -6.655  11.261  69.670  1.00  0.00    -0.136 A  
HETATM   28  F   UNL     1      -6.889  10.556  70.786  1.00  0.00    -0.099 F  
ENDBRANCH  18  20
ENDBRANCH  14  16
ENDBRANCH   8  10
ENDBRANCH   5   8
TORSDOF 4
ENDMDL
MODEL      202
REMARK 921   NORMALIZED FREE ENERGY PREDICTED BY IDOCK:   -1.80 KCAL/MOL
REMARK 922        TOTAL FREE ENERGY PREDICTED BY IDOCK:   -2.57 KCAL/MOL
REMARK 923 INTER-LIGAND FREE ENERGY PREDICTED BY IDOCK:   -3.46 KCAL/MOL
REMARK 924 INTRA-LIGAND FREE ENERGY PREDICTED BY IDOCK:    0.89 KCAL/MOL
REMARK 927      BINDING AFFINITY PREDICTED BY RF-SCORE:    0.00 PKD
ROOT
HETATM    1  C   UNL     1      -5.369  10.314  69.770  1.00  0.00    -0.038 C  
HETATM    2  N   UNL     1      -6.657   9.991  69.165  1.00  0.00    -0.051 NA 
HETATM    3  C   UNL     1      -7.770  10.702  69.809  1.00  0.00    -0.004 C  
HETATM    4  C   UNL     1      -7.890  12.184  69.425  1.00  0.00     0.605 C  
HETATM    5  C   UNL     1      -7.904  12.393  67.901  1.00  0.00    -0.145 C  
HETATM    6  C   UNL     1      -6.696  11.666  67.299  1.00  0.00    -0.124 C  
HETATM    7  C   UNL     1      -6.657  10.197  67.714  1.00  0.00    -0.067 C  
ENDROOT
BRANCH   5   8
HETATM    8  C   UNL     1      -9.254  11.969  67.294  1.00  0.00    -0.182 C  
HETATM    9  O   UNL     1      -9.480  12.003  66.084  1.00  0.00    -0.232 OA 
BRANCH   8  10
HETATM   10  C   UNL     1     -10.316  11.431  68.194  1.00  0.00    -0.188 A  
HETATM   11  C   UNL     1     -11.366  12.236  68.609  1.00  0.00    -0.339 A  
HETATM   12  C   UNL     1     -12.327  11.676  69.445  1.00  0.00    -0.131 A  
HETATM   13  C   UNL     1     -12.197  10.345  69.839  1.00  0.00    -0.215 A  
HETATM   14  C   UNL     1     -11.110   9.609  69.377  1.00  0.00    -0.139 A  
HETATM   15  N   UNL     1     -10.195  10.140  68.556  1.00  0.00    -0.166 NA 
BRANCH  14  16
HETATM   16  N   UNL     1     -10.982   8.275  69.792  1.00  0.00    -0.400 N  
HETATM   17  H   UNL     1     -11.697   7.898  70.414  1.00  0.00     0.000 HD 
HETATM   18  C   UNL     1      -9.946   7.435  69.412  1.00  0.00    -0.176 C  
HETATM   19  O   UNL     1      -9.008   7.751  68.687  1.00  0.00    -0.134 OA 
BRANCH  18  20
HETATM   20  C   UNL     1      -9.987   6.037  69.928  1.00  0.00    -0.225 A  
HETATM   21  C   UNL     1      -9.851   4.922  69.095  1.00  0.00    -0.193 A  
HETATM   22  C   UNL     1      -9.871   3.625  69.604  1.00  0.00     0.013 A  
HETATM   23  F   UNL     1      -9.693   5.065  67.769  1.00  0.00    -0.140 F  
HETATM   24  C   UNL     1     -10.031   3.436  70.968  1.00  0.00     0.057 A  
HETATM   25  C   UNL     1     -10.175   4.514  71.825  1.00  0.00    -0.226 A  
HETATM   26  F   UNL     1     -10.046   2.192  71.465  1.00  0.00    -0.224 F  
HETATM   27  C   UNL     1     -10.153   5.807  71.301  1.00  0.00    -0.201 A  
HETATM   28  F   UNL     1     -10.303   6.813  72.174  1.00  0.00    -0.196 F  
ENDBRANCH  18  20
ENDBRANCH  14  16
ENDBRANCH   8  10
ENDBRANCH   5   8
TORSDOF 4
ENDMDL
MODEL      203
REMARK 921   NORMALIZED FREE ENERGY PREDICTED BY IDOCK:   -1.64 KCAL/MOL
REMARK 922        TOTAL FREE ENERGY PREDICTED BY IDOCK:   -2.38 KCAL/MOL
REMARK 923 INTER-LIGAND FREE ENERGY PREDICTED BY IDOCK:   -2.90 KCAL/MOL
REMARK 924 INTRA-LIGAND FREE ENERGY PREDICTED BY IDOCK:    0.51 KCAL/MOL
REMARK 927      BINDING AFFINITY PREDICTED BY RF-SCORE:    0.00 PKD
ROOT
HETATM    1  C   UNL     1     -11.240   8.997  70.199  1.00  0.00    -0.171 C  
HETATM    2  N   UNL     1     -10.027   8.197  70.338  1.00  0.00    -0.187 NA 
HETATM    3  C   UNL     1      -9.092   8.765  71.319  1.00  0.00    -0.234 C  
HETATM    4  C   UNL     1      -9.487   8.536  72.785  1.00  0.00    -0.244 C  
HETATM    5  C   UNL     1      -9.778   7.056  73.087  1.00  0.00    -0.215 C  
HETATM    6  C   UNL     1     -10.791   6.540  72.058  1.00  0.00    -0.267 C  
HETATM    7  C   UNL     1     -10.321   6.790  70.628  1.00  0.00    -0.201 C  
ENDROOT
BRANCH   5   8
HETATM    8  C   UNL     1      -8.478   6.235  73.149  1.00  0.00    -0.116 C  
HETATM    9  O   UNL     1      -7.462   6.638  73.718  1.00  0.00    -0.084 OA 
BRANCH   8  10
HETATM   10  C   UNL     1      -8.456   4.866  72.557  1.00  0.00    -0.120 A  
HETATM   11  C   UNL     1      -8.516   3.743  73.368  1.00  0.00    -0.087 A  
HETATM   12  C   UNL     1      -8.494   2.493  72.757  1.00  0.00    -0.070 A  
HETATM   13  C   UNL     1      -8.405   2.415  71.367  1.00  0.00    -0.077 A  
HETATM   14  C   UNL     1      -8.347   3.592  70.628  1.00  0.00    -0.068 A  
HETATM   15  N   UNL     1      -8.388   4.796  71.214  1.00  0.00    -0.104 NA 
BRANCH  14  16
HETATM   16  N   UNL     1      -8.242   3.501  69.232  1.00  0.00    -0.059 N  
HETATM   17  H   UNL     1      -9.078   3.246  68.707  1.00  0.00     0.000 HD 
HETATM   18  C   UNL     1      -7.076   3.734  68.520  1.00  0.00    -0.051 C  
HETATM   19  O   UNL     1      -5.992   4.029  69.013  1.00  0.00    -0.022 OA 
BRANCH  18  20
HETATM   20  C   UNL     1      -7.157   3.618  67.036  1.00  0.00    -0.063 A  
HETATM   21  C   UNL     1      -8.019   2.723  66.396  1.00  0.00    -0.081 A  
HETATM   22  C   UNL     1      -8.092   2.649  65.006  1.00  0.00    -0.083 A  
HETATM   23  F   UNL     1      -8.812   1.901  67.103  1.00  0.00    -0.105 F  
HETATM   24  C   UNL     1      -7.290   3.481  64.241  1.00  0.00    -0.063 A  
HETATM   25  C   UNL     1      -6.418   4.376  64.837  1.00  0.00    -0.035 A  
HETATM   26  F   UNL     1      -7.359   3.419  62.904  1.00  0.00    -0.047 F  
HETATM   27  C   UNL     1      -6.356   4.440  66.230  1.00  0.00    -0.033 A  
HETATM   28  F   UNL     1      -5.491   5.319  66.754  1.00  0.00    -0.010 F  
ENDBRANCH  18  20
ENDBRANCH  14  16
ENDBRANCH   8  10
ENDBRANCH   5   8
TORSDOF 4
ENDMDL
MODEL      204
REMARK 921   NORMALIZED FREE ENERGY PREDICTED BY IDOCK:   -1.33 KCAL/MOL
REMARK 922        TOTAL FREE ENERGY PREDICTED BY IDOCK:   -1.99 KCAL/MOL
REMARK 923 INTER-LIGAND FREE ENERGY PREDICTED BY IDOCK:   -2.88 KCAL/MOL
REMARK 924 INTRA-LIGAND FREE ENERGY PREDICTED BY IDOCK:    0.89 KCAL/MOL
REMARK 927      BINDING AFFINITY PREDICTED BY RF-SCORE:    0.00 PKD
ROOT
HETATM    1  C   UNL     1     -10.707  10.211  67.119  1.00  0.00    -0.221 C  
HETATM    2  N   UNL     1      -9.386   9.611  67.277  1.00  0.00    -0.137 NA 
HETATM    3  C   UNL     1      -8.411  10.549  67.851  1.00  0.00    -0.119 C  
HETATM    4  C   UNL     1      -8.557  10.777  69.362  1.00  0.00     0.017 C  
HETATM    5  C   UNL     1      -8.590   9.457  70.152  1.00  0.00    -0.233 C  
HETATM    6  C   UNL     1      -9.656   8.547  69.531  1.00  0.00    -0.170 C  
HETATM    7  C   UNL     1      -9.433   8.356  68.033  1.00  0.00    -0.143 C  
ENDROOT
BRANCH   5   8
HETATM    8  C   UNL     1      -7.191   8.820  70.229  1.00  0.00    -0.049 C  
HETATM    9  O   UNL     1      -6.166   9.483  70.392  1.00  0.00    -0.049 OA 
BRANCH   8  10
HETATM   10  C   UNL     1      -7.067   7.335  70.169  1.00  0.00    -0.065 A  
HETATM   11  C   UNL     1      -6.311   6.650  71.109  1.00  0.00    -0.041 A  
HETATM   12  C   UNL     1      -6.236   5.265  71.003  1.00  0.00    -0.023 A  
HETATM   13  C   UNL     1      -6.907   4.622  69.963  1.00  0.00    -0.044 A  
HETATM   14  C   UNL     1      -7.641   5.386  69.062  1.00  0.00    -0.085 A  
HETATM   15  N   UNL     1      -7.731   6.718  69.174  1.00  0.00    -0.104 NA 
BRANCH  14  16
HETATM   16  N   UNL     1      -8.299   4.731  68.011  1.00  0.00    -0.102 N  
HETATM   17  H   UNL     1      -9.060   4.094  68.248  1.00  0.00     0.000 HD 
HETATM   18  C   UNL     1      -7.983   4.891  66.671  1.00  0.00    -0.103 C  
HETATM   19  O   UNL     1      -7.086   5.605  66.235  1.00  0.00    -0.068 OA 
BRANCH  18  20
HETATM   20  C   UNL     1      -8.810   4.135  65.687  1.00  0.00    -0.122 A  
HETATM   21  C   UNL     1     -10.158   4.425  65.454  1.00  0.00    -0.223 A  
HETATM   22  C   UNL     1     -10.904   3.717  64.513  1.00  0.00     0.006 A  
HETATM   23  F   UNL     1     -10.782   5.402  66.132  1.00  0.00    -0.282 F  
HETATM   24  C   UNL     1     -10.296   2.700  63.793  1.00  0.00    -0.145 A  
HETATM   25  C   UNL     1      -8.965   2.379  63.999  1.00  0.00    -0.103 A  
HETATM   26  F   UNL     1     -11.006   2.020  62.883  1.00  0.00    -0.139 F  
HETATM   27  C   UNL     1      -8.230   3.096  64.944  1.00  0.00    -0.090 A  
HETATM   28  F   UNL     1      -6.949   2.740  65.107  1.00  0.00    -0.046 F  
ENDBRANCH  18  20
ENDBRANCH  14  16
ENDBRANCH   8  10
ENDBRANCH   5   8
TORSDOF 4
ENDMDL
MODEL      205
REMARK 921   NORMALIZED FREE ENERGY PREDICTED BY IDOCK:   -1.29 KCAL/MOL
REMARK 922        TOTAL FREE ENERGY PREDICTED BY IDOCK:   -1.94 KCAL/MOL
REMARK 923 INTER-LIGAND FREE ENERGY PREDICTED BY IDOCK:   -3.92 KCAL/MOL
REMARK 924 INTRA-LIGAND FREE ENERGY PREDICTED BY IDOCK:    1.98 KCAL/MOL
REMARK 927      BINDING AFFINITY PREDICTED BY RF-SCORE:    0.00 PKD
ROOT
HETATM    1  C   UNL     1      -8.353   8.633  63.920  1.00  0.00    -0.114 C  
HETATM    2  N   UNL     1      -8.600   8.499  65.352  1.00  0.00    -0.176 NA 
HETATM    3  C   UNL     1      -8.437   7.117  65.822  1.00  0.00    -0.146 C  
HETATM    4  C   UNL     1      -6.978   6.659  65.967  1.00  0.00    -0.061 C  
HETATM    5  C   UNL     1      -6.141   7.635  66.811  1.00  0.00    -0.048 C  
HETATM    6  C   UNL     1      -6.320   9.047  66.242  1.00  0.00    -0.065 C  
HETATM    7  C   UNL     1      -7.794   9.434  66.144  1.00  0.00    -0.100 C  
ENDROOT
BRANCH   5   8
HETATM    8  C   UNL     1      -6.488   7.515  68.306  1.00  0.00    -0.049 C  
HETATM    9  O   UNL     1      -5.732   6.989  69.125  1.00  0.00    -0.017 OA 
BRANCH   8  10
HETATM   10  C   UNL     1      -7.758   8.116  68.806  1.00  0.00    -0.107 A  
HETATM   11  C   UNL     1      -8.801   7.310  69.235  1.00  0.00    -0.136 A  
HETATM   12  C   UNL     1      -9.960   7.929  69.693  1.00  0.00    -0.191 A  
HETATM   13  C   UNL     1     -10.034   9.322  69.696  1.00  0.00    -0.201 A  
HETATM   14  C   UNL     1      -8.941  10.056  69.246  1.00  0.00    -0.178 A  
HETATM   15  N   UNL     1      -7.817   9.461  68.824  1.00  0.00    -0.083 NA 
BRANCH  14  16
HETATM   16  N   UNL     1      -9.032  11.455  69.239  1.00  0.00    -0.360 N  
HETATM   17  H   UNL     1      -9.777  11.887  69.786  1.00  0.00     0.000 HD 
HETATM   18  C   UNL     1      -8.177  12.290  68.537  1.00  0.00    -0.096 C  
HETATM   19  O   UNL     1      -7.250  11.918  67.825  1.00  0.00    -0.089 OA 
BRANCH  18  20
HETATM   20  C   UNL     1      -8.407  13.758  68.669  1.00  0.00    -0.067 A  
HETATM   21  C   UNL     1      -7.432  14.632  69.160  1.00  0.00    -0.139 A  
HETATM   22  C   UNL     1      -7.663  16.003  69.254  1.00  0.00    -0.223 A  
HETATM   23  F   UNL     1      -6.233  14.177  69.558  1.00  0.00    -0.094 F  
HETATM   24  C   UNL     1      -8.889  16.511  68.853  1.00  0.00    -0.244 A  
HETATM   25  C   UNL     1      -9.882  15.678  68.367  1.00  0.00    -0.206 A  
HETATM   26  F   UNL     1      -9.116  17.829  68.935  1.00  0.00    -0.277 F  
HETATM   27  C   UNL     1      -9.636  14.307  68.279  1.00  0.00    -0.221 A  
HETATM   28  F   UNL     1     -10.633  13.546  67.807  1.00  0.00    -0.234 F  
ENDBRANCH  18  20
ENDBRANCH  14  16
ENDBRANCH   8  10
ENDBRANCH   5   8
TORSDOF 4
ENDMDL
MODEL      206
REMARK 921   NORMALIZED FREE ENERGY PREDICTED BY IDOCK:   -1.24 KCAL/MOL
REMARK 922        TOTAL FREE ENERGY PREDICTED BY IDOCK:   -1.88 KCAL/MOL
REMARK 923 INTER-LIGAND FREE ENERGY PREDICTED BY IDOCK:   -1.63 KCAL/MOL
REMARK 924 INTRA-LIGAND FREE ENERGY PREDICTED BY IDOCK:   -0.26 KCAL/MOL
REMARK 927      BINDING AFFINITY PREDICTED BY RF-SCORE:    0.00 PKD
ROOT
HETATM    1  C   UNL     1     -11.338   4.429  64.265  1.00  0.00     0.691 C  
HETATM    2  N   UNL     1     -10.382   4.266  65.356  1.00  0.00    -0.232 NA 
HETATM    3  C   UNL     1      -9.198   3.496  64.951  1.00  0.00    -0.144 C  
HETATM    4  C   UNL     1      -8.187   4.278  64.099  1.00  0.00    -0.099 C  
HETATM    5  C   UNL     1      -7.787   5.614  64.747  1.00  0.00    -0.112 C  
HETATM    6  C   UNL     1      -9.064   6.384  65.102  1.00  0.00     0.370 C  
HETATM    7  C   UNL     1     -10.008   5.547  65.962  1.00  0.00    -0.035 C  
ENDROOT
BRANCH   5   8
HETATM    8  C   UNL     1      -6.840   5.391  65.940  1.00  0.00    -0.058 C  
HETATM    9  O   UNL     1      -5.852   4.658  65.878  1.00  0.00    -0.021 OA 
BRANCH   8  10
HETATM   10  C   UNL     1      -7.082   6.140  67.208  1.00  0.00    -0.070 A  
HETATM   11  C   UNL     1      -7.318   5.463  68.395  1.00  0.00    -0.072 A  
HETATM   12  C   UNL     1      -7.534   6.216  69.544  1.00  0.00    -0.092 A  
HETATM   13  C   UNL     1      -7.515   7.609  69.462  1.00  0.00    -0.092 A  
HETATM   14  C   UNL     1      -7.272   8.207  68.229  1.00  0.00    -0.093 A  
HETATM   15  N   UNL     1      -7.044   7.483  67.126  1.00  0.00    -0.082 NA 
BRANCH  14  16
HETATM   16  N   UNL     1      -7.270   9.608  68.155  1.00  0.00    -0.079 N  
HETATM   17  H   UNL     1      -6.424  10.067  67.820  1.00  0.00     0.000 HD 
HETATM   18  C   UNL     1      -8.345  10.410  68.508  1.00  0.00    -0.124 C  
HETATM   19  O   UNL     1      -9.418  10.006  68.943  1.00  0.00    -0.156 OA 
BRANCH  18  20
HETATM   20  C   UNL     1      -8.174  11.881  68.337  1.00  0.00    -0.160 A  
HETATM   21  C   UNL     1      -7.305  12.636  69.131  1.00  0.00     0.134 A  
HETATM   22  C   UNL     1      -7.147  14.007  68.938  1.00  0.00    -0.111 A  
HETATM   23  F   UNL     1      -6.589  12.062  70.112  1.00  0.00    -0.113 F  
HETATM   24  C   UNL     1      -7.869  14.637  67.936  1.00  0.00    -0.136 A  
HETATM   25  C   UNL     1      -8.743  13.925  67.133  1.00  0.00    -0.233 A  
HETATM   26  F   UNL     1      -7.717  15.954  67.741  1.00  0.00    -0.126 F  
HETATM   27  C   UNL     1      -8.892  12.553  67.338  1.00  0.00    -0.187 A  
HETATM   28  F   UNL     1      -9.756  11.915  66.536  1.00  0.00    -0.195 F  
ENDBRANCH  18  20
ENDBRANCH  14  16
ENDBRANCH   8  10
ENDBRANCH   5   8
TORSDOF 4
ENDMDL
MODEL      207
REMARK 921   NORMALIZED FREE ENERGY PREDICTED BY IDOCK:   -1.22 KCAL/MOL
REMARK 922        TOTAL FREE ENERGY PREDICTED BY IDOCK:   -1.86 KCAL/MOL
REMARK 923 INTER-LIGAND FREE ENERGY PREDICTED BY IDOCK:   -2.12 KCAL/MOL
REMARK 924 INTRA-LIGAND FREE ENERGY PREDICTED BY IDOCK:    0.27 KCAL/MOL
REMARK 927      BINDING AFFINITY PREDICTED BY RF-SCORE:    0.00 PKD
ROOT
HETATM    1  C   UNL     1     -10.687  10.207  67.139  1.00  0.00    -0.221 C  
HETATM    2  N   UNL     1      -9.302   9.809  67.371  1.00  0.00    -0.133 NA 
HETATM    3  C   UNL     1      -8.431  10.957  67.658  1.00  0.00    -0.123 C  
HETATM    4  C   UNL     1      -8.571  11.527  69.077  1.00  0.00     0.120 C  
HETATM    5  C   UNL     1      -8.433  10.441  70.158  1.00  0.00     0.406 C  
HETATM    6  C   UNL     1      -9.398   9.298  69.824  1.00  0.00    -0.199 C  
HETATM    7  C   UNL     1      -9.187   8.776  68.405  1.00  0.00    -0.137 C  
ENDROOT
BRANCH   5   8
HETATM    8  C   UNL     1      -6.968   9.996  70.316  1.00  0.00    -0.150 C  
HETATM    9  O   UNL     1      -6.045  10.510  69.683  1.00  0.00    -0.044 OA 
BRANCH   8  10
HETATM   10  C   UNL     1      -6.633   8.947  71.322  1.00  0.00    -0.080 A  
HETATM   11  C   UNL     1      -5.388   8.923  71.932  1.00  0.00    -0.050 A  
HETATM   12  C   UNL     1      -5.136   7.921  72.864  1.00  0.00    -0.036 A  
HETATM   13  C   UNL     1      -6.129   6.982  73.142  1.00  0.00    -0.057 A  
HETATM   14  C   UNL     1      -7.351   7.078  72.482  1.00  0.00    -0.080 A  
HETATM   15  N   UNL     1      -7.602   8.053  71.600  1.00  0.00    -0.076 NA 
BRANCH  14  16
HETATM   16  N   UNL     1      -8.337   6.119  72.759  1.00  0.00    -0.117 N  
HETATM   17  H   UNL     1      -8.727   6.094  73.701  1.00  0.00     0.000 HD 
HETATM   18  C   UNL     1      -8.815   5.203  71.835  1.00  0.00    -0.134 C  
HETATM   19  O   UNL     1      -8.431   5.100  70.675  1.00  0.00    -0.111 OA 
BRANCH  18  20
HETATM   20  C   UNL     1      -9.887   4.275  72.298  1.00  0.00    -0.227 A  
HETATM   21  C   UNL     1      -9.901   2.916  71.968  1.00  0.00    -0.172 A  
HETATM   22  C   UNL     1     -10.902   2.064  72.431  1.00  0.00     0.067 A  
HETATM   23  F   UNL     1      -8.943   2.383  71.192  1.00  0.00    -0.101 F  
HETATM   24  C   UNL     1     -11.909   2.577  73.234  1.00  0.00     0.159 A  
HETATM   25  C   UNL     1     -11.933   3.918  73.578  1.00  0.00     0.242 A  
HETATM   26  F   UNL     1     -12.871   1.762  73.687  1.00  0.00    -0.309 F  
HETATM   27  C   UNL     1     -10.924   4.759  73.107  1.00  0.00    -0.300 A  
HETATM   28  F   UNL     1     -11.000   6.048  73.465  1.00  0.00    -0.261 F  
ENDBRANCH  18  20
ENDBRANCH  14  16
ENDBRANCH   8  10
ENDBRANCH   5   8
TORSDOF 4
ENDMDL
MODEL      208
REMARK 921   NORMALIZED FREE ENERGY PREDICTED BY IDOCK:   -0.93 KCAL/MOL
REMARK 922        TOTAL FREE ENERGY PREDICTED BY IDOCK:   -1.50 KCAL/MOL
REMARK 923 INTER-LIGAND FREE ENERGY PREDICTED BY IDOCK:   -1.88 KCAL/MOL
REMARK 924 INTRA-LIGAND FREE ENERGY PREDICTED BY IDOCK:    0.38 KCAL/MOL
REMARK 927      BINDING AFFINITY PREDICTED BY RF-SCORE:    0.00 PKD
ROOT
HETATM    1  C   UNL     1     -11.601  10.502  66.069  1.00  0.00     1.476 C  
HETATM    2  N   UNL     1     -10.149  10.601  66.182  1.00  0.00    -0.240 NA 
HETATM    3  C   UNL     1      -9.670  11.983  66.044  1.00  0.00    -0.239 C  
HETATM    4  C   UNL     1      -9.890  12.863  67.283  1.00  0.00    -0.218 C  
HETATM    5  C   UNL     1      -9.345  12.212  68.566  1.00  0.00    -0.108 C  
HETATM    6  C   UNL     1      -9.917  10.793  68.672  1.00  0.00    -0.189 C  
HETATM    7  C   UNL     1      -9.645   9.978  67.410  1.00  0.00    -0.154 C  
ENDROOT
BRANCH   5   8
HETATM    8  C   UNL     1      -7.807  12.270  68.608  1.00  0.00    -0.063 C  
HETATM    9  O   UNL     1      -7.153  13.074  67.943  1.00  0.00    -0.097 OA 
BRANCH   8  10
HETATM   10  C   UNL     1      -7.073  11.364  69.539  1.00  0.00    -0.019 A  
HETATM   11  C   UNL     1      -5.815  11.705  70.013  1.00  0.00    -0.141 A  
HETATM   12  C   UNL     1      -5.182  10.821  70.880  1.00  0.00    -0.105 A  
HETATM   13  C   UNL     1      -5.822   9.633  71.231  1.00  0.00    -0.068 A  
HETATM   14  C   UNL     1      -7.083   9.367  70.708  1.00  0.00    -0.114 A  
HETATM   15  N   UNL     1      -7.703  10.227  69.889  1.00  0.00    -0.158 NA 
BRANCH  14  16
HETATM   16  N   UNL     1      -7.711   8.162  71.056  1.00  0.00    -0.083 N  
HETATM   17  H   UNL     1      -8.525   8.208  71.668  1.00  0.00     0.000 HD 
HETATM   18  C   UNL     1      -7.297   6.912  70.621  1.00  0.00    -0.074 C  
HETATM   19  O   UNL     1      -6.329   6.698  69.899  1.00  0.00    -0.036 OA 
BRANCH  18  20
HETATM   20  C   UNL     1      -8.103   5.741  71.069  1.00  0.00    -0.120 A  
HETATM   21  C   UNL     1      -7.676   4.873  72.079  1.00  0.00    -0.100 A  
HETATM   22  C   UNL     1      -8.457   3.797  72.495  1.00  0.00    -0.092 A  
HETATM   23  F   UNL     1      -6.491   5.051  72.687  1.00  0.00    -0.036 F  
HETATM   24  C   UNL     1      -9.686   3.580  71.891  1.00  0.00    -0.164 A  
HETATM   25  C   UNL     1     -10.142   4.413  70.883  1.00  0.00    -0.199 A  
HETATM   26  F   UNL     1     -10.445   2.551  72.290  1.00  0.00    -0.232 F  
HETATM   27  C   UNL     1      -9.349   5.486  70.477  1.00  0.00    -0.157 A  
HETATM   28  F   UNL     1      -9.836   6.256  69.494  1.00  0.00    -0.152 F  
ENDBRANCH  18  20
ENDBRANCH  14  16
ENDBRANCH   8  10
ENDBRANCH   5   8
TORSDOF 4
ENDMDL
MODEL      209
REMARK 921   NORMALIZED FREE ENERGY PREDICTED BY IDOCK:   -0.62 KCAL/MOL
REMARK 922        TOTAL FREE ENERGY PREDICTED BY IDOCK:   -1.12 KCAL/MOL
REMARK 923 INTER-LIGAND FREE ENERGY PREDICTED BY IDOCK:   -3.74 KCAL/MOL
REMARK 924 INTRA-LIGAND FREE ENERGY PREDICTED BY IDOCK:    2.62 KCAL/MOL
REMARK 927      BINDING AFFINITY PREDICTED BY RF-SCORE:    0.00 PKD
ROOT
HETATM    1  C   UNL     1      -5.252  13.024  68.965  1.00  0.00    -0.068 C  
HETATM    2  N   UNL     1      -6.344  12.147  69.376  1.00  0.00    -0.107 NA 
HETATM    3  C   UNL     1      -6.332  10.865  68.657  1.00  0.00    -0.050 C  
HETATM    4  C   UNL     1      -5.267   9.870  69.142  1.00  0.00    -0.036 C  
HETATM    5  C   UNL     1      -5.319   9.653  70.664  1.00  0.00    -0.045 C  
HETATM    6  C   UNL     1      -5.283  11.023  71.351  1.00  0.00    -0.036 C  
HETATM    7  C   UNL     1      -6.380  11.947  70.828  1.00  0.00     0.774 C  
ENDROOT
BRANCH   5   8
HETATM    8  C   UNL     1      -6.529   8.787  71.060  1.00  0.00    -0.056 C  
HETATM    9  O   UNL     1      -6.838   8.574  72.233  1.00  0.00    -0.093 OA 
BRANCH   8  10
HETATM   10  C   UNL     1      -7.406   8.233  69.989  1.00  0.00    -0.063 A  
HETATM   11  C   UNL     1      -7.663   6.873  69.918  1.00  0.00    -0.109 A  
HETATM   12  C   UNL     1      -8.492   6.416  68.898  1.00  0.00    -0.121 A  
HETATM   13  C   UNL     1      -9.021   7.331  67.988  1.00  0.00    -0.131 A  
HETATM   14  C   UNL     1      -8.710   8.680  68.130  1.00  0.00    -0.142 A  
HETATM   15  N   UNL     1      -7.929   9.123  69.124  1.00  0.00    -0.095 NA 
BRANCH  14  16
HETATM   16  N   UNL     1      -9.235   9.589  67.200  1.00  0.00    -0.133 N  
HETATM   17  H   UNL     1      -9.167   9.352  66.211  1.00  0.00     0.000 HD 
HETATM   18  C   UNL     1      -9.841  10.789  67.538  1.00  0.00    -0.172 C  
HETATM   19  O   UNL     1      -9.980  11.216  68.680  1.00  0.00    -0.193 OA 
BRANCH  18  20
HETATM   20  C   UNL     1     -10.369  11.619  66.417  1.00  0.00    -0.266 A  
HETATM   21  C   UNL     1     -10.254  11.235  65.077  1.00  0.00    -0.284 A  
HETATM   22  C   UNL     1     -10.774  12.017  64.048  1.00  0.00    -0.426 A  
HETATM   23  F   UNL     1      -9.636  10.092  64.736  1.00  0.00    -0.271 F  
HETATM   24  C   UNL     1     -11.419  13.204  64.359  1.00  0.00    -0.366 A  
HETATM   25  C   UNL     1     -11.548  13.621  65.673  1.00  0.00    -0.342 A  
HETATM   26  F   UNL     1     -11.926  13.958  63.375  1.00  0.00    -0.387 F  
HETATM   27  C   UNL     1     -11.022  12.828  66.694  1.00  0.00    -0.270 A  
HETATM   28  F   UNL     1     -11.170  13.282  67.946  1.00  0.00    -0.253 F  
ENDBRANCH  18  20
ENDBRANCH  14  16
ENDBRANCH   8  10
ENDBRANCH   5   8
TORSDOF 4
ENDMDL
MODEL      210
REMARK 921   NORMALIZED FREE ENERGY PREDICTED BY IDOCK:   -0.30 KCAL/MOL
REMARK 922        TOTAL FREE ENERGY PREDICTED BY IDOCK:   -0.72 KCAL/MOL
REMARK 923 INTER-LIGAND FREE ENERGY PREDICTED BY IDOCK:   -1.39 KCAL/MOL
REMARK 924 INTRA-LIGAND FREE ENERGY PREDICTED BY IDOCK:    0.67 KCAL/MOL
REMARK 927      BINDING AFFINITY PREDICTED BY RF-SCORE:    0.00 PKD
ROOT
HETATM    1  C   UNL     1     -11.175   3.351  63.875  1.00  0.00     0.389 C  
HETATM    2  N   UNL     1      -9.741   3.449  64.129  1.00  0.00    -0.153 NA 
HETATM    3  C   UNL     1      -9.390   4.653  64.896  1.00  0.00    -0.123 C  
HETATM    4  C   UNL     1      -9.714   4.574  66.395  1.00  0.00    -0.218 C  
HETATM    5  C   UNL     1      -9.135   3.308  67.052  1.00  0.00    -0.196 C  
HETATM    6  C   UNL     1      -9.575   2.091  66.231  1.00  0.00     0.390 C  
HETATM    7  C   UNL     1      -9.204   2.238  64.757  1.00  0.00    -0.131 C  
ENDROOT
BRANCH   5   8
HETATM    8  C   UNL     1      -7.611   3.423  67.231  1.00  0.00    -0.078 C  
HETATM    9  O   UNL     1      -6.812   2.733  66.596  1.00  0.00    -0.046 OA 
BRANCH   8  10
HETATM   10  C   UNL     1      -7.066   4.455  68.161  1.00  0.00    -0.060 A  
HETATM   11  C   UNL     1      -6.258   4.090  69.227  1.00  0.00    -0.028 A  
HETATM   12  C   UNL     1      -5.778   5.098  70.057  1.00  0.00    -0.016 A  
HETATM   13  C   UNL     1      -6.129   6.422  69.797  1.00  0.00    -0.026 A  
HETATM   14  C   UNL     1      -6.947   6.700  68.706  1.00  0.00    -0.080 A  
HETATM   15  N   UNL     1      -7.394   5.734  67.894  1.00  0.00    -0.076 NA 
BRANCH  14  16
HETATM   16  N   UNL     1      -7.307   8.034  68.463  1.00  0.00    -0.095 N  
HETATM   17  H   UNL     1      -6.823   8.530  67.715  1.00  0.00     0.000 HD 
HETATM   18  C   UNL     1      -8.277   8.723  69.174  1.00  0.00    -0.119 C  
HETATM   19  O   UNL     1      -8.927   8.268  70.109  1.00  0.00    -0.139 OA 
BRANCH  18  20
HETATM   20  C   UNL     1      -8.548  10.129  68.758  1.00  0.00    -0.133 A  
HETATM   21  C   UNL     1      -9.440  10.959  69.443  1.00  0.00     0.063 A  
HETATM   22  C   UNL     1      -9.661  12.277  69.047  1.00  0.00     0.308 A  
HETATM   23  F   UNL     1     -10.117  10.512  70.514  1.00  0.00    -0.101 F  
HETATM   24  C   UNL     1      -8.981  12.776  67.947  1.00  0.00    -0.186 A  
HETATM   25  C   UNL     1      -8.093  11.983  67.239  1.00  0.00    -0.174 A  
HETATM   26  F   UNL     1      -9.183  14.044  67.565  1.00  0.00    -0.175 F  
HETATM   27  C   UNL     1      -7.883  10.666  67.647  1.00  0.00    -0.105 A  
HETATM   28  F   UNL     1      -7.018   9.942  66.922  1.00  0.00    -0.083 F  
ENDBRANCH  18  20
ENDBRANCH  14  16
ENDBRANCH   8  10
ENDBRANCH   5   8
TORSDOF 4
ENDMDL
MODEL      211
REMARK 921   NORMALIZED FREE ENERGY PREDICTED BY IDOCK:   -0.27 KCAL/MOL
REMARK 922        TOTAL FREE ENERGY PREDICTED BY IDOCK:   -0.69 KCAL/MOL
REMARK 923 INTER-LIGAND FREE ENERGY PREDICTED BY IDOCK:   -1.77 KCAL/MOL
REMARK 924 INTRA-LIGAND FREE ENERGY PREDICTED BY IDOCK:    1.07 KCAL/MOL
REMARK 927      BINDING AFFINITY PREDICTED BY RF-SCORE:    0.00 PKD
ROOT
HETATM    1  C   UNL     1      -5.217   9.943  70.448  1.00  0.00    -0.042 C  
HETATM    2  N   UNL     1      -6.177   9.798  69.358  1.00  0.00    -0.043 NA 
HETATM    3  C   UNL     1      -7.506  10.316  69.710  1.00  0.00    -0.165 C  
HETATM    4  C   UNL     1      -7.622  11.847  69.692  1.00  0.00     0.673 C  
HETATM    5  C   UNL     1      -7.121  12.455  68.371  1.00  0.00    -0.106 C  
HETATM    6  C   UNL     1      -5.717  11.911  68.086  1.00  0.00    -0.048 C  
HETATM    7  C   UNL     1      -5.688  10.385  68.106  1.00  0.00    -0.040 C  
ENDROOT
BRANCH   5   8
HETATM    8  C   UNL     1      -8.128  12.213  67.231  1.00  0.00    -0.176 C  
HETATM    9  O   UNL     1      -7.979  12.681  66.102  1.00  0.00     0.644 OA 
BRANCH   8  10
HETATM   10  C   UNL     1      -9.299  11.323  67.477  1.00  0.00    -0.162 A  
HETATM   11  C   UNL     1     -10.571  11.854  67.629  1.00  0.00    -0.241 A  
HETATM   12  C   UNL     1     -11.625  10.973  67.852  1.00  0.00    -0.306 A  
HETATM   13  C   UNL     1     -11.366   9.604  67.923  1.00  0.00     0.241 A  
HETATM   14  C   UNL     1     -10.059   9.156  67.761  1.00  0.00    -0.203 A  
HETATM   15  N   UNL     1      -9.047  10.001  67.526  1.00  0.00    -0.134 NA 
BRANCH  14  16
HETATM   16  N   UNL     1      -9.808   7.779  67.849  1.00  0.00    -0.154 N  
HETATM   17  H   UNL     1      -9.105   7.381  67.227  1.00  0.00     0.000 HD 
HETATM   18  C   UNL     1     -10.455   6.923  68.727  1.00  0.00    -0.205 C  
HETATM   19  O   UNL     1     -11.332   7.250  69.520  1.00  0.00    -0.098 OA 
BRANCH  18  20
HETATM   20  C   UNL     1     -10.039   5.491  68.703  1.00  0.00    -0.246 A  
HETATM   21  C   UNL     1      -9.462   4.854  69.806  1.00  0.00    -0.154 A  
HETATM   22  C   UNL     1      -9.102   3.509  69.765  1.00  0.00    -0.196 A  
HETATM   23  F   UNL     1      -9.236   5.522  70.949  1.00  0.00    -0.147 F  
HETATM   24  C   UNL     1      -9.318   2.785  68.602  1.00  0.00    -0.176 A  
HETATM   25  C   UNL     1      -9.882   3.381  67.487  1.00  0.00     0.158 A  
HETATM   26  F   UNL     1      -8.980   1.490  68.558  1.00  0.00    -0.097 F  
HETATM   27  C   UNL     1     -10.238   4.729  67.542  1.00  0.00    -0.057 A  
HETATM   28  F   UNL     1     -10.773   5.256  66.433  1.00  0.00    -0.287 F  
ENDBRANCH  18  20
ENDBRANCH  14  16
ENDBRANCH   8  10
ENDBRANCH   5   8
TORSDOF 4
ENDMDL
MODEL      212
REMARK 921   NORMALIZED FREE ENERGY PREDICTED BY IDOCK:   -0.03 KCAL/MOL
REMARK 922        TOTAL FREE ENERGY PREDICTED BY IDOCK:   -0.39 KCAL/MOL
REMARK 923 INTER-LIGAND FREE ENERGY PREDICTED BY IDOCK:   -1.34 KCAL/MOL
REMARK 924 INTRA-LIGAND FREE ENERGY PREDICTED BY IDOCK:    0.95 KCAL/MOL
REMARK 927      BINDING AFFINITY PREDICTED BY RF-SCORE:    0.00 PKD
ROOT
HETATM    1  C   UNL     1      -5.217   9.943  70.448  1.00  0.00    -0.042 C  
HETATM    2  N   UNL     1      -6.173   9.819  69.352  1.00  0.00    -0.043 NA 
HETATM    3  C   UNL     1      -7.498  10.349  69.704  1.00  0.00    -0.157 C  
HETATM    4  C   UNL     1      -7.596  11.882  69.699  1.00  0.00     0.673 C  
HETATM    5  C   UNL     1      -7.083  12.496  68.385  1.00  0.00    -0.107 C  
HETATM    6  C   UNL     1      -5.683  11.937  68.102  1.00  0.00    -0.048 C  
HETATM    7  C   UNL     1      -5.672  10.411  68.108  1.00  0.00    -0.040 C  
ENDROOT
BRANCH   5   8
HETATM    8  C   UNL     1      -8.087  12.276  67.239  1.00  0.00    -0.182 C  
HETATM    9  O   UNL     1      -7.928  12.752  66.114  1.00  0.00     0.748 OA 
BRANCH   8  10
HETATM   10  C   UNL     1      -9.270  11.397  67.471  1.00  0.00    -0.160 A  
HETATM   11  C   UNL     1     -10.536  11.941  67.623  1.00  0.00    -0.241 A  
HETATM   12  C   UNL     1     -11.601  11.070  67.834  1.00  0.00    -0.306 A  
HETATM   13  C   UNL     1     -11.358   9.698  67.894  1.00  0.00     0.241 A  
HETATM   14  C   UNL     1     -10.056   9.237  67.733  1.00  0.00    -0.204 A  
HETATM   15  N   UNL     1      -9.033  10.072  67.510  1.00  0.00    -0.134 NA 
BRANCH  14  16
HETATM   16  N   UNL     1      -9.821   7.855  67.810  1.00  0.00    -0.155 N  
HETATM   17  H   UNL     1     -10.373   7.315  68.476  1.00  0.00     0.000 HD 
HETATM   18  C   UNL     1      -8.889   7.178  67.040  1.00  0.00    -0.124 C  
HETATM   19  O   UNL     1      -8.143   7.693  66.214  1.00  0.00    -0.103 OA 
BRANCH  18  20
HETATM   20  C   UNL     1      -8.796   5.702  67.236  1.00  0.00    -0.106 A  
HETATM   21  C   UNL     1      -9.079   4.787  66.217  1.00  0.00    -0.122 A  
HETATM   22  C   UNL     1      -8.965   3.413  66.419  1.00  0.00    -0.153 A  
HETATM   23  F   UNL     1      -9.472   5.205  65.002  1.00  0.00    -0.144 F  
HETATM   24  C   UNL     1      -8.563   2.943  67.659  1.00  0.00    -0.099 A  
HETATM   25  C   UNL     1      -8.279   3.816  68.695  1.00  0.00    -0.084 A  
HETATM   26  F   UNL     1      -8.444   1.623  67.858  1.00  0.00    -0.064 F  
HETATM   27  C   UNL     1      -8.398   5.190  68.479  1.00  0.00    -0.089 A  
HETATM   28  F   UNL     1      -8.118   5.989  69.517  1.00  0.00    -0.099 F  
ENDBRANCH  18  20
ENDBRANCH  14  16
ENDBRANCH   8  10
ENDBRANCH   5   8
TORSDOF 4
ENDMDL
MODEL      213
REMARK 921   NORMALIZED FREE ENERGY PREDICTED BY IDOCK:    0.58 KCAL/MOL
REMARK 922        TOTAL FREE ENERGY PREDICTED BY IDOCK:    0.36 KCAL/MOL
REMARK 923 INTER-LIGAND FREE ENERGY PREDICTED BY IDOCK:   -0.72 KCAL/MOL
REMARK 924 INTRA-LIGAND FREE ENERGY PREDICTED BY IDOCK:    1.09 KCAL/MOL
REMARK 927      BINDING AFFINITY PREDICTED BY RF-SCORE:    0.00 PKD
ROOT
HETATM    1  C   UNL     1      -5.131  13.314  72.308  1.00  0.00    -0.082 C  
HETATM    2  N   UNL     1      -6.370  13.391  71.541  1.00  0.00     0.398 NA 
HETATM    3  C   UNL     1      -6.527  14.684  70.861  1.00  0.00     0.185 C  
HETATM    4  C   UNL     1      -5.665  14.854  69.602  1.00  0.00    -0.100 C  
HETATM    5  C   UNL     1      -5.831  13.684  68.617  1.00  0.00    -0.086 C  
HETATM    6  C   UNL     1      -5.610  12.372  69.379  1.00  0.00    -0.079 C  
HETATM    7  C   UNL     1      -6.514  12.271  70.605  1.00  0.00     0.906 C  
ENDROOT
BRANCH   5   8
HETATM    8  C   UNL     1      -7.184  13.761  67.886  1.00  0.00    -0.154 C  
HETATM    9  O   UNL     1      -7.745  14.829  67.637  1.00  0.00    -0.149 OA 
BRANCH   8  10
HETATM   10  C   UNL     1      -7.817  12.502  67.397  1.00  0.00    -0.175 A  
HETATM   11  C   UNL     1      -8.304  12.412  66.102  1.00  0.00     0.475 A  
HETATM   12  C   UNL     1      -8.881  11.211  65.703  1.00  0.00    -0.165 A  
HETATM   13  C   UNL     1      -8.957  10.155  66.612  1.00  0.00    -0.156 A  
HETATM   14  C   UNL     1      -8.446  10.332  67.894  1.00  0.00    -0.118 A  
HETATM   15  N   UNL     1      -7.872  11.481  68.273  1.00  0.00    -0.130 NA 
BRANCH  14  16
HETATM   16  N   UNL     1      -8.541   9.269  68.804  1.00  0.00    -0.129 N  
HETATM   17  H   UNL     1      -9.402   9.178  69.343  1.00  0.00     0.000 HD 
HETATM   18  C   UNL     1      -7.542   8.332  69.019  1.00  0.00    -0.089 C  
HETATM   19  O   UNL     1      -6.450   8.322  68.461  1.00  0.00    -0.052 OA 
BRANCH  18  20
HETATM   20  C   UNL     1      -7.829   7.252  70.006  1.00  0.00    -0.111 A  
HETATM   21  C   UNL     1      -6.829   6.643  70.769  1.00  0.00    -0.063 A  
HETATM   22  C   UNL     1      -7.126   5.650  71.701  1.00  0.00    -0.080 A  
HETATM   23  F   UNL     1      -5.541   6.998  70.630  1.00  0.00    -0.022 F  
HETATM   24  C   UNL     1      -8.443   5.256  71.873  1.00  0.00    -0.126 A  
HETATM   25  C   UNL     1      -9.462   5.831  71.132  1.00  0.00    -0.185 A  
HETATM   26  F   UNL     1      -8.737   4.306  72.771  1.00  0.00    -0.100 F  
HETATM   27  C   UNL     1      -9.150   6.824  70.203  1.00  0.00    -0.155 A  
HETATM   28  F   UNL     1     -10.173   7.342  69.508  1.00  0.00    -0.180 F  
ENDBRANCH  18  20
ENDBRANCH  14  16
ENDBRANCH   8  10
ENDBRANCH   5   8
TORSDOF 4
ENDMDL
MODEL      214
REMARK 921   NORMALIZED FREE ENERGY PREDICTED BY IDOCK:    1.40 KCAL/MOL
REMARK 922        TOTAL FREE ENERGY PREDICTED BY IDOCK:    1.37 KCAL/MOL
REMARK 923 INTER-LIGAND FREE ENERGY PREDICTED BY IDOCK:   -2.32 KCAL/MOL
REMARK 924 INTRA-LIGAND FREE ENERGY PREDICTED BY IDOCK:    3.69 KCAL/MOL
REMARK 927      BINDING AFFINITY PREDICTED BY RF-SCORE:    0.00 PKD
ROOT
HETATM    1  C   UNL     1     -12.588  12.216  71.053  1.00  0.00    -0.263 C  
HETATM    2  N   UNL     1     -12.001  11.801  69.784  1.00  0.00    -0.324 NA 
HETATM    3  C   UNL     1     -10.532  11.780  69.827  1.00  0.00     0.659 C  
HETATM    4  C   UNL     1      -9.931  10.578  70.570  1.00  0.00     0.781 C  
HETATM    5  C   UNL     1     -10.491   9.238  70.062  1.00  0.00    -0.254 C  
HETATM    6  C   UNL     1     -12.022   9.311  70.085  1.00  0.00     0.164 C  
HETATM    7  C   UNL     1     -12.542  10.522  69.313  1.00  0.00     0.544 C  
ENDROOT
BRANCH   5   8
HETATM    8  C   UNL     1      -9.903   8.876  68.686  1.00  0.00    -0.167 C  
HETATM    9  O   UNL     1      -9.393   7.781  68.447  1.00  0.00    -0.144 OA 
BRANCH   8  10
HETATM   10  C   UNL     1     -10.010   9.861  67.571  1.00  0.00    -0.185 A  
HETATM   11  C   UNL     1     -10.321   9.443  66.286  1.00  0.00    -0.211 A  
HETATM   12  C   UNL     1     -10.410  10.409  65.288  1.00  0.00    -0.267 A  
HETATM   13  C   UNL     1     -10.176  11.746  65.609  1.00  0.00    -0.284 A  
HETATM   14  C   UNL     1      -9.867  12.078  66.925  1.00  0.00    -0.204 A  
HETATM   15  N   UNL     1      -9.801  11.152  67.890  1.00  0.00    -0.170 NA 
BRANCH  14  16
HETATM   16  N   UNL     1      -9.619  13.424  67.233  1.00  0.00    -0.227 N  
HETATM   17  H   UNL     1     -10.398  13.986  67.576  1.00  0.00     0.000 HD 
HETATM   18  C   UNL     1      -8.384  14.040  67.102  1.00  0.00    -0.156 C  
HETATM   19  O   UNL     1      -7.364  13.500  66.688  1.00  0.00     0.523 OA 
BRANCH  18  20
HETATM   20  C   UNL     1      -8.298  15.473  67.506  1.00  0.00    -0.190 A  
HETATM   21  C   UNL     1      -7.691  15.886  68.695  1.00  0.00    -0.161 A  
HETATM   22  C   UNL     1      -7.605  17.234  69.040  1.00  0.00    -0.177 A  
HETATM   23  F   UNL     1      -7.167  14.993  69.550  1.00  0.00    -0.147 F  
HETATM   24  C   UNL     1      -8.135  18.186  68.184  1.00  0.00    -0.281 A  
HETATM   25  C   UNL     1      -8.749  17.817  67.000  1.00  0.00    -0.254 A  
HETATM   26  F   UNL     1      -8.050  19.484  68.507  1.00  0.00    -0.346 F  
HETATM   27  C   UNL     1      -8.829  16.464  66.668  1.00  0.00    -0.249 A  
HETATM   28  F   UNL     1      -9.439  16.162  65.513  1.00  0.00    -0.328 F  
ENDBRANCH  18  20
ENDBRANCH  14  16
ENDBRANCH   8  10
ENDBRANCH   5   8
TORSDOF 4
ENDMDL
MODEL      215
REMARK 921   NORMALIZED FREE ENERGY PREDICTED BY IDOCK:    1.71 KCAL/MOL
REMARK 922        TOTAL FREE ENERGY PREDICTED BY IDOCK:    1.76 KCAL/MOL
REMARK 923 INTER-LIGAND FREE ENERGY PREDICTED BY IDOCK:   -0.89 KCAL/MOL
REMARK 924 INTRA-LIGAND FREE ENERGY PREDICTED BY IDOCK:    2.65 KCAL/MOL
REMARK 927      BINDING AFFINITY PREDICTED BY RF-SCORE:    0.00 PKD
ROOT
HETATM    1  C   UNL     1     -11.605  11.264  66.025  1.00  0.00     0.384 C  
HETATM    2  N   UNL     1     -10.343  10.788  66.581  1.00  0.00    -0.233 NA 
HETATM    3  C   UNL     1      -9.272  10.742  65.576  1.00  0.00    -0.202 C  
HETATM    4  C   UNL     1      -8.670  12.109  65.219  1.00  0.00     0.810 C  
HETATM    5  C   UNL     1      -8.230  12.897  66.465  1.00  0.00     0.352 C  
HETATM    6  C   UNL     1      -9.405  12.945  67.449  1.00  0.00    -0.194 C  
HETATM    7  C   UNL     1      -9.935  11.549  67.765  1.00  0.00    -0.183 C  
ENDROOT
BRANCH   5   8
HETATM    8  C   UNL     1      -6.937  12.313  67.063  1.00  0.00    -0.033 C  
HETATM    9  O   UNL     1      -5.919  12.986  67.232  1.00  0.00    -0.319 OA 
BRANCH   8  10
HETATM   10  C   UNL     1      -6.927  10.894  67.522  1.00  0.00    -0.084 A  
HETATM   11  C   UNL     1      -5.932  10.023  67.104  1.00  0.00    -0.051 A  
HETATM   12  C   UNL     1      -5.975   8.712  67.568  1.00  0.00    -0.047 A  
HETATM   13  C   UNL     1      -7.009   8.322  68.419  1.00  0.00    -0.073 A  
HETATM   14  C   UNL     1      -7.968   9.260  68.787  1.00  0.00    -0.099 A  
HETATM   15  N   UNL     1      -7.918  10.527  68.357  1.00  0.00    -0.111 NA 
BRANCH  14  16
HETATM   16  N   UNL     1      -9.013   8.853  69.631  1.00  0.00    -0.143 N  
HETATM   17  H   UNL     1      -9.057   9.260  70.565  1.00  0.00     0.000 HD 
HETATM   18  C   UNL     1      -9.988   7.933  69.278  1.00  0.00    -0.190 C  
HETATM   19  O   UNL     1     -10.054   7.348  68.202  1.00  0.00    -0.166 OA 
BRANCH  18  20
HETATM   20  C   UNL     1     -11.039   7.641  70.294  1.00  0.00    -0.256 A  
HETATM   21  C   UNL     1     -11.051   6.464  71.049  1.00  0.00    -0.294 A  
HETATM   22  C   UNL     1     -12.034   6.223  72.008  1.00  0.00    -0.353 A  
HETATM   23  F   UNL     1     -10.111   5.521  70.875  1.00  0.00    -0.221 F  
HETATM   24  C   UNL     1     -13.022   7.172  72.217  1.00  0.00     0.104 A  
HETATM   25  C   UNL     1     -13.048   8.347  71.485  1.00  0.00    -0.316 A  
HETATM   26  F   UNL     1     -13.966   6.950  73.141  1.00  0.00     1.043 F  
HETATM   27  C   UNL     1     -12.059   8.575  70.528  1.00  0.00     0.140 A  
HETATM   28  F   UNL     1     -12.135   9.725  69.845  1.00  0.00    -0.156 F  
ENDBRANCH  18  20
ENDBRANCH  14  16
ENDBRANCH   8  10
ENDBRANCH   5   8
TORSDOF 4
ENDMDL
MODEL      216
REMARK 921   NORMALIZED FREE ENERGY PREDICTED BY IDOCK:    2.33 KCAL/MOL
REMARK 922        TOTAL FREE ENERGY PREDICTED BY IDOCK:    2.52 KCAL/MOL
REMARK 923 INTER-LIGAND FREE ENERGY PREDICTED BY IDOCK:    1.52 KCAL/MOL
REMARK 924 INTRA-LIGAND FREE ENERGY PREDICTED BY IDOCK:    1.00 KCAL/MOL
REMARK 927      BINDING AFFINITY PREDICTED BY RF-SCORE:    0.00 PKD
ROOT
HETATM    1  C   UNL     1     -11.072   5.186  64.511  1.00  0.00     1.765 C  
HETATM    2  N   UNL     1      -9.710   4.667  64.588  1.00  0.00    -0.033 NA 
HETATM    3  C   UNL     1      -8.926   5.312  65.651  1.00  0.00    -0.158 C  
HETATM    4  C   UNL     1      -9.257   4.832  67.071  1.00  0.00    -0.133 C  
HETATM    5  C   UNL     1      -9.208   3.300  67.197  1.00  0.00    -0.214 C  
HETATM    6  C   UNL     1     -10.079   2.693  66.091  1.00  0.00     1.180 C  
HETATM    7  C   UNL     1      -9.679   3.206  64.710  1.00  0.00    -0.105 C  
ENDROOT
BRANCH   5   8
HETATM    8  C   UNL     1      -7.756   2.789  67.198  1.00  0.00    -0.070 C  
HETATM    9  O   UNL     1      -7.292   2.099  66.289  1.00  0.00    -0.059 OA 
BRANCH   8  10
HETATM   10  C   UNL     1      -6.845   3.195  68.308  1.00  0.00    -0.049 A  
HETATM   11  C   UNL     1      -6.055   2.256  68.954  1.00  0.00    -0.025 A  
HETATM   12  C   UNL     1      -5.224   2.696  69.979  1.00  0.00    -0.008 A  
HETATM   13  C   UNL     1      -5.222   4.048  70.323  1.00  0.00    -0.004 A  
HETATM   14  C   UNL     1      -6.048   4.922  69.624  1.00  0.00    -0.022 A  
HETATM   15  N   UNL     1      -6.833   4.504  68.624  1.00  0.00    -0.050 NA 
BRANCH  14  16
HETATM   16  N   UNL     1      -6.049   6.277  69.989  1.00  0.00    -0.029 N  
HETATM   17  H   UNL     1      -5.807   6.512  70.951  1.00  0.00     0.000 HD 
HETATM   18  C   UNL     1      -6.357   7.318  69.126  1.00  0.00    -0.036 C  
HETATM   19  O   UNL     1      -6.683   7.190  67.951  1.00  0.00    -0.057 OA 
BRANCH  18  20
HETATM   20  C   UNL     1      -6.279   8.699  69.681  1.00  0.00    -0.036 A  
HETATM   21  C   UNL     1      -5.692   8.983  70.918  1.00  0.00    -0.039 A  
HETATM   22  C   UNL     1      -5.611  10.286  71.405  1.00  0.00     0.012 A  
HETATM   23  F   UNL     1      -5.182   8.003  71.682  1.00  0.00    -0.033 F  
HETATM   24  C   UNL     1      -6.127  11.325  70.646  1.00  0.00     0.012 A  
HETATM   25  C   UNL     1      -6.721  11.085  69.419  1.00  0.00    -0.112 A  
HETATM   26  F   UNL     1      -6.048  12.581  71.106  1.00  0.00    -0.040 F  
HETATM   27  C   UNL     1      -6.795   9.775  68.944  1.00  0.00    -0.054 A  
HETATM   28  F   UNL     1      -7.385   9.599  67.754  1.00  0.00    -0.083 F  
ENDBRANCH  18  20
ENDBRANCH  14  16
ENDBRANCH   8  10
ENDBRANCH   5   8
TORSDOF 4
ENDMDL
MODEL      217
REMARK 921   NORMALIZED FREE ENERGY PREDICTED BY IDOCK:    2.73 KCAL/MOL
REMARK 922        TOTAL FREE ENERGY PREDICTED BY IDOCK:    3.01 KCAL/MOL
REMARK 923 INTER-LIGAND FREE ENERGY PREDICTED BY IDOCK:    2.51 KCAL/MOL
REMARK 924 INTRA-LIGAND FREE ENERGY PREDICTED BY IDOCK:    0.50 KCAL/MOL
REMARK 927      BINDING AFFINITY PREDICTED BY RF-SCORE:    0.00 PKD
ROOT
HETATM    1  C   UNL     1      -8.983  16.123  64.923  1.00  0.00     3.026 C  
HETATM    2  N   UNL     1      -9.210  14.779  65.447  1.00  0.00     0.358 NA 
HETATM    3  C   UNL     1      -8.073  14.288  66.238  1.00  0.00     1.258 C  
HETATM    4  C   UNL     1      -7.968  14.888  67.648  1.00  0.00    -0.184 C  
HETATM    5  C   UNL     1      -9.286  14.767  68.433  1.00  0.00    -0.189 C  
HETATM    6  C   UNL     1     -10.419  15.336  67.572  1.00  0.00    -0.265 C  
HETATM    7  C   UNL     1     -10.467  14.680  66.195  1.00  0.00    -0.302 C  
ENDROOT
BRANCH   5   8
HETATM    8  C   UNL     1      -9.523  13.320  68.901  1.00  0.00     0.223 C  
HETATM    9  O   UNL     1     -10.650  12.844  69.049  1.00  0.00    -0.167 OA 
BRANCH   8  10
HETATM   10  C   UNL     1      -8.348  12.428  69.122  1.00  0.00     0.570 A  
HETATM   11  C   UNL     1      -7.080  12.960  69.300  1.00  0.00     0.104 A  
HETATM   12  C   UNL     1      -6.024  12.077  69.506  1.00  0.00    -0.100 A  
HETATM   13  C   UNL     1      -6.274  10.705  69.516  1.00  0.00    -0.059 A  
HETATM   14  C   UNL     1      -7.577  10.256  69.328  1.00  0.00    -0.125 A  
HETATM   15  N   UNL     1      -8.598  11.105  69.150  1.00  0.00    -0.020 NA 
BRANCH  14  16
HETATM   16  N   UNL     1      -7.814   8.873  69.325  1.00  0.00    -0.094 N  
HETATM   17  H   UNL     1      -7.207   8.286  68.753  1.00  0.00     0.000 HD 
HETATM   18  C   UNL     1      -8.820   8.252  70.049  1.00  0.00    -0.134 C  
HETATM   19  O   UNL     1      -9.636   8.825  70.763  1.00  0.00    -0.178 OA 
BRANCH  18  20
HETATM   20  C   UNL     1      -8.906   6.767  69.948  1.00  0.00    -0.141 A  
HETATM   21  C   UNL     1      -8.643   5.921  71.030  1.00  0.00    -0.131 A  
HETATM   22  C   UNL     1      -8.751   4.536  70.916  1.00  0.00    -0.131 A  
HETATM   23  F   UNL     1      -8.278   6.419  72.223  1.00  0.00    -0.106 F  
HETATM   24  C   UNL     1      -9.126   3.985  69.701  1.00  0.00    -0.121 A  
HETATM   25  C   UNL     1      -9.388   4.788  68.604  1.00  0.00    -0.187 A  
HETATM   26  F   UNL     1      -9.237   2.654  69.586  1.00  0.00    -0.146 F  
HETATM   27  C   UNL     1      -9.276   6.173  68.733  1.00  0.00    -0.124 A  
HETATM   28  F   UNL     1      -9.536   6.902  67.639  1.00  0.00    -0.126 F  
ENDBRANCH  18  20
ENDBRANCH  14  16
ENDBRANCH   8  10
ENDBRANCH   5   8
TORSDOF 4
ENDMDL
MODEL      218
REMARK 921   NORMALIZED FREE ENERGY PREDICTED BY IDOCK:    3.61 KCAL/MOL
REMARK 922        TOTAL FREE ENERGY PREDICTED BY IDOCK:    4.10 KCAL/MOL
REMARK 923 INTER-LIGAND FREE ENERGY PREDICTED BY IDOCK:    4.45 KCAL/MOL
REMARK 924 INTRA-LIGAND FREE ENERGY PREDICTED BY IDOCK:   -0.35 KCAL/MOL
REMARK 927      BINDING AFFINITY PREDICTED BY RF-SCORE:    0.00 PKD
ROOT
HETATM    1  C   UNL     1      -5.125  12.953  73.278  1.00  0.00     0.198 C  
HETATM    2  N   UNL     1      -6.396  13.322  72.662  1.00  0.00     1.634 NA 
HETATM    3  C   UNL     1      -6.423  14.727  72.235  1.00  0.00     1.329 C  
HETATM    4  C   UNL     1      -5.642  15.019  70.945  1.00  0.00    -0.092 C  
HETATM    5  C   UNL     1      -6.043  14.080  69.794  1.00  0.00    -0.129 C  
HETATM    6  C   UNL     1      -5.950  12.633  70.292  1.00  0.00    -0.122 C  
HETATM    7  C   UNL     1      -6.764  12.420  71.566  1.00  0.00     4.106 C  
ENDROOT
BRANCH   5   8
HETATM    8  C   UNL     1      -7.423  14.456  69.225  1.00  0.00    -0.060 C  
HETATM    9  O   UNL     1      -7.971  15.533  69.465  1.00  0.00    -0.228 OA 
BRANCH   8  10
HETATM   10  C   UNL     1      -8.104  13.514  68.290  1.00  0.00    -0.155 A  
HETATM   11  C   UNL     1      -8.312  13.860  66.964  1.00  0.00    -0.113 A  
HETATM   12  C   UNL     1      -8.950  12.937  66.141  1.00  0.00     0.162 A  
HETATM   13  C   UNL     1      -9.360  11.716  66.674  1.00  0.00    -0.203 A  
HETATM   14  C   UNL     1      -9.113  11.450  68.017  1.00  0.00    -0.171 A  
HETATM   15  N   UNL     1      -8.482  12.328  68.806  1.00  0.00     0.032 NA 
BRANCH  14  16
HETATM   16  N   UNL     1      -9.544  10.224  68.546  1.00  0.00    -0.156 N  
HETATM   17  H   UNL     1     -10.507  10.159  68.875  1.00  0.00     0.000 HD 
HETATM   18  C   UNL     1      -8.746   9.095  68.651  1.00  0.00    -0.129 C  
HETATM   19  O   UNL     1      -7.569   9.027  68.316  1.00  0.00    -0.089 OA 
BRANCH  18  20
HETATM   20  C   UNL     1      -9.382   7.870  69.214  1.00  0.00    -0.148 A  
HETATM   21  C   UNL     1     -10.260   7.069  68.476  1.00  0.00    -0.172 A  
HETATM   22  C   UNL     1     -10.825   5.916  69.017  1.00  0.00    -0.383 A  
HETATM   23  F   UNL     1     -10.588   7.387  67.213  1.00  0.00    -0.286 F  
HETATM   24  C   UNL     1     -10.511   5.555  70.318  1.00  0.00    -0.295 A  
HETATM   25  C   UNL     1      -9.651   6.325  71.083  1.00  0.00    -0.190 A  
HETATM   26  F   UNL     1     -11.045   4.445  70.843  1.00  0.00     0.359 F  
HETATM   27  C   UNL     1      -9.092   7.477  70.528  1.00  0.00    -0.156 A  
HETATM   28  F   UNL     1      -8.272   8.187  71.315  1.00  0.00    -0.092 F  
ENDBRANCH  18  20
ENDBRANCH  14  16
ENDBRANCH   8  10
ENDBRANCH   5   8
TORSDOF 4
ENDMDL
MODEL      219
REMARK 921   NORMALIZED FREE ENERGY PREDICTED BY IDOCK:    3.64 KCAL/MOL
REMARK 922        TOTAL FREE ENERGY PREDICTED BY IDOCK:    4.14 KCAL/MOL
REMARK 923 INTER-LIGAND FREE ENERGY PREDICTED BY IDOCK:   -1.29 KCAL/MOL
REMARK 924 INTRA-LIGAND FREE ENERGY PREDICTED BY IDOCK:    5.44 KCAL/MOL
REMARK 927      BINDING AFFINITY PREDICTED BY RF-SCORE:    0.00 PKD
ROOT
HETATM    1  C   UNL     1      -5.423  13.044  69.189  1.00  0.00    -0.071 C  
HETATM    2  N   UNL     1      -6.680  12.451  69.633  1.00  0.00    -0.006 NA 
HETATM    3  C   UNL     1      -7.090  11.316  68.795  1.00  0.00    -0.096 C  
HETATM    4  C   UNL     1      -6.314  10.017  69.052  1.00  0.00    -0.044 C  
HETATM    5  C   UNL     1      -6.299   9.630  70.541  1.00  0.00    -0.088 C  
HETATM    6  C   UNL     1      -5.820  10.840  71.352  1.00  0.00     0.276 C  
HETATM    7  C   UNL     1      -6.650  12.085  71.053  1.00  0.00     2.095 C  
ENDROOT
BRANCH   5   8
HETATM    8  C   UNL     1      -7.667   9.081  70.986  1.00  0.00    -0.125 C  
HETATM    9  O   UNL     1      -7.785   8.206  71.844  1.00  0.00    -0.089 OA 
BRANCH   8  10
HETATM   10  C   UNL     1      -8.908   9.673  70.408  1.00  0.00    -0.178 A  
HETATM   11  C   UNL     1     -10.071   8.924  70.312  1.00  0.00    -0.218 A  
HETATM   12  C   UNL     1     -11.197   9.532  69.767  1.00  0.00    -0.173 A  
HETATM   13  C   UNL     1     -11.116  10.855  69.333  1.00  0.00    -0.317 A  
HETATM   14  C   UNL     1      -9.908  11.534  69.464  1.00  0.00     0.593 A  
HETATM   15  N   UNL     1      -8.829  10.956  70.007  1.00  0.00     0.818 NA 
BRANCH  14  16
HETATM   16  N   UNL     1      -9.834  12.859  69.010  1.00  0.00    -0.387 N  
HETATM   17  H   UNL     1      -9.074  13.442  69.362  1.00  0.00     0.000 HD 
HETATM   18  C   UNL     1     -10.725  13.428  68.114  1.00  0.00    -0.253 C  
HETATM   19  O   UNL     1     -11.694  12.860  67.620  1.00  0.00    -0.338 OA 
BRANCH  18  20
HETATM   20  C   UNL     1     -10.474  14.844  67.720  1.00  0.00    -0.255 A  
HETATM   21  C   UNL     1     -10.690  15.918  68.589  1.00  0.00    -0.274 A  
HETATM   22  C   UNL     1     -10.428  17.232  68.205  1.00  0.00    -0.382 A  
HETATM   23  F   UNL     1     -11.159  15.718  69.832  1.00  0.00    -0.233 F  
HETATM   24  C   UNL     1      -9.943  17.479  66.930  1.00  0.00    -0.313 A  
HETATM   25  C   UNL     1      -9.722  16.444  66.038  1.00  0.00    -0.356 A  
HETATM   26  F   UNL     1      -9.683  18.739  66.556  1.00  0.00    -0.298 F  
HETATM   27  C   UNL     1      -9.989  15.134  66.436  1.00  0.00    -0.272 A  
HETATM   28  F   UNL     1      -9.762  14.171  65.532  1.00  0.00    -0.309 F  
ENDBRANCH  18  20
ENDBRANCH  14  16
ENDBRANCH   8  10
ENDBRANCH   5   8
TORSDOF 4
ENDMDL
MODEL      220
REMARK 921   NORMALIZED FREE ENERGY PREDICTED BY IDOCK:    5.18 KCAL/MOL
REMARK 922        TOTAL FREE ENERGY PREDICTED BY IDOCK:    6.04 KCAL/MOL
REMARK 923 INTER-LIGAND FREE ENERGY PREDICTED BY IDOCK:    2.43 KCAL/MOL
REMARK 924 INTRA-LIGAND FREE ENERGY PREDICTED BY IDOCK:    3.60 KCAL/MOL
REMARK 927      BINDING AFFINITY PREDICTED BY RF-SCORE:    0.00 PKD
ROOT
HETATM    1  C   UNL     1     -12.331  13.566  70.745  1.00  0.00    -0.363 C  
HETATM    2  N   UNL     1     -12.406  12.258  70.102  1.00  0.00    -0.193 NA 
HETATM    3  C   UNL     1     -11.185  11.465  70.302  1.00  0.00     0.123 C  
HETATM    4  C   UNL     1     -11.050  10.841  71.698  1.00  0.00     2.215 C  
HETATM    5  C   UNL     1     -12.302  10.045  72.107  1.00  0.00    -0.070 C  
HETATM    6  C   UNL     1     -13.531  10.943  71.917  1.00  0.00    -0.306 C  
HETATM    7  C   UNL     1     -13.603  11.511  70.502  1.00  0.00     1.568 C  
ENDROOT
BRANCH   5   8
HETATM    8  C   UNL     1     -12.382   8.708  71.349  1.00  0.00    -0.304 C  
HETATM    9  O   UNL     1     -13.289   7.894  71.530  1.00  0.00    -0.334 OA 
BRANCH   8  10
HETATM   10  C   UNL     1     -11.363   8.405  70.303  1.00  0.00    -0.129 A  
HETATM   11  C   UNL     1     -11.216   7.117  69.810  1.00  0.00    -0.206 A  
HETATM   12  C   UNL     1     -10.250   6.898  68.833  1.00  0.00    -0.184 A  
HETATM   13  C   UNL     1      -9.466   7.966  68.396  1.00  0.00    -0.150 A  
HETATM   14  C   UNL     1      -9.678   9.226  68.946  1.00  0.00    -0.161 A  
HETATM   15  N   UNL     1     -10.621   9.443  69.872  1.00  0.00    -0.222 NA 
BRANCH  14  16
HETATM   16  N   UNL     1      -8.874  10.290  68.510  1.00  0.00    -0.122 N  
HETATM   17  H   UNL     1      -9.006  10.628  67.557  1.00  0.00     0.000 HD 
HETATM   18  C   UNL     1      -7.911  10.911  69.290  1.00  0.00    -0.070 C  
HETATM   19  O   UNL     1      -7.628  10.605  70.443  1.00  0.00     0.012 OA 
BRANCH  18  20
HETATM   20  C   UNL     1      -7.170  12.046  68.669  1.00  0.00    -0.110 A  
HETATM   21  C   UNL     1      -6.151  11.857  67.730  1.00  0.00    -0.067 A  
HETATM   22  C   UNL     1      -5.486  12.935  67.148  1.00  0.00     0.223 A  
HETATM   23  F   UNL     1      -5.777  10.623  67.355  1.00  0.00    -0.043 F  
HETATM   24  C   UNL     1      -5.843  14.225  67.510  1.00  0.00     0.136 A  
HETATM   25  C   UNL     1      -6.842  14.453  68.441  1.00  0.00    -0.106 A  
HETATM   26  F   UNL     1      -5.212  15.266  66.950  1.00  0.00     0.314 F  
HETATM   27  C   UNL     1      -7.499  13.364  69.015  1.00  0.00     0.064 A  
HETATM   28  F   UNL     1      -8.453  13.643  69.914  1.00  0.00     0.917 F  
ENDBRANCH  18  20
ENDBRANCH  14  16
ENDBRANCH   8  10
ENDBRANCH   5   8
TORSDOF 4
ENDMDL
MODEL      221
REMARK 921   NORMALIZED FREE ENERGY PREDICTED BY IDOCK:    5.23 KCAL/MOL
REMARK 922        TOTAL FREE ENERGY PREDICTED BY IDOCK:    6.10 KCAL/MOL
REMARK 923 INTER-LIGAND FREE ENERGY PREDICTED BY IDOCK:    5.54 KCAL/MOL
REMARK 924 INTRA-LIGAND FREE ENERGY PREDICTED BY IDOCK:    0.56 KCAL/MOL
REMARK 927      BINDING AFFINITY PREDICTED BY RF-SCORE:    0.00 PKD
ROOT
HETATM    1  C   UNL     1     -10.842  19.493  70.071  1.00  0.00     1.983 C  
HETATM    2  N   UNL     1     -10.140  18.918  68.928  1.00  0.00    -0.376 NA 
HETATM    3  C   UNL     1      -8.865  19.596  68.656  1.00  0.00    -0.274 C  
HETATM    4  C   UNL     1      -7.727  19.228  69.620  1.00  0.00     0.175 C  
HETATM    5  C   UNL     1      -7.534  17.706  69.741  1.00  0.00     0.782 C  
HETATM    6  C   UNL     1      -8.889  17.069  70.068  1.00  0.00     1.804 C  
HETATM    7  C   UNL     1      -9.961  17.469  69.058  1.00  0.00    -0.260 C  
ENDROOT
BRANCH   5   8
HETATM    8  C   UNL     1      -6.860  17.130  68.482  1.00  0.00    -0.190 C  
HETATM    9  O   UNL     1      -5.642  16.970  68.394  1.00  0.00    -0.128 OA 
BRANCH   8  10
HETATM   10  C   UNL     1      -7.713  16.683  67.343  1.00  0.00    -0.163 A  
HETATM   11  C   UNL     1      -7.979  17.535  66.282  1.00  0.00    -0.303 A  
HETATM   12  C   UNL     1      -8.778  17.060  65.247  1.00  0.00     1.839 A  
HETATM   13  C   UNL     1      -9.287  15.763  65.318  1.00  0.00     0.418 A  
HETATM   14  C   UNL     1      -8.973  14.976  66.421  1.00  0.00    -0.251 A  
HETATM   15  N   UNL     1      -8.187  15.425  67.408  1.00  0.00    -0.168 NA 
BRANCH  14  16
HETATM   16  N   UNL     1      -9.503  13.678  66.489  1.00  0.00    -0.324 N  
HETATM   17  H   UNL     1     -10.517  13.578  66.516  1.00  0.00     0.000 HD 
HETATM   18  C   UNL     1      -8.737  12.523  66.523  1.00  0.00    -0.030 C  
HETATM   19  O   UNL     1      -7.511  12.486  66.515  1.00  0.00     0.283 OA 
BRANCH  18  20
HETATM   20  C   UNL     1      -9.472  11.227  66.566  1.00  0.00    -0.213 A  
HETATM   21  C   UNL     1     -10.336  10.816  65.546  1.00  0.00    -0.241 A  
HETATM   22  C   UNL     1     -10.996   9.590  65.600  1.00  0.00     1.744 A  
HETATM   23  F   UNL     1     -10.559  11.594  64.474  1.00  0.00    -0.298 F  
HETATM   24  C   UNL     1     -10.792   8.759  66.690  1.00  0.00     0.294 A  
HETATM   25  C   UNL     1      -9.949   9.132  67.723  1.00  0.00    -0.236 A  
HETATM   26  F   UNL     1     -11.419   7.576  66.745  1.00  0.00    -0.069 F  
HETATM   27  C   UNL     1      -9.295  10.363  67.656  1.00  0.00    -0.148 A  
HETATM   28  F   UNL     1      -8.496  10.677  68.685  1.00  0.00    -0.113 F  
ENDBRANCH  18  20
ENDBRANCH  14  16
ENDBRANCH   8  10
ENDBRANCH   5   8
TORSDOF 4
ENDMDL
MODEL      222
REMARK 921   NORMALIZED FREE ENERGY PREDICTED BY IDOCK:    5.34 KCAL/MOL
REMARK 922        TOTAL FREE ENERGY PREDICTED BY IDOCK:    6.24 KCAL/MOL
REMARK 923 INTER-LIGAND FREE ENERGY PREDICTED BY IDOCK:    3.16 KCAL/MOL
REMARK 924 INTRA-LIGAND FREE ENERGY PREDICTED BY IDOCK:    3.07 KCAL/MOL
REMARK 927      BINDING AFFINITY PREDICTED BY RF-SCORE:    0.00 PKD
ROOT
HETATM    1  C   UNL     1     -13.407  11.246  63.958  1.00  0.00     2.043 C  
HETATM    2  N   UNL     1     -13.120  12.574  64.490  1.00  0.00    -0.839 NA 
HETATM    3  C   UNL     1     -12.188  12.532  65.625  1.00  0.00    -0.335 C  
HETATM    4  C   UNL     1     -10.719  12.302  65.238  1.00  0.00    -0.329 C  
HETATM    5  C   UNL     1     -10.238  13.287  64.159  1.00  0.00    -0.087 C  
HETATM    6  C   UNL     1     -11.228  13.248  62.989  1.00  0.00     1.099 C  
HETATM    7  C   UNL     1     -12.660  13.502  63.452  1.00  0.00     0.106 C  
ENDROOT
BRANCH   5   8
HETATM    8  C   UNL     1     -10.021  14.693  64.748  1.00  0.00     0.109 C  
HETATM    9  O   UNL     1      -9.670  15.654  64.062  1.00  0.00     2.206 OA 
BRANCH   8  10
HETATM   10  C   UNL     1     -10.309  14.926  66.193  1.00  0.00    -0.301 A  
HETATM   11  C   UNL     1     -10.278  16.207  66.722  1.00  0.00    -0.281 A  
HETATM   12  C   UNL     1     -10.558  16.361  68.076  1.00  0.00    -0.314 A  
HETATM   13  C   UNL     1     -10.847  15.235  68.846  1.00  0.00    -0.247 A  
HETATM   14  C   UNL     1     -10.854  13.985  68.235  1.00  0.00    -0.255 A  
HETATM   15  N   UNL     1     -10.605  13.837  66.927  1.00  0.00    -0.275 NA 
BRANCH  14  16
HETATM   16  N   UNL     1     -11.131  12.857  69.022  1.00  0.00    -0.329 N  
HETATM   17  H   UNL     1     -10.406  12.532  69.661  1.00  0.00     0.000 HD 
HETATM   18  C   UNL     1     -12.326  12.155  68.988  1.00  0.00     0.198 C  
HETATM   19  O   UNL     1     -13.279  12.415  68.261  1.00  0.00     2.458 OA 
BRANCH  18  20
HETATM   20  C   UNL     1     -12.455  10.997  69.917  1.00  0.00    -0.286 A  
HETATM   21  C   UNL     1     -11.875   9.752  69.654  1.00  0.00     0.196 A  
HETATM   22  C   UNL     1     -11.992   8.689  70.549  1.00  0.00     0.041 A  
HETATM   23  F   UNL     1     -11.181   9.537  68.525  1.00  0.00    -0.196 F  
HETATM   24  C   UNL     1     -12.702   8.871  71.726  1.00  0.00    -0.364 A  
HETATM   25  C   UNL     1     -13.296  10.087  72.019  1.00  0.00    -0.513 A  
HETATM   26  F   UNL     1     -12.813   7.856  72.593  1.00  0.00    -0.179 F  
HETATM   27  C   UNL     1     -13.170  11.141  71.114  1.00  0.00    -0.041 A  
HETATM   28  F   UNL     1     -13.770  12.294  71.446  1.00  0.00    -0.124 F  
ENDBRANCH  18  20
ENDBRANCH  14  16
ENDBRANCH   8  10
ENDBRANCH   5   8
TORSDOF 4
ENDMDL
MODEL      223
REMARK 921   NORMALIZED FREE ENERGY PREDICTED BY IDOCK:    5.54 KCAL/MOL
REMARK 922        TOTAL FREE ENERGY PREDICTED BY IDOCK:    6.48 KCAL/MOL
REMARK 923 INTER-LIGAND FREE ENERGY PREDICTED BY IDOCK:    5.18 KCAL/MOL
REMARK 924 INTRA-LIGAND FREE ENERGY PREDICTED BY IDOCK:    1.30 KCAL/MOL
REMARK 927      BINDING AFFINITY PREDICTED BY RF-SCORE:    0.00 PKD
ROOT
HETATM    1  C   UNL     1      -6.548  16.382  67.182  1.00  0.00    -0.199 C  
HETATM    2  N   UNL     1      -6.588  14.944  67.425  1.00  0.00    -0.300 NA 
HETATM    3  C   UNL     1      -7.682  14.560  68.327  1.00  0.00    -0.126 C  
HETATM    4  C   UNL     1      -9.074  14.552  67.677  1.00  0.00    -0.195 C  
HETATM    5  C   UNL     1      -9.108  13.727  66.379  1.00  0.00    -0.083 C  
HETATM    6  C   UNL     1      -7.973  14.208  65.468  1.00  0.00     4.852 C  
HETATM    7  C   UNL     1      -6.623  14.171  66.179  1.00  0.00     5.265 C  
ENDROOT
BRANCH   5   8
HETATM    8  C   UNL     1      -9.072  12.218  66.679  1.00  0.00    -0.203 C  
HETATM    9  O   UNL     1      -8.270  11.452  66.143  1.00  0.00    -0.140 OA 
BRANCH   8  10
HETATM   10  C   UNL     1      -9.998  11.660  67.707  1.00  0.00    -0.181 A  
HETATM   11  C   UNL     1     -11.127  12.364  68.098  1.00  0.00    -0.288 A  
HETATM   12  C   UNL     1     -11.954  11.791  69.059  1.00  0.00    -0.341 A  
HETATM   13  C   UNL     1     -11.617  10.548  69.596  1.00  0.00    -0.342 A  
HETATM   14  C   UNL     1     -10.463   9.912  69.149  1.00  0.00    -0.217 A  
HETATM   15  N   UNL     1      -9.677  10.453  68.210  1.00  0.00    -0.148 NA 
BRANCH  14  16
HETATM   16  N   UNL     1     -10.126   8.670  69.708  1.00  0.00    -0.194 N  
HETATM   17  H   UNL     1      -9.442   8.096  69.216  1.00  0.00     0.000 HD 
HETATM   18  C   UNL     1     -10.661   8.173  70.886  1.00  0.00    -0.221 C  
HETATM   19  O   UNL     1     -11.503   8.738  71.576  1.00  0.00    -0.264 OA 
BRANCH  18  20
HETATM   20  C   UNL     1     -10.163   6.844  71.345  1.00  0.00    -0.212 A  
HETATM   21  C   UNL     1      -9.328   6.041  70.563  1.00  0.00    -0.160 A  
HETATM   22  C   UNL     1      -8.859   4.812  71.024  1.00  0.00    -0.147 A  
HETATM   23  F   UNL     1      -8.947   6.429  69.335  1.00  0.00    -0.128 F  
HETATM   24  C   UNL     1      -9.230   4.376  72.286  1.00  0.00    -0.122 A  
HETATM   25  C   UNL     1     -10.061   5.139  73.088  1.00  0.00    -0.191 A  
HETATM   26  F   UNL     1      -8.778   3.198  72.737  1.00  0.00    -0.080 F  
HETATM   27  C   UNL     1     -10.523   6.367  72.614  1.00  0.00    -0.210 A  
HETATM   28  F   UNL     1     -11.329   7.063  73.429  1.00  0.00    -0.243 F  
ENDBRANCH  18  20
ENDBRANCH  14  16
ENDBRANCH   8  10
ENDBRANCH   5   8
TORSDOF 4
ENDMDL
MODEL      224
REMARK 921   NORMALIZED FREE ENERGY PREDICTED BY IDOCK:    5.90 KCAL/MOL
REMARK 922        TOTAL FREE ENERGY PREDICTED BY IDOCK:    6.93 KCAL/MOL
REMARK 923 INTER-LIGAND FREE ENERGY PREDICTED BY IDOCK:    7.05 KCAL/MOL
REMARK 924 INTRA-LIGAND FREE ENERGY PREDICTED BY IDOCK:   -0.12 KCAL/MOL
REMARK 927      BINDING AFFINITY PREDICTED BY RF-SCORE:    0.00 PKD
ROOT
HETATM    1  C   UNL     1      -5.868  15.102  73.162  1.00  0.00     0.865 C  
HETATM    2  N   UNL     1      -5.207  14.153  72.271  1.00  0.00    -0.195 NA 
HETATM    3  C   UNL     1      -5.782  12.804  72.366  1.00  0.00     1.103 C  
HETATM    4  C   UNL     1      -7.131  12.632  71.652  1.00  0.00     6.299 C  
HETATM    5  C   UNL     1      -7.085  13.115  70.192  1.00  0.00     1.015 C  
HETATM    6  C   UNL     1      -6.520  14.539  70.169  1.00  0.00    -0.156 C  
HETATM    7  C   UNL     1      -5.173  14.625  70.883  1.00  0.00    -0.132 C  
ENDROOT
BRANCH   5   8
HETATM    8  C   UNL     1      -6.314  12.123  69.303  1.00  0.00    -0.103 C  
HETATM    9  O   UNL     1      -5.201  11.689  69.600  1.00  0.00    -0.056 OA 
BRANCH   8  10
HETATM   10  C   UNL     1      -6.961  11.609  68.060  1.00  0.00    -0.078 A  
HETATM   11  C   UNL     1      -7.488  12.484  67.123  1.00  0.00    -0.077 A  
HETATM   12  C   UNL     1      -8.076  11.945  65.983  1.00  0.00     0.406 A  
HETATM   13  C   UNL     1      -8.123  10.559  65.830  1.00  0.00    -0.154 A  
HETATM   14  C   UNL     1      -7.572   9.753  66.821  1.00  0.00    -0.095 A  
HETATM   15  N   UNL     1      -6.988  10.271  67.909  1.00  0.00    -0.081 NA 
BRANCH  14  16
HETATM   16  N   UNL     1      -7.639   8.360  66.664  1.00  0.00    -0.088 N  
HETATM   17  H   UNL     1      -6.914   7.908  66.106  1.00  0.00     0.000 HD 
HETATM   18  C   UNL     1      -8.625   7.559  67.217  1.00  0.00    -0.118 C  
HETATM   19  O   UNL     1      -9.567   7.959  67.892  1.00  0.00    -0.143 OA 
BRANCH  18  20
HETATM   20  C   UNL     1      -8.521   6.092  66.968  1.00  0.00    -0.105 A  
HETATM   21  C   UNL     1      -7.311   5.398  67.052  1.00  0.00    -0.083 A  
HETATM   22  C   UNL     1      -7.242   4.022  66.837  1.00  0.00    -0.068 A  
HETATM   23  F   UNL     1      -6.166   6.036  67.348  1.00  0.00    -0.027 F  
HETATM   24  C   UNL     1      -8.402   3.328  66.529  1.00  0.00    -0.103 A  
HETATM   25  C   UNL     1      -9.619   3.980  66.430  1.00  0.00    -0.217 A  
HETATM   26  F   UNL     1      -8.344   2.004  66.326  1.00  0.00    -0.079 F  
HETATM   27  C   UNL     1      -9.672   5.357  66.649  1.00  0.00    -0.161 A  
HETATM   28  F   UNL     1     -10.874   5.939  66.535  1.00  0.00    -0.319 F  
ENDBRANCH  18  20
ENDBRANCH  14  16
ENDBRANCH   8  10
ENDBRANCH   5   8
TORSDOF 4
ENDMDL
MODEL      225
REMARK 921   NORMALIZED FREE ENERGY PREDICTED BY IDOCK:    8.18 KCAL/MOL
REMARK 922        TOTAL FREE ENERGY PREDICTED BY IDOCK:    9.74 KCAL/MOL
REMARK 923 INTER-LIGAND FREE ENERGY PREDICTED BY IDOCK:    9.28 KCAL/MOL
REMARK 924 INTRA-LIGAND FREE ENERGY PREDICTED BY IDOCK:    0.46 KCAL/MOL
REMARK 927      BINDING AFFINITY PREDICTED BY RF-SCORE:    0.00 PKD
ROOT
HETATM    1  C   UNL     1      -5.857  15.102  73.158  1.00  0.00     0.865 C  
HETATM    2  N   UNL     1      -5.163  14.182  72.262  1.00  0.00    -0.195 NA 
HETATM    3  C   UNL     1      -5.670  12.807  72.370  1.00  0.00     1.103 C  
HETATM    4  C   UNL     1      -7.018  12.566  71.675  1.00  0.00     5.717 C  
HETATM    5  C   UNL     1      -7.015  13.044  70.213  1.00  0.00     1.086 C  
HETATM    6  C   UNL     1      -6.521  14.495  70.177  1.00  0.00    -0.156 C  
HETATM    7  C   UNL     1      -5.171  14.649  70.873  1.00  0.00    -0.132 C  
ENDROOT
BRANCH   5   8
HETATM    8  C   UNL     1      -6.209  12.087  69.317  1.00  0.00    -0.096 C  
HETATM    9  O   UNL     1      -5.149  11.573  69.677  1.00  0.00    -0.055 OA 
BRANCH   8  10
HETATM   10  C   UNL     1      -6.757  11.708  67.983  1.00  0.00    -0.064 A  
HETATM   11  C   UNL     1      -7.307  12.667  67.145  1.00  0.00    -0.043 A  
HETATM   12  C   UNL     1      -7.799  12.252  65.912  1.00  0.00     1.261 A  
HETATM   13  C   UNL     1      -7.732  10.902  65.569  1.00  0.00     0.057 A  
HETATM   14  C   UNL     1      -7.166  10.005  66.470  1.00  0.00    -0.101 A  
HETATM   15  N   UNL     1      -6.674  10.406  67.649  1.00  0.00    -0.073 NA 
BRANCH  14  16
HETATM   16  N   UNL     1      -7.119   8.647  66.121  1.00  0.00    -0.083 N  
HETATM   17  H   UNL     1      -6.988   7.967  66.870  1.00  0.00     0.000 HD 
HETATM   18  C   UNL     1      -7.236   8.170  64.825  1.00  0.00    -0.082 C  
HETATM   19  O   UNL     1      -7.378   8.864  63.825  1.00  0.00    -0.098 OA 
BRANCH  18  20
HETATM   20  C   UNL     1      -7.191   6.690  64.644  1.00  0.00    -0.071 A  
HETATM   21  C   UNL     1      -8.155   5.990  63.912  1.00  0.00    -0.084 A  
HETATM   22  C   UNL     1      -8.078   4.610  63.739  1.00  0.00    -0.101 A  
HETATM   23  F   UNL     1      -9.191   6.630  63.346  1.00  0.00     0.769 F  
HETATM   24  C   UNL     1      -7.024   3.914  64.309  1.00  0.00    -0.046 A  
HETATM   25  C   UNL     1      -6.053   4.570  65.046  1.00  0.00    -0.026 A  
HETATM   26  F   UNL     1      -6.941   2.587  64.142  1.00  0.00    -0.036 F  
HETATM   27  C   UNL     1      -6.142   5.952  65.211  1.00  0.00    -0.026 A  
HETATM   28  F   UNL     1      -5.179   6.535  65.939  1.00  0.00    -0.015 F  
ENDBRANCH  18  20
ENDBRANCH  14  16
ENDBRANCH   8  10
ENDBRANCH   5   8
TORSDOF 4
ENDMDL
MODEL      226
REMARK 921   NORMALIZED FREE ENERGY PREDICTED BY IDOCK:   10.08 KCAL/MOL
REMARK 922        TOTAL FREE ENERGY PREDICTED BY IDOCK:   12.08 KCAL/MOL
REMARK 923 INTER-LIGAND FREE ENERGY PREDICTED BY IDOCK:   11.82 KCAL/MOL
REMARK 924 INTRA-LIGAND FREE ENERGY PREDICTED BY IDOCK:    0.27 KCAL/MOL
REMARK 927      BINDING AFFINITY PREDICTED BY RF-SCORE:    0.00 PKD
ROOT
HETATM    1  C   UNL     1     -10.964   5.208  64.880  1.00  0.00     1.108 C  
HETATM    2  N   UNL     1      -9.714   4.511  65.166  1.00  0.00    -0.170 NA 
HETATM    3  C   UNL     1      -9.045   5.033  66.366  1.00  0.00    -0.129 C  
HETATM    4  C   UNL     1      -9.672   4.582  67.694  1.00  0.00    -0.206 C  
HETATM    5  C   UNL     1      -9.843   3.055  67.771  1.00  0.00     0.315 C  
HETATM    6  C   UNL     1     -10.585   2.585  66.515  1.00  0.00     3.585 C  
HETATM    7  C   UNL     1      -9.892   3.058  65.239  1.00  0.00     0.145 C  
ENDROOT
BRANCH   5   8
HETATM    8  C   UNL     1      -8.490   2.356  67.997  1.00  0.00    -0.076 C  
HETATM    9  O   UNL     1      -7.938   1.679  67.129  1.00  0.00    -0.064 OA 
BRANCH   8  10
HETATM   10  C   UNL     1      -7.779   2.554  69.293  1.00  0.00    -0.043 A  
HETATM   11  C   UNL     1      -7.226   1.477  69.969  1.00  0.00    -0.033 A  
HETATM   12  C   UNL     1      -6.573   1.725  71.171  1.00  0.00    -0.023 A  
HETATM   13  C   UNL     1      -6.505   3.032  71.654  1.00  0.00    -0.015 A  
HETATM   14  C   UNL     1      -7.089   4.055  70.913  1.00  0.00    -0.033 A  
HETATM   15  N   UNL     1      -7.701   3.820  69.746  1.00  0.00    -0.051 NA 
BRANCH  14  16
HETATM   16  N   UNL     1      -7.028   5.363  71.416  1.00  0.00    -0.063 N  
HETATM   17  H   UNL     1      -6.841   5.483  72.412  1.00  0.00     0.000 HD 
HETATM   18  C   UNL     1      -7.207   6.504  70.649  1.00  0.00    -0.074 C  
HETATM   19  O   UNL     1      -7.456   6.518  69.448  1.00  0.00    -0.089 OA 
BRANCH  18  20
HETATM   20  C   UNL     1      -7.079   7.814  71.348  1.00  0.00    -0.058 A  
HETATM   21  C   UNL     1      -7.953   8.216  72.362  1.00  0.00    -0.138 A  
HETATM   22  C   UNL     1      -7.800   9.438  73.015  1.00  0.00     1.788 A  
HETATM   23  F   UNL     1      -8.975   7.433  72.744  1.00  0.00    -0.143 F  
HETATM   24  C   UNL     1      -6.757  10.275  72.649  1.00  0.00     2.753 A  
HETATM   25  C   UNL     1      -5.874   9.915  71.646  1.00  0.00     0.096 A  
HETATM   26  F   UNL     1      -6.600  11.448  73.277  1.00  0.00     3.496 F  
HETATM   27  C   UNL     1      -6.040   8.689  71.000  1.00  0.00    -0.040 A  
HETATM   28  F   UNL     1      -5.160   8.395  70.033  1.00  0.00    -0.023 F  
ENDBRANCH  18  20
ENDBRANCH  14  16
ENDBRANCH   8  10
ENDBRANCH   5   8
TORSDOF 4
ENDMDL
MODEL      227
REMARK 921   NORMALIZED FREE ENERGY PREDICTED BY IDOCK:   10.73 KCAL/MOL
REMARK 922        TOTAL FREE ENERGY PREDICTED BY IDOCK:   12.88 KCAL/MOL
REMARK 923 INTER-LIGAND FREE ENERGY PREDICTED BY IDOCK:   12.35 KCAL/MOL
REMARK 924 INTRA-LIGAND FREE ENERGY PREDICTED BY IDOCK:    0.54 KCAL/MOL
REMARK 927      BINDING AFFINITY PREDICTED BY RF-SCORE:    0.00 PKD
ROOT
HETATM    1  C   UNL     1     -10.969   5.212  64.880  1.00  0.00     1.108 C  
HETATM    2  N   UNL     1      -9.730   4.520  65.219  1.00  0.00    -0.178 NA 
HETATM    3  C   UNL     1      -9.115   5.045  66.445  1.00  0.00    -0.129 C  
HETATM    4  C   UNL     1      -9.796   4.594  67.746  1.00  0.00    -0.183 C  
HETATM    5  C   UNL     1      -9.965   3.067  67.818  1.00  0.00     0.644 C  
HETATM    6  C   UNL     1     -10.651   2.593  66.532  1.00  0.00     3.455 C  
HETATM    7  C   UNL     1      -9.907   3.066  65.286  1.00  0.00     0.145 C  
ENDROOT
BRANCH   5   8
HETATM    8  C   UNL     1      -8.621   2.372  68.102  1.00  0.00    -0.083 C  
HETATM    9  O   UNL     1      -8.037   1.685  67.262  1.00  0.00    -0.064 OA 
BRANCH   8  10
HETATM   10  C   UNL     1      -7.958   2.586  69.421  1.00  0.00    -0.041 A  
HETATM   11  C   UNL     1      -7.418   1.519  70.123  1.00  0.00    -0.036 A  
HETATM   12  C   UNL     1      -6.809   1.783  71.346  1.00  0.00    -0.023 A  
HETATM   13  C   UNL     1      -6.773   3.093  71.822  1.00  0.00    -0.022 A  
HETATM   14  C   UNL     1      -7.342   4.105  71.054  1.00  0.00    -0.044 A  
HETATM   15  N   UNL     1      -7.910   3.856  69.867  1.00  0.00    -0.051 NA 
BRANCH  14  16
HETATM   16  N   UNL     1      -7.313   5.417  71.549  1.00  0.00    -0.082 N  
HETATM   17  H   UNL     1      -7.434   6.181  70.885  1.00  0.00     0.000 HD 
HETATM   18  C   UNL     1      -7.131   5.743  72.884  1.00  0.00    -0.085 C  
HETATM   19  O   UNL     1      -6.955   4.938  73.793  1.00  0.00    -0.072 OA 
BRANCH  18  20
HETATM   20  C   UNL     1      -7.157   7.192  73.235  1.00  0.00    -0.073 A  
HETATM   21  C   UNL     1      -6.189   8.095  72.783  1.00  0.00    -0.073 A  
HETATM   22  C   UNL     1      -6.247   9.449  73.107  1.00  0.00     0.410 A  
HETATM   23  F   UNL     1      -5.165   7.684  72.016  1.00  0.00    -0.034 F  
HETATM   24  C   UNL     1      -7.288   9.912  73.896  1.00  0.00     2.965 A  
HETATM   25  C   UNL     1      -8.263   9.049  74.368  1.00  0.00     0.929 A  
HETATM   26  F   UNL     1      -7.354  11.214  74.206  1.00  0.00     4.352 F  
HETATM   27  C   UNL     1      -8.192   7.696  74.036  1.00  0.00    -0.200 A  
HETATM   28  F   UNL     1      -9.157   6.905  74.524  1.00  0.00    -0.186 F  
ENDBRANCH  18  20
ENDBRANCH  14  16
ENDBRANCH   8  10
ENDBRANCH   5   8
TORSDOF 4
ENDMDL
MODEL      228
REMARK 921   NORMALIZED FREE ENERGY PREDICTED BY IDOCK:   14.17 KCAL/MOL
REMARK 922        TOTAL FREE ENERGY PREDICTED BY IDOCK:   17.13 KCAL/MOL
REMARK 923 INTER-LIGAND FREE ENERGY PREDICTED BY IDOCK:   15.48 KCAL/MOL
REMARK 924 INTRA-LIGAND FREE ENERGY PREDICTED BY IDOCK:    1.64 KCAL/MOL
REMARK 927      BINDING AFFINITY PREDICTED BY RF-SCORE:    0.00 PKD
ROOT
HETATM    1  C   UNL     1     -10.887  19.724  70.417  1.00  0.00     2.382 C  
HETATM    2  N   UNL     1      -9.661  19.513  69.654  1.00  0.00    -0.001 NA 
HETATM    3  C   UNL     1      -8.531  20.287  70.186  1.00  0.00     1.457 C  
HETATM    4  C   UNL     1      -7.908  19.712  71.467  1.00  0.00     2.820 C  
HETATM    5  C   UNL     1      -7.543  18.225  71.323  1.00  0.00     6.018 C  
HETATM    6  C   UNL     1      -8.775  17.470  70.809  1.00  0.00     5.576 C  
HETATM    7  C   UNL     1      -9.324  18.091  69.527  1.00  0.00     0.538 C  
ENDROOT
BRANCH   5   8
HETATM    8  C   UNL     1      -6.289  18.043  70.449  1.00  0.00     0.501 C  
HETATM    9  O   UNL     1      -5.147  18.080  70.908  1.00  0.00    -0.256 OA 
BRANCH   8  10
HETATM   10  C   UNL     1      -6.455  17.742  68.997  1.00  0.00    -0.233 A  
HETATM   11  C   UNL     1      -6.010  18.636  68.035  1.00  0.00    -0.195 A  
HETATM   12  C   UNL     1      -6.190  18.299  66.697  1.00  0.00    -0.205 A  
HETATM   13  C   UNL     1      -6.813  17.093  66.375  1.00  0.00    -0.284 A  
HETATM   14  C   UNL     1      -7.231  16.254  67.404  1.00  0.00    -0.169 A  
HETATM   15  N   UNL     1      -7.040  16.568  68.692  1.00  0.00    -0.165 NA 
BRANCH  14  16
HETATM   16  N   UNL     1      -7.869  15.051  67.068  1.00  0.00    -0.294 N  
HETATM   17  H   UNL     1      -8.705  15.101  66.486  1.00  0.00     0.000 HD 
HETATM   18  C   UNL     1      -7.437  13.798  67.476  1.00  0.00    -0.169 C  
HETATM   19  O   UNL     1      -6.464  13.582  68.190  1.00  0.00    -0.094 OA 
BRANCH  18  20
HETATM   20  C   UNL     1      -8.224  12.625  67.000  1.00  0.00    -0.110 A  
HETATM   21  C   UNL     1      -9.543  12.736  66.547  1.00  0.00    -0.257 A  
HETATM   22  C   UNL     1     -10.251  11.627  66.086  1.00  0.00    -0.263 A  
HETATM   23  F   UNL     1     -10.174  13.922  66.538  1.00  0.00    -0.259 F  
HETATM   24  C   UNL     1      -9.634  10.386  66.079  1.00  0.00    -0.201 A  
HETATM   25  C   UNL     1      -8.332  10.234  66.525  1.00  0.00    -0.126 A  
HETATM   26  F   UNL     1     -10.307   9.317  65.631  1.00  0.00    -0.323 F  
HETATM   27  C   UNL     1      -7.636  11.353  66.984  1.00  0.00    -0.151 A  
HETATM   28  F   UNL     1      -6.382  11.148  67.410  1.00  0.00    -0.054 F  
ENDBRANCH  18  20
ENDBRANCH  14  16
ENDBRANCH   8  10
ENDBRANCH   5   8
TORSDOF 4
ENDMDL
MODEL      229
REMARK 921   NORMALIZED FREE ENERGY PREDICTED BY IDOCK:   17.07 KCAL/MOL
REMARK 922        TOTAL FREE ENERGY PREDICTED BY IDOCK:   20.70 KCAL/MOL
REMARK 923 INTER-LIGAND FREE ENERGY PREDICTED BY IDOCK:   16.89 KCAL/MOL
REMARK 924 INTRA-LIGAND FREE ENERGY PREDICTED BY IDOCK:    3.81 KCAL/MOL
REMARK 927      BINDING AFFINITY PREDICTED BY RF-SCORE:    0.00 PKD
ROOT
HETATM    1  C   UNL     1     -13.197  10.005  66.059  1.00  0.00    15.630 C  
HETATM    2  N   UNL     1     -11.782  10.350  66.154  1.00  0.00     1.146 NA 
HETATM    3  C   UNL     1     -11.208  10.716  64.851  1.00  0.00     0.749 C  
HETATM    4  C   UNL     1     -11.583  12.122  64.360  1.00  0.00    -0.422 C  
HETATM    5  C   UNL     1     -11.301  13.205  65.416  1.00  0.00    -0.323 C  
HETATM    6  C   UNL     1     -11.963  12.783  66.733  1.00  0.00    -0.389 C  
HETATM    7  C   UNL     1     -11.529  11.384  67.162  1.00  0.00    -0.190 C  
ENDROOT
BRANCH   5   8
HETATM    8  C   UNL     1      -9.792  13.483  65.537  1.00  0.00    -0.143 C  
HETATM    9  O   UNL     1      -9.311  14.611  65.418  1.00  0.00    -0.004 OA 
BRANCH   8  10
HETATM   10  C   UNL     1      -8.872  12.358  65.877  1.00  0.00     0.316 A  
HETATM   11  C   UNL     1      -7.774  12.076  65.079  1.00  0.00     2.619 A  
HETATM   12  C   UNL     1      -6.952  11.017  65.449  1.00  0.00     0.292 A  
HETATM   13  C   UNL     1      -7.262  10.279  66.591  1.00  0.00    -0.109 A  
HETATM   14  C   UNL     1      -8.385  10.629  67.335  1.00  0.00    -0.119 A  
HETATM   15  N   UNL     1      -9.166  11.661  66.991  1.00  0.00    -0.179 NA 
BRANCH  14  16
HETATM   16  N   UNL     1      -8.696   9.870  68.473  1.00  0.00    -0.119 N  
HETATM   17  H   UNL     1      -9.090  10.357  69.278  1.00  0.00     0.000 HD 
HETATM   18  C   UNL     1      -8.503   8.501  68.576  1.00  0.00    -0.131 C  
HETATM   19  O   UNL     1      -8.024   7.786  67.702  1.00  0.00    -0.119 OA 
BRANCH  18  20
HETATM   20  C   UNL     1      -8.919   7.855  69.853  1.00  0.00    -0.146 A  
HETATM   21  C   UNL     1      -8.738   6.491  70.102  1.00  0.00    -0.140 A  
HETATM   22  C   UNL     1      -9.116   5.913  71.313  1.00  0.00    -0.148 A  
HETATM   23  F   UNL     1      -8.189   5.686  69.176  1.00  0.00    -0.095 F  
HETATM   24  C   UNL     1      -9.686   6.710  72.293  1.00  0.00    -0.148 A  
HETATM   25  C   UNL     1      -9.888   8.064  72.083  1.00  0.00    -0.286 A  
HETATM   26  F   UNL     1     -10.046   6.163  73.462  1.00  0.00    -0.164 F  
HETATM   27  C   UNL     1      -9.505   8.628  70.866  1.00  0.00    -0.194 A  
HETATM   28  F   UNL     1      -9.728   9.941  70.714  1.00  0.00    -0.293 F  
ENDBRANCH  18  20
ENDBRANCH  14  16
ENDBRANCH   8  10
ENDBRANCH   5   8
TORSDOF 4
ENDMDL
MODEL      230
REMARK 921   NORMALIZED FREE ENERGY PREDICTED BY IDOCK:   23.31 KCAL/MOL
REMARK 922        TOTAL FREE ENERGY PREDICTED BY IDOCK:   28.41 KCAL/MOL
REMARK 923 INTER-LIGAND FREE ENERGY PREDICTED BY IDOCK:   28.49 KCAL/MOL
REMARK 924 INTRA-LIGAND FREE ENERGY PREDICTED BY IDOCK:   -0.08 KCAL/MOL
REMARK 927      BINDING AFFINITY PREDICTED BY RF-SCORE:    0.00 PKD
ROOT
HETATM    1  C   UNL     1      -7.305  15.648  64.453  1.00  0.00    14.841 C  
HETATM    2  N   UNL     1      -7.539  14.485  65.303  1.00  0.00     6.807 NA 
HETATM    3  C   UNL     1      -6.503  14.329  66.334  1.00  0.00     3.820 C  
HETATM    4  C   UNL     1      -6.629  15.298  67.518  1.00  0.00    -0.181 C  
HETATM    5  C   UNL     1      -8.037  15.283  68.138  1.00  0.00    -0.136 C  
HETATM    6  C   UNL     1      -9.062  15.495  67.019  1.00  0.00    -0.250 C  
HETATM    7  C   UNL     1      -8.883  14.485  65.889  1.00  0.00     0.589 C  
ENDROOT
BRANCH   5   8
HETATM    8  C   UNL     1      -8.267  14.004  68.963  1.00  0.00     0.116 C  
HETATM    9  O   UNL     1      -9.311  13.353  68.904  1.00  0.00     0.025 OA 
BRANCH   8  10
HETATM   10  C   UNL     1      -7.163  13.486  69.822  1.00  0.00     0.499 A  
HETATM   11  C   UNL     1      -6.192  14.343  70.319  1.00  0.00    -0.172 A  
HETATM   12  C   UNL     1      -5.190  13.801  71.117  1.00  0.00    -0.158 A  
HETATM   13  C   UNL     1      -5.190  12.431  71.377  1.00  0.00    -0.085 A  
HETATM   14  C   UNL     1      -6.201  11.643  70.836  1.00  0.00     0.621 A  
HETATM   15  N   UNL     1      -7.178  12.166  70.085  1.00  0.00     0.811 NA 
BRANCH  14  16
HETATM   16  N   UNL     1      -6.183  10.264  71.093  1.00  0.00     0.063 N  
HETATM   17  H   UNL     1      -5.305   9.764  70.952  1.00  0.00     0.000 HD 
HETATM   18  C   UNL     1      -7.280   9.535  71.524  1.00  0.00     0.425 C  
HETATM   19  O   UNL     1      -8.402   9.992  71.719  1.00  0.00     1.469 OA 
BRANCH  18  20
HETATM   20  C   UNL     1      -7.069   8.081  71.774  1.00  0.00    -0.075 A  
HETATM   21  C   UNL     1      -7.156   7.514  73.049  1.00  0.00    -0.072 A  
HETATM   22  C   UNL     1      -6.975   6.148  73.254  1.00  0.00    -0.080 A  
HETATM   23  F   UNL     1      -7.419   8.273  74.126  1.00  0.00    -0.181 F  
HETATM   24  C   UNL     1      -6.701   5.331  72.168  1.00  0.00    -0.061 A  
HETATM   25  C   UNL     1      -6.601   5.855  70.890  1.00  0.00    -0.045 A  
HETATM   26  F   UNL     1      -6.533   4.016  72.357  1.00  0.00    -0.017 F  
HETATM   27  C   UNL     1      -6.785   7.225  70.700  1.00  0.00    -0.048 A  
HETATM   28  F   UNL     1      -6.671   7.679  69.444  1.00  0.00    -0.037 F  
ENDBRANCH  18  20
ENDBRANCH  14  16
ENDBRANCH   8  10
ENDBRANCH   5   8
TORSDOF 4
ENDMDL
MODEL      231
REMARK 921   NORMALIZED FREE ENERGY PREDICTED BY IDOCK:   25.63 KCAL/MOL
REMARK 922        TOTAL FREE ENERGY PREDICTED BY IDOCK:   31.28 KCAL/MOL
REMARK 923 INTER-LIGAND FREE ENERGY PREDICTED BY IDOCK:   31.36 KCAL/MOL
REMARK 924 INTRA-LIGAND FREE ENERGY PREDICTED BY IDOCK:   -0.09 KCAL/MOL
REMARK 927      BINDING AFFINITY PREDICTED BY RF-SCORE:    0.00 PKD
ROOT
HETATM    1  C   UNL     1     -13.452  11.189  64.113  1.00  0.00     3.164 C  
HETATM    2  N   UNL     1     -13.163  12.616  64.221  1.00  0.00    -0.522 NA 
HETATM    3  C   UNL     1     -12.423  12.945  65.447  1.00  0.00    -0.454 C  
HETATM    4  C   UNL     1     -10.932  12.582  65.412  1.00  0.00    -0.329 C  
HETATM    5  C   UNL     1     -10.223  13.144  64.167  1.00  0.00    -0.189 C  
HETATM    6  C   UNL     1     -11.019  12.727  62.925  1.00  0.00     1.088 C  
HETATM    7  C   UNL     1     -12.486  13.137  63.030  1.00  0.00     0.203 C  
ENDROOT
BRANCH   5   8
HETATM    8  C   UNL     1     -10.007  14.663  64.290  1.00  0.00     1.612 C  
HETATM    9  O   UNL     1      -9.557  15.348  63.370  1.00  0.00     6.639 OA 
BRANCH   8  10
HETATM   10  C   UNL     1     -10.418  15.355  65.547  1.00  0.00    -0.380 A  
HETATM   11  C   UNL     1     -11.635  16.015  65.625  1.00  0.00     0.514 A  
HETATM   12  C   UNL     1     -11.963  16.638  66.825  1.00  0.00     1.923 A  
HETATM   13  C   UNL     1     -11.064  16.586  67.890  1.00  0.00    -0.229 A  
HETATM   14  C   UNL     1      -9.863  15.903  67.725  1.00  0.00    -0.222 A  
HETATM   15  N   UNL     1      -9.554  15.286  66.577  1.00  0.00    -0.253 NA 
BRANCH  14  16
HETATM   16  N   UNL     1      -8.959  15.871  68.797  1.00  0.00    -0.202 N  
HETATM   17  H   UNL     1      -8.349  16.677  68.932  1.00  0.00     0.000 HD 
HETATM   18  C   UNL     1      -8.841  14.814  69.687  1.00  0.00     0.221 C  
HETATM   19  O   UNL     1      -9.491  13.774  69.642  1.00  0.00     0.760 OA 
BRANCH  18  20
HETATM   20  C   UNL     1      -7.845  14.964  70.786  1.00  0.00     1.656 A  
HETATM   21  C   UNL     1      -6.491  15.217  70.546  1.00  0.00     0.137 A  
HETATM   22  C   UNL     1      -5.583  15.375  71.592  1.00  0.00     0.313 A  
HETATM   23  F   UNL     1      -6.018  15.318  69.293  1.00  0.00    -0.097 F  
HETATM   24  C   UNL     1      -6.032  15.278  72.899  1.00  0.00     1.211 A  
HETATM   25  C   UNL     1      -7.364  15.022  73.177  1.00  0.00     5.842 A  
HETATM   26  F   UNL     1      -5.166  15.434  73.909  1.00  0.00     0.382 F  
HETATM   27  C   UNL     1      -8.262  14.866  72.121  1.00  0.00     6.073 A  
HETATM   28  F   UNL     1      -9.538  14.614  72.447  1.00  0.00     2.503 F  
ENDBRANCH  18  20
ENDBRANCH  14  16
ENDBRANCH   8  10
ENDBRANCH   5   8
TORSDOF 4
ENDMDL
MODEL      232
REMARK 921   NORMALIZED FREE ENERGY PREDICTED BY IDOCK:   31.03 KCAL/MOL
REMARK 922        TOTAL FREE ENERGY PREDICTED BY IDOCK:   37.93 KCAL/MOL
REMARK 923 INTER-LIGAND FREE ENERGY PREDICTED BY IDOCK:   32.67 KCAL/MOL
REMARK 924 INTRA-LIGAND FREE ENERGY PREDICTED BY IDOCK:    5.26 KCAL/MOL
REMARK 927      BINDING AFFINITY PREDICTED BY RF-SCORE:    0.00 PKD
ROOT
HETATM    1  C   UNL     1      -5.963  13.004  69.574  1.00  0.00    -0.110 C  
HETATM    2  N   UNL     1      -7.131  12.534  70.313  1.00  0.00     0.920 NA 
HETATM    3  C   UNL     1      -7.294  11.076  70.233  1.00  0.00     0.835 C  
HETATM    4  C   UNL     1      -6.332  10.276  71.123  1.00  0.00     0.210 C  
HETATM    5  C   UNL     1      -6.348  10.758  72.584  1.00  0.00     2.813 C  
HETATM    6  C   UNL     1      -6.129  12.275  72.597  1.00  0.00     3.088 C  
HETATM    7  C   UNL     1      -7.132  12.999  71.703  1.00  0.00     5.621 C  
ENDROOT
BRANCH   5   8
HETATM    8  C   UNL     1      -7.632  10.306  73.303  1.00  0.00     6.065 C  
HETATM    9  O   UNL     1      -7.757  10.345  74.528  1.00  0.00     3.116 OA 
BRANCH   8  10
HETATM   10  C   UNL     1      -8.802   9.864  72.490  1.00  0.00     4.898 A  
HETATM   11  C   UNL     1      -9.970   9.439  73.104  1.00  0.00     3.616 A  
HETATM   12  C   UNL     1     -11.027   9.042  72.291  1.00  0.00    -0.112 A  
HETATM   13  C   UNL     1     -10.874   9.075  70.905  1.00  0.00    -0.323 A  
HETATM   14  C   UNL     1      -9.666   9.514  70.372  1.00  0.00    -0.271 A  
HETATM   15  N   UNL     1      -8.654   9.916  71.152  1.00  0.00     0.352 NA 
BRANCH  14  16
HETATM   16  N   UNL     1      -9.518   9.530  68.977  1.00  0.00    -0.154 N  
HETATM   17  H   UNL     1      -8.925  10.252  68.569  1.00  0.00     0.000 HD 
HETATM   18  C   UNL     1     -10.124   8.627  68.118  1.00  0.00    -0.197 C  
HETATM   19  O   UNL     1     -10.874   7.719  68.458  1.00  0.00    -0.089 OA 
BRANCH  18  20
HETATM   20  C   UNL     1      -9.830   8.778  66.664  1.00  0.00    -0.335 A  
HETATM   21  C   UNL     1     -10.643   9.522  65.803  1.00  0.00     0.571 A  
HETATM   22  C   UNL     1     -10.335   9.665  64.451  1.00  0.00     1.550 A  
HETATM   23  F   UNL     1     -11.753  10.128  66.254  1.00  0.00     0.724 F  
HETATM   24  C   UNL     1      -9.197   9.054  63.948  1.00  0.00     0.483 A  
HETATM   25  C   UNL     1      -8.370   8.304  64.767  1.00  0.00    -0.129 A  
HETATM   26  F   UNL     1      -8.891   9.193  62.651  1.00  0.00    -0.210 F  
HETATM   27  C   UNL     1      -8.690   8.169  66.118  1.00  0.00    -0.156 A  
HETATM   28  F   UNL     1      -7.859   7.427  66.863  1.00  0.00    -0.104 F  
ENDBRANCH  18  20
ENDBRANCH  14  16
ENDBRANCH   8  10
ENDBRANCH   5   8
TORSDOF 4
ENDMDL
MODEL      233
REMARK 921   NORMALIZED FREE ENERGY PREDICTED BY IDOCK:   31.19 KCAL/MOL
REMARK 922        TOTAL FREE ENERGY PREDICTED BY IDOCK:   38.13 KCAL/MOL
REMARK 923 INTER-LIGAND FREE ENERGY PREDICTED BY IDOCK:   37.37 KCAL/MOL
REMARK 924 INTRA-LIGAND FREE ENERGY PREDICTED BY IDOCK:    0.77 KCAL/MOL
REMARK 927      BINDING AFFINITY PREDICTED BY RF-SCORE:    0.00 PKD
ROOT
HETATM    1  C   UNL     1      -9.036  19.179  72.202  1.00  0.00     6.596 C  
HETATM    2  N   UNL     1      -8.929  17.792  71.761  1.00  0.00    11.046 NA 
HETATM    3  C   UNL     1     -10.041  16.963  72.249  1.00  0.00     6.539 C  
HETATM    4  C   UNL     1     -11.366  17.165  71.500  1.00  0.00     1.083 C  
HETATM    5  C   UNL     1     -11.202  17.034  69.976  1.00  0.00     0.549 C  
HETATM    6  C   UNL     1     -10.061  17.955  69.529  1.00  0.00     0.150 C  
HETATM    7  C   UNL     1      -8.776  17.682  70.307  1.00  0.00     3.140 C  
ENDROOT
BRANCH   5   8
HETATM    8  C   UNL     1     -11.016  15.563  69.562  1.00  0.00    -0.273 C  
HETATM    9  O   UNL     1     -10.754  14.672  70.372  1.00  0.00    -0.010 OA 
BRANCH   8  10
HETATM   10  C   UNL     1     -11.223  15.179  68.136  1.00  0.00    -0.320 A  
HETATM   11  C   UNL     1     -11.609  16.124  67.198  1.00  0.00     0.462 A  
HETATM   12  C   UNL     1     -11.783  15.706  65.883  1.00  0.00     0.443 A  
HETATM   13  C   UNL     1     -11.576  14.366  65.559  1.00  0.00    -0.347 A  
HETATM   14  C   UNL     1     -11.192  13.482  66.563  1.00  0.00    -0.306 A  
HETATM   15  N   UNL     1     -11.004  13.887  67.826  1.00  0.00    -0.252 NA 
BRANCH  14  16
HETATM   16  N   UNL     1     -11.001  12.133  66.230  1.00  0.00    -0.282 N  
HETATM   17  H   UNL     1     -10.626  11.919  65.306  1.00  0.00     0.000 HD 
HETATM   18  C   UNL     1     -11.289  11.072  67.074  1.00  0.00    -0.085 C  
HETATM   19  O   UNL     1     -11.759  11.171  68.202  1.00  0.00    -0.480 OA 
BRANCH  18  20
HETATM   20  C   UNL     1     -10.995   9.703  66.561  1.00  0.00     0.236 A  
HETATM   21  C   UNL     1     -11.111   8.559  67.357  1.00  0.00     0.431 A  
HETATM   22  C   UNL     1     -10.851   7.287  66.849  1.00  0.00    -0.265 A  
HETATM   23  F   UNL     1     -11.482   8.648  68.645  1.00  0.00     0.234 F  
HETATM   24  C   UNL     1     -10.466   7.154  65.524  1.00  0.00     2.811 A  
HETATM   25  C   UNL     1     -10.333   8.263  64.705  1.00  0.00     4.657 A  
HETATM   26  F   UNL     1     -10.220   5.935  65.027  1.00  0.00     0.677 F  
HETATM   27  C   UNL     1     -10.596   9.530  65.228  1.00  0.00     1.355 A  
HETATM   28  F   UNL     1     -10.447  10.568  64.394  1.00  0.00    -0.422 F  
ENDBRANCH  18  20
ENDBRANCH  14  16
ENDBRANCH   8  10
ENDBRANCH   5   8
TORSDOF 4
ENDMDL
MODEL      234
REMARK 921   NORMALIZED FREE ENERGY PREDICTED BY IDOCK:   50.53 KCAL/MOL
REMARK 922        TOTAL FREE ENERGY PREDICTED BY IDOCK:   61.99 KCAL/MOL
REMARK 923 INTER-LIGAND FREE ENERGY PREDICTED BY IDOCK:   57.23 KCAL/MOL
REMARK 924 INTRA-LIGAND FREE ENERGY PREDICTED BY IDOCK:    4.76 KCAL/MOL
REMARK 927      BINDING AFFINITY PREDICTED BY RF-SCORE:    0.00 PKD
ROOT
HETATM    1  C   UNL     1     -10.746  19.101  71.259  1.00  0.00     3.372 C  
HETATM    2  N   UNL     1      -9.416  18.912  70.689  1.00  0.00     2.289 NA 
HETATM    3  C   UNL     1      -8.384  19.660  71.419  1.00  0.00     3.246 C  
HETATM    4  C   UNL     1      -7.967  19.034  72.758  1.00  0.00     6.951 C  
HETATM    5  C   UNL     1      -7.582  17.552  72.615  1.00  0.00    12.709 C  
HETATM    6  C   UNL     1      -8.719  16.823  71.888  1.00  0.00    11.289 C  
HETATM    7  C   UNL     1      -9.063  17.495  70.561  1.00  0.00     3.913 C  
ENDROOT
BRANCH   5   8
HETATM    8  C   UNL     1      -6.208  17.396  71.940  1.00  0.00     2.907 C  
HETATM    9  O   UNL     1      -5.155  17.347  72.578  1.00  0.00     0.391 OA 
BRANCH   8  10
HETATM   10  C   UNL     1      -6.142  17.232  70.459  1.00  0.00     0.419 A  
HETATM   11  C   UNL     1      -5.180  16.419  69.880  1.00  0.00    -0.150 A  
HETATM   12  C   UNL     1      -5.171  16.303  68.493  1.00  0.00    -0.102 A  
HETATM   13  C   UNL     1      -6.113  17.007  67.743  1.00  0.00    -0.150 A  
HETATM   14  C   UNL     1      -7.043  17.802  68.406  1.00  0.00    -0.239 A  
HETATM   15  N   UNL     1      -7.065  17.899  69.741  1.00  0.00     0.252 NA 
BRANCH  14  16
HETATM   16  N   UNL     1      -7.976  18.518  67.640  1.00  0.00    -0.244 N  
HETATM   17  H   UNL     1      -7.809  19.513  67.494  1.00  0.00     0.000 HD 
HETATM   18  C   UNL     1      -9.110  17.960  67.070  1.00  0.00    -0.253 C  
HETATM   19  O   UNL     1      -9.451  16.787  67.174  1.00  0.00    -0.226 OA 
BRANCH  18  20
HETATM   20  C   UNL     1      -9.975  18.868  66.264  1.00  0.00    -0.429 A  
HETATM   21  C   UNL     1      -9.938  20.259  66.396  1.00  0.00    -0.380 A  
HETATM   22  C   UNL     1     -10.742  21.088  65.615  1.00  0.00     2.193 A  
HETATM   23  F   UNL     1      -9.120  20.848  67.283  1.00  0.00    -0.477 F  
HETATM   24  C   UNL     1     -11.600  20.518  64.687  1.00  0.00     2.648 A  
HETATM   25  C   UNL     1     -11.671  19.144  64.531  1.00  0.00     5.179 A  
HETATM   26  F   UNL     1     -12.372  21.309  63.929  1.00  0.00     1.997 F  
HETATM   27  C   UNL     1     -10.860  18.328  65.319  1.00  0.00     0.514 A  
HETATM   28  F   UNL     1     -10.973  17.005  65.131  1.00  0.00    -0.385 F  
ENDBRANCH  18  20
ENDBRANCH  14  16
ENDBRANCH   8  10
ENDBRANCH   5   8
TORSDOF 4
ENDMDL
