MODEL        1
REMARK 921   NORMALIZED FREE ENERGY PREDICTED BY IDOCK:   -6.63 KCAL/MOL
REMARK 922        TOTAL FREE ENERGY PREDICTED BY IDOCK:  -10.89 KCAL/MOL
REMARK 923 INTER-LIGAND FREE ENERGY PREDICTED BY IDOCK:   -8.96 KCAL/MOL
REMARK 924 INTRA-LIGAND FREE ENERGY PREDICTED BY IDOCK:   -1.93 KCAL/MOL
REMARK 927      BINDING AFFINITY PREDICTED BY RF-SCORE:    0.00 PKD
ROOT
HETATM    1  C   UNL     1     -10.044  12.075  67.090  1.00  0.00    -0.217 C  
HETATM    2  C   UNL     1     -11.094  10.960  67.215  1.00  0.00    -0.350 C  
HETATM    3  C   UNL     1     -10.679  13.433  67.557  1.00  0.00    -0.263 C  
HETATM    4  C   UNL     1     -11.546  10.760  68.659  1.00  0.00    -0.342 C  
HETATM    5  C   UNL     1     -11.559  13.305  68.816  1.00  0.00    -0.350 A  
HETATM    6  C   UNL     1     -11.887  12.049  69.361  1.00  0.00    -0.384 A  
HETATM    7  H   UNL     1     -13.608  13.916  73.021  1.00  0.00     0.000 HD 
HETATM    8  C   UNL     1     -12.026  14.466  69.471  1.00  0.00    -0.376 A  
HETATM    9  C   UNL     1     -12.507  11.984  70.622  1.00  0.00    -0.335 A  
HETATM   10  C   UNL     1     -12.841  13.151  71.303  1.00  0.00    -0.296 A  
HETATM   11  O   UNL     1     -13.380  13.119  72.555  1.00  0.00    -0.534 OA 
HETATM   12  C   UNL     1     -12.630  14.390  70.724  1.00  0.00    -0.426 A  
ENDROOT
BRANCH   1  13
HETATM   13  C   UNL     1      -8.696  11.634  67.672  1.00  0.00    -0.156 A  
HETATM   14  C   UNL     1      -8.549  11.056  68.940  1.00  0.00    -0.122 A  
HETATM   15  C   UNL     1      -6.140  11.019  68.718  1.00  0.00    -0.043 A  
HETATM   16  C   UNL     1      -6.264  11.522  67.425  1.00  0.00    -0.090 A  
HETATM   17  C   UNL     1      -7.528  11.823  66.907  1.00  0.00    -0.106 A  
HETATM   18  C   UNL     1      -7.286  10.774  69.471  1.00  0.00    -0.125 A  
ENDBRANCH   1  13
BRANCH   3  19
HETATM   19  C   UNL     1      -9.635  14.558  67.625  1.00  0.00    -0.214 A  
HETATM   20  C   UNL     1      -9.260  15.224  66.454  1.00  0.00    -0.342 A  
HETATM   21  C   UNL     1      -8.287  16.202  66.456  1.00  0.00    -0.352 A  
HETATM   22  C   UNL     1      -7.675  16.602  67.644  1.00  0.00    -0.166 A  
HETATM   23  C   UNL     1      -9.028  14.958  68.826  1.00  0.00    -0.188 A  
HETATM   24  C   UNL     1      -8.057  15.980  68.835  1.00  0.00    -0.218 A  
BRANCH  22  25
HETATM   25  O   UNL     1      -6.710  17.588  67.707  1.00  0.00    -0.167 OA 
BRANCH  25  26
HETATM   26  C   UNL     1      -7.084  18.641  68.607  1.00  0.00    -0.288 C  
BRANCH  26  27
HETATM   27  C   UNL     1      -7.268  20.007  67.952  1.00  0.00    -0.290 C  
BRANCH  27  28
HETATM   28  N   UNL     1      -8.673  20.184  67.540  1.00  0.00    -0.339 NA 
HETATM   29  C   UNL     1      -8.946  19.809  66.149  1.00  0.00    -0.336 C  
HETATM   30  C   UNL     1     -10.455  19.691  66.125  1.00  0.00    -0.624 C  
HETATM   31  C   UNL     1     -10.781  19.074  67.473  1.00  0.00    -0.532 C  
HETATM   32  C   UNL     1      -9.608  19.439  68.379  1.00  0.00    -0.388 C  
ENDBRANCH  27  28
ENDBRANCH  26  27
ENDBRANCH  25  26
ENDBRANCH  22  25
ENDBRANCH   3  19
TORSDOF 6
ENDMDL
MODEL        2
REMARK 921   NORMALIZED FREE ENERGY PREDICTED BY IDOCK:   -6.52 KCAL/MOL
REMARK 922        TOTAL FREE ENERGY PREDICTED BY IDOCK:  -10.73 KCAL/MOL
REMARK 923 INTER-LIGAND FREE ENERGY PREDICTED BY IDOCK:   -9.33 KCAL/MOL
REMARK 924 INTRA-LIGAND FREE ENERGY PREDICTED BY IDOCK:   -1.40 KCAL/MOL
REMARK 927      BINDING AFFINITY PREDICTED BY RF-SCORE:    0.00 PKD
ROOT
HETATM    1  C   UNL     1      -8.506   9.519  66.760  1.00  0.00    -0.129 C  
HETATM    2  C   UNL     1      -7.895   9.808  65.380  1.00  0.00    -0.122 C  
HETATM    3  C   UNL     1      -9.360  10.756  67.213  1.00  0.00    -0.165 C  
HETATM    4  C   UNL     1      -8.967  10.016  64.312  1.00  0.00    -0.269 C  
HETATM    5  C   UNL     1     -10.205  11.373  66.081  1.00  0.00    -0.282 A  
HETATM    6  C   UNL     1     -10.062  10.957  64.744  1.00  0.00    -0.383 A  
HETATM    7  H   UNL     1     -13.677  13.234  63.487  1.00  0.00     0.000 HD 
HETATM    8  C   UNL     1     -11.175  12.355  66.379  1.00  0.00    -0.365 A  
HETATM    9  C   UNL     1     -10.994  11.388  63.782  1.00  0.00    -0.448 A  
HETATM   10  C   UNL     1     -12.020  12.259  64.137  1.00  0.00    -0.432 A  
HETATM   11  O   UNL     1     -12.977  12.640  63.244  1.00  0.00    -0.595 OA 
HETATM   12  C   UNL     1     -12.100  12.767  65.422  1.00  0.00    -0.512 A  
ENDROOT
BRANCH   1  13
HETATM   13  C   UNL     1      -9.125   8.117  66.810  1.00  0.00    -0.191 A  
HETATM   14  C   UNL     1     -10.504   7.874  66.734  1.00  0.00    -0.317 A  
HETATM   15  C   UNL     1     -10.173   5.504  67.087  1.00  0.00    -0.260 A  
HETATM   16  C   UNL     1      -8.796   5.709  67.090  1.00  0.00    -0.106 A  
HETATM   17  C   UNL     1      -8.278   7.001  66.950  1.00  0.00    -0.117 A  
HETATM   18  C   UNL     1     -11.027   6.588  66.896  1.00  0.00    -0.408 A  
ENDBRANCH   1  13
BRANCH   3  19
HETATM   19  C   UNL     1     -10.142  10.469  68.504  1.00  0.00    -0.187 A  
HETATM   20  C   UNL     1     -11.503  10.783  68.570  1.00  0.00    -0.362 A  
HETATM   21  C   UNL     1     -12.235  10.595  69.725  1.00  0.00    -0.318 A  
HETATM   22  C   UNL     1     -11.651  10.032  70.859  1.00  0.00    -0.378 A  
HETATM   23  C   UNL     1      -9.548   9.896  69.639  1.00  0.00    -0.249 A  
HETATM   24  C   UNL     1     -10.302   9.674  70.810  1.00  0.00    -0.356 A  
BRANCH  22  25
HETATM   25  O   UNL     1     -12.341   9.803  72.034  1.00  0.00    -0.354 OA 
BRANCH  25  26
HETATM   26  C   UNL     1     -12.135   8.469  72.521  1.00  0.00    -0.326 C  
BRANCH  26  27
HETATM   27  C   UNL     1     -12.954   7.396  71.810  1.00  0.00    -0.325 C  
BRANCH  27  28
HETATM   28  N   UNL     1     -12.130   6.192  71.594  1.00  0.00    -0.156 NA 
HETATM   29  C   UNL     1     -11.260   6.259  70.417  1.00  0.00    -0.373 C  
HETATM   30  C   UNL     1     -10.275   5.136  70.665  1.00  0.00    -0.326 C  
HETATM   31  C   UNL     1     -10.039   5.202  72.163  1.00  0.00    -0.247 C  
HETATM   32  C   UNL     1     -11.283   5.873  72.741  1.00  0.00    -0.276 C  
ENDBRANCH  27  28
ENDBRANCH  26  27
ENDBRANCH  25  26
ENDBRANCH  22  25
ENDBRANCH   3  19
TORSDOF 6
ENDMDL
MODEL        3
REMARK 921   NORMALIZED FREE ENERGY PREDICTED BY IDOCK:   -6.44 KCAL/MOL
REMARK 922        TOTAL FREE ENERGY PREDICTED BY IDOCK:  -10.62 KCAL/MOL
REMARK 923 INTER-LIGAND FREE ENERGY PREDICTED BY IDOCK:   -9.00 KCAL/MOL
REMARK 924 INTRA-LIGAND FREE ENERGY PREDICTED BY IDOCK:   -1.62 KCAL/MOL
REMARK 927      BINDING AFFINITY PREDICTED BY RF-SCORE:    0.00 PKD
ROOT
HETATM    1  C   UNL     1      -8.492   9.474  67.043  1.00  0.00    -0.128 C  
HETATM    2  C   UNL     1      -8.038  10.015  65.678  1.00  0.00    -0.138 C  
HETATM    3  C   UNL     1      -9.206  10.623  67.840  1.00  0.00    -0.150 C  
HETATM    4  C   UNL     1      -9.217  10.474  64.824  1.00  0.00    -0.266 C  
HETATM    5  C   UNL     1     -10.144  11.487  66.973  1.00  0.00    -0.237 A  
HETATM    6  C   UNL     1     -10.192  11.346  65.573  1.00  0.00    -0.312 A  
HETATM    7  H   UNL     1     -13.787  13.958  65.278  1.00  0.00     0.000 HD 
HETATM    8  C   UNL     1     -11.008  12.421  67.585  1.00  0.00    -0.276 A  
HETATM    9  C   UNL     1     -11.206  11.996  64.847  1.00  0.00    -0.374 A  
HETATM   10  C   UNL     1     -12.125  12.812  65.499  1.00  0.00    -0.465 A  
HETATM   11  O   UNL     1     -13.159  13.401  64.833  1.00  0.00    -0.723 OA 
HETATM   12  C   UNL     1     -12.016  13.052  66.858  1.00  0.00    -0.415 A  
ENDROOT
BRANCH   1  13
HETATM   13  C   UNL     1      -9.185   8.114  66.897  1.00  0.00    -0.198 A  
HETATM   14  C   UNL     1     -10.572   7.936  66.986  1.00  0.00    -0.381 A  
HETATM   15  C   UNL     1     -10.346   5.537  66.787  1.00  0.00    -0.321 A  
HETATM   16  C   UNL     1      -8.972   5.693  66.619  1.00  0.00    -0.120 A  
HETATM   17  C   UNL     1      -8.399   6.968  66.670  1.00  0.00    -0.118 A  
HETATM   18  C   UNL     1     -11.148   6.662  66.958  1.00  0.00    -0.395 A  
ENDBRANCH   1  13
BRANCH   3  19
HETATM   19  C   UNL     1      -9.841  10.107  69.140  1.00  0.00    -0.225 A  
HETATM   20  C   UNL     1      -9.035   9.498  70.107  1.00  0.00    -0.269 A  
HETATM   21  C   UNL     1      -9.568   8.969  71.265  1.00  0.00    -0.361 A  
HETATM   22  C   UNL     1     -10.931   9.072  71.539  1.00  0.00    -0.348 A  
HETATM   23  C   UNL     1     -11.214  10.220  69.411  1.00  0.00    -0.292 A  
HETATM   24  C   UNL     1     -11.754   9.709  70.609  1.00  0.00    -0.353 A  
BRANCH  22  25
HETATM   25  O   UNL     1     -11.513   8.579  72.691  1.00  0.00    -0.351 OA 
BRANCH  25  26
HETATM   26  C   UNL     1     -10.854   7.392  73.155  1.00  0.00    -0.386 C  
BRANCH  26  27
HETATM   27  C   UNL     1     -11.396   6.091  72.569  1.00  0.00    -0.300 C  
BRANCH  27  28
HETATM   28  N   UNL     1     -10.301   5.322  71.950  1.00  0.00    -0.210 NA 
HETATM   29  C   UNL     1     -10.277   3.903  72.318  1.00  0.00    -0.146 C  
HETATM   30  C   UNL     1      -9.367   3.301  71.268  1.00  0.00    -0.206 C  
HETATM   31  C   UNL     1      -9.734   4.063  70.007  1.00  0.00    -0.264 C  
HETATM   32  C   UNL     1     -10.316   5.389  70.490  1.00  0.00    -0.274 C  
ENDBRANCH  27  28
ENDBRANCH  26  27
ENDBRANCH  25  26
ENDBRANCH  22  25
ENDBRANCH   3  19
TORSDOF 6
ENDMDL
MODEL        4
REMARK 921   NORMALIZED FREE ENERGY PREDICTED BY IDOCK:   -6.29 KCAL/MOL
REMARK 922        TOTAL FREE ENERGY PREDICTED BY IDOCK:  -10.43 KCAL/MOL
REMARK 923 INTER-LIGAND FREE ENERGY PREDICTED BY IDOCK:   -8.35 KCAL/MOL
REMARK 924 INTRA-LIGAND FREE ENERGY PREDICTED BY IDOCK:   -2.08 KCAL/MOL
REMARK 927      BINDING AFFINITY PREDICTED BY RF-SCORE:    0.00 PKD
ROOT
HETATM    1  C   UNL     1     -11.552  12.656  67.644  1.00  0.00    -0.414 C  
HETATM    2  C   UNL     1     -11.522  11.244  68.249  1.00  0.00    -0.378 C  
HETATM    3  C   UNL     1     -10.390  13.508  68.270  1.00  0.00    -0.253 C  
HETATM    4  C   UNL     1     -10.221  10.512  67.928  1.00  0.00    -0.213 C  
HETATM    5  C   UNL     1      -9.066  12.732  68.418  1.00  0.00    -0.129 A  
HETATM    6  C   UNL     1      -8.991  11.348  68.176  1.00  0.00    -0.169 A  
HETATM    7  H   UNL     1      -4.542  11.397  68.374  1.00  0.00     0.000 HD 
HETATM    8  C   UNL     1      -7.882  13.419  68.770  1.00  0.00    -0.009 A  
HETATM    9  C   UNL     1      -7.731  10.724  68.115  1.00  0.00    -0.102 A  
HETATM   10  C   UNL     1      -6.571  11.458  68.340  1.00  0.00    -0.063 A  
HETATM   11  O   UNL     1      -5.334  10.896  68.220  1.00  0.00    -0.040 OA 
HETATM   12  C   UNL     1      -6.640  12.794  68.694  1.00  0.00    -0.084 A  
ENDROOT
BRANCH   1  13
HETATM   13  C   UNL     1     -11.712  12.604  66.120  1.00  0.00    -0.461 A  
HETATM   14  C   UNL     1     -11.005  11.720  65.295  1.00  0.00    -0.350 A  
HETATM   15  C   UNL     1     -11.954  12.712  63.304  1.00  0.00    -0.526 A  
HETATM   16  C   UNL     1     -12.726  13.551  64.104  1.00  0.00    -0.038 A  
HETATM   17  C   UNL     1     -12.608  13.494  65.497  1.00  0.00    -0.531 A  
HETATM   18  C   UNL     1     -11.102  11.786  63.902  1.00  0.00    -0.482 A  
ENDBRANCH   1  13
BRANCH   3  19
HETATM   19  C   UNL     1     -10.251  14.875  67.584  1.00  0.00    -0.236 A  
HETATM   20  C   UNL     1     -10.713  16.024  68.234  1.00  0.00    -0.298 A  
HETATM   21  C   UNL     1     -10.660  17.266  67.636  1.00  0.00    -0.350 A  
HETATM   22  C   UNL     1     -10.092  17.429  66.372  1.00  0.00    -0.327 A  
HETATM   23  C   UNL     1      -9.673  15.032  66.314  1.00  0.00    -0.316 A  
HETATM   24  C   UNL     1      -9.589  16.305  65.715  1.00  0.00    -0.266 A  
BRANCH  22  25
HETATM   25  O   UNL     1      -9.996  18.651  65.735  1.00  0.00    -0.504 OA 
BRANCH  25  26
HETATM   26  C   UNL     1      -9.241  19.596  66.508  1.00  0.00    -0.378 C  
BRANCH  26  27
HETATM   27  C   UNL     1      -7.767  19.701  66.127  1.00  0.00    -0.321 C  
BRANCH  27  28
HETATM   28  N   UNL     1      -6.938  18.975  67.107  1.00  0.00    -0.203 NA 
HETATM   29  C   UNL     1      -7.581  18.776  68.410  1.00  0.00    -0.301 C  
HETATM   30  C   UNL     1      -6.728  17.697  69.041  1.00  0.00    -0.250 C  
HETATM   31  C   UNL     1      -6.393  16.786  67.874  1.00  0.00    -0.151 C  
HETATM   32  C   UNL     1      -6.514  17.662  66.630  1.00  0.00    -0.204 C  
ENDBRANCH  27  28
ENDBRANCH  26  27
ENDBRANCH  25  26
ENDBRANCH  22  25
ENDBRANCH   3  19
TORSDOF 6
ENDMDL
MODEL        5
REMARK 921   NORMALIZED FREE ENERGY PREDICTED BY IDOCK:   -6.26 KCAL/MOL
REMARK 922        TOTAL FREE ENERGY PREDICTED BY IDOCK:  -10.38 KCAL/MOL
REMARK 923 INTER-LIGAND FREE ENERGY PREDICTED BY IDOCK:   -8.69 KCAL/MOL
REMARK 924 INTRA-LIGAND FREE ENERGY PREDICTED BY IDOCK:   -1.69 KCAL/MOL
REMARK 927      BINDING AFFINITY PREDICTED BY RF-SCORE:    0.00 PKD
ROOT
HETATM    1  C   UNL     1     -10.173  12.249  67.055  1.00  0.00    -0.230 C  
HETATM    2  C   UNL     1     -11.346  11.271  67.215  1.00  0.00    -0.329 C  
HETATM    3  C   UNL     1     -10.626  13.676  67.528  1.00  0.00    -0.243 C  
HETATM    4  C   UNL     1     -11.781  11.131  68.672  1.00  0.00    -0.389 C  
HETATM    5  C   UNL     1     -11.482  13.660  68.810  1.00  0.00    -0.346 A  
HETATM    6  C   UNL     1     -11.944  12.456  69.373  1.00  0.00    -0.319 A  
HETATM    7  H   UNL     1     -13.330  14.531  73.062  1.00  0.00     0.000 HD 
HETATM    8  C   UNL     1     -11.788  14.871  69.470  1.00  0.00    -0.360 A  
HETATM    9  C   UNL     1     -12.535  12.471  70.650  1.00  0.00    -0.323 A  
HETATM   10  C   UNL     1     -12.707  13.672  71.331  1.00  0.00    -0.352 A  
HETATM   11  O   UNL     1     -13.213  13.711  72.597  1.00  0.00    -0.503 OA 
HETATM   12  C   UNL     1     -12.363  14.874  70.738  1.00  0.00    -0.392 A  
ENDROOT
BRANCH   1  13
HETATM   13  C   UNL     1      -8.873  11.651  67.605  1.00  0.00    -0.159 A  
HETATM   14  C   UNL     1      -7.644  11.713  66.934  1.00  0.00    -0.138 A  
HETATM   15  C   UNL     1      -6.572  10.362  68.629  1.00  0.00    -0.052 A  
HETATM   16  C   UNL     1      -7.762  10.349  69.353  1.00  0.00    -0.158 A  
HETATM   17  C   UNL     1      -8.898  10.990  68.848  1.00  0.00    -0.120 A  
HETATM   18  C   UNL     1      -6.511  11.056  67.423  1.00  0.00    -0.067 A  
ENDBRANCH   1  13
BRANCH   3  19
HETATM   19  C   UNL     1      -9.452  14.667  67.562  1.00  0.00    -0.198 A  
HETATM   20  C   UNL     1      -8.674  14.776  68.718  1.00  0.00    -0.178 A  
HETATM   21  C   UNL     1      -7.645  15.690  68.816  1.00  0.00    -0.162 A  
HETATM   22  C   UNL     1      -7.308  16.507  67.737  1.00  0.00    -0.138 A  
HETATM   23  C   UNL     1      -9.116  15.482  66.469  1.00  0.00    -0.336 A  
HETATM   24  C   UNL     1      -8.044  16.394  66.556  1.00  0.00    -0.345 A  
BRANCH  22  25
HETATM   25  O   UNL     1      -6.276  17.425  67.773  1.00  0.00    -0.143 OA 
BRANCH  25  26
HETATM   26  C   UNL     1      -6.634  18.655  67.127  1.00  0.00    -0.195 C  
BRANCH  26  27
HETATM   27  C   UNL     1      -7.232  19.711  68.053  1.00  0.00    -0.286 C  
BRANCH  27  28
HETATM   28  N   UNL     1      -8.633  19.976  67.679  1.00  0.00    -0.328 NA 
HETATM   29  C   UNL     1      -8.938  19.729  66.266  1.00  0.00    -0.376 C  
HETATM   30  C   UNL     1     -10.450  19.672  66.256  1.00  0.00    -0.621 C  
HETATM   31  C   UNL     1     -10.784  18.958  67.553  1.00  0.00    -0.509 C  
HETATM   32  C   UNL     1      -9.587  19.200  68.468  1.00  0.00    -0.395 C  
ENDBRANCH  27  28
ENDBRANCH  26  27
ENDBRANCH  25  26
ENDBRANCH  22  25
ENDBRANCH   3  19
TORSDOF 6
ENDMDL
MODEL        6
REMARK 921   NORMALIZED FREE ENERGY PREDICTED BY IDOCK:   -6.18 KCAL/MOL
REMARK 922        TOTAL FREE ENERGY PREDICTED BY IDOCK:  -10.27 KCAL/MOL
REMARK 923 INTER-LIGAND FREE ENERGY PREDICTED BY IDOCK:   -8.72 KCAL/MOL
REMARK 924 INTRA-LIGAND FREE ENERGY PREDICTED BY IDOCK:   -1.55 KCAL/MOL
REMARK 927      BINDING AFFINITY PREDICTED BY RF-SCORE:    0.00 PKD
ROOT
HETATM    1  C   UNL     1     -10.691   5.753  70.971  1.00  0.00    -0.326 C  
HETATM    2  C   UNL     1     -10.102   4.463  71.562  1.00  0.00    -0.221 C  
HETATM    3  C   UNL     1     -10.569   6.906  72.029  1.00  0.00    -0.238 C  
HETATM    4  C   UNL     1      -8.616   4.606  71.884  1.00  0.00    -0.128 C  
HETATM    5  C   UNL     1      -9.223   6.915  72.782  1.00  0.00    -0.152 A  
HETATM    6  C   UNL     1      -8.291   5.870  72.638  1.00  0.00    -0.119 A  
HETATM    7  H   UNL     1      -5.156   8.159  74.822  1.00  0.00     0.000 HD 
HETATM    8  C   UNL     1      -8.885   8.008  73.611  1.00  0.00    -0.326 A  
HETATM    9  C   UNL     1      -6.996   6.020  73.169  1.00  0.00    -0.084 A  
HETATM   10  C   UNL     1      -6.654   7.170  73.874  1.00  0.00    -0.069 A  
HETATM   11  O   UNL     1      -5.389   7.374  74.341  1.00  0.00    -0.057 OA 
HETATM   12  C   UNL     1      -7.598   8.152  74.122  1.00  0.00    -0.256 A  
ENDROOT
BRANCH   1  13
HETATM   13  C   UNL     1     -10.189   5.986  69.541  1.00  0.00    -0.267 A  
HETATM   14  C   UNL     1      -8.833   6.053  69.195  1.00  0.00    -0.119 A  
HETATM   15  C   UNL     1      -9.375   6.596  66.901  1.00  0.00    -0.171 A  
HETATM   16  C   UNL     1     -10.728   6.460  67.202  1.00  0.00    -0.433 A  
HETATM   17  C   UNL     1     -11.130   6.155  68.507  1.00  0.00    -0.352 A  
HETATM   18  C   UNL     1      -8.426   6.380  67.897  1.00  0.00    -0.118 A  
ENDBRANCH   1  13
BRANCH   3  19
HETATM   19  C   UNL     1     -10.977   8.265  71.443  1.00  0.00    -0.301 A  
HETATM   20  C   UNL     1     -12.231   8.801  71.751  1.00  0.00    -0.415 A  
HETATM   21  C   UNL     1     -12.664   9.992  71.204  1.00  0.00    -0.484 A  
HETATM   22  C   UNL     1     -11.839  10.735  70.360  1.00  0.00    -0.358 A  
HETATM   23  C   UNL     1     -10.138   9.010  70.599  1.00  0.00    -0.284 A  
HETATM   24  C   UNL     1     -10.566  10.243  70.066  1.00  0.00    -0.321 A  
BRANCH  22  25
HETATM   25  O   UNL     1     -12.214  11.942  69.802  1.00  0.00    -0.251 OA 
BRANCH  25  26
HETATM   26  C   UNL     1     -11.293  12.367  68.787  1.00  0.00    -0.293 C  
BRANCH  26  27
HETATM   27  C   UNL     1     -11.907  13.232  67.690  1.00  0.00    -0.357 C  
BRANCH  27  28
HETATM   28  N   UNL     1     -12.092  12.436  66.463  1.00  0.00    -0.598 NA 
HETATM   29  C   UNL     1     -12.365  13.231  65.262  1.00  0.00    -0.476 C  
HETATM   30  C   UNL     1     -12.102  12.247  64.142  1.00  0.00    -0.525 C  
HETATM   31  C   UNL     1     -10.905  11.459  64.642  1.00  0.00    -0.359 C  
HETATM   32  C   UNL     1     -10.945  11.582  66.163  1.00  0.00    -0.266 C  
ENDBRANCH  27  28
ENDBRANCH  26  27
ENDBRANCH  25  26
ENDBRANCH  22  25
ENDBRANCH   3  19
TORSDOF 6
ENDMDL
MODEL        7
REMARK 921   NORMALIZED FREE ENERGY PREDICTED BY IDOCK:   -6.15 KCAL/MOL
REMARK 922        TOTAL FREE ENERGY PREDICTED BY IDOCK:  -10.24 KCAL/MOL
REMARK 923 INTER-LIGAND FREE ENERGY PREDICTED BY IDOCK:   -8.04 KCAL/MOL
REMARK 924 INTRA-LIGAND FREE ENERGY PREDICTED BY IDOCK:   -2.20 KCAL/MOL
REMARK 927      BINDING AFFINITY PREDICTED BY RF-SCORE:    0.00 PKD
ROOT
HETATM    1  C   UNL     1     -10.510   8.420  67.033  1.00  0.00    -0.375 C  
HETATM    2  C   UNL     1     -10.567   6.898  67.235  1.00  0.00    -0.393 C  
HETATM    3  C   UNL     1     -10.819   9.131  68.398  1.00  0.00    -0.098 C  
HETATM    4  C   UNL     1      -9.516   6.413  68.230  1.00  0.00    -0.121 C  
HETATM    5  C   UNL     1     -10.144   8.462  69.612  1.00  0.00    -0.199 A  
HETATM    6  C   UNL     1      -9.471   7.231  69.495  1.00  0.00    -0.155 A  
HETATM    7  H   UNL     1      -7.778   7.591  73.599  1.00  0.00     0.000 HD 
HETATM    8  C   UNL     1     -10.159   9.103  70.870  1.00  0.00    -0.356 A  
HETATM    9  C   UNL     1      -8.692   6.765  70.570  1.00  0.00    -0.147 A  
HETATM   10  C   UNL     1      -8.624   7.488  71.756  1.00  0.00    -0.115 A  
HETATM   11  O   UNL     1      -7.824   7.097  72.789  1.00  0.00    -0.090 OA 
HETATM   12  C   UNL     1      -9.375   8.639  71.924  1.00  0.00    -0.357 A  
ENDROOT
BRANCH   1  13
HETATM   13  C   UNL     1      -9.265   8.827  66.237  1.00  0.00    -0.261 A  
HETATM   14  C   UNL     1      -7.954   8.551  66.649  1.00  0.00    -0.100 A  
HETATM   15  C   UNL     1      -7.035   9.777  64.778  1.00  0.00    -0.122 A  
HETATM   16  C   UNL     1      -8.326  10.000  64.305  1.00  0.00    -0.169 A  
HETATM   17  C   UNL     1      -9.428   9.527  65.026  1.00  0.00    -0.273 A  
HETATM   18  C   UNL     1      -6.849   9.040  65.945  1.00  0.00    -0.080 A  
ENDBRANCH   1  13
BRANCH   3  19
HETATM   19  C   UNL     1     -10.607  10.650  68.312  1.00  0.00    -0.227 A  
HETATM   20  C   UNL     1     -11.715  11.503  68.311  1.00  0.00    -0.371 A  
HETATM   21  C   UNL     1     -11.577  12.870  68.180  1.00  0.00    -0.378 A  
HETATM   22  C   UNL     1     -10.315  13.458  68.095  1.00  0.00    -0.247 A  
HETATM   23  C   UNL     1      -9.333  11.235  68.233  1.00  0.00    -0.180 A  
HETATM   24  C   UNL     1      -9.189  12.634  68.131  1.00  0.00    -0.209 A  
BRANCH  22  25
HETATM   25  O   UNL     1     -10.119  14.821  67.982  1.00  0.00    -0.215 OA 
BRANCH  25  26
HETATM   26  C   UNL     1     -10.830  15.370  66.864  1.00  0.00    -0.313 C  
BRANCH  26  27
HETATM   27  C   UNL     1     -10.092  15.282  65.531  1.00  0.00    -0.375 C  
BRANCH  27  28
HETATM   28  N   UNL     1     -10.849  14.436  64.589  1.00  0.00    -0.379 NA 
HETATM   29  C   UNL     1     -10.249  13.122  64.342  1.00  0.00    -0.297 C  
HETATM   30  C   UNL     1     -11.387  12.348  63.712  1.00  0.00    -0.536 C  
HETATM   31  C   UNL     1     -12.606  12.830  64.479  1.00  0.00    -0.463 C  
HETATM   32  C   UNL     1     -12.228  14.208  65.015  1.00  0.00    -0.441 C  
ENDBRANCH  27  28
ENDBRANCH  26  27
ENDBRANCH  25  26
ENDBRANCH  22  25
ENDBRANCH   3  19
TORSDOF 6
ENDMDL
MODEL        8
REMARK 921   NORMALIZED FREE ENERGY PREDICTED BY IDOCK:   -6.14 KCAL/MOL
REMARK 922        TOTAL FREE ENERGY PREDICTED BY IDOCK:  -10.22 KCAL/MOL
REMARK 923 INTER-LIGAND FREE ENERGY PREDICTED BY IDOCK:   -8.70 KCAL/MOL
REMARK 924 INTRA-LIGAND FREE ENERGY PREDICTED BY IDOCK:   -1.53 KCAL/MOL
REMARK 927      BINDING AFFINITY PREDICTED BY RF-SCORE:    0.00 PKD
ROOT
HETATM    1  C   UNL     1     -10.627   8.567  66.965  1.00  0.00    -0.305 C  
HETATM    2  C   UNL     1     -10.619   7.042  67.151  1.00  0.00    -0.412 C  
HETATM    3  C   UNL     1     -10.907   9.252  68.349  1.00  0.00    -0.125 C  
HETATM    4  C   UNL     1      -9.510   6.587  68.097  1.00  0.00    -0.114 C  
HETATM    5  C   UNL     1     -10.157   8.597  69.527  1.00  0.00    -0.203 A  
HETATM    6  C   UNL     1      -9.445   7.394  69.368  1.00  0.00    -0.155 A  
HETATM    7  H   UNL     1      -7.599   7.775  73.404  1.00  0.00     0.000 HD 
HETATM    8  C   UNL     1     -10.145   9.224  70.792  1.00  0.00    -0.358 A  
HETATM    9  C   UNL     1      -8.604   6.946  70.405  1.00  0.00    -0.143 A  
HETATM   10  C   UNL     1      -8.516   7.659  71.596  1.00  0.00    -0.108 A  
HETATM   11  O   UNL     1      -7.660   7.288  72.590  1.00  0.00    -0.082 OA 
HETATM   12  C   UNL     1      -9.301   8.779  71.807  1.00  0.00    -0.350 A  
ENDROOT
BRANCH   1  13
HETATM   13  C   UNL     1      -9.432   9.029  66.123  1.00  0.00    -0.318 A  
HETATM   14  C   UNL     1      -8.098   8.748  66.447  1.00  0.00    -0.103 A  
HETATM   15  C   UNL     1      -7.295  10.079  64.595  1.00  0.00    -0.143 A  
HETATM   16  C   UNL     1      -8.612  10.312  64.207  1.00  0.00    -0.198 A  
HETATM   17  C   UNL     1      -9.669   9.789  64.961  1.00  0.00    -0.303 A  
HETATM   18  C   UNL     1      -7.038   9.286  65.710  1.00  0.00    -0.086 A  
ENDBRANCH   1  13
BRANCH   3  19
HETATM   19  C   UNL     1     -10.755  10.779  68.272  1.00  0.00    -0.253 A  
HETATM   20  C   UNL     1     -11.895  11.581  68.165  1.00  0.00    -0.306 A  
HETATM   21  C   UNL     1     -11.807  12.952  68.037  1.00  0.00    -0.390 A  
HETATM   22  C   UNL     1     -10.570  13.597  68.064  1.00  0.00    -0.249 A  
HETATM   23  C   UNL     1      -9.506  11.420  68.306  1.00  0.00    -0.187 A  
HETATM   24  C   UNL     1      -9.416  12.824  68.208  1.00  0.00    -0.203 A  
BRANCH  22  25
HETATM   25  O   UNL     1     -10.425  14.967  67.960  1.00  0.00    -0.241 OA 
BRANCH  25  26
HETATM   26  C   UNL     1     -11.384  15.666  68.766  1.00  0.00    -0.349 C  
BRANCH  26  27
HETATM   27  C   UNL     1     -11.033  15.749  70.249  1.00  0.00    -0.357 C  
BRANCH  27  28
HETATM   28  N   UNL     1     -12.256  15.957  71.047  1.00  0.00    -0.408 NA 
HETATM   29  C   UNL     1     -13.197  14.833  71.011  1.00  0.00    -0.380 C  
HETATM   30  C   UNL     1     -14.106  15.122  72.187  1.00  0.00    -0.654 C  
HETATM   31  C   UNL     1     -13.159  15.679  73.234  1.00  0.00    -0.675 C  
HETATM   32  C   UNL     1     -11.974  16.240  72.452  1.00  0.00    -0.540 C  
ENDBRANCH  27  28
ENDBRANCH  26  27
ENDBRANCH  25  26
ENDBRANCH  22  25
ENDBRANCH   3  19
TORSDOF 6
ENDMDL
MODEL        9
REMARK 921   NORMALIZED FREE ENERGY PREDICTED BY IDOCK:   -6.12 KCAL/MOL
REMARK 922        TOTAL FREE ENERGY PREDICTED BY IDOCK:  -10.20 KCAL/MOL
REMARK 923 INTER-LIGAND FREE ENERGY PREDICTED BY IDOCK:   -8.41 KCAL/MOL
REMARK 924 INTRA-LIGAND FREE ENERGY PREDICTED BY IDOCK:   -1.79 KCAL/MOL
REMARK 927      BINDING AFFINITY PREDICTED BY RF-SCORE:    0.00 PKD
ROOT
HETATM    1  C   UNL     1     -12.124  13.403  67.150  1.00  0.00    -0.367 C  
HETATM    2  C   UNL     1     -12.551  14.052  65.825  1.00  0.00    -0.512 C  
HETATM    3  C   UNL     1     -11.824  11.881  66.903  1.00  0.00    -0.177 C  
HETATM    4  C   UNL     1     -11.446  13.988  64.774  1.00  0.00    -0.371 C  
HETATM    5  C   UNL     1     -11.055  11.606  65.596  1.00  0.00    -0.308 A  
HETATM    6  C   UNL     1     -10.820  12.623  64.651  1.00  0.00    -0.349 A  
HETATM    7  H   UNL     1      -8.019  10.042  62.342  1.00  0.00     0.000 HD 
HETATM    8  C   UNL     1     -10.536  10.318  65.340  1.00  0.00    -0.125 A  
HETATM    9  C   UNL     1      -9.937  12.382  63.582  1.00  0.00    -0.199 A  
HETATM   10  C   UNL     1      -9.339  11.136  63.431  1.00  0.00    -0.268 A  
HETATM   11  O   UNL     1      -8.427  10.894  62.446  1.00  0.00    -0.241 OA 
HETATM   12  C   UNL     1      -9.654  10.094  64.286  1.00  0.00    -0.354 A  
ENDROOT
BRANCH   1  13
HETATM   13  C   UNL     1     -11.089  14.265  67.882  1.00  0.00    -0.293 A  
HETATM   14  C   UNL     1      -9.715  14.229  67.608  1.00  0.00    -0.220 A  
HETATM   15  C   UNL     1      -9.246  15.771  69.412  1.00  0.00    -0.263 A  
HETATM   16  C   UNL     1     -10.613  15.883  69.654  1.00  0.00    -0.301 A  
HETATM   17  C   UNL     1     -11.524  15.141  68.895  1.00  0.00    -0.337 A  
HETATM   18  C   UNL     1      -8.798  14.952  68.379  1.00  0.00    -0.178 A  
ENDBRANCH   1  13
BRANCH   3  19
HETATM   19  C   UNL     1     -11.223  11.208  68.146  1.00  0.00    -0.356 A  
HETATM   20  C   UNL     1      -9.865  10.876  68.162  1.00  0.00    -0.187 A  
HETATM   21  C   UNL     1      -9.292  10.221  69.233  1.00  0.00    -0.221 A  
HETATM   22  C   UNL     1     -10.040   9.911  70.368  1.00  0.00    -0.195 A  
HETATM   23  C   UNL     1     -11.983  10.905  69.287  1.00  0.00    -0.382 A  
HETATM   24  C   UNL     1     -11.391  10.265  70.395  1.00  0.00    -0.410 A  
BRANCH  22  25
HETATM   25  O   UNL     1      -9.513   9.275  71.475  1.00  0.00    -0.266 OA 
BRANCH  25  26
HETATM   26  C   UNL     1     -10.368   8.220  71.939  1.00  0.00    -0.255 C  
BRANCH  26  27
HETATM   27  C   UNL     1      -9.770   6.820  71.834  1.00  0.00    -0.155 C  
BRANCH  27  28
HETATM   28  N   UNL     1     -10.050   6.250  70.503  1.00  0.00    -0.185 NA 
HETATM   29  C   UNL     1     -11.336   6.659  69.930  1.00  0.00    -0.364 C  
HETATM   30  C   UNL     1     -11.182   6.294  68.469  1.00  0.00    -0.305 C  
HETATM   31  C   UNL     1      -9.733   6.637  68.173  1.00  0.00    -0.130 C  
HETATM   32  C   UNL     1      -9.018   6.572  69.520  1.00  0.00    -0.137 C  
ENDBRANCH  27  28
ENDBRANCH  26  27
ENDBRANCH  25  26
ENDBRANCH  22  25
ENDBRANCH   3  19
TORSDOF 6
ENDMDL
MODEL       10
REMARK 921   NORMALIZED FREE ENERGY PREDICTED BY IDOCK:   -6.11 KCAL/MOL
REMARK 922        TOTAL FREE ENERGY PREDICTED BY IDOCK:  -10.18 KCAL/MOL
REMARK 923 INTER-LIGAND FREE ENERGY PREDICTED BY IDOCK:   -8.69 KCAL/MOL
REMARK 924 INTRA-LIGAND FREE ENERGY PREDICTED BY IDOCK:   -1.49 KCAL/MOL
REMARK 927      BINDING AFFINITY PREDICTED BY RF-SCORE:    0.00 PKD
ROOT
HETATM    1  C   UNL     1     -12.098  14.070  68.729  1.00  0.00    -0.338 C  
HETATM    2  C   UNL     1     -12.158  14.993  69.956  1.00  0.00    -0.382 C  
HETATM    3  C   UNL     1     -11.740  14.924  67.461  1.00  0.00    -0.328 C  
HETATM    4  C   UNL     1     -10.812  15.656  70.240  1.00  0.00    -0.366 C  
HETATM    5  C   UNL     1     -10.649  15.983  67.716  1.00  0.00    -0.309 A  
HETATM    6  C   UNL     1     -10.173  16.253  69.012  1.00  0.00    -0.261 A  
HETATM    7  H   UNL     1      -6.850  18.765  67.435  1.00  0.00     0.000 HD 
HETATM    8  C   UNL     1     -10.077  16.682  66.630  1.00  0.00    -0.305 A  
HETATM    9  C   UNL     1      -9.036  17.066  69.175  1.00  0.00    -0.050 A  
HETATM   10  C   UNL     1      -8.416  17.638  68.069  1.00  0.00    -0.244 A  
HETATM   11  O   UNL     1      -7.274  18.374  68.190  1.00  0.00    -0.246 OA 
HETATM   12  C   UNL     1      -8.945  17.475  66.801  1.00  0.00    -0.272 A  
ENDROOT
BRANCH   1  13
HETATM   13  C   UNL     1     -11.298  12.798  69.031  1.00  0.00    -0.346 A  
HETATM   14  C   UNL     1     -10.011  12.553  68.534  1.00  0.00    -0.170 A  
HETATM   15  C   UNL     1      -9.982  10.339  69.508  1.00  0.00    -0.252 A  
HETATM   16  C   UNL     1     -11.229  10.587  70.077  1.00  0.00    -0.386 A  
HETATM   17  C   UNL     1     -11.877  11.804  69.844  1.00  0.00    -0.423 A  
HETATM   18  C   UNL     1      -9.367  11.330  68.745  1.00  0.00    -0.136 A  
ENDBRANCH   1  13
BRANCH   3  19
HETATM   19  C   UNL     1     -11.491  14.040  66.229  1.00  0.00    -0.358 A  
HETATM   20  C   UNL     1     -12.555  13.334  65.659  1.00  0.00    -0.469 A  
HETATM   21  C   UNL     1     -12.370  12.485  64.587  1.00  0.00    -0.547 A  
HETATM   22  C   UNL     1     -11.115  12.340  63.996  1.00  0.00    -0.386 A  
HETATM   23  C   UNL     1     -10.225  13.904  65.637  1.00  0.00    -0.344 A  
HETATM   24  C   UNL     1     -10.041  13.062  64.521  1.00  0.00    -0.254 A  
BRANCH  22  25
HETATM   25  O   UNL     1     -10.878  11.520  62.910  1.00  0.00    -0.112 OA 
BRANCH  25  26
HETATM   26  C   UNL     1      -9.484  11.205  62.776  1.00  0.00    -0.329 C  
BRANCH  26  27
HETATM   27  C   UNL     1      -9.153   9.719  62.877  1.00  0.00    -0.254 C  
BRANCH  27  28
HETATM   28  N   UNL     1      -8.545   9.425  64.188  1.00  0.00    -0.190 NA 
HETATM   29  C   UNL     1      -9.494   9.420  65.305  1.00  0.00    -0.227 C  
HETATM   30  C   UNL     1      -8.721   8.711  66.396  1.00  0.00    -0.150 C  
HETATM   31  C   UNL     1      -7.964   7.631  65.645  1.00  0.00    -0.116 C  
HETATM   32  C   UNL     1      -7.843   8.143  64.212  1.00  0.00    -0.137 C  
ENDBRANCH  27  28
ENDBRANCH  26  27
ENDBRANCH  25  26
ENDBRANCH  22  25
ENDBRANCH   3  19
TORSDOF 6
ENDMDL
MODEL       11
REMARK 921   NORMALIZED FREE ENERGY PREDICTED BY IDOCK:   -6.10 KCAL/MOL
REMARK 922        TOTAL FREE ENERGY PREDICTED BY IDOCK:  -10.17 KCAL/MOL
REMARK 923 INTER-LIGAND FREE ENERGY PREDICTED BY IDOCK:   -9.18 KCAL/MOL
REMARK 924 INTRA-LIGAND FREE ENERGY PREDICTED BY IDOCK:   -0.99 KCAL/MOL
REMARK 927      BINDING AFFINITY PREDICTED BY RF-SCORE:    0.00 PKD
ROOT
HETATM    1  C   UNL     1     -10.818   5.826  70.513  1.00  0.00    -0.348 C  
HETATM    2  C   UNL     1     -10.085   4.504  70.788  1.00  0.00    -0.233 C  
HETATM    3  C   UNL     1     -10.876   6.667  71.837  1.00  0.00    -0.267 C  
HETATM    4  C   UNL     1      -8.640   4.732  71.225  1.00  0.00    -0.129 C  
HETATM    5  C   UNL     1      -9.565   6.636  72.647  1.00  0.00    -0.156 A  
HETATM    6  C   UNL     1      -8.502   5.782  72.297  1.00  0.00    -0.122 A  
HETATM    7  H   UNL     1      -5.752   7.768  75.183  1.00  0.00     0.000 HD 
HETATM    8  C   UNL     1      -9.395   7.505  73.748  1.00  0.00    -0.331 A  
HETATM    9  C   UNL     1      -7.253   5.939  72.927  1.00  0.00    -0.090 A  
HETATM   10  C   UNL     1      -7.083   6.895  73.923  1.00  0.00    -0.080 A  
HETATM   11  O   UNL     1      -5.868   7.115  74.503  1.00  0.00    -0.075 OA 
HETATM   12  C   UNL     1      -8.152   7.659  74.357  1.00  0.00    -0.256 A  
ENDROOT
BRANCH   1  13
HETATM   13  C   UNL     1     -10.311   6.484  69.224  1.00  0.00    -0.237 A  
HETATM   14  C   UNL     1      -9.000   6.949  69.054  1.00  0.00    -0.132 A  
HETATM   15  C   UNL     1      -9.528   7.840  66.868  1.00  0.00    -0.238 A  
HETATM   16  C   UNL     1     -10.815   7.321  66.981  1.00  0.00    -0.350 A  
HETATM   17  C   UNL     1     -11.200   6.647  68.145  1.00  0.00    -0.207 A  
HETATM   18  C   UNL     1      -8.615   7.643  67.902  1.00  0.00    -0.122 A  
ENDBRANCH   1  13
BRANCH   3  19
HETATM   19  C   UNL     1     -11.440   8.075  71.596  1.00  0.00    -0.310 A  
HETATM   20  C   UNL     1     -10.741   8.967  70.776  1.00  0.00    -0.287 A  
HETATM   21  C   UNL     1     -11.179  10.260  70.574  1.00  0.00    -0.408 A  
HETATM   22  C   UNL     1     -12.369  10.711  71.143  1.00  0.00    -0.400 A  
HETATM   23  C   UNL     1     -12.642   8.519  72.168  1.00  0.00    -0.431 A  
HETATM   24  C   UNL     1     -13.107   9.830  71.937  1.00  0.00    -0.544 A  
BRANCH  22  25
HETATM   25  O   UNL     1     -12.864  11.988  70.958  1.00  0.00    -0.294 OA 
BRANCH  25  26
HETATM   26  C   UNL     1     -13.375  12.542  72.179  1.00  0.00    -0.435 C  
BRANCH  26  27
HETATM   27  C   UNL     1     -14.374  13.681  71.994  1.00  0.00    -0.199 C  
BRANCH  27  28
HETATM   28  N   UNL     1     -13.709  14.978  72.217  1.00  0.00    -0.423 NA 
HETATM   29  C   UNL     1     -12.820  15.007  73.382  1.00  0.00    -0.528 C  
HETATM   30  C   UNL     1     -11.991  16.250  73.137  1.00  0.00    -0.562 C  
HETATM   31  C   UNL     1     -11.770  16.236  71.636  1.00  0.00    -0.490 C  
HETATM   32  C   UNL     1     -12.926  15.418  71.065  1.00  0.00    -0.492 C  
ENDBRANCH  27  28
ENDBRANCH  26  27
ENDBRANCH  25  26
ENDBRANCH  22  25
ENDBRANCH   3  19
TORSDOF 6
ENDMDL
MODEL       12
REMARK 921   NORMALIZED FREE ENERGY PREDICTED BY IDOCK:   -6.10 KCAL/MOL
REMARK 922        TOTAL FREE ENERGY PREDICTED BY IDOCK:  -10.17 KCAL/MOL
REMARK 923 INTER-LIGAND FREE ENERGY PREDICTED BY IDOCK:   -8.61 KCAL/MOL
REMARK 924 INTRA-LIGAND FREE ENERGY PREDICTED BY IDOCK:   -1.56 KCAL/MOL
REMARK 927      BINDING AFFINITY PREDICTED BY RF-SCORE:    0.00 PKD
ROOT
HETATM    1  C   UNL     1     -10.222   7.938  72.381  1.00  0.00    -0.327 C  
HETATM    2  C   UNL     1     -10.028   7.251  73.741  1.00  0.00    -0.368 C  
HETATM    3  C   UNL     1      -9.313   7.232  71.314  1.00  0.00    -0.155 C  
HETATM    4  C   UNL     1     -10.451   5.784  73.707  1.00  0.00    -0.291 C  
HETATM    5  C   UNL     1      -9.296   5.695  71.435  1.00  0.00    -0.169 A  
HETATM    6  C   UNL     1      -9.903   5.034  72.520  1.00  0.00    -0.200 A  
HETATM    7  H   UNL     1      -9.407   1.058  70.576  1.00  0.00     0.000 HD 
HETATM    8  C   UNL     1      -8.693   4.914  70.425  1.00  0.00    -0.123 A  
HETATM    9  C   UNL     1     -10.050   3.636  72.483  1.00  0.00    -0.237 A  
HETATM   10  C   UNL     1      -9.556   2.904  71.407  1.00  0.00    -0.153 A  
HETATM   11  O   UNL     1      -9.744   1.557  71.311  1.00  0.00    -0.125 OA 
HETATM   12  C   UNL     1      -8.854   3.530  70.392  1.00  0.00    -0.143 A  
ENDROOT
BRANCH   1  13
HETATM   13  C   UNL     1     -11.709   8.157  72.077  1.00  0.00    -0.389 A  
HETATM   14  C   UNL     1     -12.616   7.114  71.844  1.00  0.00    -0.328 A  
HETATM   15  C   UNL     1     -14.394   8.678  71.353  1.00  0.00    -0.332 A  
HETATM   16  C   UNL     1     -13.533   9.731  71.653  1.00  0.00    -0.436 A  
HETATM   17  C   UNL     1     -12.207   9.472  72.015  1.00  0.00    -0.370 A  
HETATM   18  C   UNL     1     -13.937   7.367  71.461  1.00  0.00    -0.517 A  
ENDBRANCH   1  13
BRANCH   3  19
HETATM   19  C   UNL     1      -9.586   7.752  69.895  1.00  0.00    -0.164 A  
HETATM   20  C   UNL     1      -8.992   8.945  69.471  1.00  0.00    -0.145 A  
HETATM   21  C   UNL     1      -9.252   9.481  68.226  1.00  0.00    -0.132 A  
HETATM   22  C   UNL     1     -10.081   8.820  67.319  1.00  0.00    -0.236 A  
HETATM   23  C   UNL     1     -10.418   7.078  68.987  1.00  0.00    -0.219 A  
HETATM   24  C   UNL     1     -10.659   7.608  67.702  1.00  0.00    -0.294 A  
BRANCH  22  25
HETATM   25  O   UNL     1     -10.359   9.301  66.055  1.00  0.00    -0.205 OA 
BRANCH  25  26
HETATM   26  C   UNL     1      -9.728  10.568  65.816  1.00  0.00    -0.223 C  
BRANCH  26  27
HETATM   27  C   UNL     1     -10.235  11.313  64.585  1.00  0.00    -0.301 C  
BRANCH  27  28
HETATM   28  N   UNL     1     -10.869  12.582  64.987  1.00  0.00    -0.281 NA 
HETATM   29  C   UNL     1     -12.309  12.648  64.720  1.00  0.00    -0.489 C  
HETATM   30  C   UNL     1     -12.753  13.818  65.571  1.00  0.00    -0.530 C  
HETATM   31  C   UNL     1     -11.914  13.676  66.828  1.00  0.00    -0.458 C  
HETATM   32  C   UNL     1     -10.679  12.886  66.403  1.00  0.00    -0.270 C  
ENDBRANCH  27  28
ENDBRANCH  26  27
ENDBRANCH  25  26
ENDBRANCH  22  25
ENDBRANCH   3  19
TORSDOF 6
ENDMDL
MODEL       13
REMARK 921   NORMALIZED FREE ENERGY PREDICTED BY IDOCK:   -6.10 KCAL/MOL
REMARK 922        TOTAL FREE ENERGY PREDICTED BY IDOCK:  -10.17 KCAL/MOL
REMARK 923 INTER-LIGAND FREE ENERGY PREDICTED BY IDOCK:   -8.02 KCAL/MOL
REMARK 924 INTRA-LIGAND FREE ENERGY PREDICTED BY IDOCK:   -2.15 KCAL/MOL
REMARK 927      BINDING AFFINITY PREDICTED BY RF-SCORE:    0.00 PKD
ROOT
HETATM    1  C   UNL     1      -9.633  12.860  67.100  1.00  0.00    -0.225 C  
HETATM    2  C   UNL     1     -10.096  14.042  67.966  1.00  0.00    -0.239 C  
HETATM    3  C   UNL     1      -9.314  11.636  68.030  1.00  0.00    -0.178 C  
HETATM    4  C   UNL     1     -11.381  13.724  68.728  1.00  0.00    -0.318 C  
HETATM    5  C   UNL     1     -10.337  11.439  69.167  1.00  0.00    -0.122 A  
HETATM    6  C   UNL     1     -11.344  12.388  69.425  1.00  0.00    -0.286 A  
HETATM    7  H   UNL     1     -13.409   9.651  72.268  1.00  0.00     0.000 HD 
HETATM    8  C   UNL     1     -10.300  10.267  69.954  1.00  0.00    -0.281 A  
HETATM    9  C   UNL     1     -12.379  12.070  70.323  1.00  0.00    -0.275 A  
HETATM   10  C   UNL     1     -12.383  10.849  70.989  1.00  0.00    -0.393 A  
HETATM   11  O   UNL     1     -13.407  10.486  71.813  1.00  0.00    -0.394 OA 
HETATM   12  C   UNL     1     -11.336   9.957  70.832  1.00  0.00    -0.446 A  
ENDROOT
BRANCH   1  13
HETATM   13  C   UNL     1     -10.552  12.667  65.889  1.00  0.00    -0.297 A  
HETATM   14  C   UNL     1     -11.948  12.786  65.946  1.00  0.00    -0.506 A  
HETATM   15  C   UNL     1     -12.167  12.117  63.632  1.00  0.00    -0.663 A  
HETATM   16  C   UNL     1     -10.779  12.065  63.528  1.00  0.00    -0.513 A  
HETATM   17  C   UNL     1      -9.981  12.340  64.644  1.00  0.00    -0.212 A  
HETATM   18  C   UNL     1     -12.751  12.491  64.840  1.00  0.00    -0.371 A  
ENDBRANCH   1  13
BRANCH   3  19
HETATM   19  C   UNL     1      -9.014  10.366  67.220  1.00  0.00    -0.142 A  
HETATM   20  C   UNL     1      -7.688  10.029  66.931  1.00  0.00    -0.096 A  
HETATM   21  C   UNL     1      -7.371   8.930  66.159  1.00  0.00    -0.090 A  
HETATM   22  C   UNL     1      -8.368   8.078  65.681  1.00  0.00    -0.141 A  
HETATM   23  C   UNL     1     -10.023   9.511  66.747  1.00  0.00    -0.297 A  
HETATM   24  C   UNL     1      -9.699   8.369  65.987  1.00  0.00    -0.146 A  
BRANCH  22  25
HETATM   25  O   UNL     1      -8.106   6.954  64.923  1.00  0.00    -0.125 OA 
BRANCH  25  26
HETATM   26  C   UNL     1      -8.639   5.768  65.528  1.00  0.00    -0.151 C  
BRANCH  26  27
HETATM   27  C   UNL     1      -7.895   5.297  66.775  1.00  0.00    -0.100 C  
BRANCH  27  28
HETATM   28  N   UNL     1      -8.807   5.284  67.934  1.00  0.00    -0.106 NA 
HETATM   29  C   UNL     1      -8.525   6.319  68.933  1.00  0.00    -0.120 C  
HETATM   30  C   UNL     1      -9.798   6.347  69.752  1.00  0.00    -0.189 C  
HETATM   31  C   UNL     1     -10.887   6.144  68.715  1.00  0.00    -0.402 C  
HETATM   32  C   UNL     1     -10.210   5.423  67.552  1.00  0.00    -0.194 C  
ENDBRANCH  27  28
ENDBRANCH  26  27
ENDBRANCH  25  26
ENDBRANCH  22  25
ENDBRANCH   3  19
TORSDOF 6
ENDMDL
MODEL       14
REMARK 921   NORMALIZED FREE ENERGY PREDICTED BY IDOCK:   -6.09 KCAL/MOL
REMARK 922        TOTAL FREE ENERGY PREDICTED BY IDOCK:  -10.16 KCAL/MOL
REMARK 923 INTER-LIGAND FREE ENERGY PREDICTED BY IDOCK:   -8.43 KCAL/MOL
REMARK 924 INTRA-LIGAND FREE ENERGY PREDICTED BY IDOCK:   -1.73 KCAL/MOL
REMARK 927      BINDING AFFINITY PREDICTED BY RF-SCORE:    0.00 PKD
ROOT
HETATM    1  C   UNL     1      -9.858   7.855  71.840  1.00  0.00    -0.233 C  
HETATM    2  C   UNL     1      -9.537   6.627  72.707  1.00  0.00    -0.157 C  
HETATM    3  C   UNL     1      -9.027   7.776  70.510  1.00  0.00    -0.150 C  
HETATM    4  C   UNL     1      -9.933   5.322  72.020  1.00  0.00    -0.238 C  
HETATM    5  C   UNL     1      -8.970   6.362  69.899  1.00  0.00    -0.142 A  
HETATM    6  C   UNL     1      -9.470   5.240  70.587  1.00  0.00    -0.222 A  
HETATM    7  H   UNL     1      -9.061   2.654  66.985  1.00  0.00     0.000 HD 
HETATM    8  C   UNL     1      -8.438   6.174  68.604  1.00  0.00    -0.114 A  
HETATM    9  C   UNL     1      -9.593   4.013  69.911  1.00  0.00    -0.281 A  
HETATM   10  C   UNL     1      -9.177   3.893  68.589  1.00  0.00    -0.151 A  
HETATM   11  O   UNL     1      -9.345   2.735  67.888  1.00  0.00    -0.194 OA 
HETATM   12  C   UNL     1      -8.574   4.956  67.940  1.00  0.00    -0.103 A  
ENDROOT
BRANCH   1  13
HETATM   13  C   UNL     1     -11.369   8.105  71.771  1.00  0.00    -0.333 A  
HETATM   14  C   UNL     1     -12.316   7.091  71.569  1.00  0.00    -0.420 A  
HETATM   15  C   UNL     1     -14.120   8.699  71.484  1.00  0.00    -0.409 A  
HETATM   16  C   UNL     1     -13.210   9.717  71.760  1.00  0.00    -0.520 A  
HETATM   17  C   UNL     1     -11.850   9.421  71.905  1.00  0.00    -0.402 A  
HETATM   18  C   UNL     1     -13.673   7.383  71.401  1.00  0.00    -0.419 A  
ENDBRANCH   1  13
BRANCH   3  19
HETATM   19  C   UNL     1      -9.429   8.879  69.519  1.00  0.00    -0.159 A  
HETATM   20  C   UNL     1      -8.749  10.101  69.534  1.00  0.00    -0.189 A  
HETATM   21  C   UNL     1      -9.110  11.140  68.701  1.00  0.00    -0.166 A  
HETATM   22  C   UNL     1     -10.139  10.991  67.772  1.00  0.00    -0.177 A  
HETATM   23  C   UNL     1     -10.463   8.718  68.583  1.00  0.00    -0.213 A  
HETATM   24  C   UNL     1     -10.812   9.768  67.710  1.00  0.00    -0.306 A  
BRANCH  22  25
HETATM   25  O   UNL     1     -10.528  11.991  66.902  1.00  0.00    -0.217 OA 
BRANCH  25  26
HETATM   26  C   UNL     1     -11.712  12.662  67.358  1.00  0.00    -0.369 C  
BRANCH  26  27
HETATM   27  C   UNL     1     -11.475  14.057  67.930  1.00  0.00    -0.316 C  
BRANCH  27  28
HETATM   28  N   UNL     1     -12.278  14.245  69.152  1.00  0.00    -0.289 NA 
HETATM   29  C   UNL     1     -12.125  13.177  70.145  1.00  0.00    -0.321 C  
HETATM   30  C   UNL     1     -12.695  13.803  71.399  1.00  0.00    -0.450 C  
HETATM   31  C   UNL     1     -12.230  15.245  71.314  1.00  0.00    -0.408 C  
HETATM   32  C   UNL     1     -11.993  15.508  69.829  1.00  0.00    -0.364 C  
ENDBRANCH  27  28
ENDBRANCH  26  27
ENDBRANCH  25  26
ENDBRANCH  22  25
ENDBRANCH   3  19
TORSDOF 6
ENDMDL
MODEL       15
REMARK 921   NORMALIZED FREE ENERGY PREDICTED BY IDOCK:   -6.09 KCAL/MOL
REMARK 922        TOTAL FREE ENERGY PREDICTED BY IDOCK:  -10.15 KCAL/MOL
REMARK 923 INTER-LIGAND FREE ENERGY PREDICTED BY IDOCK:   -9.07 KCAL/MOL
REMARK 924 INTRA-LIGAND FREE ENERGY PREDICTED BY IDOCK:   -1.08 KCAL/MOL
REMARK 927      BINDING AFFINITY PREDICTED BY RF-SCORE:    0.00 PKD
ROOT
HETATM    1  C   UNL     1      -9.987  15.754  68.074  1.00  0.00    -0.222 C  
HETATM    2  C   UNL     1      -9.590  16.547  66.819  1.00  0.00    -0.268 C  
HETATM    3  C   UNL     1     -11.414  15.135  67.861  1.00  0.00    -0.344 C  
HETATM    4  C   UNL     1      -9.499  15.654  65.584  1.00  0.00    -0.272 C  
HETATM    5  C   UNL     1     -11.631  14.554  66.449  1.00  0.00    -0.370 A  
HETATM    6  C   UNL     1     -10.687  14.740  65.422  1.00  0.00    -0.385 A  
HETATM    7  H   UNL     1     -12.761  11.821  62.775  1.00  0.00     0.000 HD 
HETATM    8  C   UNL     1     -12.782  13.784  66.172  1.00  0.00    -0.335 A  
HETATM    9  C   UNL     1     -10.820  14.019  64.221  1.00  0.00    -0.124 A  
HETATM   10  C   UNL     1     -11.902  13.166  64.029  1.00  0.00    -0.453 A  
HETATM   11  O   UNL     1     -12.022  12.403  62.906  1.00  0.00    -0.140 OA 
HETATM   12  C   UNL     1     -12.899  13.065  64.985  1.00  0.00    -0.365 A  
ENDROOT
BRANCH   1  13
HETATM   13  C   UNL     1      -8.839  14.856  68.550  1.00  0.00    -0.174 A  
HETATM   14  C   UNL     1      -7.910  15.235  69.527  1.00  0.00    -0.204 A  
HETATM   15  C   UNL     1      -6.657  13.188  69.226  1.00  0.00    -0.091 A  
HETATM   16  C   UNL     1      -7.609  12.755  68.307  1.00  0.00    -0.134 A  
HETATM   17  C   UNL     1      -8.690  13.579  67.975  1.00  0.00    -0.181 A  
HETATM   18  C   UNL     1      -6.815  14.425  69.846  1.00  0.00    -0.060 A  
ENDBRANCH   1  13
BRANCH   3  19
HETATM   19  C   UNL     1     -11.802  14.185  69.004  1.00  0.00    -0.384 A  
HETATM   20  C   UNL     1     -11.598  12.810  68.857  1.00  0.00    -0.362 A  
HETATM   21  C   UNL     1     -11.981  11.912  69.833  1.00  0.00    -0.398 A  
HETATM   22  C   UNL     1     -12.542  12.353  71.032  1.00  0.00    -0.254 A  
HETATM   23  C   UNL     1     -12.360  14.638  70.210  1.00  0.00    -0.406 A  
HETATM   24  C   UNL     1     -12.722  13.724  71.221  1.00  0.00    -0.450 A  
BRANCH  22  25
HETATM   25  O   UNL     1     -12.925  11.501  72.049  1.00  0.00    -0.433 OA 
BRANCH  25  26
HETATM   26  C   UNL     1     -13.096  10.155  71.581  1.00  0.00    -0.447 C  
BRANCH  26  27
HETATM   27  C   UNL     1     -12.730   9.074  72.594  1.00  0.00    -0.208 C  
BRANCH  27  28
HETATM   28  N   UNL     1     -11.893   8.043  71.953  1.00  0.00    -0.290 NA 
HETATM   29  C   UNL     1     -12.648   7.028  71.213  1.00  0.00    -0.373 C  
HETATM   30  C   UNL     1     -11.584   6.381  70.353  1.00  0.00    -0.440 C  
HETATM   31  C   UNL     1     -10.700   7.548  69.951  1.00  0.00    -0.254 C  
HETATM   32  C   UNL     1     -10.907   8.605  71.033  1.00  0.00    -0.247 C  
ENDBRANCH  27  28
ENDBRANCH  26  27
ENDBRANCH  25  26
ENDBRANCH  22  25
ENDBRANCH   3  19
TORSDOF 6
ENDMDL
MODEL       16
REMARK 921   NORMALIZED FREE ENERGY PREDICTED BY IDOCK:   -6.05 KCAL/MOL
REMARK 922        TOTAL FREE ENERGY PREDICTED BY IDOCK:  -10.10 KCAL/MOL
REMARK 923 INTER-LIGAND FREE ENERGY PREDICTED BY IDOCK:   -8.64 KCAL/MOL
REMARK 924 INTRA-LIGAND FREE ENERGY PREDICTED BY IDOCK:   -1.47 KCAL/MOL
REMARK 927      BINDING AFFINITY PREDICTED BY RF-SCORE:    0.00 PKD
ROOT
HETATM    1  C   UNL     1      -9.721   7.842  70.835  1.00  0.00    -0.174 C  
HETATM    2  C   UNL     1      -9.323   6.394  71.163  1.00  0.00    -0.166 C  
HETATM    3  C   UNL     1      -9.198   8.205  69.400  1.00  0.00    -0.155 C  
HETATM    4  C   UNL     1      -9.957   5.394  70.200  1.00  0.00    -0.301 C  
HETATM    5  C   UNL     1      -9.383   7.074  68.369  1.00  0.00    -0.130 A  
HETATM    6  C   UNL     1      -9.816   5.791  68.752  1.00  0.00    -0.181 A  
HETATM    7  H   UNL     1     -10.382   4.546  64.513  1.00  0.00     0.000 HD 
HETATM    8  C   UNL     1      -9.153   7.325  66.998  1.00  0.00    -0.152 A  
HETATM    9  C   UNL     1     -10.175   4.858  67.762  1.00  0.00    -0.120 A  
HETATM   10  C   UNL     1     -10.058   5.182  66.414  1.00  0.00    -0.239 A  
HETATM   11  O   UNL     1     -10.462   4.325  65.434  1.00  0.00    -0.244 OA 
HETATM   12  C   UNL     1      -9.523   6.398  66.025  1.00  0.00    -0.005 A  
ENDROOT
BRANCH   1  13
HETATM   13  C   UNL     1     -11.188   8.109  71.192  1.00  0.00    -0.289 A  
HETATM   14  C   UNL     1     -12.220   7.186  70.974  1.00  0.00    -0.384 A  
HETATM   15  C   UNL     1     -13.886   8.770  71.728  1.00  0.00    -0.469 A  
HETATM   16  C   UNL     1     -12.871   9.677  72.024  1.00  0.00    -0.497 A  
HETATM   17  C   UNL     1     -11.537   9.348  71.762  1.00  0.00    -0.433 A  
HETATM   18  C   UNL     1     -13.558   7.518  71.213  1.00  0.00    -0.329 A  
ENDBRANCH   1  13
BRANCH   3  19
HETATM   19  C   UNL     1      -9.710   9.577  68.935  1.00  0.00    -0.166 A  
HETATM   20  C   UNL     1      -8.874  10.694  69.028  1.00  0.00    -0.154 A  
HETATM   21  C   UNL     1      -9.308  11.955  68.675  1.00  0.00    -0.076 A  
HETATM   22  C   UNL     1     -10.589  12.155  68.161  1.00  0.00    -0.216 A  
HETATM   23  C   UNL     1     -11.000   9.768  68.413  1.00  0.00    -0.200 A  
HETATM   24  C   UNL     1     -11.434  11.051  68.022  1.00  0.00    -0.365 A  
BRANCH  22  25
HETATM   25  O   UNL     1     -11.068  13.392  67.774  1.00  0.00    -0.254 OA 
BRANCH  25  26
HETATM   26  C   UNL     1     -12.069  13.881  68.678  1.00  0.00    -0.302 C  
BRANCH  26  27
HETATM   27  C   UNL     1     -11.618  15.040  69.563  1.00  0.00    -0.311 C  
BRANCH  27  28
HETATM   28  N   UNL     1     -11.734  14.664  70.984  1.00  0.00    -0.303 NA 
HETATM   29  C   UNL     1     -11.909  15.799  71.896  1.00  0.00    -0.480 C  
HETATM   30  C   UNL     1     -12.401  15.136  73.164  1.00  0.00    -0.541 C  
HETATM   31  C   UNL     1     -13.314  14.036  72.654  1.00  0.00    -0.643 C  
HETATM   32  C   UNL     1     -12.832  13.735  71.237  1.00  0.00    -0.357 C  
ENDBRANCH  27  28
ENDBRANCH  26  27
ENDBRANCH  25  26
ENDBRANCH  22  25
ENDBRANCH   3  19
TORSDOF 6
ENDMDL
MODEL       17
REMARK 921   NORMALIZED FREE ENERGY PREDICTED BY IDOCK:   -6.00 KCAL/MOL
REMARK 922        TOTAL FREE ENERGY PREDICTED BY IDOCK:  -10.03 KCAL/MOL
REMARK 923 INTER-LIGAND FREE ENERGY PREDICTED BY IDOCK:   -8.37 KCAL/MOL
REMARK 924 INTRA-LIGAND FREE ENERGY PREDICTED BY IDOCK:   -1.66 KCAL/MOL
REMARK 927      BINDING AFFINITY PREDICTED BY RF-SCORE:    0.00 PKD
ROOT
HETATM    1  C   UNL     1      -9.593  13.927  66.340  1.00  0.00    -0.292 C  
HETATM    2  C   UNL     1      -9.642  15.463  66.330  1.00  0.00    -0.342 C  
HETATM    3  C   UNL     1      -9.593  13.424  67.827  1.00  0.00    -0.213 C  
HETATM    4  C   UNL     1     -10.918  15.999  66.973  1.00  0.00    -0.154 C  
HETATM    5  C   UNL     1     -10.564  14.197  68.742  1.00  0.00    -0.258 A  
HETATM    6  C   UNL     1     -11.234  15.352  68.297  1.00  0.00    -0.325 A  
HETATM    7  H   UNL     1     -13.847  15.413  71.904  1.00  0.00     0.000 HD 
HETATM    8  C   UNL     1     -10.827  13.728  70.048  1.00  0.00     0.411 A  
HETATM    9  C   UNL     1     -12.265  15.899  69.083  1.00  0.00    -0.013 A  
HETATM   10  C   UNL     1     -12.588  15.334  70.312  1.00  0.00    -0.347 A  
HETATM   11  O   UNL     1     -13.626  15.799  71.064  1.00  0.00    -0.568 OA 
HETATM   12  C   UNL     1     -11.858  14.270  70.813  1.00  0.00    -0.336 A  
ENDROOT
BRANCH   1  13
HETATM   13  C   UNL     1     -10.595  13.333  65.343  1.00  0.00    -0.304 A  
HETATM   14  C   UNL     1     -11.985  13.423  65.493  1.00  0.00    -0.433 A  
HETATM   15  C   UNL     1     -12.352  12.051  63.535  1.00  0.00    -0.661 A  
HETATM   16  C   UNL     1     -10.977  12.010  63.321  1.00  0.00    -0.399 A  
HETATM   17  C   UNL     1     -10.109  12.648  64.213  1.00  0.00    -0.292 A  
HETATM   18  C   UNL     1     -12.857  12.769  64.617  1.00  0.00    -0.355 A  
ENDBRANCH   1  13
BRANCH   3  19
HETATM   19  C   UNL     1      -9.723  11.895  67.913  1.00  0.00    -0.192 A  
HETATM   20  C   UNL     1      -8.569  11.108  67.990  1.00  0.00    -0.140 A  
HETATM   21  C   UNL     1      -8.633   9.730  68.012  1.00  0.00    -0.122 A  
HETATM   22  C   UNL     1      -9.861   9.069  68.012  1.00  0.00    -0.166 A  
HETATM   23  C   UNL     1     -10.963  11.238  67.918  1.00  0.00    -0.302 A  
HETATM   24  C   UNL     1     -11.031   9.831  67.974  1.00  0.00    -0.236 A  
BRANCH  22  25
HETATM   25  O   UNL     1      -9.983   7.694  68.054  1.00  0.00    -0.162 OA 
BRANCH  25  26
HETATM   26  C   UNL     1     -10.882   7.270  69.089  1.00  0.00    -0.136 C  
BRANCH  26  27
HETATM   27  C   UNL     1     -10.349   7.446  70.509  1.00  0.00    -0.214 C  
BRANCH  27  28
HETATM   28  N   UNL     1     -11.467   7.675  71.443  1.00  0.00    -0.258 NA 
HETATM   29  C   UNL     1     -11.946   9.060  71.482  1.00  0.00    -0.344 C  
HETATM   30  C   UNL     1     -13.292   8.928  72.161  1.00  0.00    -0.489 C  
HETATM   31  C   UNL     1     -13.844   7.631  71.598  1.00  0.00    -0.480 C  
HETATM   32  C   UNL     1     -12.622   6.826  71.163  1.00  0.00    -0.250 C  
ENDBRANCH  27  28
ENDBRANCH  26  27
ENDBRANCH  25  26
ENDBRANCH  22  25
ENDBRANCH   3  19
TORSDOF 6
ENDMDL
MODEL       18
REMARK 921   NORMALIZED FREE ENERGY PREDICTED BY IDOCK:   -5.98 KCAL/MOL
REMARK 922        TOTAL FREE ENERGY PREDICTED BY IDOCK:  -10.01 KCAL/MOL
REMARK 923 INTER-LIGAND FREE ENERGY PREDICTED BY IDOCK:   -8.53 KCAL/MOL
REMARK 924 INTRA-LIGAND FREE ENERGY PREDICTED BY IDOCK:   -1.48 KCAL/MOL
REMARK 927      BINDING AFFINITY PREDICTED BY RF-SCORE:    0.00 PKD
ROOT
HETATM    1  C   UNL     1     -10.182   7.579  72.296  1.00  0.00    -0.252 C  
HETATM    2  C   UNL     1      -9.942   6.468  73.330  1.00  0.00    -0.200 C  
HETATM    3  C   UNL     1      -9.243   7.342  71.060  1.00  0.00    -0.154 C  
HETATM    4  C   UNL     1     -10.286   5.087  72.777  1.00  0.00    -0.243 C  
HETATM    5  C   UNL     1      -9.143   5.864  70.633  1.00  0.00    -0.159 A  
HETATM    6  C   UNL     1      -9.706   4.833  71.409  1.00  0.00    -0.240 A  
HETATM    7  H   UNL     1      -9.012   1.827  68.197  1.00  0.00     0.000 HD 
HETATM    8  C   UNL     1      -8.506   5.521  69.420  1.00  0.00    -0.105 A  
HETATM    9  C   UNL     1      -9.779   3.531  70.880  1.00  0.00    -0.213 A  
HETATM   10  C   UNL     1      -9.254   3.252  69.623  1.00  0.00    -0.151 A  
HETATM   11  O   UNL     1      -9.370   2.017  69.056  1.00  0.00    -0.135 OA 
HETATM   12  C   UNL     1      -8.593   4.231  68.901  1.00  0.00    -0.107 A  
ENDROOT
BRANCH   1  13
HETATM   13  C   UNL     1     -11.681   7.812  72.070  1.00  0.00    -0.349 A  
HETATM   14  C   UNL     1     -12.540   6.855  71.513  1.00  0.00    -0.412 A  
HETATM   15  C   UNL     1     -14.394   8.408  71.536  1.00  0.00    -0.499 A  
HETATM   16  C   UNL     1     -13.581   9.351  72.160  1.00  0.00    -0.528 A  
HETATM   17  C   UNL     1     -12.240   9.054  72.427  1.00  0.00    -0.322 A  
HETATM   18  C   UNL     1     -13.875   7.154  71.224  1.00  0.00    -0.292 A  
ENDBRANCH   1  13
BRANCH   3  19
HETATM   19  C   UNL     1      -9.554   8.313  69.911  1.00  0.00    -0.171 A  
HETATM   20  C   UNL     1      -9.001   9.598  69.925  1.00  0.00    -0.243 A  
HETATM   21  C   UNL     1      -9.296  10.524  68.945  1.00  0.00    -0.192 A  
HETATM   22  C   UNL     1     -10.120  10.192  67.870  1.00  0.00    -0.176 A  
HETATM   23  C   UNL     1     -10.381   7.970  68.830  1.00  0.00    -0.223 A  
HETATM   24  C   UNL     1     -10.657   8.904  67.811  1.00  0.00    -0.266 A  
BRANCH  22  25
HETATM   25  O   UNL     1     -10.432  11.073  66.852  1.00  0.00    -0.225 OA 
BRANCH  25  26
HETATM   26  C   UNL     1     -11.653  11.777  67.114  1.00  0.00    -0.266 C  
BRANCH  26  27
HETATM   27  C   UNL     1     -11.471  13.187  67.670  1.00  0.00    -0.324 C  
BRANCH  27  28
HETATM   28  N   UNL     1     -11.811  14.185  66.638  1.00  0.00    -0.406 NA 
HETATM   29  C   UNL     1     -10.655  14.898  66.085  1.00  0.00    -0.318 C  
HETATM   30  C   UNL     1     -11.217  15.515  64.823  1.00  0.00    -0.399 C  
HETATM   31  C   UNL     1     -12.153  14.444  64.294  1.00  0.00    -0.461 C  
HETATM   32  C   UNL     1     -12.542  13.610  65.512  1.00  0.00    -0.496 C  
ENDBRANCH  27  28
ENDBRANCH  26  27
ENDBRANCH  25  26
ENDBRANCH  22  25
ENDBRANCH   3  19
TORSDOF 6
ENDMDL
MODEL       19
REMARK 921   NORMALIZED FREE ENERGY PREDICTED BY IDOCK:   -5.94 KCAL/MOL
REMARK 922        TOTAL FREE ENERGY PREDICTED BY IDOCK:   -9.96 KCAL/MOL
REMARK 923 INTER-LIGAND FREE ENERGY PREDICTED BY IDOCK:   -8.57 KCAL/MOL
REMARK 924 INTRA-LIGAND FREE ENERGY PREDICTED BY IDOCK:   -1.38 KCAL/MOL
REMARK 927      BINDING AFFINITY PREDICTED BY RF-SCORE:    0.00 PKD
ROOT
HETATM    1  C   UNL     1     -10.067   7.919  72.293  1.00  0.00    -0.297 C  
HETATM    2  C   UNL     1      -9.893   7.215  73.647  1.00  0.00    -0.342 C  
HETATM    3  C   UNL     1      -9.184   7.190  71.218  1.00  0.00    -0.151 C  
HETATM    4  C   UNL     1     -10.366   5.765  73.603  1.00  0.00    -0.258 C  
HETATM    5  C   UNL     1      -9.219   5.653  71.328  1.00  0.00    -0.164 A  
HETATM    6  C   UNL     1      -9.846   5.005  72.410  1.00  0.00    -0.214 A  
HETATM    7  H   UNL     1      -9.491   1.029  70.435  1.00  0.00     0.000 HD 
HETATM    8  C   UNL     1      -8.645   4.859  70.311  1.00  0.00    -0.111 A  
HETATM    9  C   UNL     1     -10.041   3.613  72.362  1.00  0.00    -0.233 A  
HETATM   10  C   UNL     1      -9.575   2.873  71.280  1.00  0.00    -0.158 A  
HETATM   11  O   UNL     1      -9.809   1.534  71.174  1.00  0.00    -0.132 OA 
HETATM   12  C   UNL     1      -8.854   3.483  70.268  1.00  0.00    -0.151 A  
ENDROOT
BRANCH   1  13
HETATM   13  C   UNL     1     -11.546   8.191  71.994  1.00  0.00    -0.389 A  
HETATM   14  C   UNL     1     -12.523   7.187  71.933  1.00  0.00    -0.341 A  
HETATM   15  C   UNL     1     -14.214   8.781  71.263  1.00  0.00    -0.203 A  
HETATM   16  C   UNL     1     -13.281   9.807  71.391  1.00  0.00    -0.482 A  
HETATM   17  C   UNL     1     -11.962   9.514  71.756  1.00  0.00    -0.443 A  
HETATM   18  C   UNL     1     -13.837   7.471  71.547  1.00  0.00    -0.487 A  
ENDBRANCH   1  13
BRANCH   3  19
HETATM   19  C   UNL     1      -9.443   7.731  69.804  1.00  0.00    -0.160 A  
HETATM   20  C   UNL     1     -10.387   7.102  68.987  1.00  0.00    -0.204 A  
HETATM   21  C   UNL     1     -10.614   7.516  67.690  1.00  0.00    -0.303 A  
HETATM   22  C   UNL     1      -9.943   8.618  67.162  1.00  0.00    -0.231 A  
HETATM   23  C   UNL     1      -8.766   8.844  69.282  1.00  0.00    -0.138 A  
HETATM   24  C   UNL     1      -9.020   9.289  67.968  1.00  0.00    -0.128 A  
BRANCH  22  25
HETATM   25  O   UNL     1     -10.145   9.088  65.879  1.00  0.00    -0.240 OA 
BRANCH  25  26
HETATM   26  C   UNL     1     -10.394  10.501  65.862  1.00  0.00    -0.206 C  
BRANCH  26  27
HETATM   27  C   UNL     1     -10.732  11.074  64.489  1.00  0.00    -0.264 C  
BRANCH  27  28
HETATM   28  N   UNL     1     -11.790  12.093  64.613  1.00  0.00    -0.350 NA 
HETATM   29  C   UNL     1     -11.935  12.651  65.961  1.00  0.00    -0.417 C  
HETATM   30  C   UNL     1     -12.751  13.903  65.718  1.00  0.00    -0.503 C  
HETATM   31  C   UNL     1     -12.201  14.431  64.406  1.00  0.00    -0.481 C  
HETATM   32  C   UNL     1     -11.605  13.217  63.698  1.00  0.00    -0.390 C  
ENDBRANCH  27  28
ENDBRANCH  26  27
ENDBRANCH  25  26
ENDBRANCH  22  25
ENDBRANCH   3  19
TORSDOF 6
ENDMDL
MODEL       20
REMARK 921   NORMALIZED FREE ENERGY PREDICTED BY IDOCK:   -5.86 KCAL/MOL
REMARK 922        TOTAL FREE ENERGY PREDICTED BY IDOCK:   -9.84 KCAL/MOL
REMARK 923 INTER-LIGAND FREE ENERGY PREDICTED BY IDOCK:   -7.94 KCAL/MOL
REMARK 924 INTRA-LIGAND FREE ENERGY PREDICTED BY IDOCK:   -1.90 KCAL/MOL
REMARK 927      BINDING AFFINITY PREDICTED BY RF-SCORE:    0.00 PKD
ROOT
HETATM    1  C   UNL     1      -8.442  15.000  68.415  1.00  0.00    -0.153 C  
HETATM    2  C   UNL     1      -7.263  15.545  67.593  1.00  0.00    -0.203 C  
HETATM    3  C   UNL     1      -9.201  16.201  69.083  1.00  0.00    -0.246 C  
HETATM    4  C   UNL     1      -7.729  16.454  66.458  1.00  0.00    -0.295 C  
HETATM    5  C   UNL     1      -9.373  17.418  68.153  1.00  0.00    -0.277 A  
HETATM    6  C   UNL     1      -8.741  17.481  66.897  1.00  0.00    -0.269 A  
HETATM    7  H   UNL     1     -11.067  21.098  65.736  1.00  0.00     0.000 HD 
HETATM    8  C   UNL     1     -10.210  18.488  68.539  1.00  0.00    -0.389 A  
HETATM    9  C   UNL     1      -9.093  18.504  65.997  1.00  0.00     0.018 A  
HETATM   10  C   UNL     1     -10.021  19.474  66.361  1.00  0.00    -0.438 A  
HETATM   11  O   UNL     1     -10.433  20.436  65.487  1.00  0.00    -0.240 OA 
HETATM   12  C   UNL     1     -10.561  19.489  67.636  1.00  0.00    -0.566 A  
ENDROOT
BRANCH   1  13
HETATM   13  C   UNL     1      -9.235  13.955  67.622  1.00  0.00    -0.199 A  
HETATM   14  C   UNL     1      -9.828  14.209  66.378  1.00  0.00    -0.308 A  
HETATM   15  C   UNL     1     -10.824  12.006  66.326  1.00  0.00    -0.316 A  
HETATM   16  C   UNL     1     -10.184  11.701  67.524  1.00  0.00    -0.216 A  
HETATM   17  C   UNL     1      -9.395  12.665  68.163  1.00  0.00    -0.210 A  
HETATM   18  C   UNL     1     -10.635  13.258  65.746  1.00  0.00    -0.291 A  
ENDBRANCH   1  13
BRANCH   3  19
HETATM   19  C   UNL     1     -10.493  15.745  69.777  1.00  0.00    -0.318 A  
HETATM   20  C   UNL     1     -11.682  15.673  69.043  1.00  0.00    -0.408 A  
HETATM   21  C   UNL     1     -12.878  15.323  69.635  1.00  0.00     0.153 A  
HETATM   22  C   UNL     1     -12.936  14.974  70.984  1.00  0.00    -0.404 A  
HETATM   23  C   UNL     1     -10.541  15.390  71.134  1.00  0.00     0.173 A  
HETATM   24  C   UNL     1     -11.757  15.001  71.733  1.00  0.00    -0.452 A  
BRANCH  22  25
HETATM   25  O   UNL     1     -14.102  14.597  71.622  1.00  0.00    -0.417 OA 
BRANCH  25  26
HETATM   26  C   UNL     1     -13.883  13.507  72.529  1.00  0.00    -0.519 C  
BRANCH  26  27
HETATM   27  C   UNL     1     -14.152  12.124  71.941  1.00  0.00     0.873 C  
BRANCH  27  28
HETATM   28  N   UNL     1     -12.908  11.332  71.925  1.00  0.00    -0.361 NA 
HETATM   29  C   UNL     1     -13.098   9.905  72.202  1.00  0.00    -0.403 C  
HETATM   30  C   UNL     1     -11.797   9.296  71.727  1.00  0.00    -0.454 C  
HETATM   31  C   UNL     1     -11.468  10.099  70.482  1.00  0.00    -0.417 C  
HETATM   32  C   UNL     1     -12.189  11.433  70.657  1.00  0.00    -0.389 C  
ENDBRANCH  27  28
ENDBRANCH  26  27
ENDBRANCH  25  26
ENDBRANCH  22  25
ENDBRANCH   3  19
TORSDOF 6
ENDMDL
MODEL       21
REMARK 921   NORMALIZED FREE ENERGY PREDICTED BY IDOCK:   -5.81 KCAL/MOL
REMARK 922        TOTAL FREE ENERGY PREDICTED BY IDOCK:   -9.77 KCAL/MOL
REMARK 923 INTER-LIGAND FREE ENERGY PREDICTED BY IDOCK:   -8.06 KCAL/MOL
REMARK 924 INTRA-LIGAND FREE ENERGY PREDICTED BY IDOCK:   -1.71 KCAL/MOL
REMARK 927      BINDING AFFINITY PREDICTED BY RF-SCORE:    0.00 PKD
ROOT
HETATM    1  C   UNL     1     -11.695  12.522  67.616  1.00  0.00    -0.423 C  
HETATM    2  C   UNL     1     -12.067  13.007  66.207  1.00  0.00    -0.453 C  
HETATM    3  C   UNL     1     -11.405  10.979  67.568  1.00  0.00    -0.332 C  
HETATM    4  C   UNL     1     -10.926  12.806  65.212  1.00  0.00    -0.314 C  
HETATM    5  C   UNL     1     -10.594  10.540  66.333  1.00  0.00    -0.218 A  
HETATM    6  C   UNL     1     -10.313  11.431  65.281  1.00  0.00    -0.336 A  
HETATM    7  H   UNL     1      -7.463   8.565  63.410  1.00  0.00     0.000 HD 
HETATM    8  C   UNL     1     -10.081   9.226  66.257  1.00  0.00    -0.322 A  
HETATM    9  C   UNL     1      -9.395  11.055  64.283  1.00  0.00    -0.232 A  
HETATM   10  C   UNL     1      -8.807   9.794  64.307  1.00  0.00    -0.228 A  
HETATM   11  O   UNL     1      -7.864   9.426  63.393  1.00  0.00    -0.121 OA 
HETATM   12  C   UNL     1      -9.165   8.867  65.271  1.00  0.00    -0.158 A  
ENDROOT
BRANCH   1  13
HETATM   13  C   UNL     1     -10.676  13.460  68.274  1.00  0.00    -0.273 A  
HETATM   14  C   UNL     1     -11.018  14.444  69.211  1.00  0.00    -0.281 A  
HETATM   15  C   UNL     1      -8.740  15.252  69.296  1.00  0.00    -0.237 A  
HETATM   16  C   UNL     1      -8.360  14.234  68.424  1.00  0.00    -0.164 A  
HETATM   17  C   UNL     1      -9.317  13.346  67.922  1.00  0.00    -0.216 A  
HETATM   18  C   UNL     1     -10.070  15.349  69.699  1.00  0.00    -0.275 A  
ENDBRANCH   1  13
BRANCH   3  19
HETATM   19  C   UNL     1     -10.857  10.459  68.906  1.00  0.00    -0.273 A  
HETATM   20  C   UNL     1      -9.494  10.169  69.026  1.00  0.00    -0.195 A  
HETATM   21  C   UNL     1      -8.965   9.647  70.189  1.00  0.00    -0.273 A  
HETATM   22  C   UNL     1      -9.766   9.439  71.311  1.00  0.00    -0.139 A  
HETATM   23  C   UNL     1     -11.669  10.258  70.032  1.00  0.00    -0.330 A  
HETATM   24  C   UNL     1     -11.124   9.756  71.232  1.00  0.00    -0.375 A  
BRANCH  22  25
HETATM   25  O   UNL     1      -9.285   8.939  72.506  1.00  0.00    -0.334 OA 
BRANCH  25  26
HETATM   26  C   UNL     1      -9.966   7.737  72.892  1.00  0.00    -0.279 C  
BRANCH  26  27
HETATM   27  C   UNL     1      -9.167   6.454  72.678  1.00  0.00    -0.138 C  
BRANCH  27  28
HETATM   28  N   UNL     1      -9.565   5.815  71.410  1.00  0.00    -0.157 NA 
HETATM   29  C   UNL     1     -10.918   6.158  70.962  1.00  0.00    -0.293 C  
HETATM   30  C   UNL     1     -10.906   5.732  69.509  1.00  0.00    -0.410 C  
HETATM   31  C   UNL     1      -9.509   6.104  69.046  1.00  0.00    -0.138 C  
HETATM   32  C   UNL     1      -8.654   6.123  70.310  1.00  0.00    -0.140 C  
ENDBRANCH  27  28
ENDBRANCH  26  27
ENDBRANCH  25  26
ENDBRANCH  22  25
ENDBRANCH   3  19
TORSDOF 6
ENDMDL
MODEL       22
REMARK 921   NORMALIZED FREE ENERGY PREDICTED BY IDOCK:   -5.78 KCAL/MOL
REMARK 922        TOTAL FREE ENERGY PREDICTED BY IDOCK:   -9.73 KCAL/MOL
REMARK 923 INTER-LIGAND FREE ENERGY PREDICTED BY IDOCK:   -8.57 KCAL/MOL
REMARK 924 INTRA-LIGAND FREE ENERGY PREDICTED BY IDOCK:   -1.16 KCAL/MOL
REMARK 927      BINDING AFFINITY PREDICTED BY RF-SCORE:    0.00 PKD
ROOT
HETATM    1  C   UNL     1      -9.533   9.789  65.946  1.00  0.00    -0.285 C  
HETATM    2  C   UNL     1      -9.865   8.335  66.316  1.00  0.00    -0.227 C  
HETATM    3  C   UNL     1     -10.634  10.735  66.546  1.00  0.00    -0.279 C  
HETATM    4  C   UNL     1      -9.858   8.113  67.826  1.00  0.00    -0.209 C  
HETATM    5  C   UNL     1     -11.065  10.354  67.976  1.00  0.00    -0.359 A  
HETATM    6  C   UNL     1     -10.627   9.163  68.586  1.00  0.00    -0.207 A  
HETATM    7  H   UNL     1     -12.246  10.411  72.543  1.00  0.00     0.000 HD 
HETATM    8  C   UNL     1     -11.889  11.227  68.721  1.00  0.00    -0.396 A  
HETATM    9  C   UNL     1     -10.867   8.960  69.957  1.00  0.00    -0.239 A  
HETATM   10  C   UNL     1     -11.574   9.904  70.695  1.00  0.00    -0.335 A  
HETATM   11  O   UNL     1     -11.763   9.766  72.039  1.00  0.00    -0.212 OA 
HETATM   12  C   UNL     1     -12.111  11.021  70.081  1.00  0.00    -0.438 A  
ENDROOT
BRANCH   1  13
HETATM   13  C   UNL     1      -8.054  10.102  66.197  1.00  0.00    -0.123 A  
HETATM   14  C   UNL     1      -7.127  10.344  65.174  1.00  0.00    -0.080 A  
HETATM   15  C   UNL     1      -5.310  10.496  66.764  1.00  0.00    -0.045 A  
HETATM   16  C   UNL     1      -6.222  10.333  67.803  1.00  0.00    -0.056 A  
HETATM   17  C   UNL     1      -7.579  10.142  67.522  1.00  0.00    -0.091 A  
HETATM   18  C   UNL     1      -5.766  10.514  65.448  1.00  0.00    -0.139 A  
ENDBRANCH   1  13
BRANCH   3  19
HETATM   19  C   UNL     1     -10.273  12.217  66.366  1.00  0.00    -0.247 A  
HETATM   20  C   UNL     1     -10.742  12.910  65.245  1.00  0.00    -0.318 A  
HETATM   21  C   UNL     1     -10.399  14.226  65.012  1.00  0.00    -0.448 A  
HETATM   22  C   UNL     1      -9.610  14.933  65.919  1.00  0.00    -0.308 A  
HETATM   23  C   UNL     1      -9.483  12.923  67.287  1.00  0.00    -0.216 A  
HETATM   24  C   UNL     1      -9.158  14.277  67.066  1.00  0.00    -0.246 A  
BRANCH  22  25
HETATM   25  O   UNL     1      -9.253  16.257  65.745  1.00  0.00    -0.439 OA 
BRANCH  25  26
HETATM   26  C   UNL     1      -8.089  16.599  66.510  1.00  0.00    -0.302 C  
BRANCH  26  27
HETATM   27  C   UNL     1      -7.462  17.944  66.152  1.00  0.00    -0.280 C  
BRANCH  27  28
HETATM   28  N   UNL     1      -8.099  19.021  66.931  1.00  0.00    -0.258 NA 
HETATM   29  C   UNL     1      -9.158  19.739  66.215  1.00  0.00    -0.379 C  
HETATM   30  C   UNL     1      -9.886  20.460  67.329  1.00  0.00    -0.597 C  
HETATM   31  C   UNL     1      -9.869  19.455  68.467  1.00  0.00    -0.509 C  
HETATM   32  C   UNL     1      -8.673  18.548  68.189  1.00  0.00    -0.310 C  
ENDBRANCH  27  28
ENDBRANCH  26  27
ENDBRANCH  25  26
ENDBRANCH  22  25
ENDBRANCH   3  19
TORSDOF 6
ENDMDL
MODEL       23
REMARK 921   NORMALIZED FREE ENERGY PREDICTED BY IDOCK:   -5.75 KCAL/MOL
REMARK 922        TOTAL FREE ENERGY PREDICTED BY IDOCK:   -9.69 KCAL/MOL
REMARK 923 INTER-LIGAND FREE ENERGY PREDICTED BY IDOCK:   -8.41 KCAL/MOL
REMARK 924 INTRA-LIGAND FREE ENERGY PREDICTED BY IDOCK:   -1.28 KCAL/MOL
REMARK 927      BINDING AFFINITY PREDICTED BY RF-SCORE:    0.00 PKD
ROOT
HETATM    1  C   UNL     1     -10.086   7.801  72.037  1.00  0.00    -0.244 C  
HETATM    2  C   UNL     1      -9.857   6.661  73.041  1.00  0.00    -0.184 C  
HETATM    3  C   UNL     1      -9.163   7.577  70.787  1.00  0.00    -0.158 C  
HETATM    4  C   UNL     1     -10.232   5.301  72.459  1.00  0.00    -0.237 C  
HETATM    5  C   UNL     1      -9.095   6.108  70.324  1.00  0.00    -0.158 A  
HETATM    6  C   UNL     1      -9.670   5.069  71.079  1.00  0.00    -0.249 A  
HETATM    7  H   UNL     1      -9.062   2.130  67.789  1.00  0.00     0.000 HD 
HETATM    8  C   UNL     1      -8.476   5.783  69.096  1.00  0.00    -0.107 A  
HETATM    9  C   UNL     1      -9.772   3.782  70.520  1.00  0.00    -0.230 A  
HETATM   10  C   UNL     1      -9.264   3.524  69.251  1.00  0.00    -0.161 A  
HETATM   11  O   UNL     1      -9.409   2.306  68.656  1.00  0.00    -0.162 OA 
HETATM   12  C   UNL     1      -8.592   4.508  68.547  1.00  0.00    -0.105 A  
ENDROOT
BRANCH   1  13
HETATM   13  C   UNL     1     -11.582   8.067  71.832  1.00  0.00    -0.348 A  
HETATM   14  C   UNL     1     -12.160   9.342  71.898  1.00  0.00    -0.440 A  
HETATM   15  C   UNL     1     -14.379   8.424  71.610  1.00  0.00    -0.536 A  
HETATM   16  C   UNL     1     -13.823   7.156  71.464  1.00  0.00    -0.421 A  
HETATM   17  C   UNL     1     -12.439   6.981  71.571  1.00  0.00    -0.426 A  
HETATM   18  C   UNL     1     -13.545   9.520  71.814  1.00  0.00    -0.447 A  
ENDBRANCH   1  13
BRANCH   3  19
HETATM   19  C   UNL     1      -9.467   8.582  69.665  1.00  0.00    -0.165 A  
HETATM   20  C   UNL     1      -8.743   9.776  69.595  1.00  0.00    -0.211 A  
HETATM   21  C   UNL     1      -9.017  10.734  68.639  1.00  0.00    -0.162 A  
HETATM   22  C   UNL     1      -9.998  10.520  67.670  1.00  0.00    -0.173 A  
HETATM   23  C   UNL     1     -10.451   8.356  68.690  1.00  0.00    -0.197 A  
HETATM   24  C   UNL     1     -10.710   9.319  67.694  1.00  0.00    -0.276 A  
BRANCH  22  25
HETATM   25  O   UNL     1     -10.299  11.435  66.680  1.00  0.00    -0.218 OA 
BRANCH  25  26
HETATM   26  C   UNL     1     -11.659  11.883  66.766  1.00  0.00    -0.268 C  
BRANCH  26  27
HETATM   27  C   UNL     1     -11.956  13.173  66.006  1.00  0.00    -0.433 C  
BRANCH  27  28
HETATM   28  N   UNL     1     -12.039  14.306  66.946  1.00  0.00    -0.440 NA 
HETATM   29  C   UNL     1     -12.059  13.917  68.359  1.00  0.00    -0.291 C  
HETATM   30  C   UNL     1     -11.733  15.214  69.067  1.00  0.00    -0.358 C  
HETATM   31  C   UNL     1     -10.701  15.859  68.161  1.00  0.00    -0.302 C  
HETATM   32  C   UNL     1     -10.948  15.263  66.777  1.00  0.00    -0.306 C  
ENDBRANCH  27  28
ENDBRANCH  26  27
ENDBRANCH  25  26
ENDBRANCH  22  25
ENDBRANCH   3  19
TORSDOF 6
ENDMDL
MODEL       24
REMARK 921   NORMALIZED FREE ENERGY PREDICTED BY IDOCK:   -5.73 KCAL/MOL
REMARK 922        TOTAL FREE ENERGY PREDICTED BY IDOCK:   -9.66 KCAL/MOL
REMARK 923 INTER-LIGAND FREE ENERGY PREDICTED BY IDOCK:   -8.64 KCAL/MOL
REMARK 924 INTRA-LIGAND FREE ENERGY PREDICTED BY IDOCK:   -1.02 KCAL/MOL
REMARK 927      BINDING AFFINITY PREDICTED BY RF-SCORE:    0.00 PKD
ROOT
HETATM    1  C   UNL     1     -10.288   9.966  67.375  1.00  0.00    -0.301 C  
HETATM    2  C   UNL     1     -10.101   8.442  67.387  1.00  0.00    -0.301 C  
HETATM    3  C   UNL     1     -11.490  10.344  68.313  1.00  0.00    -0.218 C  
HETATM    4  C   UNL     1      -9.752   7.919  68.778  1.00  0.00    -0.159 C  
HETATM    5  C   UNL     1     -11.518   9.547  69.633  1.00  0.00     0.011 A  
HETATM    6  C   UNL     1     -10.644   8.469  69.862  1.00  0.00    -0.228 A  
HETATM    7  H   UNL     1     -11.804   8.239  74.156  1.00  0.00     0.000 HD 
HETATM    8  C   UNL     1     -12.412   9.919  70.661  1.00  0.00    -0.268 A  
HETATM    9  C   UNL     1     -10.557   7.911  71.151  1.00  0.00    -0.238 A  
HETATM   10  C   UNL     1     -11.364   8.387  72.179  1.00  0.00    -0.366 A  
HETATM   11  O   UNL     1     -11.253   7.913  73.453  1.00  0.00    -0.275 OA 
HETATM   12  C   UNL     1     -12.310   9.367  71.937  1.00  0.00    -0.450 A  
ENDROOT
BRANCH   1  13
HETATM   13  C   UNL     1      -8.947  10.691  67.540  1.00  0.00    -0.136 A  
HETATM   14  C   UNL     1      -8.172  11.145  66.464  1.00  0.00    -0.167 A  
HETATM   15  C   UNL     1      -6.405  11.861  67.952  1.00  0.00    -0.064 A  
HETATM   16  C   UNL     1      -7.188  11.488  69.041  1.00  0.00    -0.106 A  
HETATM   17  C   UNL     1      -8.446  10.913  68.837  1.00  0.00    -0.142 A  
HETATM   18  C   UNL     1      -6.904  11.700  66.661  1.00  0.00    -0.032 A  
ENDBRANCH   1  13
BRANCH   3  19
HETATM   19  C   UNL     1     -11.623  11.864  68.487  1.00  0.00    -0.375 A  
HETATM   20  C   UNL     1     -11.758  12.679  67.358  1.00  0.00    -0.432 A  
HETATM   21  C   UNL     1     -11.825  14.053  67.461  1.00  0.00    -0.442 A  
HETATM   22  C   UNL     1     -11.813  14.681  68.706  1.00  0.00    -0.313 A  
HETATM   23  C   UNL     1     -11.616  12.487  69.745  1.00  0.00    -0.291 A  
HETATM   24  C   UNL     1     -11.717  13.890  69.853  1.00  0.00    -0.358 A  
BRANCH  22  25
HETATM   25  O   UNL     1     -11.898  16.050  68.868  1.00  0.00    -0.379 OA 
BRANCH  25  26
HETATM   26  C   UNL     1     -10.673  16.603  69.371  1.00  0.00    -0.331 C  
BRANCH  26  27
HETATM   27  C   UNL     1      -9.506  16.569  68.388  1.00  0.00    -0.223 C  
BRANCH  27  28
HETATM   28  N   UNL     1      -9.354  17.884  67.738  1.00  0.00    -0.259 NA 
HETATM   29  C   UNL     1      -9.932  17.962  66.393  1.00  0.00    -0.358 C  
HETATM   30  C   UNL     1     -10.008  19.454  66.149  1.00  0.00    -0.501 C  
HETATM   31  C   UNL     1     -10.399  20.012  67.505  1.00  0.00    -0.519 C  
HETATM   32  C   UNL     1      -9.933  18.973  68.521  1.00  0.00    -0.421 C  
ENDBRANCH  27  28
ENDBRANCH  26  27
ENDBRANCH  25  26
ENDBRANCH  22  25
ENDBRANCH   3  19
TORSDOF 6
ENDMDL
MODEL       25
REMARK 921   NORMALIZED FREE ENERGY PREDICTED BY IDOCK:   -5.73 KCAL/MOL
REMARK 922        TOTAL FREE ENERGY PREDICTED BY IDOCK:   -9.66 KCAL/MOL
REMARK 923 INTER-LIGAND FREE ENERGY PREDICTED BY IDOCK:   -8.30 KCAL/MOL
REMARK 924 INTRA-LIGAND FREE ENERGY PREDICTED BY IDOCK:   -1.37 KCAL/MOL
REMARK 927      BINDING AFFINITY PREDICTED BY RF-SCORE:    0.00 PKD
ROOT
HETATM    1  C   UNL     1     -10.183   8.673  66.608  1.00  0.00    -0.343 C  
HETATM    2  C   UNL     1     -10.430   7.198  66.959  1.00  0.00    -0.392 C  
HETATM    3  C   UNL     1     -10.975   9.580  67.614  1.00  0.00    -0.150 C  
HETATM    4  C   UNL     1      -9.923   6.849  68.356  1.00  0.00    -0.150 C  
HETATM    5  C   UNL     1     -10.913   9.087  69.074  1.00  0.00    -0.001 A  
HETATM    6  C   UNL     1     -10.345   7.843  69.408  1.00  0.00    -0.220 A  
HETATM    7  H   UNL     1     -10.479   8.776  73.761  1.00  0.00     0.000 HD 
HETATM    8  C   UNL     1     -11.400   9.905  70.117  1.00  0.00    -0.335 A  
HETATM    9  C   UNL     1     -10.116   7.528  70.760  1.00  0.00    -0.192 A  
HETATM   10  C   UNL     1     -10.493   8.416  71.762  1.00  0.00    -0.283 A  
HETATM   11  O   UNL     1     -10.223   8.169  73.076  1.00  0.00    -0.309 OA 
HETATM   12  C   UNL     1     -11.158   9.589  71.452  1.00  0.00    -0.438 A  
ENDROOT
BRANCH   1  13
HETATM   13  C   UNL     1      -8.693   8.942  66.363  1.00  0.00    -0.148 A  
HETATM   14  C   UNL     1      -7.717   8.880  67.367  1.00  0.00    -0.096 A  
HETATM   15  C   UNL     1      -6.000   9.628  65.837  1.00  0.00    -0.059 A  
HETATM   16  C   UNL     1      -6.934   9.625  64.805  1.00  0.00    -0.111 A  
HETATM   17  C   UNL     1      -8.266   9.282  65.065  1.00  0.00    -0.146 A  
HETATM   18  C   UNL     1      -6.390   9.243  67.118  1.00  0.00    -0.062 A  
ENDBRANCH   1  13
BRANCH   3  19
HETATM   19  C   UNL     1     -10.635  11.067  67.433  1.00  0.00    -0.276 A  
HETATM   20  C   UNL     1     -11.384  11.843  66.543  1.00  0.00    -0.403 A  
HETATM   21  C   UNL     1     -11.082  13.168  66.305  1.00  0.00    -0.308 A  
HETATM   22  C   UNL     1     -10.043  13.800  66.988  1.00  0.00    -0.256 A  
HETATM   23  C   UNL     1      -9.591  11.697  68.129  1.00  0.00    -0.190 A  
HETATM   24  C   UNL     1      -9.301  13.059  67.911  1.00  0.00    -0.212 A  
BRANCH  22  25
HETATM   25  O   UNL     1      -9.710  15.128  66.804  1.00  0.00    -0.227 OA 
BRANCH  25  26
HETATM   26  C   UNL     1     -10.774  16.004  67.201  1.00  0.00    -0.283 C  
BRANCH  26  27
HETATM   27  C   UNL     1     -10.394  17.027  68.268  1.00  0.00    -0.347 C  
BRANCH  27  28
HETATM   28  N   UNL     1     -10.597  18.393  67.753  1.00  0.00    -0.411 NA 
HETATM   29  C   UNL     1      -9.707  19.398  68.342  1.00  0.00    -0.408 C  
HETATM   30  C   UNL     1      -9.832  20.560  67.380  1.00  0.00    -0.574 C  
HETATM   31  C   UNL     1      -9.916  19.885  66.023  1.00  0.00    -0.560 C  
HETATM   32  C   UNL     1     -10.445  18.480  66.303  1.00  0.00    -0.406 C  
ENDBRANCH  27  28
ENDBRANCH  26  27
ENDBRANCH  25  26
ENDBRANCH  22  25
ENDBRANCH   3  19
TORSDOF 6
ENDMDL
MODEL       26
REMARK 921   NORMALIZED FREE ENERGY PREDICTED BY IDOCK:   -5.72 KCAL/MOL
REMARK 922        TOTAL FREE ENERGY PREDICTED BY IDOCK:   -9.65 KCAL/MOL
REMARK 923 INTER-LIGAND FREE ENERGY PREDICTED BY IDOCK:   -8.60 KCAL/MOL
REMARK 924 INTRA-LIGAND FREE ENERGY PREDICTED BY IDOCK:   -1.05 KCAL/MOL
REMARK 927      BINDING AFFINITY PREDICTED BY RF-SCORE:    0.00 PKD
ROOT
HETATM    1  C   UNL     1     -10.208  15.768  68.332  1.00  0.00    -0.223 C  
HETATM    2  C   UNL     1      -9.967  16.802  67.220  1.00  0.00    -0.272 C  
HETATM    3  C   UNL     1     -11.550  15.007  68.043  1.00  0.00    -0.356 C  
HETATM    4  C   UNL     1      -9.811  16.144  65.852  1.00  0.00    -0.384 C  
HETATM    5  C   UNL     1     -11.746  14.641  66.558  1.00  0.00    -0.335 A  
HETATM    6  C   UNL     1     -10.876  15.118  65.560  1.00  0.00    -0.373 A  
HETATM    7  H   UNL     1     -12.659  12.420  62.498  1.00  0.00     0.000 HD 
HETATM    8  C   UNL     1     -12.798  13.779  66.176  1.00  0.00    -0.188 A  
HETATM    9  C   UNL     1     -10.963  14.592  64.258  1.00  0.00     0.046 A  
HETATM   10  C   UNL     1     -11.932  13.644  63.945  1.00  0.00    -0.408 A  
HETATM   11  O   UNL     1     -11.997  13.067  62.711  1.00  0.00     0.006 OA 
HETATM   12  C   UNL     1     -12.868  13.255  64.887  1.00  0.00    -0.321 A  
ENDROOT
BRANCH   1  13
HETATM   13  C   UNL     1      -8.935  14.967  68.629  1.00  0.00    -0.184 A  
HETATM   14  C   UNL     1      -8.638  13.733  68.034  1.00  0.00    -0.177 A  
HETATM   15  C   UNL     1      -6.643  13.489  69.379  1.00  0.00    -0.082 A  
HETATM   16  C   UNL     1      -6.875  14.747  69.929  1.00  0.00    -0.158 A  
HETATM   17  C   UNL     1      -8.007  15.479  69.555  1.00  0.00    -0.192 A  
HETATM   18  C   UNL     1      -7.520  12.987  68.421  1.00  0.00    -0.128 A  
ENDBRANCH   1  13
BRANCH   3  19
HETATM   19  C   UNL     1     -11.765  13.839  69.017  1.00  0.00    -0.372 A  
HETATM   20  C   UNL     1     -11.478  12.534  68.604  1.00  0.00    -0.348 A  
HETATM   21  C   UNL     1     -11.707  11.448  69.424  1.00  0.00    -0.406 A  
HETATM   22  C   UNL     1     -12.188  11.618  70.722  1.00  0.00    -0.344 A  
HETATM   23  C   UNL     1     -12.245  14.020  70.324  1.00  0.00    -0.430 A  
HETATM   24  C   UNL     1     -12.449  12.913  71.174  1.00  0.00    -0.344 A  
BRANCH  22  25
HETATM   25  O   UNL     1     -12.417  10.569  71.591  1.00  0.00    -0.383 OA 
BRANCH  25  26
HETATM   26  C   UNL     1     -11.760   9.368  71.160  1.00  0.00    -0.345 C  
BRANCH  26  27
HETATM   27  C   UNL     1     -10.610   8.913  72.054  1.00  0.00    -0.318 C  
BRANCH  27  28
HETATM   28  N   UNL     1     -11.014   7.727  72.832  1.00  0.00    -0.391 NA 
HETATM   29  C   UNL     1     -11.470   6.597  72.016  1.00  0.00    -0.291 C  
HETATM   30  C   UNL     1     -11.418   5.440  72.990  1.00  0.00    -0.324 C  
HETATM   31  C   UNL     1     -10.168   5.723  73.804  1.00  0.00    -0.245 C  
HETATM   32  C   UNL     1      -9.950   7.230  73.701  1.00  0.00    -0.330 C  
ENDBRANCH  27  28
ENDBRANCH  26  27
ENDBRANCH  25  26
ENDBRANCH  22  25
ENDBRANCH   3  19
TORSDOF 6
ENDMDL
MODEL       27
REMARK 921   NORMALIZED FREE ENERGY PREDICTED BY IDOCK:   -5.71 KCAL/MOL
REMARK 922        TOTAL FREE ENERGY PREDICTED BY IDOCK:   -9.64 KCAL/MOL
REMARK 923 INTER-LIGAND FREE ENERGY PREDICTED BY IDOCK:   -8.45 KCAL/MOL
REMARK 924 INTRA-LIGAND FREE ENERGY PREDICTED BY IDOCK:   -1.19 KCAL/MOL
REMARK 927      BINDING AFFINITY PREDICTED BY RF-SCORE:    0.00 PKD
ROOT
HETATM    1  C   UNL     1     -12.083  13.385  67.198  1.00  0.00    -0.367 C  
HETATM    2  C   UNL     1     -12.440  14.092  65.881  1.00  0.00    -0.513 C  
HETATM    3  C   UNL     1     -11.876  11.854  66.918  1.00  0.00    -0.177 C  
HETATM    4  C   UNL     1     -11.319  13.982  64.851  1.00  0.00    -0.354 C  
HETATM    5  C   UNL     1     -11.098  11.561  65.620  1.00  0.00    -0.261 A  
HETATM    6  C   UNL     1     -10.779  12.583  64.706  1.00  0.00    -0.333 A  
HETATM    7  H   UNL     1      -8.098   9.884  62.389  1.00  0.00     0.000 HD 
HETATM    8  C   UNL     1     -10.657  10.248  65.342  1.00  0.00    -0.002 A  
HETATM    9  C   UNL     1      -9.890  12.312  63.649  1.00  0.00    -0.181 A  
HETATM   10  C   UNL     1      -9.369  11.033  63.478  1.00  0.00    -0.260 A  
HETATM   11  O   UNL     1      -8.454  10.757  62.506  1.00  0.00    -0.204 OA 
HETATM   12  C   UNL     1      -9.768   9.993  64.300  1.00  0.00    -0.242 A  
ENDROOT
BRANCH   1  13
HETATM   13  C   UNL     1     -11.011  14.161  67.971  1.00  0.00    -0.269 A  
HETATM   14  C   UNL     1      -9.641  14.081  67.692  1.00  0.00    -0.221 A  
HETATM   15  C   UNL     1      -9.104  15.502  69.574  1.00  0.00    -0.260 A  
HETATM   16  C   UNL     1     -10.465  15.659  69.827  1.00  0.00    -0.312 A  
HETATM   17  C   UNL     1     -11.407  14.998  69.032  1.00  0.00    -0.306 A  
HETATM   18  C   UNL     1      -8.693  14.721  68.497  1.00  0.00    -0.174 A  
ENDBRANCH   1  13
BRANCH   3  19
HETATM   19  C   UNL     1     -11.346  11.114  68.156  1.00  0.00    -0.377 A  
HETATM   20  C   UNL     1     -12.137  11.037  69.306  1.00  0.00    -0.363 A  
HETATM   21  C   UNL     1     -11.682  10.432  70.460  1.00  0.00    -0.434 A  
HETATM   22  C   UNL     1     -10.427   9.824  70.503  1.00  0.00    -0.301 A  
HETATM   23  C   UNL     1     -10.084  10.500  68.189  1.00  0.00    -0.180 A  
HETATM   24  C   UNL     1      -9.630   9.853  69.357  1.00  0.00    -0.229 A  
BRANCH  22  25
HETATM   25  O   UNL     1      -9.931   9.188  71.624  1.00  0.00    -0.316 OA 
BRANCH  25  26
HETATM   26  C   UNL     1     -10.931   8.385  72.267  1.00  0.00    -0.361 C  
BRANCH  26  27
HETATM   27  C   UNL     1     -11.271   7.086  71.542  1.00  0.00    -0.249 C  
BRANCH  27  28
HETATM   28  N   UNL     1     -10.493   5.970  72.112  1.00  0.00    -0.201 NA 
HETATM   29  C   UNL     1     -11.233   5.150  73.075  1.00  0.00    -0.322 C  
HETATM   30  C   UNL     1     -10.384   3.900  73.171  1.00  0.00    -0.241 C  
HETATM   31  C   UNL     1      -9.907   3.690  71.746  1.00  0.00    -0.235 C  
HETATM   32  C   UNL     1      -9.966   5.068  71.092  1.00  0.00    -0.207 C  
ENDBRANCH  27  28
ENDBRANCH  26  27
ENDBRANCH  25  26
ENDBRANCH  22  25
ENDBRANCH   3  19
TORSDOF 6
ENDMDL
MODEL       28
REMARK 921   NORMALIZED FREE ENERGY PREDICTED BY IDOCK:   -5.69 KCAL/MOL
REMARK 922        TOTAL FREE ENERGY PREDICTED BY IDOCK:   -9.62 KCAL/MOL
REMARK 923 INTER-LIGAND FREE ENERGY PREDICTED BY IDOCK:   -7.87 KCAL/MOL
REMARK 924 INTRA-LIGAND FREE ENERGY PREDICTED BY IDOCK:   -1.75 KCAL/MOL
REMARK 927      BINDING AFFINITY PREDICTED BY RF-SCORE:    0.00 PKD
ROOT
HETATM    1  C   UNL     1     -10.681  16.643  67.577  1.00  0.00    -0.278 C  
HETATM    2  C   UNL     1     -10.889  18.165  67.565  1.00  0.00    -0.264 C  
HETATM    3  C   UNL     1      -9.216  16.321  67.114  1.00  0.00    -0.226 C  
HETATM    4  C   UNL     1      -9.955  18.878  68.541  1.00  0.00    -0.463 C  
HETATM    5  C   UNL     1      -8.157  17.274  67.704  1.00  0.00    -0.198 A  
HETATM    6  C   UNL     1      -8.523  18.420  68.435  1.00  0.00    -0.345 A  
HETATM    7  H   UNL     1      -4.320  19.125  69.729  1.00  0.00     0.000 HD 
HETATM    8  C   UNL     1      -6.783  16.987  67.547  1.00  0.00    -0.168 A  
HETATM    9  C   UNL     1      -7.535  19.140  69.132  1.00  0.00    -0.298 A  
HETATM   10  C   UNL     1      -6.200  18.753  69.060  1.00  0.00    -0.240 A  
HETATM   11  O   UNL     1      -5.231  19.389  69.778  1.00  0.00    -0.190 OA 
HETATM   12  C   UNL     1      -5.814  17.699  68.250  1.00  0.00    -0.160 A  
ENDROOT
BRANCH   1  13
HETATM   13  C   UNL     1     -11.217  16.020  68.871  1.00  0.00    -0.353 A  
HETATM   14  C   UNL     1     -10.723  16.331  70.145  1.00  0.00    -0.246 A  
HETATM   15  C   UNL     1     -12.159  14.683  71.179  1.00  0.00    -0.403 A  
HETATM   16  C   UNL     1     -12.720  14.409  69.934  1.00  0.00    -0.107 A  
HETATM   17  C   UNL     1     -12.256  15.073  68.794  1.00  0.00    -0.117 A  
HETATM   18  C   UNL     1     -11.167  15.655  71.286  1.00  0.00    -0.393 A  
ENDBRANCH   1  13
BRANCH   3  19
HETATM   19  C   UNL     1      -8.882  14.829  67.270  1.00  0.00    -0.218 A  
HETATM   20  C   UNL     1      -9.446  13.901  66.390  1.00  0.00    -0.268 A  
HETATM   21  C   UNL     1      -9.221  12.546  66.524  1.00  0.00    -0.210 A  
HETATM   22  C   UNL     1      -8.374  12.055  67.517  1.00  0.00    -0.166 A  
HETATM   23  C   UNL     1      -8.024  14.344  68.269  1.00  0.00    -0.140 A  
HETATM   24  C   UNL     1      -7.767  12.963  68.388  1.00  0.00    -0.133 A  
BRANCH  22  25
HETATM   25  O   UNL     1      -8.097  10.712  67.684  1.00  0.00    -0.106 OA 
BRANCH  25  26
HETATM   26  C   UNL     1      -8.288  10.294  69.044  1.00  0.00    -0.148 C  
BRANCH  26  27
HETATM   27  C   UNL     1      -9.514   9.416  69.276  1.00  0.00    -0.164 C  
BRANCH  27  28
HETATM   28  N   UNL     1     -10.445  10.083  70.205  1.00  0.00    -0.285 NA 
HETATM   29  C   UNL     1     -11.613  10.688  69.558  1.00  0.00    -0.288 C  
HETATM   30  C   UNL     1     -12.557  10.915  70.719  1.00  0.00    -0.470 C  
HETATM   31  C   UNL     1     -12.344   9.690  71.589  1.00  0.00    -0.489 C  
HETATM   32  C   UNL     1     -10.944   9.188  71.247  1.00  0.00    -0.330 C  
ENDBRANCH  27  28
ENDBRANCH  26  27
ENDBRANCH  25  26
ENDBRANCH  22  25
ENDBRANCH   3  19
TORSDOF 6
ENDMDL
MODEL       29
REMARK 921   NORMALIZED FREE ENERGY PREDICTED BY IDOCK:   -5.68 KCAL/MOL
REMARK 922        TOTAL FREE ENERGY PREDICTED BY IDOCK:   -9.60 KCAL/MOL
REMARK 923 INTER-LIGAND FREE ENERGY PREDICTED BY IDOCK:   -8.06 KCAL/MOL
REMARK 924 INTRA-LIGAND FREE ENERGY PREDICTED BY IDOCK:   -1.54 KCAL/MOL
REMARK 927      BINDING AFFINITY PREDICTED BY RF-SCORE:    0.00 PKD
ROOT
HETATM    1  C   UNL     1     -11.206  12.238  68.083  1.00  0.00    -0.320 C  
HETATM    2  C   UNL     1     -11.771  10.827  68.305  1.00  0.00    -0.205 C  
HETATM    3  C   UNL     1      -9.786  12.333  68.746  1.00  0.00    -0.018 C  
HETATM    4  C   UNL     1     -10.907   9.754  67.646  1.00  0.00    -0.301 C  
HETATM    5  C   UNL     1      -8.914  11.081  68.524  1.00  0.00    -0.163 A  
HETATM    6  C   UNL     1      -9.437   9.914  67.936  1.00  0.00    -0.149 A  
HETATM    7  H   UNL     1      -5.385   8.102  67.565  1.00  0.00     0.000 HD 
HETATM    8  C   UNL     1      -7.548  11.101  68.881  1.00  0.00    -0.133 A  
HETATM    9  C   UNL     1      -8.561   8.879  67.558  1.00  0.00    -0.120 A  
HETATM   10  C   UNL     1      -7.197   8.985  67.809  1.00  0.00    -0.083 A  
HETATM   11  O   UNL     1      -6.317   8.030  67.394  1.00  0.00    -0.053 OA 
HETATM   12  C   UNL     1      -6.688  10.075  68.493  1.00  0.00    -0.054 A  
ENDROOT
BRANCH   1  13
HETATM   13  C   UNL     1     -11.389  12.686  66.628  1.00  0.00    -0.379 A  
HETATM   14  C   UNL     1     -10.732  12.090  65.543  1.00  0.00    -0.318 A  
HETATM   15  C   UNL     1     -11.666  13.705  64.003  1.00  0.00    -0.405 A  
HETATM   16  C   UNL     1     -12.389  14.268  65.052  1.00  0.00    -0.434 A  
HETATM   17  C   UNL     1     -12.254  13.762  66.349  1.00  0.00    -0.480 A  
HETATM   18  C   UNL     1     -10.846  12.606  64.248  1.00  0.00    -0.411 A  
ENDBRANCH   1  13
BRANCH   3  19
HETATM   19  C   UNL     1      -9.087  13.660  68.413  1.00  0.00    -0.165 A  
HETATM   20  C   UNL     1      -9.487  14.832  69.061  1.00  0.00    -0.167 A  
HETATM   21  C   UNL     1      -8.928  16.056  68.755  1.00  0.00    -0.226 A  
HETATM   22  C   UNL     1      -7.899  16.160  67.819  1.00  0.00    -0.143 A  
HETATM   23  C   UNL     1      -8.048  13.755  67.473  1.00  0.00    -0.192 A  
HETATM   24  C   UNL     1      -7.453  14.999  67.183  1.00  0.00    -0.145 A  
BRANCH  22  25
HETATM   25  O   UNL     1      -7.290  17.356  67.489  1.00  0.00    -0.166 OA 
BRANCH  25  26
HETATM   26  C   UNL     1      -7.350  18.299  68.569  1.00  0.00    -0.286 C  
BRANCH  26  27
HETATM   27  C   UNL     1      -7.342  19.763  68.139  1.00  0.00    -0.303 C  
BRANCH  27  28
HETATM   28  N   UNL     1      -8.653  20.130  67.573  1.00  0.00    -0.339 NA 
HETATM   29  C   UNL     1      -8.855  19.695  66.188  1.00  0.00    -0.332 C  
HETATM   30  C   UNL     1     -10.353  19.820  66.013  1.00  0.00    -0.612 C  
HETATM   31  C   UNL     1     -10.901  19.371  67.356  1.00  0.00    -0.555 C  
HETATM   32  C   UNL     1      -9.773  19.613  68.355  1.00  0.00    -0.403 C  
ENDBRANCH  27  28
ENDBRANCH  26  27
ENDBRANCH  25  26
ENDBRANCH  22  25
ENDBRANCH   3  19
TORSDOF 6
ENDMDL
MODEL       30
REMARK 921   NORMALIZED FREE ENERGY PREDICTED BY IDOCK:   -5.65 KCAL/MOL
REMARK 922        TOTAL FREE ENERGY PREDICTED BY IDOCK:   -9.56 KCAL/MOL
REMARK 923 INTER-LIGAND FREE ENERGY PREDICTED BY IDOCK:   -7.72 KCAL/MOL
REMARK 924 INTRA-LIGAND FREE ENERGY PREDICTED BY IDOCK:   -1.84 KCAL/MOL
REMARK 927      BINDING AFFINITY PREDICTED BY RF-SCORE:    0.00 PKD
ROOT
HETATM    1  C   UNL     1     -11.333  13.162  67.294  1.00  0.00    -0.344 C  
HETATM    2  C   UNL     1     -11.846  14.577  66.986  1.00  0.00    -0.408 C  
HETATM    3  C   UNL     1      -9.795  13.094  66.985  1.00  0.00    -0.244 C  
HETATM    4  C   UNL     1     -11.175  15.632  67.863  1.00  0.00    -0.328 C  
HETATM    5  C   UNL     1      -9.016  14.342  67.445  1.00  0.00    -0.205 A  
HETATM    6  C   UNL     1      -9.676  15.487  67.927  1.00  0.00    -0.211 A  
HETATM    7  H   UNL     1      -5.850  17.303  69.304  1.00  0.00     0.000 HD 
HETATM    8  C   UNL     1      -7.603  14.339  67.423  1.00  0.00    -0.185 A  
HETATM    9  C   UNL     1      -8.928  16.513  68.532  1.00  0.00    -0.231 A  
HETATM   10  C   UNL     1      -7.542  16.421  68.610  1.00  0.00    -0.197 A  
HETATM   11  O   UNL     1      -6.796  17.366  69.251  1.00  0.00    -0.244 OA 
HETATM   12  C   UNL     1      -6.873  15.355  68.035  1.00  0.00    -0.152 A  
ENDROOT
BRANCH   1  13
HETATM   13  C   UNL     1     -11.852  12.667  68.649  1.00  0.00    -0.342 A  
HETATM   14  C   UNL     1     -12.053  13.503  69.756  1.00  0.00    -0.381 A  
HETATM   15  C   UNL     1     -12.645  11.621  71.155  1.00  0.00    -0.439 A  
HETATM   16  C   UNL     1     -12.526  10.779  70.052  1.00  0.00    -0.317 A  
HETATM   17  C   UNL     1     -12.137  11.298  68.812  1.00  0.00    -0.258 A  
HETATM   18  C   UNL     1     -12.420  12.987  71.003  1.00  0.00    -0.385 A  
ENDBRANCH   1  13
BRANCH   3  19
HETATM   19  C   UNL     1      -9.180  11.760  67.435  1.00  0.00    -0.174 A  
HETATM   20  C   UNL     1      -9.081  10.704  66.525  1.00  0.00    -0.179 A  
HETATM   21  C   UNL     1      -8.588   9.470  66.897  1.00  0.00    -0.132 A  
HETATM   22  C   UNL     1      -8.118   9.247  68.192  1.00  0.00    -0.107 A  
HETATM   23  C   UNL     1      -8.705  11.546  68.738  1.00  0.00    -0.048 A  
HETATM   24  C   UNL     1      -8.170  10.296  69.112  1.00  0.00    -0.152 A  
BRANCH  22  25
HETATM   25  O   UNL     1      -7.596   8.039  68.613  1.00  0.00    -0.096 OA 
BRANCH  25  26
HETATM   26  C   UNL     1      -8.244   7.565  69.801  1.00  0.00    -0.128 C  
BRANCH  26  27
HETATM   27  C   UNL     1      -9.514   6.755  69.556  1.00  0.00    -0.148 C  
BRANCH  27  28
HETATM   28  N   UNL     1     -10.663   7.406  70.212  1.00  0.00    -0.232 NA 
HETATM   29  C   UNL     1     -11.747   6.489  70.579  1.00  0.00    -0.375 C  
HETATM   30  C   UNL     1     -12.559   7.308  71.560  1.00  0.00    -0.415 C  
HETATM   31  C   UNL     1     -11.503   8.067  72.342  1.00  0.00    -0.449 C  
HETATM   32  C   UNL     1     -10.287   8.135  71.421  1.00  0.00    -0.208 C  
ENDBRANCH  27  28
ENDBRANCH  26  27
ENDBRANCH  25  26
ENDBRANCH  22  25
ENDBRANCH   3  19
TORSDOF 6
ENDMDL
MODEL       31
REMARK 921   NORMALIZED FREE ENERGY PREDICTED BY IDOCK:   -5.64 KCAL/MOL
REMARK 922        TOTAL FREE ENERGY PREDICTED BY IDOCK:   -9.54 KCAL/MOL
REMARK 923 INTER-LIGAND FREE ENERGY PREDICTED BY IDOCK:   -8.61 KCAL/MOL
REMARK 924 INTRA-LIGAND FREE ENERGY PREDICTED BY IDOCK:   -0.93 KCAL/MOL
REMARK 927      BINDING AFFINITY PREDICTED BY RF-SCORE:    0.00 PKD
ROOT
HETATM    1  C   UNL     1      -7.176  17.681  66.598  1.00  0.00    -0.264 C  
HETATM    2  C   UNL     1      -5.784  18.173  67.021  1.00  0.00    -0.162 C  
HETATM    3  C   UNL     1      -7.244  16.121  66.770  1.00  0.00    -0.190 C  
HETATM    4  C   UNL     1      -5.496  17.882  68.492  1.00  0.00    -0.160 C  
HETATM    5  C   UNL     1      -6.576  15.612  68.063  1.00  0.00    -0.152 A  
HETATM    6  C   UNL     1      -5.831  16.469  68.895  1.00  0.00    -0.137 A  
HETATM    7  H   UNL     1      -5.584  13.391  72.105  1.00  0.00     0.000 HD 
HETATM    8  C   UNL     1      -6.737  14.265  68.457  1.00  0.00    -0.099 A  
HETATM    9  C   UNL     1      -5.424  16.018  70.164  1.00  0.00    -0.162 A  
HETATM   10  C   UNL     1      -5.710  14.720  70.575  1.00  0.00    -0.152 A  
HETATM   11  O   UNL     1      -5.388  14.277  71.824  1.00  0.00    -0.167 OA 
HETATM   12  C   UNL     1      -6.339  13.832  69.720  1.00  0.00    -0.112 A  
ENDROOT
BRANCH   1  13
HETATM   13  C   UNL     1      -8.281  18.554  67.204  1.00  0.00    -0.256 A  
HETATM   14  C   UNL     1      -8.794  18.372  68.496  1.00  0.00    -0.336 A  
HETATM   15  C   UNL     1     -10.441  20.111  68.160  1.00  0.00    -0.375 A  
HETATM   16  C   UNL     1      -9.901  20.362  66.901  1.00  0.00    -0.572 A  
HETATM   17  C   UNL     1      -8.831  19.594  66.431  1.00  0.00    -0.419 A  
HETATM   18  C   UNL     1      -9.878  19.122  68.963  1.00  0.00    -0.437 A  
ENDBRANCH   1  13
BRANCH   3  19
HETATM   19  C   UNL     1      -8.662  15.581  66.533  1.00  0.00    -0.340 A  
HETATM   20  C   UNL     1      -9.412  16.061  65.455  1.00  0.00    -0.035 A  
HETATM   21  C   UNL     1     -10.710  15.647  65.234  1.00  0.00    -0.444 A  
HETATM   22  C   UNL     1     -11.306  14.689  66.054  1.00  0.00    -0.344 A  
HETATM   23  C   UNL     1      -9.252  14.612  67.359  1.00  0.00    -0.201 A  
HETATM   24  C   UNL     1     -10.567  14.164  67.116  1.00  0.00    -0.278 A  
BRANCH  22  25
HETATM   25  O   UNL     1     -12.593  14.224  65.866  1.00  0.00    -0.450 OA 
BRANCH  25  26
HETATM   26  C   UNL     1     -12.606  12.899  65.315  1.00  0.00    -0.439 C  
BRANCH  26  27
HETATM   27  C   UNL     1     -11.907  12.762  63.965  1.00  0.00    -0.435 C  
BRANCH  27  28
HETATM   28  N   UNL     1     -11.108  11.523  63.934  1.00  0.00    -0.389 NA 
HETATM   29  C   UNL     1      -9.934  11.585  63.059  1.00  0.00    -0.322 C  
HETATM   30  C   UNL     1      -9.110  10.403  63.521  1.00  0.00    -0.270 C  
HETATM   31  C   UNL     1      -9.312  10.401  65.025  1.00  0.00    -0.279 C  
HETATM   32  C   UNL     1     -10.640  11.117  65.257  1.00  0.00    -0.238 C  
ENDBRANCH  27  28
ENDBRANCH  26  27
ENDBRANCH  25  26
ENDBRANCH  22  25
ENDBRANCH   3  19
TORSDOF 6
ENDMDL
MODEL       32
REMARK 921   NORMALIZED FREE ENERGY PREDICTED BY IDOCK:   -5.60 KCAL/MOL
REMARK 922        TOTAL FREE ENERGY PREDICTED BY IDOCK:   -9.48 KCAL/MOL
REMARK 923 INTER-LIGAND FREE ENERGY PREDICTED BY IDOCK:   -8.18 KCAL/MOL
REMARK 924 INTRA-LIGAND FREE ENERGY PREDICTED BY IDOCK:   -1.30 KCAL/MOL
REMARK 927      BINDING AFFINITY PREDICTED BY RF-SCORE:    0.00 PKD
ROOT
HETATM    1  C   UNL     1     -11.195  12.539  67.493  1.00  0.00    -0.342 C  
HETATM    2  C   UNL     1     -11.809  11.330  68.216  1.00  0.00    -0.299 C  
HETATM    3  C   UNL     1     -12.027  13.823  67.845  1.00  0.00    -0.391 C  
HETATM    4  C   UNL     1     -11.757  11.483  69.734  1.00  0.00    -0.426 C  
HETATM    5  C   UNL     1     -12.440  13.906  69.328  1.00  0.00    -0.028 A  
HETATM    6  C   UNL     1     -12.232  12.831  70.212  1.00  0.00    -0.351 A  
HETATM    7  H   UNL     1     -13.296  15.329  73.743  1.00  0.00     0.000 HD 
HETATM    8  C   UNL     1     -13.009  15.095  69.836  1.00  0.00     0.063 A  
HETATM    9  C   UNL     1     -12.425  13.025  71.593  1.00  0.00    -0.097 A  
HETATM   10  C   UNL     1     -12.865  14.253  72.076  1.00  0.00    -0.347 A  
HETATM   11  O   UNL     1     -12.996  14.490  73.413  1.00  0.00    -0.544 OA 
HETATM   12  C   UNL     1     -13.185  15.280  71.206  1.00  0.00    -0.563 A  
ENDROOT
BRANCH   1  13
HETATM   13  C   UNL     1      -9.670  12.562  67.649  1.00  0.00    -0.196 A  
HETATM   14  C   UNL     1      -8.806  11.705  66.955  1.00  0.00    -0.190 A  
HETATM   15  C   UNL     1      -6.885  12.572  68.141  1.00  0.00    -0.084 A  
HETATM   16  C   UNL     1      -7.712  13.486  68.789  1.00  0.00    -0.044 A  
HETATM   17  C   UNL     1      -9.089  13.482  68.542  1.00  0.00    -0.092 A  
HETATM   18  C   UNL     1      -7.431  11.689  67.213  1.00  0.00    -0.143 A  
ENDBRANCH   1  13
BRANCH   3  19
HETATM   19  C   UNL     1     -11.366  15.098  67.298  1.00  0.00    -0.305 A  
HETATM   20  C   UNL     1     -11.086  16.157  68.168  1.00  0.00    -0.332 A  
HETATM   21  C   UNL     1     -10.545  17.343  67.714  1.00  0.00    -0.371 A  
HETATM   22  C   UNL     1     -10.207  17.509  66.371  1.00  0.00    -0.354 A  
HETATM   23  C   UNL     1     -11.025  15.255  65.946  1.00  0.00    -0.325 A  
HETATM   24  C   UNL     1     -10.442  16.454  65.487  1.00  0.00    -0.349 A  
BRANCH  22  25
HETATM   25  O   UNL     1      -9.645  18.666  65.867  1.00  0.00    -0.479 OA 
BRANCH  25  26
HETATM   26  C   UNL     1      -8.984  19.425  66.889  1.00  0.00    -0.310 C  
BRANCH  26  27
HETATM   27  C   UNL     1      -7.520  19.746  66.600  1.00  0.00    -0.256 C  
BRANCH  27  28
HETATM   28  N   UNL     1      -6.645  18.792  67.306  1.00  0.00    -0.199 NA 
HETATM   29  C   UNL     1      -7.285  18.106  68.432  1.00  0.00    -0.260 C  
HETATM   30  C   UNL     1      -6.350  16.944  68.690  1.00  0.00    -0.161 C  
HETATM   31  C   UNL     1      -5.922  16.522  67.297  1.00  0.00    -0.200 C  
HETATM   32  C   UNL     1      -6.102  17.761  66.425  1.00  0.00    -0.205 C  
ENDBRANCH  27  28
ENDBRANCH  26  27
ENDBRANCH  25  26
ENDBRANCH  22  25
ENDBRANCH   3  19
TORSDOF 6
ENDMDL
MODEL       33
REMARK 921   NORMALIZED FREE ENERGY PREDICTED BY IDOCK:   -5.54 KCAL/MOL
REMARK 922        TOTAL FREE ENERGY PREDICTED BY IDOCK:   -9.41 KCAL/MOL
REMARK 923 INTER-LIGAND FREE ENERGY PREDICTED BY IDOCK:   -8.27 KCAL/MOL
REMARK 924 INTRA-LIGAND FREE ENERGY PREDICTED BY IDOCK:   -1.14 KCAL/MOL
REMARK 927      BINDING AFFINITY PREDICTED BY RF-SCORE:    0.00 PKD
ROOT
HETATM    1  C   UNL     1      -9.620  12.426  67.345  1.00  0.00    -0.184 C  
HETATM    2  C   UNL     1     -10.020  13.631  68.211  1.00  0.00    -0.236 C  
HETATM    3  C   UNL     1      -9.408  11.176  68.270  1.00  0.00    -0.176 C  
HETATM    4  C   UNL     1     -11.340  13.398  68.942  1.00  0.00    -0.331 C  
HETATM    5  C   UNL     1     -10.467  11.042  69.382  1.00  0.00    -0.177 A  
HETATM    6  C   UNL     1     -11.411  12.057  69.627  1.00  0.00    -0.322 A  
HETATM    7  H   UNL     1     -13.725   9.449  72.399  1.00  0.00     0.000 HD 
HETATM    8  C   UNL     1     -10.529   9.864  70.160  1.00  0.00    -0.339 A  
HETATM    9  C   UNL     1     -12.486  11.805  70.500  1.00  0.00    -0.317 A  
HETATM   10  C   UNL     1     -12.589  10.582  71.155  1.00  0.00    -0.417 A  
HETATM   11  O   UNL     1     -13.655  10.285  71.952  1.00  0.00    -0.314 OA 
HETATM   12  C   UNL     1     -11.604   9.621  71.012  1.00  0.00    -0.436 A  
ENDROOT
BRANCH   1  13
HETATM   13  C   UNL     1     -10.524  12.306  66.112  1.00  0.00    -0.270 A  
HETATM   14  C   UNL     1     -10.132  11.682  64.920  1.00  0.00    -0.303 A  
HETATM   15  C   UNL     1     -12.207  12.294  63.838  1.00  0.00    -0.608 A  
HETATM   16  C   UNL     1     -12.651  12.854  65.033  1.00  0.00    -0.538 A  
HETATM   17  C   UNL     1     -11.819  12.856  66.159  1.00  0.00    -0.487 A  
HETATM   18  C   UNL     1     -10.950  11.696  63.786  1.00  0.00    -0.495 A  
ENDBRANCH   1  13
BRANCH   3  19
HETATM   19  C   UNL     1      -9.178   9.894  67.455  1.00  0.00    -0.148 A  
HETATM   20  C   UNL     1     -10.261   9.059  67.164  1.00  0.00    -0.334 A  
HETATM   21  C   UNL     1     -10.096   7.870  66.484  1.00  0.00    -0.246 A  
HETATM   22  C   UNL     1      -8.842   7.481  66.013  1.00  0.00    -0.150 A  
HETATM   23  C   UNL     1      -7.913   9.514  66.980  1.00  0.00    -0.109 A  
HETATM   24  C   UNL     1      -7.748   8.315  66.257  1.00  0.00    -0.097 A  
BRANCH  22  25
HETATM   25  O   UNL     1      -8.623   6.313  65.309  1.00  0.00    -0.139 OA 
BRANCH  25  26
HETATM   26  C   UNL     1      -9.201   5.178  65.970  1.00  0.00    -0.155 C  
BRANCH  26  27
HETATM   27  C   UNL     1      -8.448   4.712  67.214  1.00  0.00    -0.104 C  
BRANCH  27  28
HETATM   28  N   UNL     1      -9.264   4.951  68.418  1.00  0.00    -0.118 NA 
HETATM   29  C   UNL     1      -9.472   3.763  69.251  1.00  0.00    -0.182 C  
HETATM   30  C   UNL     1      -9.952   4.354  70.560  1.00  0.00    -0.256 C  
HETATM   31  C   UNL     1      -9.119   5.615  70.702  1.00  0.00    -0.168 C  
HETATM   32  C   UNL     1      -8.710   5.992  69.281  1.00  0.00    -0.117 C  
ENDBRANCH  27  28
ENDBRANCH  26  27
ENDBRANCH  25  26
ENDBRANCH  22  25
ENDBRANCH   3  19
TORSDOF 6
ENDMDL
MODEL       34
REMARK 921   NORMALIZED FREE ENERGY PREDICTED BY IDOCK:   -5.52 KCAL/MOL
REMARK 922        TOTAL FREE ENERGY PREDICTED BY IDOCK:   -9.38 KCAL/MOL
REMARK 923 INTER-LIGAND FREE ENERGY PREDICTED BY IDOCK:   -7.90 KCAL/MOL
REMARK 924 INTRA-LIGAND FREE ENERGY PREDICTED BY IDOCK:   -1.48 KCAL/MOL
REMARK 927      BINDING AFFINITY PREDICTED BY RF-SCORE:    0.00 PKD
ROOT
HETATM    1  C   UNL     1      -9.631   8.869  70.812  1.00  0.00    -0.283 C  
HETATM    2  C   UNL     1      -8.940   7.556  71.209  1.00  0.00    -0.142 C  
HETATM    3  C   UNL     1      -9.243   9.228  69.334  1.00  0.00    -0.159 C  
HETATM    4  C   UNL     1      -9.394   6.385  70.341  1.00  0.00    -0.169 C  
HETATM    5  C   UNL     1      -9.234   8.013  68.384  1.00  0.00    -0.135 A  
HETATM    6  C   UNL     1      -9.386   6.700  68.867  1.00  0.00    -0.128 A  
HETATM    7  H   UNL     1      -9.841   5.075  64.745  1.00  0.00     0.000 HD 
HETATM    8  C   UNL     1      -9.108   8.208  66.991  1.00  0.00    -0.170 A  
HETATM    9  C   UNL     1      -9.586   5.647  67.954  1.00  0.00    -0.133 A  
HETATM   10  C   UNL     1      -9.584   5.893  66.585  1.00  0.00    -0.153 A  
HETATM   11  O   UNL     1      -9.842   4.907  65.680  1.00  0.00    -0.168 OA 
HETATM   12  C   UNL     1      -9.318   7.161  66.097  1.00  0.00    -0.097 A  
ENDROOT
BRANCH   1  13
HETATM   13  C   UNL     1     -11.108   8.864  71.224  1.00  0.00    -0.367 A  
HETATM   14  C   UNL     1     -11.891   7.704  71.294  1.00  0.00    -0.316 A  
HETATM   15  C   UNL     1     -13.870   8.990  71.825  1.00  0.00    -0.453 A  
HETATM   16  C   UNL     1     -13.098  10.149  71.836  1.00  0.00    -0.571 A  
HETATM   17  C   UNL     1     -11.732  10.086  71.542  1.00  0.00    -0.359 A  
HETATM   18  C   UNL     1     -13.262   7.764  71.565  1.00  0.00    -0.356 A  
ENDBRANCH   1  13
BRANCH   3  19
HETATM   19  C   UNL     1     -10.037  10.435  68.812  1.00  0.00    -0.198 A  
HETATM   20  C   UNL     1      -9.557  11.728  69.042  1.00  0.00     0.145 A  
HETATM   21  C   UNL     1     -10.262  12.844  68.641  1.00  0.00    -0.170 A  
HETATM   22  C   UNL     1     -11.462  12.721  67.940  1.00  0.00    -0.317 A  
HETATM   23  C   UNL     1     -11.240  10.302  68.102  1.00  0.00    -0.294 A  
HETATM   24  C   UNL     1     -11.946  11.441  67.663  1.00  0.00     0.002 A  
BRANCH  22  25
HETATM   25  O   UNL     1     -12.198  13.804  67.499  1.00  0.00    -0.355 OA 
BRANCH  25  26
HETATM   26  C   UNL     1     -11.558  14.469  66.400  1.00  0.00    -0.364 C  
BRANCH  26  27
HETATM   27  C   UNL     1     -12.356  14.467  65.099  1.00  0.00    -0.381 C  
BRANCH  27  28
HETATM   28  N   UNL     1     -11.669  13.644  64.087  1.00  0.00    -0.399 NA 
HETATM   29  C   UNL     1     -10.301  13.261  64.448  1.00  0.00    -0.351 C  
HETATM   30  C   UNL     1     -10.004  12.133  63.483  1.00  0.00    -0.341 C  
HETATM   31  C   UNL     1     -11.324  11.389  63.396  1.00  0.00    -0.190 C  
HETATM   32  C   UNL     1     -12.392  12.414  63.771  1.00  0.00    -0.528 C  
ENDBRANCH  27  28
ENDBRANCH  26  27
ENDBRANCH  25  26
ENDBRANCH  22  25
ENDBRANCH   3  19
TORSDOF 6
ENDMDL
MODEL       35
REMARK 921   NORMALIZED FREE ENERGY PREDICTED BY IDOCK:   -5.51 KCAL/MOL
REMARK 922        TOTAL FREE ENERGY PREDICTED BY IDOCK:   -9.38 KCAL/MOL
REMARK 923 INTER-LIGAND FREE ENERGY PREDICTED BY IDOCK:   -8.37 KCAL/MOL
REMARK 924 INTRA-LIGAND FREE ENERGY PREDICTED BY IDOCK:   -1.01 KCAL/MOL
REMARK 927      BINDING AFFINITY PREDICTED BY RF-SCORE:    0.00 PKD
ROOT
HETATM    1  C   UNL     1     -10.316  10.273  67.010  1.00  0.00    -0.299 C  
HETATM    2  C   UNL     1     -10.308   8.736  67.028  1.00  0.00    -0.353 C  
HETATM    3  C   UNL     1     -11.489  10.791  67.915  1.00  0.00    -0.306 C  
HETATM    4  C   UNL     1     -10.058   8.182  68.429  1.00  0.00    -0.226 C  
HETATM    5  C   UNL     1     -11.645  10.009  69.234  1.00  0.00    -0.043 A  
HETATM    6  C   UNL     1     -10.908   8.837  69.488  1.00  0.00    -0.151 A  
HETATM    7  H   UNL     1     -12.199   8.761  73.750  1.00  0.00     0.000 HD 
HETATM    8  C   UNL     1     -12.517  10.485  70.239  1.00  0.00    -0.345 A  
HETATM    9  C   UNL     1     -10.920   8.278  70.779  1.00  0.00    -0.266 A  
HETATM   10  C   UNL     1     -11.693   8.849  71.785  1.00  0.00    -0.362 A  
HETATM   11  O   UNL     1     -11.672   8.371  73.062  1.00  0.00    -0.215 OA 
HETATM   12  C   UNL     1     -12.512   9.931  71.517  1.00  0.00    -0.506 A  
ENDROOT
BRANCH   1  13
HETATM   13  C   UNL     1      -8.905  10.837  67.209  1.00  0.00    -0.133 A  
HETATM   14  C   UNL     1      -8.471  11.442  68.396  1.00  0.00    -0.155 A  
HETATM   15  C   UNL     1      -6.335  12.002  67.410  1.00  0.00    -0.138 A  
HETATM   16  C   UNL     1      -6.713  11.341  66.245  1.00  0.00    -0.011 A  
HETATM   17  C   UNL     1      -7.983  10.762  66.147  1.00  0.00    -0.157 A  
HETATM   18  C   UNL     1      -7.211  12.042  68.492  1.00  0.00    -0.101 A  
ENDBRANCH   1  13
BRANCH   3  19
HETATM   19  C   UNL     1     -11.450  12.317  68.083  1.00  0.00    -0.371 A  
HETATM   20  C   UNL     1     -11.455  13.137  66.951  1.00  0.00    -0.384 A  
HETATM   21  C   UNL     1     -11.365  14.510  67.050  1.00  0.00    -0.359 A  
HETATM   22  C   UNL     1     -11.317  15.138  68.295  1.00  0.00    -0.327 A  
HETATM   23  C   UNL     1     -11.408  12.941  69.341  1.00  0.00    -0.265 A  
HETATM   24  C   UNL     1     -11.348  14.345  69.444  1.00  0.00    -0.319 A  
BRANCH  22  25
HETATM   25  O   UNL     1     -11.246  16.508  68.452  1.00  0.00    -0.359 OA 
BRANCH  25  26
HETATM   26  C   UNL     1     -10.464  17.123  67.419  1.00  0.00    -0.334 C  
BRANCH  26  27
HETATM   27  C   UNL     1     -10.437  18.648  67.459  1.00  0.00    -0.428 C  
BRANCH  27  28
HETATM   28  N   UNL     1      -9.274  19.153  66.707  1.00  0.00    -0.308 NA 
HETATM   29  C   UNL     1      -8.543  20.232  67.380  1.00  0.00    -0.343 C  
HETATM   30  C   UNL     1      -7.229  20.263  66.629  1.00  0.00    -0.307 C  
HETATM   31  C   UNL     1      -6.943  18.797  66.361  1.00  0.00    -0.249 C  
HETATM   32  C   UNL     1      -8.305  18.107  66.392  1.00  0.00    -0.245 C  
ENDBRANCH  27  28
ENDBRANCH  26  27
ENDBRANCH  25  26
ENDBRANCH  22  25
ENDBRANCH   3  19
TORSDOF 6
ENDMDL
MODEL       36
REMARK 921   NORMALIZED FREE ENERGY PREDICTED BY IDOCK:   -5.48 KCAL/MOL
REMARK 922        TOTAL FREE ENERGY PREDICTED BY IDOCK:   -9.34 KCAL/MOL
REMARK 923 INTER-LIGAND FREE ENERGY PREDICTED BY IDOCK:   -8.46 KCAL/MOL
REMARK 924 INTRA-LIGAND FREE ENERGY PREDICTED BY IDOCK:   -0.88 KCAL/MOL
REMARK 927      BINDING AFFINITY PREDICTED BY RF-SCORE:    0.00 PKD
ROOT
HETATM    1  C   UNL     1     -11.574  11.911  67.533  1.00  0.00    -0.374 C  
HETATM    2  C   UNL     1     -11.651  13.291  66.863  1.00  0.00    -0.408 C  
HETATM    3  C   UNL     1     -10.227  11.215  67.124  1.00  0.00    -0.235 C  
HETATM    4  C   UNL     1     -10.525  14.214  67.321  1.00  0.00    -0.272 C  
HETATM    5  C   UNL     1      -9.015  12.168  67.119  1.00  0.00    -0.189 A  
HETATM    6  C   UNL     1      -9.169  13.556  67.293  1.00  0.00    -0.233 A  
HETATM    7  H   UNL     1      -4.774  14.144  67.720  1.00  0.00     0.000 HD 
HETATM    8  C   UNL     1      -7.710  11.649  66.974  1.00  0.00    -0.159 A  
HETATM    9  C   UNL     1      -8.030  14.358  67.495  1.00  0.00    -0.208 A  
HETATM   10  C   UNL     1      -6.759  13.792  67.474  1.00  0.00    -0.115 A  
HETATM   11  O   UNL     1      -5.642  14.530  67.734  1.00  0.00    -0.254 OA 
HETATM   12  C   UNL     1      -6.590  12.449  67.187  1.00  0.00    -0.092 A  
ENDROOT
BRANCH   1  13
HETATM   13  C   UNL     1     -11.960  11.992  69.015  1.00  0.00    -0.321 A  
HETATM   14  C   UNL     1     -12.364  10.885  69.774  1.00  0.00    -0.326 A  
HETATM   15  C   UNL     1     -12.818  12.283  71.695  1.00  0.00    -0.378 A  
HETATM   16  C   UNL     1     -12.349  13.387  70.987  1.00  0.00    -0.401 A  
HETATM   17  C   UNL     1     -11.922  13.241  69.663  1.00  0.00    -0.376 A  
HETATM   18  C   UNL     1     -12.814  11.028  71.091  1.00  0.00    -0.491 A  
ENDBRANCH   1  13
BRANCH   3  19
HETATM   19  C   UNL     1     -10.002   9.907  67.897  1.00  0.00    -0.190 A  
HETATM   20  C   UNL     1     -10.479   8.703  67.369  1.00  0.00    -0.351 A  
HETATM   21  C   UNL     1     -10.349   7.511  68.052  1.00  0.00    -0.254 A  
HETATM   22  C   UNL     1      -9.687   7.455  69.278  1.00  0.00    -0.165 A  
HETATM   23  C   UNL     1      -9.329   9.859  69.128  1.00  0.00    -0.197 A  
HETATM   24  C   UNL     1      -9.167   8.637  69.812  1.00  0.00    -0.154 A  
BRANCH  22  25
HETATM   25  O   UNL     1      -9.511   6.287  69.995  1.00  0.00    -0.153 OA 
BRANCH  25  26
HETATM   26  C   UNL     1     -10.761   5.639  70.269  1.00  0.00    -0.294 C  
BRANCH  26  27
HETATM   27  C   UNL     1     -11.760   6.483  71.057  1.00  0.00    -0.343 C  
BRANCH  27  28
HETATM   28  N   UNL     1     -11.614   6.222  72.501  1.00  0.00    -0.263 NA 
HETATM   29  C   UNL     1     -11.019   4.922  72.821  1.00  0.00    -0.225 C  
HETATM   30  C   UNL     1     -10.617   5.087  74.271  1.00  0.00    -0.310 C  
HETATM   31  C   UNL     1     -10.128   6.522  74.339  1.00  0.00    -0.371 C  
HETATM   32  C   UNL     1     -10.821   7.241  73.184  1.00  0.00    -0.357 C  
ENDBRANCH  27  28
ENDBRANCH  26  27
ENDBRANCH  25  26
ENDBRANCH  22  25
ENDBRANCH   3  19
TORSDOF 6
ENDMDL
MODEL       37
REMARK 921   NORMALIZED FREE ENERGY PREDICTED BY IDOCK:   -5.48 KCAL/MOL
REMARK 922        TOTAL FREE ENERGY PREDICTED BY IDOCK:   -9.33 KCAL/MOL
REMARK 923 INTER-LIGAND FREE ENERGY PREDICTED BY IDOCK:   -7.47 KCAL/MOL
REMARK 924 INTRA-LIGAND FREE ENERGY PREDICTED BY IDOCK:   -1.86 KCAL/MOL
REMARK 927      BINDING AFFINITY PREDICTED BY RF-SCORE:    0.00 PKD
ROOT
HETATM    1  C   UNL     1      -8.387   9.426  65.994  1.00  0.00    -0.123 C  
HETATM    2  C   UNL     1      -8.509   9.912  64.541  1.00  0.00    -0.181 C  
HETATM    3  C   UNL     1      -8.694  10.623  66.963  1.00  0.00    -0.128 C  
HETATM    4  C   UNL     1      -9.921  10.390  64.214  1.00  0.00    -0.368 C  
HETATM    5  C   UNL     1      -9.881  11.497  66.512  1.00  0.00    -0.228 A  
HETATM    6  C   UNL     1     -10.491  11.319  65.256  1.00  0.00    -0.341 A  
HETATM    7  H   UNL     1     -13.840  14.054  66.324  1.00  0.00     0.000 HD 
HETATM    8  C   UNL     1     -10.404  12.480  67.381  1.00  0.00    -0.222 A  
HETATM    9  C   UNL     1     -11.697  11.986  64.973  1.00  0.00    -0.316 A  
HETATM   10  C   UNL     1     -12.257  12.854  65.905  1.00  0.00    -0.407 A  
HETATM   11  O   UNL     1     -13.458  13.462  65.687  1.00  0.00    -0.325 OA 
HETATM   12  C   UNL     1     -11.605  13.126  67.095  1.00  0.00    -0.410 A  
ENDROOT
BRANCH   1  13
HETATM   13  C   UNL     1      -9.112   8.090  66.194  1.00  0.00    -0.224 A  
HETATM   14  C   UNL     1     -10.427   7.983  66.667  1.00  0.00    -0.199 A  
HETATM   15  C   UNL     1     -10.292   5.568  66.691  1.00  0.00    -0.322 A  
HETATM   16  C   UNL     1      -9.012   5.646  66.149  1.00  0.00    -0.153 A  
HETATM   17  C   UNL     1      -8.430   6.893  65.900  1.00  0.00    -0.147 A  
HETATM   18  C   UNL     1     -11.005   6.739  66.939  1.00  0.00    -0.370 A  
ENDBRANCH   1  13
BRANCH   3  19
HETATM   19  C   UNL     1      -8.763  10.167  68.429  1.00  0.00    -0.123 A  
HETATM   20  C   UNL     1      -7.600   9.734  69.072  1.00  0.00    -0.082 A  
HETATM   21  C   UNL     1      -7.622   9.263  70.369  1.00  0.00    -0.132 A  
HETATM   22  C   UNL     1      -8.805   9.253  71.108  1.00  0.00    -0.069 A  
HETATM   23  C   UNL     1      -9.957  10.165  69.167  1.00  0.00    -0.221 A  
HETATM   24  C   UNL     1      -9.976   9.715  70.503  1.00  0.00    -0.318 A  
BRANCH  22  25
HETATM   25  O   UNL     1      -8.881   8.812  72.415  1.00  0.00    -0.391 OA 
BRANCH  25  26
HETATM   26  C   UNL     1      -8.481   7.439  72.537  1.00  0.00    -0.109 C  
BRANCH  26  27
HETATM   27  C   UNL     1      -9.404   6.580  73.398  1.00  0.00    -0.134 C  
BRANCH  27  28
HETATM   28  N   UNL     1     -10.621   6.232  72.641  1.00  0.00    -0.208 NA 
HETATM   29  C   UNL     1     -11.676   7.247  72.696  1.00  0.00    -0.162 C  
HETATM   30  C   UNL     1     -12.584   6.847  71.553  1.00  0.00    -0.412 C  
HETATM   31  C   UNL     1     -11.615   6.383  70.481  1.00  0.00    -0.424 C  
HETATM   32  C   UNL     1     -10.354   5.963  71.230  1.00  0.00    -0.221 C  
ENDBRANCH  27  28
ENDBRANCH  26  27
ENDBRANCH  25  26
ENDBRANCH  22  25
ENDBRANCH   3  19
TORSDOF 6
ENDMDL
MODEL       38
REMARK 921   NORMALIZED FREE ENERGY PREDICTED BY IDOCK:   -5.45 KCAL/MOL
REMARK 922        TOTAL FREE ENERGY PREDICTED BY IDOCK:   -9.29 KCAL/MOL
REMARK 923 INTER-LIGAND FREE ENERGY PREDICTED BY IDOCK:   -7.51 KCAL/MOL
REMARK 924 INTRA-LIGAND FREE ENERGY PREDICTED BY IDOCK:   -1.77 KCAL/MOL
REMARK 927      BINDING AFFINITY PREDICTED BY RF-SCORE:    0.00 PKD
ROOT
HETATM    1  C   UNL     1     -12.102   7.545  71.035  1.00  0.00    -0.305 C  
HETATM    2  C   UNL     1     -13.527   7.773  71.561  1.00  0.00    -0.379 C  
HETATM    3  C   UNL     1     -11.748   8.674  70.003  1.00  0.00     0.283 C  
HETATM    4  C   UNL     1     -13.657   9.101  72.303  1.00  0.00    -0.548 C  
HETATM    5  C   UNL     1     -12.224  10.076  70.433  1.00  0.00    -0.249 A  
HETATM    6  C   UNL     1     -13.050  10.262  71.557  1.00  0.00    -0.534 A  
HETATM    7  H   UNL     1     -12.527  14.682  71.404  1.00  0.00     0.000 HD 
HETATM    8  C   UNL     1     -11.801  11.216  69.713  1.00  0.00    -0.422 A  
HETATM    9  C   UNL     1     -13.284  11.564  72.035  1.00  0.00    -0.443 A  
HETATM   10  C   UNL     1     -12.744  12.664  71.376  1.00  0.00    -0.247 A  
HETATM   11  O   UNL     1     -12.896  13.931  71.854  1.00  0.00    -0.331 OA 
HETATM   12  C   UNL     1     -12.028  12.500  70.203  1.00  0.00    -0.377 A  
ENDROOT
BRANCH   1  13
HETATM   13  C   UNL     1     -11.130   7.240  72.181  1.00  0.00    -0.281 A  
HETATM   14  C   UNL     1     -10.258   8.188  72.733  1.00  0.00    -0.372 A  
HETATM   15  C   UNL     1      -9.256   6.526  74.176  1.00  0.00    -0.196 A  
HETATM   16  C   UNL     1     -10.162   5.582  73.699  1.00  0.00    -0.237 A  
HETATM   17  C   UNL     1     -11.091   5.937  72.715  1.00  0.00    -0.321 A  
HETATM   18  C   UNL     1      -9.313   7.834  73.701  1.00  0.00    -0.336 A  
ENDBRANCH   1  13
BRANCH   3  19
HETATM   19  C   UNL     1     -10.276   8.610  69.569  1.00  0.00    -0.209 A  
HETATM   20  C   UNL     1      -9.384   9.594  70.005  1.00  0.00    -0.276 A  
HETATM   21  C   UNL     1      -8.066   9.610  69.596  1.00  0.00    -0.143 A  
HETATM   22  C   UNL     1      -7.559   8.607  68.770  1.00  0.00    -0.096 A  
HETATM   23  C   UNL     1      -9.773   7.593  68.741  1.00  0.00    -0.153 A  
HETATM   24  C   UNL     1      -8.418   7.590  68.350  1.00  0.00    -0.125 A  
BRANCH  22  25
HETATM   25  O   UNL     1      -6.245   8.563  68.347  1.00  0.00    -0.051 OA 
BRANCH  25  26
HETATM   26  C   UNL     1      -6.137   8.731  66.927  1.00  0.00    -0.058 C  
BRANCH  26  27
HETATM   27  C   UNL     1      -6.163  10.182  66.451  1.00  0.00    -0.072 C  
BRANCH  27  28
HETATM   28  N   UNL     1      -7.399  10.442  65.691  1.00  0.00    -0.148 NA 
HETATM   29  C   UNL     1      -8.088   9.234  65.228  1.00  0.00    -0.121 C  
HETATM   30  C   UNL     1      -9.465   9.751  64.870  1.00  0.00    -0.331 C  
HETATM   31  C   UNL     1      -9.743  10.783  65.947  1.00  0.00    -0.272 C  
HETATM   32  C   UNL     1      -8.371  11.232  66.442  1.00  0.00    -0.159 C  
ENDBRANCH  27  28
ENDBRANCH  26  27
ENDBRANCH  25  26
ENDBRANCH  22  25
ENDBRANCH   3  19
TORSDOF 6
ENDMDL
MODEL       39
REMARK 921   NORMALIZED FREE ENERGY PREDICTED BY IDOCK:   -5.43 KCAL/MOL
REMARK 922        TOTAL FREE ENERGY PREDICTED BY IDOCK:   -9.26 KCAL/MOL
REMARK 923 INTER-LIGAND FREE ENERGY PREDICTED BY IDOCK:   -7.89 KCAL/MOL
REMARK 924 INTRA-LIGAND FREE ENERGY PREDICTED BY IDOCK:   -1.37 KCAL/MOL
REMARK 927      BINDING AFFINITY PREDICTED BY RF-SCORE:    0.00 PKD
ROOT
HETATM    1  C   UNL     1     -10.078   8.367  66.726  1.00  0.00    -0.373 C  
HETATM    2  C   UNL     1     -10.719   7.002  67.020  1.00  0.00    -0.423 C  
HETATM    3  C   UNL     1     -10.684   9.440  67.699  1.00  0.00    -0.295 C  
HETATM    4  C   UNL     1     -10.421   6.524  68.439  1.00  0.00    -0.258 C  
HETATM    5  C   UNL     1     -10.857   8.936  69.145  1.00  0.00    -0.091 A  
HETATM    6  C   UNL     1     -10.652   7.585  69.485  1.00  0.00    -0.239 A  
HETATM    7  H   UNL     1     -10.860   8.488  73.841  1.00  0.00     0.000 HD 
HETATM    8  C   UNL     1     -11.193   9.844  70.173  1.00  0.00    -0.347 A  
HETATM    9  C   UNL     1     -10.610   7.212  70.841  1.00  0.00    -0.238 A  
HETATM   10  C   UNL     1     -10.819   8.159  71.838  1.00  0.00    -0.270 A  
HETATM   11  O   UNL     1     -10.718   7.841  73.160  1.00  0.00    -0.378 OA 
HETATM   12  C   UNL     1     -11.138   9.466  71.513  1.00  0.00    -0.446 A  
ENDROOT
BRANCH   1  13
HETATM   13  C   UNL     1      -8.556   8.247  66.590  1.00  0.00    -0.135 A  
HETATM   14  C   UNL     1      -7.734   7.658  67.561  1.00  0.00    -0.118 A  
HETATM   15  C   UNL     1      -5.740   8.234  66.319  1.00  0.00    -0.040 A  
HETATM   16  C   UNL     1      -6.537   8.757  65.305  1.00  0.00    -0.067 A  
HETATM   17  C   UNL     1      -7.930   8.760  65.438  1.00  0.00    -0.112 A  
HETATM   18  C   UNL     1      -6.340   7.672  67.444  1.00  0.00    -0.054 A  
ENDBRANCH   1  13
BRANCH   3  19
HETATM   19  C   UNL     1      -9.963  10.791  67.580  1.00  0.00    -0.203 A  
HETATM   20  C   UNL     1     -10.331  11.683  66.568  1.00  0.00    -0.259 A  
HETATM   21  C   UNL     1      -9.675  12.884  66.387  1.00  0.00    -0.263 A  
HETATM   22  C   UNL     1      -8.649  13.277  67.246  1.00  0.00    -0.210 A  
HETATM   23  C   UNL     1      -8.934  11.181  68.452  1.00  0.00    -0.165 A  
HETATM   24  C   UNL     1      -8.285  12.422  68.288  1.00  0.00    -0.170 A  
BRANCH  22  25
HETATM   25  O   UNL     1      -7.973  14.475  67.123  1.00  0.00    -0.198 OA 
BRANCH  25  26
HETATM   26  C   UNL     1      -8.873  15.592  67.082  1.00  0.00    -0.212 C  
BRANCH  26  27
HETATM   27  C   UNL     1      -8.400  16.763  66.226  1.00  0.00    -0.318 C  
BRANCH  27  28
HETATM   28  N   UNL     1      -8.938  18.029  66.758  1.00  0.00    -0.262 NA 
HETATM   29  C   UNL     1     -10.361  18.243  66.481  1.00  0.00    -0.392 C  
HETATM   30  C   UNL     1     -10.728  19.345  67.451  1.00  0.00    -0.594 C  
HETATM   31  C   UNL     1      -9.931  18.997  68.695  1.00  0.00    -0.482 C  
HETATM   32  C   UNL     1      -8.754  18.160  68.201  1.00  0.00    -0.277 C  
ENDBRANCH  27  28
ENDBRANCH  26  27
ENDBRANCH  25  26
ENDBRANCH  22  25
ENDBRANCH   3  19
TORSDOF 6
ENDMDL
MODEL       40
REMARK 921   NORMALIZED FREE ENERGY PREDICTED BY IDOCK:   -5.42 KCAL/MOL
REMARK 922        TOTAL FREE ENERGY PREDICTED BY IDOCK:   -9.25 KCAL/MOL
REMARK 923 INTER-LIGAND FREE ENERGY PREDICTED BY IDOCK:   -8.02 KCAL/MOL
REMARK 924 INTRA-LIGAND FREE ENERGY PREDICTED BY IDOCK:   -1.23 KCAL/MOL
REMARK 927      BINDING AFFINITY PREDICTED BY RF-SCORE:    0.00 PKD
ROOT
HETATM    1  C   UNL     1      -9.927   7.732  71.758  1.00  0.00    -0.219 C  
HETATM    2  C   UNL     1      -9.518   6.485  72.557  1.00  0.00    -0.148 C  
HETATM    3  C   UNL     1      -9.180   7.723  70.376  1.00  0.00    -0.156 C  
HETATM    4  C   UNL     1      -9.920   5.194  71.850  1.00  0.00    -0.239 C  
HETATM    5  C   UNL     1      -9.123   6.333  69.712  1.00  0.00    -0.143 A  
HETATM    6  C   UNL     1      -9.548   5.175  70.389  1.00  0.00    -0.252 A  
HETATM    7  H   UNL     1      -9.299   2.726  66.678  1.00  0.00     0.000 HD 
HETATM    8  C   UNL     1      -8.670   6.205  68.380  1.00  0.00    -0.115 A  
HETATM    9  C   UNL     1      -9.680   3.967  69.679  1.00  0.00    -0.245 A  
HETATM   10  C   UNL     1      -9.346   3.905  68.330  1.00  0.00    -0.164 A  
HETATM   11  O   UNL     1      -9.527   2.768  67.599  1.00  0.00    -0.204 OA 
HETATM   12  C   UNL     1      -8.816   5.008  67.683  1.00  0.00    -0.104 A  
ENDROOT
BRANCH   1  13
HETATM   13  C   UNL     1     -11.445   7.939  71.792  1.00  0.00    -0.313 A  
HETATM   14  C   UNL     1     -12.374   6.924  71.527  1.00  0.00    -0.420 A  
HETATM   15  C   UNL     1     -14.222   8.473  71.712  1.00  0.00    -0.525 A  
HETATM   16  C   UNL     1     -13.326   9.483  72.053  1.00  0.00    -0.535 A  
HETATM   17  C   UNL     1     -11.953   9.217  72.096  1.00  0.00    -0.364 A  
HETATM   18  C   UNL     1     -13.746   7.188  71.461  1.00  0.00    -0.413 A  
ENDBRANCH   1  13
BRANCH   3  19
HETATM   19  C   UNL     1      -9.675   8.847  69.453  1.00  0.00    -0.169 A  
HETATM   20  C   UNL     1      -9.194  10.148  69.631  1.00  0.00    -0.206 A  
HETATM   21  C   UNL     1      -9.650  11.200  68.864  1.00  0.00    -0.154 A  
HETATM   22  C   UNL     1     -10.574  10.993  67.839  1.00  0.00    -0.205 A  
HETATM   23  C   UNL     1     -10.601   8.629  68.420  1.00  0.00    -0.169 A  
HETATM   24  C   UNL     1     -11.043   9.697  67.614  1.00  0.00    -0.061 A  
BRANCH  22  25
HETATM   25  O   UNL     1     -11.049  12.005  67.028  1.00  0.00    -0.264 OA 
BRANCH  25  26
HETATM   26  C   UNL     1     -10.889  13.294  67.638  1.00  0.00    -0.258 C  
BRANCH  26  27
HETATM   27  C   UNL     1     -11.127  14.477  66.703  1.00  0.00    -0.333 C  
BRANCH  27  28
HETATM   28  N   UNL     1     -10.306  15.627  67.125  1.00  0.00    -0.279 NA 
HETATM   29  C   UNL     1     -10.148  16.663  66.100  1.00  0.00    -0.345 C  
HETATM   30  C   UNL     1      -9.650  17.849  66.898  1.00  0.00    -0.300 C  
HETATM   31  C   UNL     1     -10.432  17.752  68.195  1.00  0.00    -0.382 C  
HETATM   32  C   UNL     1     -10.821  16.282  68.325  1.00  0.00    -0.340 C  
ENDBRANCH  27  28
ENDBRANCH  26  27
ENDBRANCH  25  26
ENDBRANCH  22  25
ENDBRANCH   3  19
TORSDOF 6
ENDMDL
MODEL       41
REMARK 921   NORMALIZED FREE ENERGY PREDICTED BY IDOCK:   -5.42 KCAL/MOL
REMARK 922        TOTAL FREE ENERGY PREDICTED BY IDOCK:   -9.25 KCAL/MOL
REMARK 923 INTER-LIGAND FREE ENERGY PREDICTED BY IDOCK:   -7.18 KCAL/MOL
REMARK 924 INTRA-LIGAND FREE ENERGY PREDICTED BY IDOCK:   -2.06 KCAL/MOL
REMARK 927      BINDING AFFINITY PREDICTED BY RF-SCORE:    0.00 PKD
ROOT
HETATM    1  C   UNL     1      -7.392   9.210  66.107  1.00  0.00    -0.095 C  
HETATM    2  C   UNL     1      -6.501   7.980  66.342  1.00  0.00    -0.047 C  
HETATM    3  C   UNL     1      -8.878   8.739  65.920  1.00  0.00    -0.222 C  
HETATM    4  C   UNL     1      -6.886   7.229  67.614  1.00  0.00    -0.074 C  
HETATM    5  C   UNL     1      -9.301   7.623  66.895  1.00  0.00    -0.203 A  
HETATM    6  C   UNL     1      -8.369   6.985  67.735  1.00  0.00    -0.117 A  
HETATM    7  H   UNL     1     -11.596   4.933  70.018  1.00  0.00     0.000 HD 
HETATM    8  C   UNL     1     -10.659   7.243  66.987  1.00  0.00    -0.415 A  
HETATM    9  C   UNL     1      -8.828   6.130  68.754  1.00  0.00    -0.121 A  
HETATM   10  C   UNL     1     -10.188   5.876  68.900  1.00  0.00    -0.198 A  
HETATM   11  O   UNL     1     -10.667   5.106  69.918  1.00  0.00    -0.237 OA 
HETATM   12  C   UNL     1     -11.103   6.404  68.007  1.00  0.00    -0.365 A  
ENDROOT
BRANCH   1  13
HETATM   13  C   UNL     1      -7.075  10.323  67.112  1.00  0.00    -0.089 A  
HETATM   14  C   UNL     1      -7.302  10.214  68.491  1.00  0.00    -0.081 A  
HETATM   15  C   UNL     1      -6.616  12.504  68.854  1.00  0.00    -0.095 A  
HETATM   16  C   UNL     1      -6.311  12.615  67.500  1.00  0.00    -0.159 A  
HETATM   17  C   UNL     1      -6.534  11.535  66.640  1.00  0.00    -0.090 A  
HETATM   18  C   UNL     1      -7.101  11.297  69.352  1.00  0.00    -0.090 A  
ENDBRANCH   1  13
BRANCH   3  19
HETATM   19  C   UNL     1      -9.849   9.928  65.857  1.00  0.00    -0.342 A  
HETATM   20  C   UNL     1     -10.136  10.519  64.622  1.00  0.00    -0.408 A  
HETATM   21  C   UNL     1     -10.959  11.622  64.522  1.00  0.00    -0.376 A  
HETATM   22  C   UNL     1     -11.580  12.159  65.649  1.00  0.00    -0.351 A  
HETATM   23  C   UNL     1     -10.475  10.458  66.996  1.00  0.00    -0.309 A  
HETATM   24  C   UNL     1     -11.341  11.566  66.891  1.00  0.00    -0.324 A  
BRANCH  22  25
HETATM   25  O   UNL     1     -12.427  13.249  65.603  1.00  0.00    -0.457 OA 
BRANCH  25  26
HETATM   26  C   UNL     1     -11.947  14.331  66.414  1.00  0.00    -0.419 C  
BRANCH  26  27
HETATM   27  C   UNL     1     -10.847  15.172  65.772  1.00  0.00    -0.353 C  
BRANCH  27  28
HETATM   28  N   UNL     1      -9.990  15.764  66.816  1.00  0.00    -0.245 NA 
HETATM   29  C   UNL     1      -9.678  14.859  67.926  1.00  0.00    -0.206 C  
HETATM   30  C   UNL     1      -8.505  15.544  68.595  1.00  0.00    -0.174 C  
HETATM   31  C   UNL     1      -7.712  16.102  67.428  1.00  0.00    -0.187 C  
HETATM   32  C   UNL     1      -8.719  16.259  66.292  1.00  0.00    -0.335 C  
ENDBRANCH  27  28
ENDBRANCH  26  27
ENDBRANCH  25  26
ENDBRANCH  22  25
ENDBRANCH   3  19
TORSDOF 6
ENDMDL
MODEL       42
REMARK 921   NORMALIZED FREE ENERGY PREDICTED BY IDOCK:   -5.41 KCAL/MOL
REMARK 922        TOTAL FREE ENERGY PREDICTED BY IDOCK:   -9.24 KCAL/MOL
REMARK 923 INTER-LIGAND FREE ENERGY PREDICTED BY IDOCK:   -7.55 KCAL/MOL
REMARK 924 INTRA-LIGAND FREE ENERGY PREDICTED BY IDOCK:   -1.69 KCAL/MOL
REMARK 927      BINDING AFFINITY PREDICTED BY RF-SCORE:    0.00 PKD
ROOT
HETATM    1  C   UNL     1      -8.705   7.180  68.323  1.00  0.00    -0.128 C  
HETATM    2  C   UNL     1      -8.278   5.716  68.509  1.00  0.00    -0.106 C  
HETATM    3  C   UNL     1     -10.214   7.330  68.727  1.00  0.00    -0.188 C  
HETATM    4  C   UNL     1      -8.388   5.268  69.965  1.00  0.00    -0.098 C  
HETATM    5  C   UNL     1     -10.596   6.544  69.997  1.00  0.00    -0.280 A  
HETATM    6  C   UNL     1      -9.699   5.646  70.605  1.00  0.00    -0.232 A  
HETATM    7  H   UNL     1     -12.319   5.211  74.181  1.00  0.00     0.000 HD 
HETATM    8  C   UNL     1     -11.859   6.745  70.598  1.00  0.00    -0.442 A  
HETATM    9  C   UNL     1     -10.005   5.115  71.872  1.00  0.00    -0.239 A  
HETATM   10  C   UNL     1     -11.206   5.436  72.498  1.00  0.00    -0.247 A  
HETATM   11  O   UNL     1     -11.499   4.992  73.754  1.00  0.00    -0.159 OA 
HETATM   12  C   UNL     1     -12.146   6.224  71.858  1.00  0.00    -0.311 A  
ENDROOT
BRANCH   1  13
HETATM   13  C   UNL     1      -7.667   8.140  68.916  1.00  0.00    -0.103 A  
HETATM   14  C   UNL     1      -7.474   8.322  70.292  1.00  0.00    -0.066 A  
HETATM   15  C   UNL     1      -5.845  10.066  69.901  1.00  0.00    -0.046 A  
HETATM   16  C   UNL     1      -5.962   9.852  68.530  1.00  0.00    -0.042 A  
HETATM   17  C   UNL     1      -6.861   8.896  68.044  1.00  0.00    -0.070 A  
HETATM   18  C   UNL     1      -6.594   9.291  70.783  1.00  0.00    -0.084 A  
ENDBRANCH   1  13
BRANCH   3  19
HETATM   19  C   UNL     1     -10.661   8.800  68.732  1.00  0.00    -0.174 A  
HETATM   20  C   UNL     1     -10.862   9.455  69.951  1.00  0.00    -0.259 A  
HETATM   21  C   UNL     1     -11.316  10.757  70.008  1.00  0.00    -0.397 A  
HETATM   22  C   UNL     1     -11.542  11.488  68.842  1.00  0.00    -0.320 A  
HETATM   23  C   UNL     1     -10.881   9.530  67.554  1.00  0.00    -0.239 A  
HETATM   24  C   UNL     1     -11.314  10.871  67.610  1.00  0.00    -0.345 A  
BRANCH  22  25
HETATM   25  O   UNL     1     -11.977  12.799  68.840  1.00  0.00    -0.300 OA 
BRANCH  25  26
HETATM   26  C   UNL     1     -10.998  13.684  68.278  1.00  0.00    -0.254 C  
BRANCH  26  27
HETATM   27  C   UNL     1     -11.572  14.822  67.438  1.00  0.00    -0.360 C  
BRANCH  27  28
HETATM   28  N   UNL     1     -11.534  14.462  66.008  1.00  0.00    -0.343 NA 
HETATM   29  C   UNL     1     -10.371  13.660  65.618  1.00  0.00    -0.300 C  
HETATM   30  C   UNL     1     -10.783  13.106  64.271  1.00  0.00    -0.431 C  
HETATM   31  C   UNL     1     -12.261  12.811  64.451  1.00  0.00    -0.499 C  
HETATM   32  C   UNL     1     -12.725  13.735  65.575  1.00  0.00    -0.488 C  
ENDBRANCH  27  28
ENDBRANCH  26  27
ENDBRANCH  25  26
ENDBRANCH  22  25
ENDBRANCH   3  19
TORSDOF 6
ENDMDL
MODEL       43
REMARK 921   NORMALIZED FREE ENERGY PREDICTED BY IDOCK:   -5.41 KCAL/MOL
REMARK 922        TOTAL FREE ENERGY PREDICTED BY IDOCK:   -9.23 KCAL/MOL
REMARK 923 INTER-LIGAND FREE ENERGY PREDICTED BY IDOCK:   -8.60 KCAL/MOL
REMARK 924 INTRA-LIGAND FREE ENERGY PREDICTED BY IDOCK:   -0.63 KCAL/MOL
REMARK 927      BINDING AFFINITY PREDICTED BY RF-SCORE:    0.00 PKD
ROOT
HETATM    1  C   UNL     1     -10.688  13.703  67.083  1.00  0.00    -0.279 C  
HETATM    2  C   UNL     1     -11.409  12.355  67.234  1.00  0.00    -0.384 C  
HETATM    3  C   UNL     1     -11.573  14.834  67.717  1.00  0.00    -0.378 C  
HETATM    4  C   UNL     1     -11.617  11.979  68.699  1.00  0.00    -0.372 C  
HETATM    5  C   UNL     1     -12.234  14.428  69.049  1.00  0.00    -0.233 A  
HETATM    6  C   UNL     1     -12.174  13.106  69.529  1.00  0.00    -0.214 A  
HETATM    7  H   UNL     1     -13.838  14.304  73.484  1.00  0.00     0.000 HD 
HETATM    8  C   UNL     1     -12.888  15.401  69.838  1.00  0.00    -0.011 A  
HETATM    9  C   UNL     1     -12.601  12.828  70.841  1.00  0.00    -0.342 A  
HETATM   10  C   UNL     1     -13.123  13.839  71.641  1.00  0.00    -0.375 A  
HETATM   11  O   UNL     1     -13.481  13.613  72.937  1.00  0.00    -0.639 OA 
HETATM   12  C   UNL     1     -13.296  15.117  71.139  1.00  0.00    -0.535 A  
ENDROOT
BRANCH   1  13
HETATM   13  C   UNL     1      -9.212  13.590  67.481  1.00  0.00    -0.219 A  
HETATM   14  C   UNL     1      -8.259  14.585  67.223  1.00  0.00    -0.230 A  
HETATM   15  C   UNL     1      -6.479  13.204  68.104  1.00  0.00    -0.105 A  
HETATM   16  C   UNL     1      -7.417  12.231  68.440  1.00  0.00    -0.122 A  
HETATM   17  C   UNL     1      -8.768  12.424  68.135  1.00  0.00    -0.190 A  
HETATM   18  C   UNL     1      -6.903  14.388  67.505  1.00  0.00    -0.162 A  
ENDBRANCH   1  13
BRANCH   3  19
HETATM   19  C   UNL     1     -10.837  16.181  67.758  1.00  0.00    -0.318 A  
HETATM   20  C   UNL     1     -10.408  16.696  68.986  1.00  0.00    -0.317 A  
HETATM   21  C   UNL     1      -9.793  17.927  69.080  1.00  0.00    -0.236 A  
HETATM   22  C   UNL     1      -9.526  18.684  67.939  1.00  0.00    -0.303 A  
HETATM   23  C   UNL     1     -10.567  16.934  66.604  1.00  0.00    -0.189 A  
HETATM   24  C   UNL     1      -9.909  18.178  66.695  1.00  0.00    -0.350 A  
BRANCH  22  25
HETATM   25  O   UNL     1      -8.895  19.913  67.973  1.00  0.00    -0.314 OA 
BRANCH  25  26
HETATM   26  C   UNL     1      -7.492  19.798  67.696  1.00  0.00    -0.279 C  
BRANCH  26  27
HETATM   27  C   UNL     1      -6.941  20.855  66.743  1.00  0.00    -0.251 C  
BRANCH  27  28
HETATM   28  N   UNL     1      -6.755  20.275  65.400  1.00  0.00    -0.280 NA 
HETATM   29  C   UNL     1      -5.736  20.948  64.588  1.00  0.00    -0.246 C  
HETATM   30  C   UNL     1      -5.468  19.943  63.489  1.00  0.00    -0.303 C  
HETATM   31  C   UNL     1      -5.538  18.608  64.208  1.00  0.00    -0.140 C  
HETATM   32  C   UNL     1      -6.409  18.856  65.437  1.00  0.00    -0.283 C  
ENDBRANCH  27  28
ENDBRANCH  26  27
ENDBRANCH  25  26
ENDBRANCH  22  25
ENDBRANCH   3  19
TORSDOF 6
ENDMDL
MODEL       44
REMARK 921   NORMALIZED FREE ENERGY PREDICTED BY IDOCK:   -5.36 KCAL/MOL
REMARK 922        TOTAL FREE ENERGY PREDICTED BY IDOCK:   -9.17 KCAL/MOL
REMARK 923 INTER-LIGAND FREE ENERGY PREDICTED BY IDOCK:   -8.70 KCAL/MOL
REMARK 924 INTRA-LIGAND FREE ENERGY PREDICTED BY IDOCK:   -0.47 KCAL/MOL
REMARK 927      BINDING AFFINITY PREDICTED BY RF-SCORE:    0.00 PKD
ROOT
HETATM    1  C   UNL     1     -12.242  13.872  68.628  1.00  0.00    -0.213 C  
HETATM    2  C   UNL     1     -11.901  14.957  67.596  1.00  0.00    -0.268 C  
HETATM    3  C   UNL     1     -11.359  12.603  68.351  1.00  0.00    -0.329 C  
HETATM    4  C   UNL     1     -10.445  15.406  67.696  1.00  0.00    -0.272 C  
HETATM    5  C   UNL     1      -9.896  12.933  67.994  1.00  0.00    -0.223 A  
HETATM    6  C   UNL     1      -9.472  14.256  67.771  1.00  0.00    -0.216 A  
HETATM    7  H   UNL     1      -5.188  13.041  67.728  1.00  0.00     0.000 HD 
HETATM    8  C   UNL     1      -8.937  11.898  67.921  1.00  0.00    -0.179 A  
HETATM    9  C   UNL     1      -8.097  14.532  67.661  1.00  0.00    -0.190 A  
HETATM   10  C   UNL     1      -7.165  13.501  67.722  1.00  0.00    -0.154 A  
HETATM   11  O   UNL     1      -5.824  13.745  67.686  1.00  0.00    -0.271 OA 
HETATM   12  C   UNL     1      -7.577  12.184  67.823  1.00  0.00    -0.131 A  
ENDROOT
BRANCH   1  13
HETATM   13  C   UNL     1     -12.299  14.454  70.046  1.00  0.00    -0.391 A  
HETATM   14  C   UNL     1     -11.195  15.017  70.700  1.00  0.00    -0.280 A  
HETATM   15  C   UNL     1     -12.475  15.340  72.727  1.00  0.00    -0.490 A  
HETATM   16  C   UNL     1     -13.606  14.854  72.075  1.00  0.00    -0.508 A  
HETATM   17  C   UNL     1     -13.519  14.419  70.748  1.00  0.00    -0.122 A  
HETATM   18  C   UNL     1     -11.271  15.432  72.033  1.00  0.00    -0.362 A  
ENDBRANCH   1  13
BRANCH   3  19
HETATM   19  C   UNL     1     -11.520  11.543  69.451  1.00  0.00    -0.376 A  
HETATM   20  C   UNL     1     -12.714  11.477  70.176  1.00  0.00    -0.031 A  
HETATM   21  C   UNL     1     -12.884  10.580  71.210  1.00  0.00    -0.532 A  
HETATM   22  C   UNL     1     -11.885   9.663  71.537  1.00  0.00    -0.407 A  
HETATM   23  C   UNL     1     -10.511  10.620  69.769  1.00  0.00    -0.189 A  
HETATM   24  C   UNL     1     -10.696   9.681  70.804  1.00  0.00    -0.401 A  
BRANCH  22  25
HETATM   25  O   UNL     1     -12.010   8.731  72.548  1.00  0.00    -0.343 OA 
BRANCH  25  26
HETATM   26  C   UNL     1     -11.030   7.689  72.435  1.00  0.00    -0.301 C  
BRANCH  26  27
HETATM   27  C   UNL     1     -11.582   6.339  71.983  1.00  0.00    -0.322 C  
BRANCH  27  28
HETATM   28  N   UNL     1     -10.814   5.841  70.827  1.00  0.00    -0.274 NA 
HETATM   29  C   UNL     1     -11.331   6.277  69.526  1.00  0.00    -0.404 C  
HETATM   30  C   UNL     1     -10.173   5.992  68.594  1.00  0.00    -0.233 C  
HETATM   31  C   UNL     1      -8.956   6.353  69.426  1.00  0.00    -0.131 C  
HETATM   32  C   UNL     1      -9.404   6.218  70.879  1.00  0.00    -0.161 C  
ENDBRANCH  27  28
ENDBRANCH  26  27
ENDBRANCH  25  26
ENDBRANCH  22  25
ENDBRANCH   3  19
TORSDOF 6
ENDMDL
MODEL       45
REMARK 921   NORMALIZED FREE ENERGY PREDICTED BY IDOCK:   -5.36 KCAL/MOL
REMARK 922        TOTAL FREE ENERGY PREDICTED BY IDOCK:   -9.17 KCAL/MOL
REMARK 923 INTER-LIGAND FREE ENERGY PREDICTED BY IDOCK:   -8.15 KCAL/MOL
REMARK 924 INTRA-LIGAND FREE ENERGY PREDICTED BY IDOCK:   -1.02 KCAL/MOL
REMARK 927      BINDING AFFINITY PREDICTED BY RF-SCORE:    0.00 PKD
ROOT
HETATM    1  C   UNL     1     -10.134   9.068  66.566  1.00  0.00    -0.354 C  
HETATM    2  C   UNL     1     -10.085   7.560  66.853  1.00  0.00    -0.336 C  
HETATM    3  C   UNL     1     -11.044   9.765  67.640  1.00  0.00    -0.118 C  
HETATM    4  C   UNL     1      -9.466   7.256  68.215  1.00  0.00    -0.141 C  
HETATM    5  C   UNL     1     -10.832   9.232  69.071  1.00  0.00    -0.136 A  
HETATM    6  C   UNL     1     -10.027   8.106  69.326  1.00  0.00    -0.188 A  
HETATM    7  H   UNL     1     -10.162   8.813  73.721  1.00  0.00     0.000 HD 
HETATM    8  C   UNL     1     -11.423   9.898  70.167  1.00  0.00    -0.309 A  
HETATM    9  C   UNL     1      -9.689   7.784  70.654  1.00  0.00    -0.177 A  
HETATM   10  C   UNL     1     -10.186   8.541  71.709  1.00  0.00    -0.282 A  
HETATM   11  O   UNL     1      -9.822   8.296  73.000  1.00  0.00    -0.266 OA 
HETATM   12  C   UNL     1     -11.073   9.578  71.477  1.00  0.00    -0.406 A  
ENDROOT
BRANCH   1  13
HETATM   13  C   UNL     1      -8.733   9.626  66.289  1.00  0.00    -0.156 A  
HETATM   14  C   UNL     1      -8.218   9.826  65.001  1.00  0.00    -0.142 A  
HETATM   15  C   UNL     1      -6.072  10.497  65.891  1.00  0.00    -0.128 A  
HETATM   16  C   UNL     1      -6.583  10.379  67.181  1.00  0.00    -0.073 A  
HETATM   17  C   UNL     1      -7.901   9.952  67.377  1.00  0.00    -0.098 A  
HETATM   18  C   UNL     1      -6.895  10.232  64.799  1.00  0.00    -0.087 A  
ENDBRANCH   1  13
BRANCH   3  19
HETATM   19  C   UNL     1     -10.998  11.296  67.521  1.00  0.00    -0.319 A  
HETATM   20  C   UNL     1     -10.334  12.045  68.498  1.00  0.00    -0.228 A  
HETATM   21  C   UNL     1     -10.313  13.424  68.463  1.00  0.00    -0.240 A  
HETATM   22  C   UNL     1     -10.913  14.124  67.417  1.00  0.00    -0.299 A  
HETATM   23  C   UNL     1     -11.599  11.993  66.461  1.00  0.00    -0.384 A  
HETATM   24  C   UNL     1     -11.551  13.401  66.407  1.00  0.00    -0.381 A  
BRANCH  22  25
HETATM   25  O   UNL     1     -10.905  15.503  67.323  1.00  0.00    -0.309 OA 
BRANCH  25  26
HETATM   26  C   UNL     1      -9.570  16.025  67.269  1.00  0.00    -0.225 C  
BRANCH  26  27
HETATM   27  C   UNL     1      -9.239  16.802  65.997  1.00  0.00    -0.201 C  
BRANCH  27  28
HETATM   28  N   UNL     1      -9.077  18.234  66.308  1.00  0.00    -0.459 NA 
HETATM   29  C   UNL     1     -10.309  19.019  66.192  1.00  0.00    -0.468 C  
HETATM   30  C   UNL     1      -9.966  20.291  66.938  1.00  0.00    -0.592 C  
HETATM   31  C   UNL     1      -9.129  19.799  68.104  1.00  0.00    -0.385 C  
HETATM   32  C   UNL     1      -8.541  18.466  67.647  1.00  0.00    -0.259 C  
ENDBRANCH  27  28
ENDBRANCH  26  27
ENDBRANCH  25  26
ENDBRANCH  22  25
ENDBRANCH   3  19
TORSDOF 6
ENDMDL
MODEL       46
REMARK 921   NORMALIZED FREE ENERGY PREDICTED BY IDOCK:   -5.35 KCAL/MOL
REMARK 922        TOTAL FREE ENERGY PREDICTED BY IDOCK:   -9.15 KCAL/MOL
REMARK 923 INTER-LIGAND FREE ENERGY PREDICTED BY IDOCK:   -7.79 KCAL/MOL
REMARK 924 INTRA-LIGAND FREE ENERGY PREDICTED BY IDOCK:   -1.37 KCAL/MOL
REMARK 927      BINDING AFFINITY PREDICTED BY RF-SCORE:    0.00 PKD
ROOT
HETATM    1  C   UNL     1     -10.606   5.556  70.923  1.00  0.00    -0.309 C  
HETATM    2  C   UNL     1      -9.811   4.307  71.331  1.00  0.00    -0.260 C  
HETATM    3  C   UNL     1     -10.654   6.554  72.134  1.00  0.00    -0.240 C  
HETATM    4  C   UNL     1      -8.362   4.640  71.681  1.00  0.00    -0.105 C  
HETATM    5  C   UNL     1      -9.315   6.674  72.890  1.00  0.00    -0.147 A  
HETATM    6  C   UNL     1      -8.231   5.822  72.608  1.00  0.00    -0.112 A  
HETATM    7  H   UNL     1      -5.468   8.255  75.115  1.00  0.00     0.000 HD 
HETATM    8  C   UNL     1      -9.144   7.680  73.866  1.00  0.00    -0.316 A  
HETATM    9  C   UNL     1      -6.969   6.102  73.164  1.00  0.00    -0.080 A  
HETATM   10  C   UNL     1      -6.804   7.181  74.026  1.00  0.00    -0.080 A  
HETATM   11  O   UNL     1      -5.581   7.517  74.526  1.00  0.00    -0.068 OA 
HETATM   12  C   UNL     1      -7.888   7.955  74.403  1.00  0.00    -0.268 A  
ENDROOT
BRANCH   1  13
HETATM   13  C   UNL     1     -10.170   6.065  69.544  1.00  0.00    -0.267 A  
HETATM   14  C   UNL     1      -8.839   6.342  69.203  1.00  0.00    -0.128 A  
HETATM   15  C   UNL     1      -9.496   7.165  67.026  1.00  0.00    -0.192 A  
HETATM   16  C   UNL     1     -10.817   6.828  67.311  1.00  0.00    -0.443 A  
HETATM   17  C   UNL     1     -11.149   6.281  68.555  1.00  0.00    -0.397 A  
HETATM   18  C   UNL     1      -8.504   6.910  67.970  1.00  0.00    -0.124 A  
ENDBRANCH   1  13
BRANCH   3  19
HETATM   19  C   UNL     1     -11.282   7.900  71.741  1.00  0.00    -0.305 A  
HETATM   20  C   UNL     1     -12.648   8.111  71.952  1.00  0.00    -0.368 A  
HETATM   21  C   UNL     1     -13.269   9.281  71.565  1.00  0.00    -0.433 A  
HETATM   22  C   UNL     1     -12.540  10.324  70.993  1.00  0.00    -0.390 A  
HETATM   23  C   UNL     1     -10.540   8.946  71.171  1.00  0.00    -0.335 A  
HETATM   24  C   UNL     1     -11.166  10.155  70.805  1.00  0.00    -0.414 A  
BRANCH  22  25
HETATM   25  O   UNL     1     -13.106  11.523  70.606  1.00  0.00    -0.036 OA 
BRANCH  25  26
HETATM   26  C   UNL     1     -12.224  12.630  70.846  1.00  0.00    -0.185 C  
BRANCH  26  27
HETATM   27  C   UNL     1     -12.683  13.955  70.243  1.00  0.00    -0.182 C  
BRANCH  27  28
HETATM   28  N   UNL     1     -11.601  14.543  69.433  1.00  0.00    -0.285 NA 
HETATM   29  C   UNL     1     -11.882  14.591  67.995  1.00  0.00    -0.315 C  
HETATM   30  C   UNL     1     -10.848  15.572  67.485  1.00  0.00    -0.306 C  
HETATM   31  C   UNL     1     -10.780  16.614  68.587  1.00  0.00    -0.349 C  
HETATM   32  C   UNL     1     -11.253  15.899  69.850  1.00  0.00    -0.348 C  
ENDBRANCH  27  28
ENDBRANCH  26  27
ENDBRANCH  25  26
ENDBRANCH  22  25
ENDBRANCH   3  19
TORSDOF 6
ENDMDL
MODEL       47
REMARK 921   NORMALIZED FREE ENERGY PREDICTED BY IDOCK:   -5.35 KCAL/MOL
REMARK 922        TOTAL FREE ENERGY PREDICTED BY IDOCK:   -9.15 KCAL/MOL
REMARK 923 INTER-LIGAND FREE ENERGY PREDICTED BY IDOCK:   -8.09 KCAL/MOL
REMARK 924 INTRA-LIGAND FREE ENERGY PREDICTED BY IDOCK:   -1.06 KCAL/MOL
REMARK 927      BINDING AFFINITY PREDICTED BY RF-SCORE:    0.00 PKD
ROOT
HETATM    1  C   UNL     1      -8.502   8.047  68.308  1.00  0.00    -0.123 C  
HETATM    2  C   UNL     1      -7.922   6.635  68.484  1.00  0.00    -0.118 C  
HETATM    3  C   UNL     1     -10.046   8.007  68.592  1.00  0.00    -0.212 C  
HETATM    4  C   UNL     1      -8.091   6.120  69.911  1.00  0.00    -0.119 C  
HETATM    5  C   UNL     1     -10.430   7.131  69.802  1.00  0.00    -0.238 A  
HETATM    6  C   UNL     1      -9.483   6.318  70.453  1.00  0.00    -0.174 A  
HETATM    7  H   UNL     1     -12.302   5.443  73.789  1.00  0.00     0.000 HD 
HETATM    8  C   UNL     1     -11.749   7.162  70.305  1.00  0.00    -0.226 A  
HETATM    9  C   UNL     1      -9.822   5.706  71.674  1.00  0.00    -0.213 A  
HETATM   10  C   UNL     1     -11.096   5.861  72.210  1.00  0.00    -0.280 A  
HETATM   11  O   UNL     1     -11.432   5.337  73.423  1.00  0.00    -0.261 OA 
HETATM   12  C   UNL     1     -12.070   6.561  71.520  1.00  0.00    -0.363 A  
ENDROOT
BRANCH   1  13
HETATM   13  C   UNL     1      -7.633   9.095  69.013  1.00  0.00    -0.074 A  
HETATM   14  C   UNL     1      -7.169  10.263  68.394  1.00  0.00    -0.080 A  
HETATM   15  C   UNL     1      -5.891  10.876  70.354  1.00  0.00    -0.128 A  
HETATM   16  C   UNL     1      -6.398   9.762  71.018  1.00  0.00    -0.038 A  
HETATM   17  C   UNL     1      -7.263   8.883  70.355  1.00  0.00    -0.060 A  
HETATM   18  C   UNL     1      -6.288  11.133  69.044  1.00  0.00    -0.054 A  
ENDBRANCH   1  13
BRANCH   3  19
HETATM   19  C   UNL     1     -10.661   9.414  68.608  1.00  0.00    -0.230 A  
HETATM   20  C   UNL     1     -10.905  10.074  67.399  1.00  0.00    -0.313 A  
HETATM   21  C   UNL     1     -11.404  11.360  67.364  1.00  0.00    -0.359 A  
HETATM   22  C   UNL     1     -11.734  12.034  68.539  1.00  0.00    -0.332 A  
HETATM   23  C   UNL     1     -10.996  10.083  69.796  1.00  0.00    -0.317 A  
HETATM   24  C   UNL     1     -11.536  11.385  69.760  1.00  0.00    -0.407 A  
BRANCH  22  25
HETATM   25  O   UNL     1     -12.255  13.313  68.561  1.00  0.00    -0.272 OA 
BRANCH  25  26
HETATM   26  C   UNL     1     -11.347  14.247  69.161  1.00  0.00    -0.276 C  
BRANCH  26  27
HETATM   27  C   UNL     1     -12.008  15.484  69.763  1.00  0.00    -0.364 C  
BRANCH  27  28
HETATM   28  N   UNL     1     -12.429  15.208  71.149  1.00  0.00    -0.321 NA 
HETATM   29  C   UNL     1     -11.909  16.157  72.138  1.00  0.00    -0.536 C  
HETATM   30  C   UNL     1     -12.792  15.903  73.341  1.00  0.00    -0.688 C  
HETATM   31  C   UNL     1     -14.158  15.654  72.727  1.00  0.00    -0.442 C  
HETATM   32  C   UNL     1     -13.881  15.175  71.305  1.00  0.00    -0.472 C  
ENDBRANCH  27  28
ENDBRANCH  26  27
ENDBRANCH  25  26
ENDBRANCH  22  25
ENDBRANCH   3  19
TORSDOF 6
ENDMDL
MODEL       48
REMARK 921   NORMALIZED FREE ENERGY PREDICTED BY IDOCK:   -5.29 KCAL/MOL
REMARK 922        TOTAL FREE ENERGY PREDICTED BY IDOCK:   -9.08 KCAL/MOL
REMARK 923 INTER-LIGAND FREE ENERGY PREDICTED BY IDOCK:   -7.69 KCAL/MOL
REMARK 924 INTRA-LIGAND FREE ENERGY PREDICTED BY IDOCK:   -1.38 KCAL/MOL
REMARK 927      BINDING AFFINITY PREDICTED BY RF-SCORE:    0.00 PKD
ROOT
HETATM    1  C   UNL     1      -9.720  13.753  66.482  1.00  0.00    -0.301 C  
HETATM    2  C   UNL     1      -9.753  15.289  66.508  1.00  0.00    -0.287 C  
HETATM    3  C   UNL     1      -9.778  13.213  67.956  1.00  0.00    -0.224 C  
HETATM    4  C   UNL     1     -11.045  15.824  67.120  1.00  0.00    -0.180 C  
HETATM    5  C   UNL     1     -10.773  13.975  68.855  1.00  0.00    -0.265 A  
HETATM    6  C   UNL     1     -11.414  15.148  68.416  1.00  0.00    -0.347 A  
HETATM    7  H   UNL     1     -14.151  15.152  71.929  1.00  0.00     0.000 HD 
HETATM    8  C   UNL     1     -11.087  13.477  70.139  1.00  0.00     0.351 A  
HETATM    9  C   UNL     1     -12.467  15.687  69.178  1.00  0.00     0.138 A  
HETATM   10  C   UNL     1     -12.838  15.096  70.381  1.00  0.00    -0.304 A  
HETATM   11  O   UNL     1     -13.897  15.555  71.108  1.00  0.00    -0.549 OA 
HETATM   12  C   UNL     1     -12.138  14.012  70.881  1.00  0.00    -0.404 A  
ENDROOT
BRANCH   1  13
HETATM   13  C   UNL     1     -10.693  13.195  65.437  1.00  0.00    -0.308 A  
HETATM   14  C   UNL     1     -12.083  13.362  65.502  1.00  0.00    -0.467 A  
HETATM   15  C   UNL     1     -12.408  11.976  63.547  1.00  0.00    -0.661 A  
HETATM   16  C   UNL     1     -11.027  11.857  63.416  1.00  0.00    -0.470 A  
HETATM   17  C   UNL     1     -10.179  12.464  64.349  1.00  0.00    -0.342 A  
HETATM   18  C   UNL     1     -12.936  12.740  64.585  1.00  0.00    -0.231 A  
ENDBRANCH   1  13
BRANCH   3  19
HETATM   19  C   UNL     1      -9.927  11.685  67.999  1.00  0.00    -0.194 A  
HETATM   20  C   UNL     1      -8.784  10.883  68.076  1.00  0.00    -0.132 A  
HETATM   21  C   UNL     1      -8.864   9.505  68.061  1.00  0.00    -0.123 A  
HETATM   22  C   UNL     1     -10.099   8.859  68.021  1.00  0.00    -0.195 A  
HETATM   23  C   UNL     1     -11.175  11.043  67.964  1.00  0.00    -0.372 A  
HETATM   24  C   UNL     1     -11.259   9.635  67.982  1.00  0.00     0.015 A  
BRANCH  22  25
HETATM   25  O   UNL     1     -10.238   7.484  68.025  1.00  0.00    -0.179 OA 
BRANCH  25  26
HETATM   26  C   UNL     1      -9.707   6.899  69.222  1.00  0.00    -0.156 C  
BRANCH  26  27
HETATM   27  C   UNL     1     -10.503   7.201  70.488  1.00  0.00    -0.212 C  
BRANCH  27  28
HETATM   28  N   UNL     1     -10.953   5.943  71.114  1.00  0.00    -0.274 NA 
HETATM   29  C   UNL     1      -9.894   4.945  71.289  1.00  0.00    -0.186 C  
HETATM   30  C   UNL     1     -10.505   3.981  72.283  1.00  0.00    -0.121 C  
HETATM   31  C   UNL     1     -11.272   4.889  73.227  1.00  0.00    -0.423 C  
HETATM   32  C   UNL     1     -11.571   6.150  72.422  1.00  0.00    -0.292 C  
ENDBRANCH  27  28
ENDBRANCH  26  27
ENDBRANCH  25  26
ENDBRANCH  22  25
ENDBRANCH   3  19
TORSDOF 6
ENDMDL
MODEL       49
REMARK 921   NORMALIZED FREE ENERGY PREDICTED BY IDOCK:   -5.27 KCAL/MOL
REMARK 922        TOTAL FREE ENERGY PREDICTED BY IDOCK:   -9.05 KCAL/MOL
REMARK 923 INTER-LIGAND FREE ENERGY PREDICTED BY IDOCK:   -7.73 KCAL/MOL
REMARK 924 INTRA-LIGAND FREE ENERGY PREDICTED BY IDOCK:   -1.32 KCAL/MOL
REMARK 927      BINDING AFFINITY PREDICTED BY RF-SCORE:    0.00 PKD
ROOT
HETATM    1  C   UNL     1     -11.074  11.857  67.882  1.00  0.00    -0.297 C  
HETATM    2  C   UNL     1     -11.651  10.465  68.179  1.00  0.00    -0.056 C  
HETATM    3  C   UNL     1      -9.713  12.023  68.648  1.00  0.00    -0.104 C  
HETATM    4  C   UNL     1     -10.733   9.348  67.687  1.00  0.00    -0.295 C  
HETATM    5  C   UNL     1      -8.822  10.766  68.606  1.00  0.00    -0.152 A  
HETATM    6  C   UNL     1      -9.291   9.547  68.080  1.00  0.00    -0.143 A  
HETATM    7  H   UNL     1      -5.217   7.751  68.195  1.00  0.00     0.000 HD 
HETATM    8  C   UNL     1      -7.489  10.829  69.068  1.00  0.00    -0.118 A  
HETATM    9  C   UNL     1      -8.385   8.492  67.865  1.00  0.00    -0.126 A  
HETATM   10  C   UNL     1      -7.046   8.633  68.214  1.00  0.00    -0.078 A  
HETATM   11  O   UNL     1      -6.132   7.655  67.956  1.00  0.00    -0.038 OA 
HETATM   12  C   UNL     1      -6.598   9.783  68.840  1.00  0.00    -0.046 A  
ENDROOT
BRANCH   1  13
HETATM   13  C   UNL     1     -11.140  12.177  66.384  1.00  0.00    -0.358 A  
HETATM   14  C   UNL     1     -12.037  13.097  65.825  1.00  0.00    -0.502 A  
HETATM   15  C   UNL     1     -11.295  12.563  63.586  1.00  0.00    -0.555 A  
HETATM   16  C   UNL     1     -10.342  11.699  64.121  1.00  0.00    -0.386 A  
HETATM   17  C   UNL     1     -10.264  11.512  65.505  1.00  0.00    -0.303 A  
HETATM   18  C   UNL     1     -12.135  13.272  64.441  1.00  0.00    -0.471 A  
ENDBRANCH   1  13
BRANCH   3  19
HETATM   19  C   UNL     1      -8.993  13.323  68.258  1.00  0.00    -0.176 A  
HETATM   20  C   UNL     1      -7.787  13.260  67.553  1.00  0.00    -0.173 A  
HETATM   21  C   UNL     1      -7.076  14.398  67.230  1.00  0.00     0.024 A  
HETATM   22  C   UNL     1      -7.565  15.664  67.551  1.00  0.00    -0.175 A  
HETATM   23  C   UNL     1      -9.495  14.594  68.580  1.00  0.00    -0.211 A  
HETATM   24  C   UNL     1      -8.786  15.759  68.222  1.00  0.00    -0.180 A  
BRANCH  22  25
HETATM   25  O   UNL     1      -6.905  16.835  67.235  1.00  0.00    -0.140 OA 
BRANCH  25  26
HETATM   26  C   UNL     1      -7.509  17.500  66.116  1.00  0.00    -0.299 C  
BRANCH  26  27
HETATM   27  C   UNL     1      -7.386  19.022  66.134  1.00  0.00    -0.270 C  
BRANCH  27  28
HETATM   28  N   UNL     1      -8.640  19.624  66.623  1.00  0.00    -0.326 NA 
HETATM   29  C   UNL     1      -9.846  18.864  66.284  1.00  0.00    -0.365 C  
HETATM   30  C   UNL     1     -10.883  19.448  67.219  1.00  0.00    -0.561 C  
HETATM   31  C   UNL     1     -10.105  19.686  68.501  1.00  0.00    -0.557 C  
HETATM   32  C   UNL     1      -8.647  19.823  68.070  1.00  0.00    -0.295 C  
ENDBRANCH  27  28
ENDBRANCH  26  27
ENDBRANCH  25  26
ENDBRANCH  22  25
ENDBRANCH   3  19
TORSDOF 6
ENDMDL
MODEL       50
REMARK 921   NORMALIZED FREE ENERGY PREDICTED BY IDOCK:   -5.23 KCAL/MOL
REMARK 922        TOTAL FREE ENERGY PREDICTED BY IDOCK:   -8.99 KCAL/MOL
REMARK 923 INTER-LIGAND FREE ENERGY PREDICTED BY IDOCK:   -7.35 KCAL/MOL
REMARK 924 INTRA-LIGAND FREE ENERGY PREDICTED BY IDOCK:   -1.64 KCAL/MOL
REMARK 927      BINDING AFFINITY PREDICTED BY RF-SCORE:    0.00 PKD
ROOT
HETATM    1  C   UNL     1     -10.597  11.246  68.202  1.00  0.00    -0.225 C  
HETATM    2  C   UNL     1     -11.579  12.209  68.886  1.00  0.00    -0.377 C  
HETATM    3  C   UNL     1     -11.088  10.967  66.737  1.00  0.00    -0.240 C  
HETATM    4  C   UNL     1     -11.641  13.561  68.181  1.00  0.00    -0.368 C  
HETATM    5  C   UNL     1     -11.612  12.222  66.010  1.00  0.00    -0.451 A  
HETATM    6  C   UNL     1     -11.787  13.445  66.685  1.00  0.00    -0.443 A  
HETATM    7  H   UNL     1     -12.499  15.626  62.867  1.00  0.00     0.000 HD 
HETATM    8  C   UNL     1     -11.892  12.171  64.627  1.00  0.00    -0.400 A  
HETATM    9  C   UNL     1     -12.060  14.610  65.944  1.00  0.00    -0.212 A  
HETATM   10  C   UNL     1     -12.204  14.547  64.562  1.00  0.00    -0.465 A  
HETATM   11  O   UNL     1     -12.401  15.668  63.811  1.00  0.00    -0.644 OA 
HETATM   12  C   UNL     1     -12.150  13.332  63.902  1.00  0.00    -0.531 A  
ENDROOT
BRANCH   1  13
HETATM   13  C   UNL     1      -9.144  11.674  68.441  1.00  0.00    -0.180 A  
HETATM   14  C   UNL     1      -8.605  12.883  67.982  1.00  0.00    -0.186 A  
HETATM   15  C   UNL     1      -6.404  12.285  68.787  1.00  0.00    -0.077 A  
HETATM   16  C   UNL     1      -6.931  11.111  69.320  1.00  0.00    -0.118 A  
HETATM   17  C   UNL     1      -8.287  10.811  69.151  1.00  0.00    -0.111 A  
HETATM   18  C   UNL     1      -7.246  13.178  68.128  1.00  0.00    -0.117 A  
ENDBRANCH   1  13
BRANCH   3  19
HETATM   19  C   UNL     1     -10.061  10.153  65.935  1.00  0.00    -0.325 A  
HETATM   20  C   UNL     1      -9.891   8.793  66.212  1.00  0.00    -0.342 A  
HETATM   21  C   UNL     1      -8.943   8.033  65.558  1.00  0.00    -0.046 A  
HETATM   22  C   UNL     1      -8.151   8.586  64.553  1.00  0.00    -0.158 A  
HETATM   23  C   UNL     1      -9.271  10.716  64.921  1.00  0.00    -0.252 A  
HETATM   24  C   UNL     1      -8.324   9.933  64.229  1.00  0.00    -0.167 A  
BRANCH  22  25
HETATM   25  O   UNL     1      -7.201   7.867  63.852  1.00  0.00    -0.079 OA 
BRANCH  25  26
HETATM   26  C   UNL     1      -7.692   6.577  63.462  1.00  0.00    -0.106 C  
BRANCH  26  27
HETATM   27  C   UNL     1      -6.911   5.397  64.035  1.00  0.00    -0.048 C  
BRANCH  27  28
HETATM   28  N   UNL     1      -7.833   4.456  64.699  1.00  0.00    -0.087 NA 
HETATM   29  C   UNL     1      -7.952   4.651  66.147  1.00  0.00    -0.103 C  
HETATM   30  C   UNL     1      -9.209   3.878  66.485  1.00  0.00    -0.175 C  
HETATM   31  C   UNL     1     -10.118   4.151  65.300  1.00  0.00    -0.213 C  
HETATM   32  C   UNL     1      -9.183   4.499  64.144  1.00  0.00    -0.109 C  
ENDBRANCH  27  28
ENDBRANCH  26  27
ENDBRANCH  25  26
ENDBRANCH  22  25
ENDBRANCH   3  19
TORSDOF 6
ENDMDL
MODEL       51
REMARK 921   NORMALIZED FREE ENERGY PREDICTED BY IDOCK:   -5.17 KCAL/MOL
REMARK 922        TOTAL FREE ENERGY PREDICTED BY IDOCK:   -8.90 KCAL/MOL
REMARK 923 INTER-LIGAND FREE ENERGY PREDICTED BY IDOCK:   -7.21 KCAL/MOL
REMARK 924 INTRA-LIGAND FREE ENERGY PREDICTED BY IDOCK:   -1.70 KCAL/MOL
REMARK 927      BINDING AFFINITY PREDICTED BY RF-SCORE:    0.00 PKD
ROOT
HETATM    1  C   UNL     1     -11.334  11.464  67.626  1.00  0.00    -0.359 C  
HETATM    2  C   UNL     1     -11.861  12.657  66.815  1.00  0.00    -0.440 C  
HETATM    3  C   UNL     1      -9.797  11.295  67.353  1.00  0.00    -0.201 C  
HETATM    4  C   UNL     1     -11.196  13.968  67.228  1.00  0.00    -0.328 C  
HETATM    5  C   UNL     1      -9.027  12.630  67.307  1.00  0.00    -0.194 A  
HETATM    6  C   UNL     1      -9.696  13.868  67.330  1.00  0.00    -0.234 A  
HETATM    7  H   UNL     1      -5.880  16.094  67.900  1.00  0.00     0.000 HD 
HETATM    8  C   UNL     1      -7.615  12.629  67.278  1.00  0.00    -0.121 A  
HETATM    9  C   UNL     1      -8.954  15.051  67.502  1.00  0.00    -0.189 A  
HETATM   10  C   UNL     1      -7.567  15.005  67.599  1.00  0.00    -0.178 A  
HETATM   11  O   UNL     1      -6.828  16.126  67.834  1.00  0.00    -0.121 OA 
HETATM   12  C   UNL     1      -6.891  13.805  67.460  1.00  0.00    -0.148 A  
ENDROOT
BRANCH   1  13
HETATM   13  C   UNL     1     -11.842  11.509  69.072  1.00  0.00    -0.408 A  
HETATM   14  C   UNL     1     -12.143  10.366  69.825  1.00  0.00    -0.208 A  
HETATM   15  C   UNL     1     -12.939  11.710  71.672  1.00  0.00    -0.483 A  
HETATM   16  C   UNL     1     -12.578  12.860  70.974  1.00  0.00    -0.376 A  
HETATM   17  C   UNL     1     -12.032  12.759  69.690  1.00  0.00    -0.354 A  
HETATM   18  C   UNL     1     -12.709  10.461  71.101  1.00  0.00    -0.514 A  
ENDBRANCH   1  13
BRANCH   3  19
HETATM   19  C   UNL     1      -9.168  10.231  68.266  1.00  0.00    -0.139 A  
HETATM   20  C   UNL     1      -8.588  10.618  69.478  1.00  0.00     0.023 A  
HETATM   21  C   UNL     1      -7.962   9.707  70.305  1.00  0.00    -0.198 A  
HETATM   22  C   UNL     1      -7.931   8.350  69.983  1.00  0.00    -0.109 A  
HETATM   23  C   UNL     1      -9.146   8.867  67.937  1.00  0.00    -0.145 A  
HETATM   24  C   UNL     1      -8.535   7.930  68.796  1.00  0.00    -0.128 A  
BRANCH  22  25
HETATM   25  O   UNL     1      -7.336   7.394  70.783  1.00  0.00    -0.068 OA 
BRANCH  25  26
HETATM   26  C   UNL     1      -8.071   7.183  71.997  1.00  0.00    -0.099 C  
BRANCH  26  27
HETATM   27  C   UNL     1      -8.662   5.785  72.152  1.00  0.00    -0.133 C  
BRANCH  27  28
HETATM   28  N   UNL     1     -10.099   5.804  71.822  1.00  0.00    -0.183 NA 
HETATM   29  C   UNL     1     -10.755   7.093  72.060  1.00  0.00    -0.214 C  
HETATM   30  C   UNL     1     -12.045   6.959  71.279  1.00  0.00    -0.419 C  
HETATM   31  C   UNL     1     -11.626   6.197  70.035  1.00  0.00    -0.255 C  
HETATM   32  C   UNL     1     -10.367   5.432  70.435  1.00  0.00    -0.283 C  
ENDBRANCH  27  28
ENDBRANCH  26  27
ENDBRANCH  25  26
ENDBRANCH  22  25
ENDBRANCH   3  19
TORSDOF 6
ENDMDL
MODEL       52
REMARK 921   NORMALIZED FREE ENERGY PREDICTED BY IDOCK:   -5.16 KCAL/MOL
REMARK 922        TOTAL FREE ENERGY PREDICTED BY IDOCK:   -8.89 KCAL/MOL
REMARK 923 INTER-LIGAND FREE ENERGY PREDICTED BY IDOCK:   -7.99 KCAL/MOL
REMARK 924 INTRA-LIGAND FREE ENERGY PREDICTED BY IDOCK:   -0.90 KCAL/MOL
REMARK 927      BINDING AFFINITY PREDICTED BY RF-SCORE:    0.00 PKD
ROOT
HETATM    1  C   UNL     1      -9.547   7.944  70.893  1.00  0.00    -0.172 C  
HETATM    2  C   UNL     1      -9.158   6.501  71.251  1.00  0.00    -0.148 C  
HETATM    3  C   UNL     1      -8.996   8.284  69.462  1.00  0.00    -0.150 C  
HETATM    4  C   UNL     1      -9.775   5.487  70.291  1.00  0.00    -0.242 C  
HETATM    5  C   UNL     1      -9.164   7.137  68.446  1.00  0.00    -0.133 A  
HETATM    6  C   UNL     1      -9.605   5.860  68.841  1.00  0.00    -0.158 A  
HETATM    7  H   UNL     1     -10.093   4.550  64.612  1.00  0.00     0.000 HD 
HETATM    8  C   UNL     1      -8.907   7.365  67.075  1.00  0.00    -0.132 A  
HETATM    9  C   UNL     1      -9.947   4.912  67.859  1.00  0.00    -0.181 A  
HETATM   10  C   UNL     1      -9.804   5.215  66.509  1.00  0.00    -0.192 A  
HETATM   11  O   UNL     1     -10.191   4.343  65.534  1.00  0.00    -0.238 OA 
HETATM   12  C   UNL     1      -9.260   6.424  66.111  1.00  0.00    -0.132 A  
ENDROOT
BRANCH   1  13
HETATM   13  C   UNL     1     -11.020   8.218  71.218  1.00  0.00    -0.290 A  
HETATM   14  C   UNL     1     -12.031   7.253  71.113  1.00  0.00    -0.363 A  
HETATM   15  C   UNL     1     -13.733   8.877  71.674  1.00  0.00    -0.444 A  
HETATM   16  C   UNL     1     -12.740   9.836  71.859  1.00  0.00    -0.501 A  
HETATM   17  C   UNL     1     -11.398   9.508  71.637  1.00  0.00    -0.411 A  
HETATM   18  C   UNL     1     -13.376   7.580  71.312  1.00  0.00    -0.312 A  
ENDBRANCH   1  13
BRANCH   3  19
HETATM   19  C   UNL     1      -9.498   9.649  68.966  1.00  0.00    -0.168 A  
HETATM   20  C   UNL     1     -10.772   9.751  68.399  1.00  0.00    -0.262 A  
HETATM   21  C   UNL     1     -11.244  10.943  67.889  1.00  0.00    -0.387 A  
HETATM   22  C   UNL     1     -10.483  12.109  67.970  1.00  0.00    -0.212 A  
HETATM   23  C   UNL     1      -8.727  10.819  69.057  1.00  0.00    -0.136 A  
HETATM   24  C   UNL     1      -9.221  12.044  68.566  1.00  0.00    -0.116 A  
BRANCH  22  25
HETATM   25  O   UNL     1     -10.914  13.332  67.495  1.00  0.00    -0.255 OA 
BRANCH  25  26
HETATM   26  C   UNL     1     -10.787  14.363  68.485  1.00  0.00    -0.251 C  
BRANCH  26  27
HETATM   27  C   UNL     1     -11.402  15.704  68.093  1.00  0.00    -0.340 C  
BRANCH  27  28
HETATM   28  N   UNL     1     -10.338  16.673  67.772  1.00  0.00    -0.296 NA 
HETATM   29  C   UNL     1     -10.479  17.311  66.459  1.00  0.00    -0.260 C  
HETATM   30  C   UNL     1      -9.548  18.499  66.564  1.00  0.00    -0.335 C  
HETATM   31  C   UNL     1      -9.735  18.967  67.995  1.00  0.00    -0.399 C  
HETATM   32  C   UNL     1     -10.226  17.742  68.761  1.00  0.00    -0.373 C  
ENDBRANCH  27  28
ENDBRANCH  26  27
ENDBRANCH  25  26
ENDBRANCH  22  25
ENDBRANCH   3  19
TORSDOF 6
ENDMDL
MODEL       53
REMARK 921   NORMALIZED FREE ENERGY PREDICTED BY IDOCK:   -5.15 KCAL/MOL
REMARK 922        TOTAL FREE ENERGY PREDICTED BY IDOCK:   -8.88 KCAL/MOL
REMARK 923 INTER-LIGAND FREE ENERGY PREDICTED BY IDOCK:   -6.68 KCAL/MOL
REMARK 924 INTRA-LIGAND FREE ENERGY PREDICTED BY IDOCK:   -2.20 KCAL/MOL
REMARK 927      BINDING AFFINITY PREDICTED BY RF-SCORE:    0.00 PKD
ROOT
HETATM    1  C   UNL     1     -10.024  14.111  68.899  1.00  0.00    -0.132 C  
HETATM    2  C   UNL     1     -11.217  15.076  68.824  1.00  0.00    -0.288 C  
HETATM    3  C   UNL     1     -10.391  12.780  68.153  1.00  0.00    -0.243 C  
HETATM    4  C   UNL     1     -11.553  15.459  67.385  1.00  0.00    -0.135 C  
HETATM    5  C   UNL     1     -11.155  13.001  66.832  1.00  0.00    -0.306 A  
HETATM    6  C   UNL     1     -11.619  14.275  66.454  1.00  0.00    -0.381 A  
HETATM    7  H   UNL     1     -12.667  12.850  62.366  1.00  0.00     0.000 HD 
HETATM    8  C   UNL     1     -11.370  11.918  65.951  1.00  0.00    -0.365 A  
HETATM    9  C   UNL     1     -12.118  14.471  65.153  1.00  0.00    -0.363 A  
HETATM   10  C   UNL     1     -12.198  13.405  64.262  1.00  0.00    -0.392 A  
HETATM   11  O   UNL     1     -12.613  13.578  62.975  1.00  0.00    -0.716 OA 
HETATM   12  C   UNL     1     -11.854  12.125  64.661  1.00  0.00    -0.400 A  
ENDROOT
BRANCH   1  13
HETATM   13  C   UNL     1      -8.710  14.827  68.561  1.00  0.00    -0.174 A  
HETATM   14  C   UNL     1      -8.453  15.436  67.326  1.00  0.00    -0.214 A  
HETATM   15  C   UNL     1      -6.187  15.968  67.983  1.00  0.00    -0.138 A  
HETATM   16  C   UNL     1      -6.442  15.437  69.245  1.00  0.00    -0.137 A  
HETATM   17  C   UNL     1      -7.691  14.876  69.531  1.00  0.00    -0.121 A  
HETATM   18  C   UNL     1      -7.199  15.978  67.026  1.00  0.00    -0.249 A  
ENDBRANCH   1  13
BRANCH   3  19
HETATM   19  C   UNL     1      -9.183  11.838  68.036  1.00  0.00    -0.181 A  
HETATM   20  C   UNL     1      -8.392  11.869  66.884  1.00  0.00    -0.169 A  
HETATM   21  C   UNL     1      -7.331  11.005  66.709  1.00  0.00    -0.139 A  
HETATM   22  C   UNL     1      -6.974  10.097  67.707  1.00  0.00    -0.084 A  
HETATM   23  C   UNL     1      -8.827  10.931  69.048  1.00  0.00    -0.105 A  
HETATM   24  C   UNL     1      -7.724  10.070  68.885  1.00  0.00    -0.089 A  
BRANCH  22  25
HETATM   25  O   UNL     1      -5.910   9.224  67.594  1.00  0.00    -0.045 OA 
BRANCH  25  26
HETATM   26  C   UNL     1      -6.331   7.856  67.701  1.00  0.00    -0.052 C  
BRANCH  26  27
HETATM   27  C   UNL     1      -6.973   7.284  66.440  1.00  0.00    -0.069 C  
BRANCH  27  28
HETATM   28  N   UNL     1      -8.397   6.991  66.687  1.00  0.00    -0.114 NA 
HETATM   29  C   UNL     1      -8.740   6.812  68.101  1.00  0.00    -0.122 C  
HETATM   30  C   UNL     1     -10.248   6.940  68.097  1.00  0.00    -0.203 C  
HETATM   31  C   UNL     1     -10.505   8.031  67.074  1.00  0.00    -0.410 C  
HETATM   32  C   UNL     1      -9.288   8.018  66.153  1.00  0.00    -0.147 C  
ENDBRANCH  27  28
ENDBRANCH  26  27
ENDBRANCH  25  26
ENDBRANCH  22  25
ENDBRANCH   3  19
TORSDOF 6
ENDMDL
MODEL       54
REMARK 921   NORMALIZED FREE ENERGY PREDICTED BY IDOCK:   -5.10 KCAL/MOL
REMARK 922        TOTAL FREE ENERGY PREDICTED BY IDOCK:   -8.82 KCAL/MOL
REMARK 923 INTER-LIGAND FREE ENERGY PREDICTED BY IDOCK:   -7.72 KCAL/MOL
REMARK 924 INTRA-LIGAND FREE ENERGY PREDICTED BY IDOCK:   -1.10 KCAL/MOL
REMARK 927      BINDING AFFINITY PREDICTED BY RF-SCORE:    0.00 PKD
ROOT
HETATM    1  C   UNL     1      -9.570  13.616  66.456  1.00  0.00    -0.294 C  
HETATM    2  C   UNL     1      -9.561  15.150  66.385  1.00  0.00    -0.309 C  
HETATM    3  C   UNL     1      -9.646  13.171  67.960  1.00  0.00    -0.220 C  
HETATM    4  C   UNL     1     -10.839  15.757  66.957  1.00  0.00    -0.273 C  
HETATM    5  C   UNL     1     -10.622  14.014  68.805  1.00  0.00    -0.260 A  
HETATM    6  C   UNL     1     -11.230  15.175  68.291  1.00  0.00    -0.315 A  
HETATM    7  H   UNL     1     -13.974  15.473  71.787  1.00  0.00     0.000 HD 
HETATM    8  C   UNL     1     -10.952  13.607  70.117  1.00  0.00     0.462 A  
HETATM    9  C   UNL     1     -12.269  15.789  69.014  1.00  0.00    -0.050 A  
HETATM   10  C   UNL     1     -12.659  15.285  70.250  1.00  0.00    -0.347 A  
HETATM   11  O   UNL     1     -13.707  15.817  70.942  1.00  0.00    -0.496 OA 
HETATM   12  C   UNL     1     -11.989  14.216  70.819  1.00  0.00    -0.377 A  
ENDROOT
BRANCH   1  13
HETATM   13  C   UNL     1     -10.555  13.020  65.443  1.00  0.00    -0.307 A  
HETATM   14  C   UNL     1     -10.185  12.116  64.439  1.00  0.00    -0.333 A  
HETATM   15  C   UNL     1     -12.421  12.117  63.518  1.00  0.00    -0.666 A  
HETATM   16  C   UNL     1     -12.833  12.956  64.551  1.00  0.00    -0.273 A  
HETATM   17  C   UNL     1     -11.910  13.399  65.505  1.00  0.00    -0.394 A  
HETATM   18  C   UNL     1     -11.097  11.687  63.470  1.00  0.00    -0.476 A  
ENDBRANCH   1  13
BRANCH   3  19
HETATM   19  C   UNL     1      -9.837  11.653  68.098  1.00  0.00    -0.191 A  
HETATM   20  C   UNL     1     -11.129  11.122  68.152  1.00  0.00    -0.324 A  
HETATM   21  C   UNL     1     -11.350   9.771  68.332  1.00  0.00     0.027 A  
HETATM   22  C   UNL     1     -10.284   8.875  68.413  1.00  0.00    -0.199 A  
HETATM   23  C   UNL     1      -8.758  10.757  68.173  1.00  0.00    -0.130 A  
HETATM   24  C   UNL     1      -8.983   9.374  68.324  1.00  0.00    -0.128 A  
BRANCH  22  25
HETATM   25  O   UNL     1     -10.448   7.513  68.572  1.00  0.00    -0.198 OA 
BRANCH  25  26
HETATM   26  C   UNL     1      -9.804   7.035  69.762  1.00  0.00    -0.169 C  
BRANCH  26  27
HETATM   27  C   UNL     1     -10.430   7.520  71.066  1.00  0.00    -0.215 C  
BRANCH  27  28
HETATM   28  N   UNL     1     -10.348   6.462  72.090  1.00  0.00    -0.187 NA 
HETATM   29  C   UNL     1     -11.648   5.947  72.530  1.00  0.00    -0.277 C  
HETATM   30  C   UNL     1     -11.277   4.654  73.225  1.00  0.00    -0.411 C  
HETATM   31  C   UNL     1     -10.154   4.103  72.364  1.00  0.00    -0.243 C  
HETATM   32  C   UNL     1      -9.553   5.316  71.658  1.00  0.00    -0.152 C  
ENDBRANCH  27  28
ENDBRANCH  26  27
ENDBRANCH  25  26
ENDBRANCH  22  25
ENDBRANCH   3  19
TORSDOF 6
ENDMDL
MODEL       55
REMARK 921   NORMALIZED FREE ENERGY PREDICTED BY IDOCK:   -5.10 KCAL/MOL
REMARK 922        TOTAL FREE ENERGY PREDICTED BY IDOCK:   -8.81 KCAL/MOL
REMARK 923 INTER-LIGAND FREE ENERGY PREDICTED BY IDOCK:   -7.59 KCAL/MOL
REMARK 924 INTRA-LIGAND FREE ENERGY PREDICTED BY IDOCK:   -1.22 KCAL/MOL
REMARK 927      BINDING AFFINITY PREDICTED BY RF-SCORE:    0.00 PKD
ROOT
HETATM    1  C   UNL     1     -11.636  12.521  68.158  1.00  0.00    -0.390 C  
HETATM    2  C   UNL     1     -12.233  13.752  68.857  1.00  0.00    -0.235 C  
HETATM    3  C   UNL     1     -10.570  12.993  67.106  1.00  0.00    -0.251 C  
HETATM    4  C   UNL     1     -11.176  14.540  69.628  1.00  0.00    -0.292 C  
HETATM    5  C   UNL     1      -9.669  14.138  67.610  1.00  0.00    -0.228 A  
HETATM    6  C   UNL     1      -9.923  14.794  68.830  1.00  0.00    -0.234 A  
HETATM    7  H   UNL     1      -6.015  16.923  68.677  1.00  0.00     0.000 HD 
HETATM    8  C   UNL     1      -8.536  14.526  66.861  1.00  0.00    -0.207 A  
HETATM    9  C   UNL     1      -8.962  15.679  69.352  1.00  0.00    -0.265 A  
HETATM   10  C   UNL     1      -7.793  15.943  68.647  1.00  0.00    -0.164 A  
HETATM   11  O   UNL     1      -6.814  16.743  69.158  1.00  0.00    -0.206 OA 
HETATM   12  C   UNL     1      -7.586  15.395  67.393  1.00  0.00    -0.233 A  
ENDROOT
BRANCH   1  13
HETATM   13  C   UNL     1     -11.264  11.433  69.172  1.00  0.00    -0.335 A  
HETATM   14  C   UNL     1     -10.016  10.795  69.204  1.00  0.00    -0.206 A  
HETATM   15  C   UNL     1     -10.742   9.317  70.975  1.00  0.00    -0.387 A  
HETATM   16  C   UNL     1     -11.963   9.984  71.015  1.00  0.00    -0.469 A  
HETATM   17  C   UNL     1     -12.219  11.033  70.126  1.00  0.00    -0.424 A  
HETATM   18  C   UNL     1      -9.762   9.732  70.076  1.00  0.00    -0.292 A  
ENDBRANCH   1  13
BRANCH   3  19
HETATM   19  C   UNL     1      -9.807  11.808  66.494  1.00  0.00    -0.228 A  
HETATM   20  C   UNL     1     -10.488  10.893  65.685  1.00  0.00    -0.274 A  
HETATM   21  C   UNL     1      -9.859   9.783  65.159  1.00  0.00    -0.294 A  
HETATM   22  C   UNL     1      -8.498   9.561  65.373  1.00  0.00    -0.148 A  
HETATM   23  C   UNL     1      -8.437  11.595  66.711  1.00  0.00    -0.177 A  
HETATM   24  C   UNL     1      -7.785  10.480  66.147  1.00  0.00    -0.142 A  
BRANCH  22  25
HETATM   25  O   UNL     1      -7.815   8.479  64.855  1.00  0.00    -0.104 OA 
BRANCH  25  26
HETATM   26  C   UNL     1      -8.281   7.240  65.408  1.00  0.00    -0.137 C  
BRANCH  26  27
HETATM   27  C   UNL     1      -8.038   7.079  66.906  1.00  0.00    -0.116 C  
BRANCH  27  28
HETATM   28  N   UNL     1      -9.124   6.285  67.511  1.00  0.00    -0.111 NA 
HETATM   29  C   UNL     1      -8.960   6.033  68.946  1.00  0.00    -0.123 C  
HETATM   30  C   UNL     1     -10.346   5.593  69.368  1.00  0.00    -0.343 C  
HETATM   31  C   UNL     1     -11.262   6.480  68.545  1.00  0.00    -0.287 C  
HETATM   32  C   UNL     1     -10.440   6.892  67.327  1.00  0.00    -0.287 C  
ENDBRANCH  27  28
ENDBRANCH  26  27
ENDBRANCH  25  26
ENDBRANCH  22  25
ENDBRANCH   3  19
TORSDOF 6
ENDMDL
MODEL       56
REMARK 921   NORMALIZED FREE ENERGY PREDICTED BY IDOCK:   -5.08 KCAL/MOL
REMARK 922        TOTAL FREE ENERGY PREDICTED BY IDOCK:   -8.79 KCAL/MOL
REMARK 923 INTER-LIGAND FREE ENERGY PREDICTED BY IDOCK:   -7.18 KCAL/MOL
REMARK 924 INTRA-LIGAND FREE ENERGY PREDICTED BY IDOCK:   -1.61 KCAL/MOL
REMARK 927      BINDING AFFINITY PREDICTED BY RF-SCORE:    0.00 PKD
ROOT
HETATM    1  C   UNL     1      -8.426  14.988  69.071  1.00  0.00    -0.200 C  
HETATM    2  C   UNL     1      -7.409  15.675  69.996  1.00  0.00     0.195 C  
HETATM    3  C   UNL     1      -9.152  16.078  68.206  1.00  0.00    -0.191 C  
HETATM    4  C   UNL     1      -6.323  16.405  69.210  1.00  0.00    -0.186 C  
HETATM    5  C   UNL     1      -8.209  17.178  67.677  1.00  0.00    -0.194 A  
HETATM    6  C   UNL     1      -6.869  17.265  68.098  1.00  0.00    -0.182 A  
HETATM    7  H   UNL     1      -5.930  20.320  64.997  1.00  0.00     0.000 HD 
HETATM    8  C   UNL     1      -8.674  18.106  66.720  1.00  0.00    -0.275 A  
HETATM    9  C   UNL     1      -5.991  18.143  67.436  1.00  0.00    -0.159 A  
HETATM   10  C   UNL     1      -6.454  18.955  66.406  1.00  0.00    -0.195 A  
HETATM   11  O   UNL     1      -5.614  19.765  65.700  1.00  0.00    -0.159 OA 
HETATM   12  C   UNL     1      -7.795  18.963  66.062  1.00  0.00    -0.214 A  
ENDROOT
BRANCH   1  13
HETATM   13  C   UNL     1      -7.809  13.766  68.381  1.00  0.00    -0.143 A  
HETATM   14  C   UNL     1      -6.492  13.724  67.906  1.00  0.00    -0.165 A  
HETATM   15  C   UNL     1      -6.828  11.521  66.966  1.00  0.00    -0.147 A  
HETATM   16  C   UNL     1      -8.117  11.506  67.493  1.00  0.00    -0.137 A  
HETATM   17  C   UNL     1      -8.600  12.615  68.196  1.00  0.00    -0.188 A  
HETATM   18  C   UNL     1      -6.010  12.627  67.184  1.00  0.00     0.036 A  
ENDBRANCH   1  13
BRANCH   3  19
HETATM   19  C   UNL     1     -10.055  15.449  67.135  1.00  0.00    -0.245 A  
HETATM   20  C   UNL     1     -11.293  14.914  67.504  1.00  0.00    -0.351 A  
HETATM   21  C   UNL     1     -12.114  14.289  66.588  1.00  0.00    -0.448 A  
HETATM   22  C   UNL     1     -11.761  14.216  65.240  1.00  0.00    -0.353 A  
HETATM   23  C   UNL     1      -9.694  15.385  65.779  1.00  0.00    -0.385 A  
HETATM   24  C   UNL     1     -10.547  14.776  64.836  1.00  0.00    -0.431 A  
BRANCH  22  25
HETATM   25  O   UNL     1     -12.553  13.620  64.278  1.00  0.00    -0.640 OA 
BRANCH  25  26
HETATM   26  C   UNL     1     -11.800  12.724  63.449  1.00  0.00    -0.518 C  
BRANCH  26  27
HETATM   27  C   UNL     1     -11.482  11.376  64.090  1.00  0.00    -0.115 C  
BRANCH  27  28
HETATM   28  N   UNL     1     -10.027  11.138  64.070  1.00  0.00    -0.292 NA 
HETATM   29  C   UNL     1      -9.618   9.856  64.653  1.00  0.00    -0.252 C  
HETATM   30  C   UNL     1      -8.202   9.695  64.143  1.00  0.00    -0.158 C  
HETATM   31  C   UNL     1      -8.273  10.242  62.729  1.00  0.00    -0.162 C  
HETATM   32  C   UNL     1      -9.461  11.201  62.725  1.00  0.00    -0.329 C  
ENDBRANCH  27  28
ENDBRANCH  26  27
ENDBRANCH  25  26
ENDBRANCH  22  25
ENDBRANCH   3  19
TORSDOF 6
ENDMDL
MODEL       57
REMARK 921   NORMALIZED FREE ENERGY PREDICTED BY IDOCK:   -5.08 KCAL/MOL
REMARK 922        TOTAL FREE ENERGY PREDICTED BY IDOCK:   -8.78 KCAL/MOL
REMARK 923 INTER-LIGAND FREE ENERGY PREDICTED BY IDOCK:   -7.84 KCAL/MOL
REMARK 924 INTRA-LIGAND FREE ENERGY PREDICTED BY IDOCK:   -0.94 KCAL/MOL
REMARK 927      BINDING AFFINITY PREDICTED BY RF-SCORE:    0.00 PKD
ROOT
HETATM    1  C   UNL     1      -9.586  12.460  66.914  1.00  0.00    -0.219 C  
HETATM    2  C   UNL     1      -9.933  13.751  67.672  1.00  0.00    -0.238 C  
HETATM    3  C   UNL     1      -9.361  11.302  67.949  1.00  0.00    -0.161 C  
HETATM    4  C   UNL     1     -11.229  13.617  68.468  1.00  0.00    -0.310 C  
HETATM    5  C   UNL     1     -10.381  11.298  69.105  1.00  0.00    -0.156 A  
HETATM    6  C   UNL     1     -11.298  12.351  69.283  1.00  0.00    -0.315 A  
HETATM    7  H   UNL     1     -13.552  10.073  72.376  1.00  0.00     0.000 HD 
HETATM    8  C   UNL     1     -10.435  10.203  69.996  1.00  0.00    -0.325 A  
HETATM    9  C   UNL     1     -12.344  12.208  70.213  1.00  0.00    -0.269 A  
HETATM   10  C   UNL     1     -12.444  11.056  70.987  1.00  0.00    -0.409 A  
HETATM   11  O   UNL     1     -13.484  10.860  71.847  1.00  0.00    -0.345 OA 
HETATM   12  C   UNL     1     -11.481  10.066  70.905  1.00  0.00    -0.452 A  
ENDROOT
BRANCH   1  13
HETATM   13  C   UNL     1     -10.536  12.240  65.731  1.00  0.00    -0.287 A  
HETATM   14  C   UNL     1     -10.136  11.690  64.506  1.00  0.00    -0.321 A  
HETATM   15  C   UNL     1     -12.332  12.038  63.555  1.00  0.00    -0.661 A  
HETATM   16  C   UNL     1     -12.775  12.517  64.785  1.00  0.00    -0.415 A  
HETATM   17  C   UNL     1     -11.887  12.613  65.862  1.00  0.00    -0.499 A  
HETATM   18  C   UNL     1     -11.013  11.612  63.419  1.00  0.00    -0.442 A  
ENDBRANCH   1  13
BRANCH   3  19
HETATM   19  C   UNL     1      -9.184   9.942  67.256  1.00  0.00    -0.156 A  
HETATM   20  C   UNL     1      -7.920   9.564  66.791  1.00  0.00    -0.109 A  
HETATM   21  C   UNL     1      -7.723   8.379  66.113  1.00  0.00    -0.097 A  
HETATM   22  C   UNL     1      -8.773   7.484  65.913  1.00  0.00    -0.147 A  
HETATM   23  C   UNL     1     -10.246   9.045  67.063  1.00  0.00    -0.336 A  
HETATM   24  C   UNL     1     -10.039   7.818  66.399  1.00  0.00    -0.124 A  
BRANCH  22  25
HETATM   25  O   UNL     1      -8.628   6.276  65.259  1.00  0.00    -0.139 OA 
BRANCH  25  26
HETATM   26  C   UNL     1      -9.120   5.182  66.046  1.00  0.00    -0.149 C  
BRANCH  26  27
HETATM   27  C   UNL     1     -10.314   4.447  65.443  1.00  0.00    -0.216 C  
BRANCH  27  28
HETATM   28  N   UNL     1      -9.850   3.278  64.673  1.00  0.00    -0.150 NA 
HETATM   29  C   UNL     1      -9.345   3.599  63.335  1.00  0.00    -0.116 C  
HETATM   30  C   UNL     1      -8.585   2.346  62.956  1.00  0.00    -0.085 C  
HETATM   31  C   UNL     1      -7.935   1.921  64.260  1.00  0.00    -0.069 C  
HETATM   32  C   UNL     1      -8.804   2.525  65.360  1.00  0.00    -0.126 C  
ENDBRANCH  27  28
ENDBRANCH  26  27
ENDBRANCH  25  26
ENDBRANCH  22  25
ENDBRANCH   3  19
TORSDOF 6
ENDMDL
MODEL       58
REMARK 921   NORMALIZED FREE ENERGY PREDICTED BY IDOCK:   -5.07 KCAL/MOL
REMARK 922        TOTAL FREE ENERGY PREDICTED BY IDOCK:   -8.78 KCAL/MOL
REMARK 923 INTER-LIGAND FREE ENERGY PREDICTED BY IDOCK:   -7.27 KCAL/MOL
REMARK 924 INTRA-LIGAND FREE ENERGY PREDICTED BY IDOCK:   -1.50 KCAL/MOL
REMARK 927      BINDING AFFINITY PREDICTED BY RF-SCORE:    0.00 PKD
ROOT
HETATM    1  C   UNL     1     -10.092   8.913  71.955  1.00  0.00    -0.393 C  
HETATM    2  C   UNL     1      -9.398   7.992  72.970  1.00  0.00    -0.344 C  
HETATM    3  C   UNL     1      -9.212   9.005  70.658  1.00  0.00    -0.279 C  
HETATM    4  C   UNL     1      -9.247   6.568  72.441  1.00  0.00    -0.137 C  
HETATM    5  C   UNL     1      -8.605   7.655  70.225  1.00  0.00    -0.143 A  
HETATM    6  C   UNL     1      -8.702   6.509  71.037  1.00  0.00    -0.138 A  
HETATM    7  H   UNL     1      -7.161   3.886  67.784  1.00  0.00     0.000 HD 
HETATM    8  C   UNL     1      -7.964   7.539  68.972  1.00  0.00    -0.122 A  
HETATM    9  C   UNL     1      -8.327   5.258  70.514  1.00  0.00    -0.112 A  
HETATM   10  C   UNL     1      -7.817   5.160  69.223  1.00  0.00    -0.080 A  
HETATM   11  O   UNL     1      -7.509   3.954  68.665  1.00  0.00    -0.054 OA 
HETATM   12  C   UNL     1      -7.607   6.294  68.459  1.00  0.00    -0.092 A  
ENDROOT
BRANCH   1  13
HETATM   13  C   UNL     1     -11.583   8.578  71.831  1.00  0.00    -0.410 A  
HETATM   14  C   UNL     1     -12.066   7.327  71.425  1.00  0.00    -0.370 A  
HETATM   15  C   UNL     1     -14.351   8.120  71.468  1.00  0.00    -0.534 A  
HETATM   16  C   UNL     1     -13.902   9.349  71.945  1.00  0.00    -0.380 A  
HETATM   17  C   UNL     1     -12.533   9.573  72.128  1.00  0.00    -0.376 A  
HETATM   18  C   UNL     1     -13.432   7.104  71.219  1.00  0.00    -0.309 A  
ENDBRANCH   1  13
BRANCH   3  19
HETATM   19  C   UNL     1      -9.928   9.768  69.534  1.00  0.00    -0.230 A  
HETATM   20  C   UNL     1     -10.527   9.056  68.490  1.00  0.00    -0.232 A  
HETATM   21  C   UNL     1     -11.134   9.699  67.430  1.00  0.00     0.004 A  
HETATM   22  C   UNL     1     -11.217  11.090  67.387  1.00  0.00    -0.285 A  
HETATM   23  C   UNL     1     -10.013  11.169  69.502  1.00  0.00     0.166 A  
HETATM   24  C   UNL     1     -10.660  11.826  68.436  1.00  0.00    -0.239 A  
BRANCH  22  25
HETATM   25  O   UNL     1     -11.830  11.783  66.361  1.00  0.00    -0.534 OA 
BRANCH  25  26
HETATM   26  C   UNL     1     -10.876  12.284  65.414  1.00  0.00    -0.286 C  
BRANCH  26  27
HETATM   27  C   UNL     1     -10.752  11.459  64.136  1.00  0.00    -0.371 C  
BRANCH  27  28
HETATM   28  N   UNL     1      -9.352  11.038  63.940  1.00  0.00    -0.218 NA 
HETATM   29  C   UNL     1      -9.073   9.660  64.356  1.00  0.00    -0.229 C  
HETATM   30  C   UNL     1      -7.747   9.372  63.686  1.00  0.00    -0.123 C  
HETATM   31  C   UNL     1      -7.872  10.069  62.343  1.00  0.00    -0.140 C  
HETATM   32  C   UNL     1      -8.910  11.169  62.554  1.00  0.00    -0.281 C  
ENDBRANCH  27  28
ENDBRANCH  26  27
ENDBRANCH  25  26
ENDBRANCH  22  25
ENDBRANCH   3  19
TORSDOF 6
ENDMDL
MODEL       59
REMARK 921   NORMALIZED FREE ENERGY PREDICTED BY IDOCK:   -5.07 KCAL/MOL
REMARK 922        TOTAL FREE ENERGY PREDICTED BY IDOCK:   -8.77 KCAL/MOL
REMARK 923 INTER-LIGAND FREE ENERGY PREDICTED BY IDOCK:   -7.56 KCAL/MOL
REMARK 924 INTRA-LIGAND FREE ENERGY PREDICTED BY IDOCK:   -1.21 KCAL/MOL
REMARK 927      BINDING AFFINITY PREDICTED BY RF-SCORE:    0.00 PKD
ROOT
HETATM    1  C   UNL     1     -10.653   9.129  67.047  1.00  0.00    -0.266 C  
HETATM    2  C   UNL     1     -10.631   7.595  67.128  1.00  0.00    -0.410 C  
HETATM    3  C   UNL     1     -10.388   9.722  68.476  1.00  0.00    -0.228 C  
HETATM    4  C   UNL     1      -9.272   7.064  67.577  1.00  0.00    -0.128 C  
HETATM    5  C   UNL     1      -9.287   8.980  69.260  1.00  0.00    -0.150 A  
HETATM    6  C   UNL     1      -8.723   7.782  68.783  1.00  0.00    -0.128 A  
HETATM    7  H   UNL     1      -5.531   7.869  71.888  1.00  0.00     0.000 HD 
HETATM    8  C   UNL     1      -8.796   9.521  70.469  1.00  0.00    -0.253 A  
HETATM    9  C   UNL     1      -7.581   7.256  69.416  1.00  0.00    -0.097 A  
HETATM   10  C   UNL     1      -7.043   7.886  70.533  1.00  0.00    -0.046 A  
HETATM   11  O   UNL     1      -5.899   7.439  71.125  1.00  0.00    -0.035 OA 
HETATM   12  C   UNL     1      -7.658   8.998  71.081  1.00  0.00    -0.130 A  
ENDROOT
BRANCH   1  13
HETATM   13  C   UNL     1      -9.827   9.633  65.857  1.00  0.00    -0.358 A  
HETATM   14  C   UNL     1     -10.302  10.560  64.919  1.00  0.00    -0.307 A  
HETATM   15  C   UNL     1      -8.284  10.363  63.602  1.00  0.00    -0.129 A  
HETATM   16  C   UNL     1      -7.758   9.498  64.558  1.00  0.00    -0.118 A  
HETATM   17  C   UNL     1      -8.521   9.140  65.675  1.00  0.00    -0.151 A  
HETATM   18  C   UNL     1      -9.554  10.904  63.790  1.00  0.00    -0.331 A  
ENDBRANCH   1  13
BRANCH   3  19
HETATM   19  C   UNL     1     -10.221  11.249  68.439  1.00  0.00    -0.205 A  
HETATM   20  C   UNL     1     -11.308  12.070  68.754  1.00  0.00    -0.331 A  
HETATM   21  C   UNL     1     -11.222  13.445  68.681  1.00  0.00    -0.304 A  
HETATM   22  C   UNL     1     -10.024  14.072  68.339  1.00  0.00    -0.236 A  
HETATM   23  C   UNL     1      -9.009  11.871  68.099  1.00  0.00    -0.185 A  
HETATM   24  C   UNL     1      -8.911  13.277  68.055  1.00  0.00    -0.191 A  
BRANCH  22  25
HETATM   25  O   UNL     1      -9.877  15.443  68.270  1.00  0.00    -0.210 OA 
BRANCH  25  26
HETATM   26  C   UNL     1      -9.240  15.849  67.050  1.00  0.00    -0.214 C  
BRANCH  26  27
HETATM   27  C   UNL     1     -10.160  16.546  66.050  1.00  0.00    -0.348 C  
BRANCH  27  28
HETATM   28  N   UNL     1      -9.828  17.980  65.973  1.00  0.00    -0.545 NA 
HETATM   29  C   UNL     1     -10.643  18.836  66.840  1.00  0.00    -0.409 C  
HETATM   30  C   UNL     1      -9.850  20.124  66.879  1.00  0.00    -0.593 C  
HETATM   31  C   UNL     1      -8.409  19.649  66.912  1.00  0.00    -0.333 C  
HETATM   32  C   UNL     1      -8.428  18.256  66.287  1.00  0.00    -0.191 C  
ENDBRANCH  27  28
ENDBRANCH  26  27
ENDBRANCH  25  26
ENDBRANCH  22  25
ENDBRANCH   3  19
TORSDOF 6
ENDMDL
MODEL       60
REMARK 921   NORMALIZED FREE ENERGY PREDICTED BY IDOCK:   -5.07 KCAL/MOL
REMARK 922        TOTAL FREE ENERGY PREDICTED BY IDOCK:   -8.77 KCAL/MOL
REMARK 923 INTER-LIGAND FREE ENERGY PREDICTED BY IDOCK:   -6.97 KCAL/MOL
REMARK 924 INTRA-LIGAND FREE ENERGY PREDICTED BY IDOCK:   -1.80 KCAL/MOL
REMARK 927      BINDING AFFINITY PREDICTED BY RF-SCORE:    0.00 PKD
ROOT
HETATM    1  C   UNL     1      -9.425  11.072  66.844  1.00  0.00    -0.197 C  
HETATM    2  C   UNL     1     -10.228  10.403  65.718  1.00  0.00    -0.305 C  
HETATM    3  C   UNL     1      -8.958  12.493  66.368  1.00  0.00    -0.077 C  
HETATM    4  C   UNL     1     -11.492  11.186  65.372  1.00  0.00     0.262 C  
HETATM    5  C   UNL     1     -10.038  13.270  65.587  1.00  0.00    -0.281 A  
HETATM    6  C   UNL     1     -11.248  12.664  65.201  1.00  0.00    -0.336 A  
HETATM    7  H   UNL     1     -12.987  16.570  63.954  1.00  0.00     0.000 HD 
HETATM    8  C   UNL     1      -9.839  14.633  65.275  1.00  0.00    -0.228 A  
HETATM    9  C   UNL     1     -12.286  13.460  64.684  1.00  0.00    -0.433 A  
HETATM   10  C   UNL     1     -12.103  14.828  64.508  1.00  0.00    -0.446 A  
HETATM   11  O   UNL     1     -13.112  15.635  64.074  1.00  0.00    -0.310 OA 
HETATM   12  C   UNL     1     -10.878  15.415  64.774  1.00  0.00    -0.385 A  
ENDROOT
BRANCH   1  13
HETATM   13  C   UNL     1     -10.137  10.927  68.194  1.00  0.00    -0.190 A  
HETATM   14  C   UNL     1      -9.680  10.098  69.228  1.00  0.00    -0.238 A  
HETATM   15  C   UNL     1     -11.622  10.599  70.580  1.00  0.00    -0.444 A  
HETATM   16  C   UNL     1     -12.060  11.487  69.600  1.00  0.00    -0.363 A  
HETATM   17  C   UNL     1     -11.323  11.651  68.422  1.00  0.00    -0.339 A  
HETATM   18  C   UNL     1     -10.424   9.913  70.398  1.00  0.00    -0.347 A  
ENDBRANCH   1  13
BRANCH   3  19
HETATM   19  C   UNL     1      -8.301  13.290  67.505  1.00  0.00    -0.186 A  
HETATM   20  C   UNL     1      -9.059  14.222  68.222  1.00  0.00    -0.188 A  
HETATM   21  C   UNL     1      -8.499  15.001  69.214  1.00  0.00    -0.167 A  
HETATM   22  C   UNL     1      -7.161  14.848  69.576  1.00  0.00    -0.184 A  
HETATM   23  C   UNL     1      -6.955  13.127  67.866  1.00  0.00    -0.132 A  
HETATM   24  C   UNL     1      -6.390  13.899  68.902  1.00  0.00    -0.094 A  
BRANCH  22  25
HETATM   25  O   UNL     1      -6.555  15.587  70.574  1.00  0.00     0.091 OA 
BRANCH  25  26
HETATM   26  C   UNL     1      -5.542  16.458  70.051  1.00  0.00    -0.191 C  
BRANCH  26  27
HETATM   27  C   UNL     1      -6.010  17.882  69.765  1.00  0.00    -0.230 C  
BRANCH  27  28
HETATM   28  N   UNL     1      -6.045  18.119  68.310  1.00  0.00    -0.181 NA 
HETATM   29  C   UNL     1      -5.152  17.253  67.536  1.00  0.00    -0.118 C  
HETATM   30  C   UNL     1      -5.676  17.409  66.124  1.00  0.00    -0.172 C  
HETATM   31  C   UNL     1      -7.180  17.481  66.315  1.00  0.00    -0.351 C  
HETATM   32  C   UNL     1      -7.384  17.974  67.745  1.00  0.00    -0.213 C  
ENDBRANCH  27  28
ENDBRANCH  26  27
ENDBRANCH  25  26
ENDBRANCH  22  25
ENDBRANCH   3  19
TORSDOF 6
ENDMDL
MODEL       61
REMARK 921   NORMALIZED FREE ENERGY PREDICTED BY IDOCK:   -5.06 KCAL/MOL
REMARK 922        TOTAL FREE ENERGY PREDICTED BY IDOCK:   -8.77 KCAL/MOL
REMARK 923 INTER-LIGAND FREE ENERGY PREDICTED BY IDOCK:   -7.49 KCAL/MOL
REMARK 924 INTRA-LIGAND FREE ENERGY PREDICTED BY IDOCK:   -1.28 KCAL/MOL
REMARK 927      BINDING AFFINITY PREDICTED BY RF-SCORE:    0.00 PKD
ROOT
HETATM    1  C   UNL     1     -10.258  16.391  67.429  1.00  0.00    -0.281 C  
HETATM    2  C   UNL     1     -10.714  17.819  67.094  1.00  0.00    -0.222 C  
HETATM    3  C   UNL     1      -8.692  16.319  67.346  1.00  0.00    -0.196 C  
HETATM    4  C   UNL     1     -10.176  18.841  68.092  1.00  0.00    -0.433 C  
HETATM    5  C   UNL     1      -7.983  17.546  67.955  1.00  0.00    -0.227 A  
HETATM    6  C   UNL     1      -8.703  18.682  68.370  1.00  0.00    -0.361 A  
HETATM    7  H   UNL     1      -5.113  20.422  70.350  1.00  0.00     0.000 HD 
HETATM    8  C   UNL     1      -6.583  17.532  68.140  1.00  0.00    -0.186 A  
HETATM    9  C   UNL     1      -8.047  19.683  69.111  1.00  0.00    -0.128 A  
HETATM   10  C   UNL     1      -6.688  19.576  69.388  1.00  0.00    -0.337 A  
HETATM   11  O   UNL     1      -6.041  20.495  70.160  1.00  0.00    -0.419 OA 
HETATM   12  C   UNL     1      -5.946  18.522  68.884  1.00  0.00    -0.222 A  
ENDROOT
BRANCH   1  13
HETATM   13  C   UNL     1     -10.972  15.859  68.677  1.00  0.00    -0.320 A  
HETATM   14  C   UNL     1     -10.935  16.499  69.924  1.00  0.00    -0.273 A  
HETATM   15  C   UNL     1     -12.180  14.701  70.958  1.00  0.00    -0.399 A  
HETATM   16  C   UNL     1     -12.296  14.083  69.716  1.00  0.00    -0.344 A  
HETATM   17  C   UNL     1     -11.701  14.658  68.587  1.00  0.00    -0.362 A  
HETATM   18  C   UNL     1     -11.508  15.917  71.059  1.00  0.00    -0.461 A  
ENDBRANCH   1  13
BRANCH   3  19
HETATM   19  C   UNL     1      -8.155  14.967  67.840  1.00  0.00    -0.142 A  
HETATM   20  C   UNL     1      -8.460  13.802  67.130  1.00  0.00    -0.189 A  
HETATM   21  C   UNL     1      -8.047  12.559  67.565  1.00  0.00    -0.176 A  
HETATM   22  C   UNL     1      -7.261  12.425  68.709  1.00  0.00    -0.094 A  
HETATM   23  C   UNL     1      -7.359  14.841  68.990  1.00  0.00    -0.139 A  
HETATM   24  C   UNL     1      -6.909  13.575  69.418  1.00  0.00    -0.010 A  
BRANCH  22  25
HETATM   25  O   UNL     1      -6.804  11.208  69.177  1.00  0.00    -0.082 OA 
BRANCH  25  26
HETATM   26  C   UNL     1      -7.549  10.112  68.627  1.00  0.00    -0.086 C  
BRANCH  26  27
HETATM   27  C   UNL     1      -8.546   9.471  69.589  1.00  0.00    -0.183 C  
BRANCH  27  28
HETATM   28  N   UNL     1      -9.662   8.873  68.834  1.00  0.00    -0.168 NA 
HETATM   29  C   UNL     1      -9.357   8.588  67.429  1.00  0.00    -0.148 C  
HETATM   30  C   UNL     1     -10.469   7.642  67.031  1.00  0.00    -0.419 C  
HETATM   31  C   UNL     1     -10.661   6.785  68.268  1.00  0.00    -0.290 C  
HETATM   32  C   UNL     1     -10.148   7.631  69.431  1.00  0.00    -0.196 C  
ENDBRANCH  27  28
ENDBRANCH  26  27
ENDBRANCH  25  26
ENDBRANCH  22  25
ENDBRANCH   3  19
TORSDOF 6
ENDMDL
MODEL       62
REMARK 921   NORMALIZED FREE ENERGY PREDICTED BY IDOCK:   -5.06 KCAL/MOL
REMARK 922        TOTAL FREE ENERGY PREDICTED BY IDOCK:   -8.77 KCAL/MOL
REMARK 923 INTER-LIGAND FREE ENERGY PREDICTED BY IDOCK:   -8.04 KCAL/MOL
REMARK 924 INTRA-LIGAND FREE ENERGY PREDICTED BY IDOCK:   -0.72 KCAL/MOL
REMARK 927      BINDING AFFINITY PREDICTED BY RF-SCORE:    0.00 PKD
ROOT
HETATM    1  C   UNL     1     -10.353  12.219  67.573  1.00  0.00    -0.214 C  
HETATM    2  C   UNL     1     -10.734  10.786  67.170  1.00  0.00    -0.324 C  
HETATM    3  C   UNL     1      -8.828  12.260  67.945  1.00  0.00    -0.178 C  
HETATM    4  C   UNL     1      -9.969  10.317  65.935  1.00  0.00    -0.321 C  
HETATM    5  C   UNL     1      -7.937  11.435  66.994  1.00  0.00    -0.158 A  
HETATM    6  C   UNL     1      -8.490  10.595  66.009  1.00  0.00    -0.165 A  
HETATM    7  H   UNL     1      -4.512   9.943  64.114  1.00  0.00     0.000 HD 
HETATM    8  C   UNL     1      -6.531  11.542  67.075  1.00  0.00    -0.134 A  
HETATM    9  C   UNL     1      -7.650  10.032  65.031  1.00  0.00    -0.139 A  
HETATM   10  C   UNL     1      -6.278  10.262  65.064  1.00  0.00    -0.125 A  
HETATM   11  O   UNL     1      -5.449   9.786  64.092  1.00  0.00    -0.066 OA 
HETATM   12  C   UNL     1      -5.710  10.989  66.095  1.00  0.00    -0.143 A  
ENDROOT
BRANCH   1  13
HETATM   13  C   UNL     1     -10.914  13.242  66.579  1.00  0.00    -0.299 A  
HETATM   14  C   UNL     1     -12.276  13.553  66.471  1.00  0.00    -0.433 A  
HETATM   15  C   UNL     1     -11.861  15.018  64.591  1.00  0.00    -0.378 A  
HETATM   16  C   UNL     1     -10.495  14.784  64.726  1.00  0.00    -0.317 A  
HETATM   17  C   UNL     1     -10.027  13.908  65.712  1.00  0.00    -0.304 A  
HETATM   18  C   UNL     1     -12.751  14.410  65.473  1.00  0.00    -0.308 A  
ENDBRANCH   1  13
BRANCH   3  19
HETATM   19  C   UNL     1      -8.338  13.695  68.188  1.00  0.00    -0.166 A  
HETATM   20  C   UNL     1      -7.141  14.123  67.606  1.00  0.00    -0.199 A  
HETATM   21  C   UNL     1      -6.632  15.384  67.841  1.00  0.00    -0.169 A  
HETATM   22  C   UNL     1      -7.325  16.302  68.631  1.00  0.00    -0.180 A  
HETATM   23  C   UNL     1      -9.044  14.614  68.980  1.00  0.00    -0.097 A  
HETATM   24  C   UNL     1      -8.542  15.914  69.195  1.00  0.00    -0.252 A  
BRANCH  22  25
HETATM   25  O   UNL     1      -6.872  17.582  68.882  1.00  0.00    -0.225 OA 
BRANCH  25  26
HETATM   26  C   UNL     1      -6.975  18.420  67.722  1.00  0.00    -0.213 C  
BRANCH  26  27
HETATM   27  C   UNL     1      -7.321  19.878  68.016  1.00  0.00    -0.297 C  
BRANCH  27  28
HETATM   28  N   UNL     1      -8.672  20.188  67.512  1.00  0.00    -0.339 NA 
HETATM   29  C   UNL     1      -8.933  19.707  66.152  1.00  0.00    -0.334 C  
HETATM   30  C   UNL     1     -10.442  19.781  66.056  1.00  0.00    -0.609 C  
HETATM   31  C   UNL     1     -10.903  19.354  67.438  1.00  0.00    -0.555 C  
HETATM   32  C   UNL     1      -9.732  19.660  68.367  1.00  0.00    -0.403 C  
ENDBRANCH  27  28
ENDBRANCH  26  27
ENDBRANCH  25  26
ENDBRANCH  22  25
ENDBRANCH   3  19
TORSDOF 6
ENDMDL
MODEL       63
REMARK 921   NORMALIZED FREE ENERGY PREDICTED BY IDOCK:   -5.04 KCAL/MOL
REMARK 922        TOTAL FREE ENERGY PREDICTED BY IDOCK:   -8.73 KCAL/MOL
REMARK 923 INTER-LIGAND FREE ENERGY PREDICTED BY IDOCK:   -6.55 KCAL/MOL
REMARK 924 INTRA-LIGAND FREE ENERGY PREDICTED BY IDOCK:   -2.18 KCAL/MOL
REMARK 927      BINDING AFFINITY PREDICTED BY RF-SCORE:    0.00 PKD
ROOT
HETATM    1  C   UNL     1      -9.649  14.066  66.574  1.00  0.00    -0.307 C  
HETATM    2  C   UNL     1      -9.784  15.597  66.574  1.00  0.00    -0.286 C  
HETATM    3  C   UNL     1      -9.679  13.548  68.055  1.00  0.00    -0.228 C  
HETATM    4  C   UNL     1     -11.113  16.054  67.171  1.00  0.00    -0.104 C  
HETATM    5  C   UNL     1     -10.727  14.255  68.938  1.00  0.00    -0.268 A  
HETATM    6  C   UNL     1     -11.443  15.376  68.476  1.00  0.00    -0.360 A  
HETATM    7  H   UNL     1     -14.193  15.252  71.978  1.00  0.00     0.000 HD 
HETATM    8  C   UNL     1     -11.013  13.758  70.228  1.00  0.00     0.522 A  
HETATM    9  C   UNL     1     -12.533  15.855  69.226  1.00  0.00     0.263 A  
HETATM   10  C   UNL     1     -12.871  15.260  70.437  1.00  0.00    -0.317 A  
HETATM   11  O   UNL     1     -13.962  15.659  71.151  1.00  0.00    -0.564 OA 
HETATM   12  C   UNL     1     -12.102  14.233  70.957  1.00  0.00    -0.416 A  
ENDROOT
BRANCH   1  13
HETATM   13  C   UNL     1     -10.576  13.428  65.533  1.00  0.00    -0.294 A  
HETATM   14  C   UNL     1     -11.961  13.636  65.495  1.00  0.00    -0.409 A  
HETATM   15  C   UNL     1     -12.217  12.063  63.676  1.00  0.00    -0.642 A  
HETATM   16  C   UNL     1     -10.835  11.896  63.643  1.00  0.00    -0.510 A  
HETATM   17  C   UNL     1     -10.024  12.575  64.559  1.00  0.00    -0.195 A  
HETATM   18  C   UNL     1     -12.779  12.944  64.597  1.00  0.00    -0.403 A  
ENDBRANCH   1  13
BRANCH   3  19
HETATM   19  C   UNL     1      -9.725  12.014  68.123  1.00  0.00    -0.199 A  
HETATM   20  C   UNL     1      -8.555  11.300  68.402  1.00  0.00    -0.155 A  
HETATM   21  C   UNL     1      -8.535   9.920  68.418  1.00  0.00    -0.111 A  
HETATM   22  C   UNL     1      -9.701   9.183  68.207  1.00  0.00    -0.154 A  
HETATM   23  C   UNL     1     -10.904  11.280  67.915  1.00  0.00    -0.278 A  
HETATM   24  C   UNL     1     -10.891   9.871  67.963  1.00  0.00    -0.294 A  
BRANCH  22  25
HETATM   25  O   UNL     1      -9.741   7.803  68.231  1.00  0.00    -0.153 OA 
BRANCH  25  26
HETATM   26  C   UNL     1      -8.717   7.225  67.409  1.00  0.00    -0.121 C  
BRANCH  26  27
HETATM   27  C   UNL     1      -9.071   7.120  65.928  1.00  0.00    -0.013 C  
BRANCH  27  28
HETATM   28  N   UNL     1      -8.076   7.847  65.118  1.00  0.00    -0.138 NA 
HETATM   29  C   UNL     1      -8.580   9.080  64.506  1.00  0.00    -0.156 C  
HETATM   30  C   UNL     1      -7.309   9.801  64.111  1.00  0.00    -0.128 C  
HETATM   31  C   UNL     1      -6.362   9.497  65.257  1.00  0.00    -0.073 C  
HETATM   32  C   UNL     1      -6.877   8.200  65.876  1.00  0.00    -0.060 C  
ENDBRANCH  27  28
ENDBRANCH  26  27
ENDBRANCH  25  26
ENDBRANCH  22  25
ENDBRANCH   3  19
TORSDOF 6
ENDMDL
MODEL       64
REMARK 921   NORMALIZED FREE ENERGY PREDICTED BY IDOCK:   -5.03 KCAL/MOL
REMARK 922        TOTAL FREE ENERGY PREDICTED BY IDOCK:   -8.72 KCAL/MOL
REMARK 923 INTER-LIGAND FREE ENERGY PREDICTED BY IDOCK:   -7.61 KCAL/MOL
REMARK 924 INTRA-LIGAND FREE ENERGY PREDICTED BY IDOCK:   -1.11 KCAL/MOL
REMARK 927      BINDING AFFINITY PREDICTED BY RF-SCORE:    0.00 PKD
ROOT
HETATM    1  C   UNL     1     -10.051  13.546  67.931  1.00  0.00    -0.248 C  
HETATM    2  C   UNL     1     -10.647  14.342  69.102  1.00  0.00    -0.229 C  
HETATM    3  C   UNL     1      -9.632  12.121  68.439  1.00  0.00    -0.186 C  
HETATM    4  C   UNL     1     -11.910  13.687  69.656  1.00  0.00    -0.396 C  
HETATM    5  C   UNL     1     -10.655  11.481  69.400  1.00  0.00    -0.056 A  
HETATM    6  C   UNL     1     -11.756  12.206  69.893  1.00  0.00    -0.361 A  
HETATM    7  H   UNL     1     -13.601   8.534  71.609  1.00  0.00     0.000 HD 
HETATM    8  C   UNL     1     -10.519  10.126  69.775  1.00  0.00    -0.301 A  
HETATM    9  C   UNL     1     -12.774  11.528  70.590  1.00  0.00    -0.259 A  
HETATM   10  C   UNL     1     -12.671  10.162  70.832  1.00  0.00    -0.357 A  
HETATM   11  O   UNL     1     -13.671   9.467  71.444  1.00  0.00    -0.359 OA 
HETATM   12  C   UNL     1     -11.538   9.463  70.455  1.00  0.00    -0.241 A  
ENDROOT
BRANCH   1  13
HETATM   13  C   UNL     1     -10.921  13.672  66.675  1.00  0.00    -0.295 A  
HETATM   14  C   UNL     1     -11.808  12.678  66.241  1.00  0.00    -0.471 A  
HETATM   15  C   UNL     1     -12.349  13.935  64.247  1.00  0.00    -0.390 A  
HETATM   16  C   UNL     1     -11.532  14.971  64.693  1.00  0.00    -0.382 A  
HETATM   17  C   UNL     1     -10.829  14.842  65.895  1.00  0.00    -0.331 A  
HETATM   18  C   UNL     1     -12.496  12.792  65.029  1.00  0.00    -0.572 A  
ENDBRANCH   1  13
BRANCH   3  19
HETATM   19  C   UNL     1      -9.191  11.209  67.284  1.00  0.00    -0.166 A  
HETATM   20  C   UNL     1      -7.935  11.397  66.699  1.00  0.00    -0.148 A  
HETATM   21  C   UNL     1      -7.517  10.640  65.623  1.00  0.00    -0.093 A  
HETATM   22  C   UNL     1      -8.317   9.618  65.112  1.00  0.00    -0.137 A  
HETATM   23  C   UNL     1     -10.000  10.179  66.780  1.00  0.00    -0.266 A  
HETATM   24  C   UNL     1      -9.561   9.383  65.702  1.00  0.00    -0.345 A  
BRANCH  22  25
HETATM   25  O   UNL     1      -7.940   8.817  64.051  1.00  0.00    -0.139 OA 
BRANCH  25  26
HETATM   26  C   UNL     1      -7.326   7.599  64.495  1.00  0.00    -0.086 C  
BRANCH  26  27
HETATM   27  C   UNL     1      -7.814   6.340  63.784  1.00  0.00    -0.111 C  
BRANCH  27  28
HETATM   28  N   UNL     1      -8.347   5.379  64.767  1.00  0.00    -0.142 NA 
HETATM   29  C   UNL     1      -9.283   5.961  65.733  1.00  0.00    -0.041 C  
HETATM   30  C   UNL     1      -9.962   4.740  66.317  1.00  0.00    -0.264 C  
HETATM   31  C   UNL     1     -10.110   3.816  65.122  1.00  0.00    -0.090 C  
HETATM   32  C   UNL     1      -9.022   4.244  64.141  1.00  0.00    -0.148 C  
ENDBRANCH  27  28
ENDBRANCH  26  27
ENDBRANCH  25  26
ENDBRANCH  22  25
ENDBRANCH   3  19
TORSDOF 6
ENDMDL
MODEL       65
REMARK 921   NORMALIZED FREE ENERGY PREDICTED BY IDOCK:   -5.01 KCAL/MOL
REMARK 922        TOTAL FREE ENERGY PREDICTED BY IDOCK:   -8.70 KCAL/MOL
REMARK 923 INTER-LIGAND FREE ENERGY PREDICTED BY IDOCK:   -7.29 KCAL/MOL
REMARK 924 INTRA-LIGAND FREE ENERGY PREDICTED BY IDOCK:   -1.41 KCAL/MOL
REMARK 927      BINDING AFFINITY PREDICTED BY RF-SCORE:    0.00 PKD
ROOT
HETATM    1  C   UNL     1      -9.630  13.817  66.405  1.00  0.00    -0.285 C  
HETATM    2  C   UNL     1      -9.699  15.352  66.405  1.00  0.00    -0.311 C  
HETATM    3  C   UNL     1      -9.665  13.302  67.888  1.00  0.00    -0.224 C  
HETATM    4  C   UNL     1     -10.999  15.867  67.017  1.00  0.00    -0.189 C  
HETATM    5  C   UNL     1     -10.670  14.055  68.781  1.00  0.00    -0.272 A  
HETATM    6  C   UNL     1     -11.343  15.205  68.327  1.00  0.00    -0.338 A  
HETATM    7  H   UNL     1     -14.054  15.205  71.861  1.00  0.00     0.000 HD 
HETATM    8  C   UNL     1     -10.963  13.572  70.076  1.00  0.00     0.394 A  
HETATM    9  C   UNL     1     -12.402  15.732  69.088  1.00  0.00     0.049 A  
HETATM   10  C   UNL     1     -12.751  15.153  70.304  1.00  0.00    -0.299 A  
HETATM   11  O   UNL     1     -13.815  15.600  71.030  1.00  0.00    -0.567 OA 
HETATM   12  C   UNL     1     -12.021  14.095  70.817  1.00  0.00    -0.377 A  
ENDROOT
BRANCH   1  13
HETATM   13  C   UNL     1     -10.596  13.218  65.377  1.00  0.00    -0.304 A  
HETATM   14  C   UNL     1     -11.991  13.305  65.479  1.00  0.00    -0.445 A  
HETATM   15  C   UNL     1     -12.289  11.927  63.514  1.00  0.00    -0.603 A  
HETATM   16  C   UNL     1     -10.907  11.889  63.346  1.00  0.00    -0.469 A  
HETATM   17  C   UNL     1     -10.071  12.531  64.266  1.00  0.00    -0.298 A  
HETATM   18  C   UNL     1     -12.832  12.647  64.575  1.00  0.00    -0.356 A  
ENDBRANCH   1  13
BRANCH   3  19
HETATM   19  C   UNL     1      -9.776  11.771  67.958  1.00  0.00    -0.185 A  
HETATM   20  C   UNL     1      -8.616  10.992  67.919  1.00  0.00    -0.133 A  
HETATM   21  C   UNL     1      -8.669   9.613  67.923  1.00  0.00    -0.119 A  
HETATM   22  C   UNL     1      -9.888   8.943  68.021  1.00  0.00    -0.168 A  
HETATM   23  C   UNL     1     -11.008  11.104  68.063  1.00  0.00    -0.307 A  
HETATM   24  C   UNL     1     -11.061   9.696  68.100  1.00  0.00    -0.109 A  
BRANCH  22  25
HETATM   25  O   UNL     1      -9.997   7.566  68.050  1.00  0.00    -0.159 OA 
BRANCH  25  26
HETATM   26  C   UNL     1     -10.740   7.068  66.928  1.00  0.00    -0.306 C  
BRANCH  26  27
HETATM   27  C   UNL     1     -10.731   5.549  66.779  1.00  0.00    -0.253 C  
BRANCH  27  28
HETATM   28  N   UNL     1      -9.639   5.136  65.880  1.00  0.00    -0.159 NA 
HETATM   29  C   UNL     1      -8.427   4.684  66.570  1.00  0.00    -0.109 C  
HETATM   30  C   UNL     1      -7.671   3.959  65.478  1.00  0.00    -0.085 C  
HETATM   31  C   UNL     1      -8.768   3.260  64.696  1.00  0.00    -0.103 C  
HETATM   32  C   UNL     1     -10.033   4.072  64.960  1.00  0.00    -0.201 C  
ENDBRANCH  27  28
ENDBRANCH  26  27
ENDBRANCH  25  26
ENDBRANCH  22  25
ENDBRANCH   3  19
TORSDOF 6
ENDMDL
MODEL       66
REMARK 921   NORMALIZED FREE ENERGY PREDICTED BY IDOCK:   -5.00 KCAL/MOL
REMARK 922        TOTAL FREE ENERGY PREDICTED BY IDOCK:   -8.68 KCAL/MOL
REMARK 923 INTER-LIGAND FREE ENERGY PREDICTED BY IDOCK:   -6.89 KCAL/MOL
REMARK 924 INTRA-LIGAND FREE ENERGY PREDICTED BY IDOCK:   -1.79 KCAL/MOL
REMARK 927      BINDING AFFINITY PREDICTED BY RF-SCORE:    0.00 PKD
ROOT
HETATM    1  C   UNL     1     -10.969  12.005  66.588  1.00  0.00    -0.330 C  
HETATM    2  C   UNL     1     -12.114  12.861  66.025  1.00  0.00    -0.484 C  
HETATM    3  C   UNL     1      -9.606  12.743  66.341  1.00  0.00    -0.254 C  
HETATM    4  C   UNL     1     -12.215  14.214  66.725  1.00  0.00    -0.429 C  
HETATM    5  C   UNL     1      -9.668  14.261  66.601  1.00  0.00    -0.297 A  
HETATM    6  C   UNL     1     -10.887  14.916  66.858  1.00  0.00    -0.319 A  
HETATM    7  H   UNL     1      -8.803  18.678  68.013  1.00  0.00     0.000 HD 
HETATM    8  C   UNL     1      -8.479  15.023  66.622  1.00  0.00    -0.192 A  
HETATM    9  C   UNL     1     -10.875  16.252  67.298  1.00  0.00    -0.216 A  
HETATM   10  C   UNL     1      -9.673  16.938  67.432  1.00  0.00    -0.247 A  
HETATM   11  O   UNL     1      -9.625  18.210  67.922  1.00  0.00    -0.274 OA 
HETATM   12  C   UNL     1      -8.477  16.342  67.071  1.00  0.00    -0.232 A  
ENDROOT
BRANCH   1  13
HETATM   13  C   UNL     1     -11.303  11.488  67.993  1.00  0.00    -0.368 A  
HETATM   14  C   UNL     1     -11.817  12.297  69.016  1.00  0.00    -0.358 A  
HETATM   15  C   UNL     1     -11.719  10.471  70.600  1.00  0.00    -0.453 A  
HETATM   16  C   UNL     1     -11.279   9.628  69.582  1.00  0.00    -0.176 A  
HETATM   17  C   UNL     1     -11.077  10.131  68.292  1.00  0.00    -0.285 A  
HETATM   18  C   UNL     1     -11.999  11.805  70.312  1.00  0.00    -0.429 A  
ENDBRANCH   1  13
BRANCH   3  19
HETATM   19  C   UNL     1      -8.435  12.028  67.034  1.00  0.00    -0.183 A  
HETATM   20  C   UNL     1      -7.773  10.989  66.374  1.00  0.00    -0.146 A  
HETATM   21  C   UNL     1      -6.753  10.281  66.976  1.00  0.00    -0.079 A  
HETATM   22  C   UNL     1      -6.308  10.614  68.256  1.00  0.00    -0.054 A  
HETATM   23  C   UNL     1      -7.991  12.373  68.320  1.00  0.00    -0.160 A  
HETATM   24  C   UNL     1      -6.927  11.672  68.925  1.00  0.00    -0.109 A  
BRANCH  22  25
HETATM   25  O   UNL     1      -5.280   9.953  68.898  1.00  0.00    -0.036 OA 
BRANCH  25  26
HETATM   26  C   UNL     1      -5.685   8.654  69.355  1.00  0.00    -0.034 C  
BRANCH  26  27
HETATM   27  C   UNL     1      -5.932   8.554  70.858  1.00  0.00    -0.034 C  
BRANCH  27  28
HETATM   28  N   UNL     1      -7.247   7.938  71.114  1.00  0.00    -0.056 NA 
HETATM   29  C   UNL     1      -7.250   6.953  72.200  1.00  0.00    -0.082 C  
HETATM   30  C   UNL     1      -8.724   6.805  72.511  1.00  0.00    -0.129 C  
HETATM   31  C   UNL     1      -9.259   8.218  72.360  1.00  0.00    -0.326 C  
HETATM   32  C   UNL     1      -8.284   8.921  71.419  1.00  0.00    -0.120 C  
ENDBRANCH  27  28
ENDBRANCH  26  27
ENDBRANCH  25  26
ENDBRANCH  22  25
ENDBRANCH   3  19
TORSDOF 6
ENDMDL
MODEL       67
REMARK 921   NORMALIZED FREE ENERGY PREDICTED BY IDOCK:   -4.98 KCAL/MOL
REMARK 922        TOTAL FREE ENERGY PREDICTED BY IDOCK:   -8.65 KCAL/MOL
REMARK 923 INTER-LIGAND FREE ENERGY PREDICTED BY IDOCK:   -7.81 KCAL/MOL
REMARK 924 INTRA-LIGAND FREE ENERGY PREDICTED BY IDOCK:   -0.84 KCAL/MOL
REMARK 927      BINDING AFFINITY PREDICTED BY RF-SCORE:    0.00 PKD
ROOT
HETATM    1  C   UNL     1     -10.547  15.147  68.739  1.00  0.00    -0.236 C  
HETATM    2  C   UNL     1     -11.024  16.435  68.050  1.00  0.00    -0.327 C  
HETATM    3  C   UNL     1     -11.485  13.961  68.318  1.00  0.00    -0.346 C  
HETATM    4  C   UNL     1     -10.945  16.333  66.528  1.00  0.00    -0.007 C  
HETATM    5  C   UNL     1     -11.864  13.972  66.823  1.00  0.00    -0.450 A  
HETATM    6  C   UNL     1     -11.532  15.054  65.987  1.00  0.00    -0.221 A  
HETATM    7  H   UNL     1     -12.728  12.799  62.337  1.00  0.00     0.000 HD 
HETATM    8  C   UNL     1     -12.527  12.862  66.255  1.00  0.00    -0.007 A  
HETATM    9  C   UNL     1     -11.704  14.930  64.596  1.00  0.00    -0.406 A  
HETATM   10  C   UNL     1     -12.244  13.768  64.054  1.00  0.00    -0.380 A  
HETATM   11  O   UNL     1     -12.360  13.593  62.707  1.00  0.00    -0.360 OA 
HETATM   12  C   UNL     1     -12.683  12.745  64.876  1.00  0.00    -0.479 A  
ENDROOT
BRANCH   1  13
HETATM   13  C   UNL     1      -9.027  14.985  68.619  1.00  0.00    -0.186 A  
HETATM   14  C   UNL     1      -8.360  14.799  67.401  1.00  0.00    -0.218 A  
HETATM   15  C   UNL     1      -6.238  14.522  68.529  1.00  0.00    -0.089 A  
HETATM   16  C   UNL     1      -6.865  14.779  69.745  1.00  0.00    -0.173 A  
HETATM   17  C   UNL     1      -8.244  15.012  69.789  1.00  0.00     0.073 A  
HETATM   18  C   UNL     1      -6.985  14.544  67.354  1.00  0.00    -0.106 A  
ENDBRANCH   1  13
BRANCH   3  19
HETATM   19  C   UNL     1     -10.963  12.610  68.830  1.00  0.00    -0.289 A  
HETATM   20  C   UNL     1      -9.834  12.036  68.236  1.00  0.00    -0.204 A  
HETATM   21  C   UNL     1      -9.361  10.799  68.623  1.00  0.00    -0.184 A  
HETATM   22  C   UNL     1      -9.964  10.096  69.666  1.00  0.00    -0.232 A  
HETATM   23  C   UNL     1     -11.573  11.911  69.883  1.00  0.00    -0.333 A  
HETATM   24  C   UNL     1     -11.071  10.662  70.302  1.00  0.00    -0.310 A  
BRANCH  22  25
HETATM   25  O   UNL     1      -9.521   8.864  70.107  1.00  0.00    -0.164 OA 
BRANCH  25  26
HETATM   26  C   UNL     1     -10.581   7.898  70.144  1.00  0.00    -0.237 C  
BRANCH  26  27
HETATM   27  C   UNL     1     -10.817   7.262  71.511  1.00  0.00    -0.224 C  
BRANCH  27  28
HETATM   28  N   UNL     1     -12.157   7.623  72.012  1.00  0.00    -0.295 NA 
HETATM   29  C   UNL     1     -12.319   9.046  72.327  1.00  0.00    -0.332 C  
HETATM   30  C   UNL     1     -13.823   9.200  72.406  1.00  0.00    -0.524 C  
HETATM   31  C   UNL     1     -14.327   8.296  71.296  1.00  0.00    -0.360 C  
HETATM   32  C   UNL     1     -13.225   7.262  71.084  1.00  0.00    -0.205 C  
ENDBRANCH  27  28
ENDBRANCH  26  27
ENDBRANCH  25  26
ENDBRANCH  22  25
ENDBRANCH   3  19
TORSDOF 6
ENDMDL
MODEL       68
REMARK 921   NORMALIZED FREE ENERGY PREDICTED BY IDOCK:   -4.96 KCAL/MOL
REMARK 922        TOTAL FREE ENERGY PREDICTED BY IDOCK:   -8.63 KCAL/MOL
REMARK 923 INTER-LIGAND FREE ENERGY PREDICTED BY IDOCK:   -7.11 KCAL/MOL
REMARK 924 INTRA-LIGAND FREE ENERGY PREDICTED BY IDOCK:   -1.52 KCAL/MOL
REMARK 927      BINDING AFFINITY PREDICTED BY RF-SCORE:    0.00 PKD
ROOT
HETATM    1  C   UNL     1     -10.255   9.435  67.297  1.00  0.00    -0.308 C  
HETATM    2  C   UNL     1     -10.084   7.910  67.362  1.00  0.00    -0.292 C  
HETATM    3  C   UNL     1     -11.370   9.871  68.313  1.00  0.00    -0.045 C  
HETATM    4  C   UNL     1      -9.626   7.444  68.742  1.00  0.00    -0.147 C  
HETATM    5  C   UNL     1     -11.298   9.134  69.665  1.00  0.00     0.068 A  
HETATM    6  C   UNL     1     -10.419   8.054  69.869  1.00  0.00    -0.233 A  
HETATM    7  H   UNL     1     -11.220   8.029  74.250  1.00  0.00     0.000 HD 
HETATM    8  C   UNL     1     -12.099   9.563  70.746  1.00  0.00    -0.305 A  
HETATM    9  C   UNL     1     -10.231   7.552  71.170  1.00  0.00    -0.199 A  
HETATM   10  C   UNL     1     -10.944   8.085  72.240  1.00  0.00    -0.314 A  
HETATM   11  O   UNL     1     -10.733   7.666  73.520  1.00  0.00    -0.348 OA 
HETATM   12  C   UNL     1     -11.896   9.067  72.032  1.00  0.00    -0.426 A  
ENDROOT
BRANCH   1  13
HETATM   13  C   UNL     1      -8.897  10.147  67.317  1.00  0.00    -0.137 A  
HETATM   14  C   UNL     1      -8.310  10.666  68.479  1.00  0.00    -0.130 A  
HETATM   15  C   UNL     1      -6.470  11.595  67.215  1.00  0.00    -0.120 A  
HETATM   16  C   UNL     1      -6.993  11.025  66.057  1.00  0.00    -0.014 A  
HETATM   17  C   UNL     1      -8.192  10.306  66.109  1.00  0.00    -0.138 A  
HETATM   18  C   UNL     1      -7.124  11.404  68.430  1.00  0.00    -0.079 A  
ENDBRANCH   1  13
BRANCH   3  19
HETATM   19  C   UNL     1     -11.472  11.400  68.429  1.00  0.00    -0.367 A  
HETATM   20  C   UNL     1     -11.614  12.171  67.271  1.00  0.00    -0.404 A  
HETATM   21  C   UNL     1     -11.653  13.550  67.320  1.00  0.00    -0.398 A  
HETATM   22  C   UNL     1     -11.606  14.226  68.539  1.00  0.00    -0.320 A  
HETATM   23  C   UNL     1     -11.429  12.071  69.661  1.00  0.00    -0.322 A  
HETATM   24  C   UNL     1     -11.502  13.478  69.715  1.00  0.00    -0.246 A  
BRANCH  22  25
HETATM   25  O   UNL     1     -11.662  15.602  68.648  1.00  0.00    -0.366 OA 
BRANCH  25  26
HETATM   26  C   UNL     1     -10.554  16.232  67.991  1.00  0.00    -0.308 C  
BRANCH  26  27
HETATM   27  C   UNL     1      -9.804  17.254  68.842  1.00  0.00    -0.286 C  
BRANCH  27  28
HETATM   28  N   UNL     1      -8.407  16.824  69.034  1.00  0.00    -0.209 NA 
HETATM   29  C   UNL     1      -8.252  15.401  69.350  1.00  0.00    -0.250 C  
HETATM   30  C   UNL     1      -6.781  15.158  69.088  1.00  0.00    -0.130 C  
HETATM   31  C   UNL     1      -6.498  16.008  67.863  1.00  0.00    -0.160 C  
HETATM   32  C   UNL     1      -7.563  17.102  67.874  1.00  0.00    -0.175 C  
ENDBRANCH  27  28
ENDBRANCH  26  27
ENDBRANCH  25  26
ENDBRANCH  22  25
ENDBRANCH   3  19
TORSDOF 6
ENDMDL
MODEL       69
REMARK 921   NORMALIZED FREE ENERGY PREDICTED BY IDOCK:   -4.96 KCAL/MOL
REMARK 922        TOTAL FREE ENERGY PREDICTED BY IDOCK:   -8.63 KCAL/MOL
REMARK 923 INTER-LIGAND FREE ENERGY PREDICTED BY IDOCK:   -7.10 KCAL/MOL
REMARK 924 INTRA-LIGAND FREE ENERGY PREDICTED BY IDOCK:   -1.53 KCAL/MOL
REMARK 927      BINDING AFFINITY PREDICTED BY RF-SCORE:    0.00 PKD
ROOT
HETATM    1  C   UNL     1      -9.062  14.027  68.447  1.00  0.00    -0.191 C  
HETATM    2  C   UNL     1      -8.667  15.243  67.594  1.00  0.00    -0.179 C  
HETATM    3  C   UNL     1     -10.617  13.826  68.365  1.00  0.00    -0.261 C  
HETATM    4  C   UNL     1      -9.006  15.041  66.119  1.00  0.00    -0.158 C  
HETATM    5  C   UNL     1     -11.194  14.027  66.949  1.00  0.00    -0.323 A  
HETATM    6  C   UNL     1     -10.403  14.521  65.895  1.00  0.00    -0.332 A  
HETATM    7  H   UNL     1     -13.553  13.587  62.888  1.00  0.00     0.000 HD 
HETATM    8  C   UNL     1     -12.535  13.680  66.677  1.00  0.00    -0.291 A  
HETATM    9  C   UNL     1     -10.904  14.487  64.580  1.00  0.00    -0.351 A  
HETATM   10  C   UNL     1     -12.189  14.017  64.329  1.00  0.00    -0.418 A  
HETATM   11  O   UNL     1     -12.676  13.908  63.060  1.00  0.00    -0.634 OA 
HETATM   12  C   UNL     1     -13.018  13.639  65.371  1.00  0.00    -0.331 A  
ENDROOT
BRANCH   1  13
HETATM   13  C   UNL     1      -8.133  12.837  68.180  1.00  0.00    -0.158 A  
HETATM   14  C   UNL     1      -7.920  12.288  66.909  1.00  0.00    -0.068 A  
HETATM   15  C   UNL     1      -6.533  10.531  67.826  1.00  0.00    -0.060 A  
HETATM   16  C   UNL     1      -6.667  11.102  69.089  1.00  0.00    -0.092 A  
HETATM   17  C   UNL     1      -7.456  12.245  69.263  1.00  0.00     0.248 A  
HETATM   18  C   UNL     1      -7.151  11.133  66.732  1.00  0.00    -0.139 A  
ENDBRANCH   1  13
BRANCH   3  19
HETATM   19  C   UNL     1     -11.062  12.525  69.051  1.00  0.00    -0.287 A  
HETATM   20  C   UNL     1     -10.807  11.297  68.433  1.00  0.00    -0.248 A  
HETATM   21  C   UNL     1     -11.236  10.106  68.983  1.00  0.00    -0.223 A  
HETATM   22  C   UNL     1     -11.898  10.081  70.211  1.00  0.00    -0.216 A  
HETATM   23  C   UNL     1     -11.722  12.508  70.290  1.00  0.00    -0.200 A  
HETATM   24  C   UNL     1     -12.132  11.290  70.869  1.00  0.00    -0.406 A  
BRANCH  22  25
HETATM   25  O   UNL     1     -12.331   8.918  70.816  1.00  0.00    -0.162 OA 
BRANCH  25  26
HETATM   26  C   UNL     1     -11.941   8.859  72.196  1.00  0.00    -0.349 C  
BRANCH  26  27
HETATM   27  C   UNL     1     -10.942   7.754  72.531  1.00  0.00    -0.338 C  
BRANCH  27  28
HETATM   28  N   UNL     1      -9.588   8.322  72.665  1.00  0.00    -0.276 NA 
HETATM   29  C   UNL     1      -8.881   7.915  73.883  1.00  0.00    -0.254 C  
HETATM   30  C   UNL     1      -7.444   8.276  73.571  1.00  0.00    -0.175 C  
HETATM   31  C   UNL     1      -7.306   7.929  72.100  1.00  0.00    -0.092 C  
HETATM   32  C   UNL     1      -8.723   7.995  71.534  1.00  0.00    -0.136 C  
ENDBRANCH  27  28
ENDBRANCH  26  27
ENDBRANCH  25  26
ENDBRANCH  22  25
ENDBRANCH   3  19
TORSDOF 6
ENDMDL
MODEL       70
REMARK 921   NORMALIZED FREE ENERGY PREDICTED BY IDOCK:   -4.96 KCAL/MOL
REMARK 922        TOTAL FREE ENERGY PREDICTED BY IDOCK:   -8.62 KCAL/MOL
REMARK 923 INTER-LIGAND FREE ENERGY PREDICTED BY IDOCK:   -7.45 KCAL/MOL
REMARK 924 INTRA-LIGAND FREE ENERGY PREDICTED BY IDOCK:   -1.17 KCAL/MOL
REMARK 927      BINDING AFFINITY PREDICTED BY RF-SCORE:    0.00 PKD
ROOT
HETATM    1  C   UNL     1      -9.439   5.912  67.683  1.00  0.00    -0.110 C  
HETATM    2  C   UNL     1      -9.493   4.392  67.899  1.00  0.00    -0.209 C  
HETATM    3  C   UNL     1     -10.616   6.586  68.474  1.00  0.00    -0.291 C  
HETATM    4  C   UNL     1      -9.306   4.016  69.367  1.00  0.00    -0.243 C  
HETATM    5  C   UNL     1     -10.840   5.988  69.877  1.00  0.00    -0.434 A  
HETATM    6  C   UNL     1     -10.159   4.833  70.304  1.00  0.00    -0.304 A  
HETATM    7  H   UNL     1     -11.573   5.359  74.494  1.00  0.00     0.000 HD 
HETATM    8  C   UNL     1     -11.720   6.623  70.782  1.00  0.00    -0.445 A  
HETATM    9  C   UNL     1     -10.230   4.448  71.655  1.00  0.00    -0.186 A  
HETATM   10  C   UNL     1     -11.007   5.173  72.553  1.00  0.00    -0.215 A  
HETATM   11  O   UNL     1     -11.042   4.864  73.881  1.00  0.00    -0.295 OA 
HETATM   12  C   UNL     1     -11.775   6.240  72.120  1.00  0.00    -0.368 A  
ENDROOT
BRANCH   1  13
HETATM   13  C   UNL     1      -8.012   6.446  67.855  1.00  0.00    -0.111 A  
HETATM   14  C   UNL     1      -7.412   6.670  69.101  1.00  0.00    -0.095 A  
HETATM   15  C   UNL     1      -5.437   7.599  68.059  1.00  0.00    -0.031 A  
HETATM   16  C   UNL     1      -5.979   7.316  66.808  1.00  0.00    -0.035 A  
HETATM   17  C   UNL     1      -7.252   6.743  66.708  1.00  0.00    -0.076 A  
HETATM   18  C   UNL     1      -6.150   7.263  69.207  1.00  0.00    -0.030 A  
ENDBRANCH   1  13
BRANCH   3  19
HETATM   19  C   UNL     1     -10.519   8.119  68.446  1.00  0.00    -0.205 A  
HETATM   20  C   UNL     1     -10.203   8.812  69.618  1.00  0.00    -0.210 A  
HETATM   21  C   UNL     1     -10.159  10.191  69.655  1.00  0.00    -0.265 A  
HETATM   22  C   UNL     1     -10.379  10.946  68.503  1.00  0.00    -0.187 A  
HETATM   23  C   UNL     1     -10.736   8.871  67.280  1.00  0.00    -0.219 A  
HETATM   24  C   UNL     1     -10.660  10.279  67.309  1.00  0.00    -0.324 A  
BRANCH  22  25
HETATM   25  O   UNL     1     -10.328  12.326  68.479  1.00  0.00    -0.226 OA 
BRANCH  25  26
HETATM   26  C   UNL     1     -11.636  12.909  68.574  1.00  0.00    -0.323 C  
BRANCH  26  27
HETATM   27  C   UNL     1     -11.908  14.033  67.579  1.00  0.00    -0.407 C  
BRANCH  27  28
HETATM   28  N   UNL     1     -10.858  15.064  67.681  1.00  0.00    -0.283 NA 
HETATM   29  C   UNL     1     -10.487  15.676  66.401  1.00  0.00    -0.305 C  
HETATM   30  C   UNL     1      -9.743  16.922  66.831  1.00  0.00    -0.264 C  
HETATM   31  C   UNL     1     -10.521  17.394  68.045  1.00  0.00    -0.383 C  
HETATM   32  C   UNL     1     -11.215  16.149  68.591  1.00  0.00    -0.369 C  
ENDBRANCH  27  28
ENDBRANCH  26  27
ENDBRANCH  25  26
ENDBRANCH  22  25
ENDBRANCH   3  19
TORSDOF 6
ENDMDL
MODEL       71
REMARK 921   NORMALIZED FREE ENERGY PREDICTED BY IDOCK:   -4.95 KCAL/MOL
REMARK 922        TOTAL FREE ENERGY PREDICTED BY IDOCK:   -8.62 KCAL/MOL
REMARK 923 INTER-LIGAND FREE ENERGY PREDICTED BY IDOCK:   -7.56 KCAL/MOL
REMARK 924 INTRA-LIGAND FREE ENERGY PREDICTED BY IDOCK:   -1.06 KCAL/MOL
REMARK 927      BINDING AFFINITY PREDICTED BY RF-SCORE:    0.00 PKD
ROOT
HETATM    1  C   UNL     1      -8.280   4.899  71.031  1.00  0.00    -0.104 C  
HETATM    2  C   UNL     1      -7.258   4.064  70.244  1.00  0.00    -0.042 C  
HETATM    3  C   UNL     1      -8.886   5.995  70.084  1.00  0.00    -0.143 C  
HETATM    4  C   UNL     1      -7.903   3.324  69.074  1.00  0.00    -0.054 C  
HETATM    5  C   UNL     1      -9.200   5.481  68.665  1.00  0.00    -0.140 A  
HETATM    6  C   UNL     1      -8.802   4.200  68.239  1.00  0.00    -0.133 A  
HETATM    7  H   UNL     1     -11.232   4.510  64.520  1.00  0.00     0.000 HD 
HETATM    8  C   UNL     1      -9.936   6.289  67.769  1.00  0.00    -0.143 A  
HETATM    9  C   UNL     1      -9.291   3.693  67.021  1.00  0.00    -0.223 A  
HETATM   10  C   UNL     1     -10.121   4.469  66.219  1.00  0.00    -0.254 A  
HETATM   11  O   UNL     1     -10.665   3.980  65.068  1.00  0.00    -0.183 OA 
HETATM   12  C   UNL     1     -10.424   5.773  66.571  1.00  0.00    -0.280 A  
ENDROOT
BRANCH   1  13
HETATM   13  C   UNL     1      -9.221   4.001  71.844  1.00  0.00    -0.179 A  
HETATM   14  C   UNL     1      -9.829   4.398  73.042  1.00  0.00    -0.180 A  
HETATM   15  C   UNL     1     -10.801   2.205  73.353  1.00  0.00    -0.273 A  
HETATM   16  C   UNL     1     -10.270   1.809  72.128  1.00  0.00    -0.227 A  
HETATM   17  C   UNL     1      -9.492   2.700  71.380  1.00  0.00    -0.215 A  
HETATM   18  C   UNL     1     -10.590   3.506  73.805  1.00  0.00    -0.283 A  
ENDBRANCH   1  13
BRANCH   3  19
HETATM   19  C   UNL     1     -10.042   6.753  70.754  1.00  0.00    -0.208 A  
HETATM   20  C   UNL     1      -9.762   7.825  71.607  1.00  0.00    -0.200 A  
HETATM   21  C   UNL     1     -10.763   8.500  72.275  1.00  0.00    -0.411 A  
HETATM   22  C   UNL     1     -12.104   8.170  72.081  1.00  0.00    -0.357 A  
HETATM   23  C   UNL     1     -11.390   6.417  70.549  1.00  0.00    -0.438 A  
HETATM   24  C   UNL     1     -12.416   7.127  71.205  1.00  0.00    -0.425 A  
BRANCH  22  25
HETATM   25  O   UNL     1     -13.146   8.825  72.707  1.00  0.00    -0.347 OA 
BRANCH  25  26
HETATM   26  C   UNL     1     -13.744   9.811  71.854  1.00  0.00    -0.253 C  
BRANCH  26  27
HETATM   27  C   UNL     1     -13.114  11.199  71.943  1.00  0.00    -0.408 C  
BRANCH  27  28
HETATM   28  N   UNL     1     -12.909  11.748  70.591  1.00  0.00    -0.089 NA 
HETATM   29  C   UNL     1     -12.390  13.119  70.569  1.00  0.00    -0.304 C  
HETATM   30  C   UNL     1     -11.898  13.267  69.145  1.00  0.00    -0.378 C  
HETATM   31  C   UNL     1     -11.306  11.905  68.834  1.00  0.00    -0.335 C  
HETATM   32  C   UNL     1     -12.008  10.933  69.779  1.00  0.00    -0.351 C  
ENDBRANCH  27  28
ENDBRANCH  26  27
ENDBRANCH  25  26
ENDBRANCH  22  25
ENDBRANCH   3  19
TORSDOF 6
ENDMDL
MODEL       72
REMARK 921   NORMALIZED FREE ENERGY PREDICTED BY IDOCK:   -4.94 KCAL/MOL
REMARK 922        TOTAL FREE ENERGY PREDICTED BY IDOCK:   -8.60 KCAL/MOL
REMARK 923 INTER-LIGAND FREE ENERGY PREDICTED BY IDOCK:   -7.44 KCAL/MOL
REMARK 924 INTRA-LIGAND FREE ENERGY PREDICTED BY IDOCK:   -1.16 KCAL/MOL
REMARK 927      BINDING AFFINITY PREDICTED BY RF-SCORE:    0.00 PKD
ROOT
HETATM    1  C   UNL     1      -7.544   8.675  65.610  1.00  0.00    -0.086 C  
HETATM    2  C   UNL     1      -6.822   7.328  65.445  1.00  0.00    -0.052 C  
HETATM    3  C   UNL     1      -9.074   8.411  65.844  1.00  0.00    -0.225 C  
HETATM    4  C   UNL     1      -6.931   6.463  66.697  1.00  0.00    -0.067 C  
HETATM    5  C   UNL     1      -9.361   7.231  66.793  1.00  0.00    -0.203 A  
HETATM    6  C   UNL     1      -8.334   6.381  67.243  1.00  0.00    -0.112 A  
HETATM    7  H   UNL     1     -11.033   4.432  70.202  1.00  0.00     0.000 HD 
HETATM    8  C   UNL     1     -10.675   7.004  67.260  1.00  0.00    -0.412 A  
HETATM    9  C   UNL     1      -8.602   5.455  68.269  1.00  0.00    -0.096 A  
HETATM   10  C   UNL     1      -9.884   5.346  68.800  1.00  0.00    -0.150 A  
HETATM   11  O   UNL     1     -10.158   4.507  69.840  1.00  0.00    -0.234 OA 
HETATM   12  C   UNL     1     -10.927   6.093  68.283  1.00  0.00    -0.397 A  
ENDROOT
BRANCH   1  13
HETATM   13  C   UNL     1      -6.784   9.598  66.569  1.00  0.00    -0.079 A  
HETATM   14  C   UNL     1      -6.214  10.819  66.183  1.00  0.00    -0.134 A  
HETATM   15  C   UNL     1      -5.251  11.140  68.379  1.00  0.00    -0.039 A  
HETATM   16  C   UNL     1      -5.869   9.969  68.808  1.00  0.00    -0.034 A  
HETATM   17  C   UNL     1      -6.630   9.208  67.913  1.00  0.00    -0.063 A  
HETATM   18  C   UNL     1      -5.435  11.572  67.067  1.00  0.00    -0.110 A  
ENDBRANCH   1  13
BRANCH   3  19
HETATM   19  C   UNL     1      -9.830   9.703  66.192  1.00  0.00    -0.334 A  
HETATM   20  C   UNL     1     -10.193  10.586  65.171  1.00  0.00    -0.358 A  
HETATM   21  C   UNL     1     -10.823  11.784  65.440  1.00  0.00    -0.347 A  
HETATM   22  C   UNL     1     -11.169  12.136  66.744  1.00  0.00    -0.322 A  
HETATM   23  C   UNL     1     -10.179  10.046  67.508  1.00  0.00    -0.260 A  
HETATM   24  C   UNL     1     -10.852  11.255  67.780  1.00  0.00    -0.284 A  
BRANCH  22  25
HETATM   25  O   UNL     1     -11.817  13.312  67.068  1.00  0.00    -0.365 OA 
BRANCH  25  26
HETATM   26  C   UNL     1     -11.838  13.536  68.485  1.00  0.00    -0.362 C  
BRANCH  26  27
HETATM   27  C   UNL     1     -12.018  14.994  68.898  1.00  0.00    -0.254 C  
BRANCH  27  28
HETATM   28  N   UNL     1     -12.526  15.068  70.281  1.00  0.00    -0.341 NA 
HETATM   29  C   UNL     1     -12.634  13.770  70.953  1.00  0.00    -0.356 C  
HETATM   30  C   UNL     1     -12.764  14.160  72.410  1.00  0.00    -0.357 C  
HETATM   31  C   UNL     1     -11.827  15.346  72.542  1.00  0.00    -0.564 C  
HETATM   32  C   UNL     1     -11.716  15.932  71.136  1.00  0.00    -0.442 C  
ENDBRANCH  27  28
ENDBRANCH  26  27
ENDBRANCH  25  26
ENDBRANCH  22  25
ENDBRANCH   3  19
TORSDOF 6
ENDMDL
MODEL       73
REMARK 921   NORMALIZED FREE ENERGY PREDICTED BY IDOCK:   -4.89 KCAL/MOL
REMARK 922        TOTAL FREE ENERGY PREDICTED BY IDOCK:   -8.53 KCAL/MOL
REMARK 923 INTER-LIGAND FREE ENERGY PREDICTED BY IDOCK:   -7.58 KCAL/MOL
REMARK 924 INTRA-LIGAND FREE ENERGY PREDICTED BY IDOCK:   -0.95 KCAL/MOL
REMARK 927      BINDING AFFINITY PREDICTED BY RF-SCORE:    0.00 PKD
ROOT
HETATM    1  C   UNL     1     -11.000  16.131  67.249  1.00  0.00    -0.175 C  
HETATM    2  C   UNL     1     -11.156  17.656  67.351  1.00  0.00     0.103 C  
HETATM    3  C   UNL     1      -9.639  15.800  66.540  1.00  0.00    -0.288 C  
HETATM    4  C   UNL     1     -10.056  18.289  68.198  1.00  0.00    -0.397 C  
HETATM    5  C   UNL     1      -8.469  16.693  66.999  1.00  0.00    -0.225 A  
HETATM    6  C   UNL     1      -8.675  17.804  67.839  1.00  0.00    -0.251 A  
HETATM    7  H   UNL     1      -4.298  18.333  68.472  1.00  0.00     0.000 HD 
HETATM    8  C   UNL     1      -7.148  16.382  66.608  1.00  0.00    -0.175 A  
HETATM    9  C   UNL     1      -7.565  18.459  68.404  1.00  0.00    -0.307 A  
HETATM   10  C   UNL     1      -6.273  18.045  68.097  1.00  0.00    -0.180 A  
HETATM   11  O   UNL     1      -5.181  18.616  68.682  1.00  0.00    -0.182 OA 
HETATM   12  C   UNL     1      -6.056  17.030  67.182  1.00  0.00    -0.199 A  
ENDROOT
BRANCH   1  13
HETATM   13  C   UNL     1     -11.342  15.448  68.579  1.00  0.00    -0.342 A  
HETATM   14  C   UNL     1     -11.872  14.155  68.674  1.00  0.00    -0.383 A  
HETATM   15  C   UNL     1     -12.099  14.351  71.074  1.00  0.00    -0.417 A  
HETATM   16  C   UNL     1     -11.504  15.609  71.015  1.00  0.00    -0.439 A  
HETATM   17  C   UNL     1     -11.126  16.149  69.781  1.00  0.00    -0.350 A  
HETATM   18  C   UNL     1     -12.272  13.619  69.902  1.00  0.00    -0.367 A  
ENDBRANCH   1  13
BRANCH   3  19
HETATM   19  C   UNL     1      -9.334  14.295  66.561  1.00  0.00    -0.292 A  
HETATM   20  C   UNL     1      -8.428  13.788  67.498  1.00  0.00    -0.199 A  
HETATM   21  C   UNL     1      -8.080  12.452  67.520  1.00  0.00    -0.173 A  
HETATM   22  C   UNL     1      -8.664  11.545  66.636  1.00  0.00    -0.182 A  
HETATM   23  C   UNL     1      -9.930  13.387  65.672  1.00  0.00    -0.249 A  
HETATM   24  C   UNL     1      -9.600  12.017  65.714  1.00  0.00    -0.227 A  
BRANCH  22  25
HETATM   25  O   UNL     1      -8.367  10.196  66.628  1.00  0.00    -0.121 OA 
BRANCH  25  26
HETATM   26  C   UNL     1      -8.394   9.637  67.949  1.00  0.00    -0.117 C  
BRANCH  26  27
HETATM   27  C   UNL     1      -9.204   8.350  68.082  1.00  0.00    -0.137 C  
BRANCH  27  28
HETATM   28  N   UNL     1      -9.573   8.129  69.492  1.00  0.00    -0.167 NA 
HETATM   29  C   UNL     1      -9.717   9.358  70.277  1.00  0.00    -0.246 C  
HETATM   30  C   UNL     1     -10.473   8.886  71.501  1.00  0.00    -0.393 C  
HETATM   31  C   UNL     1     -11.448   7.867  70.939  1.00  0.00    -0.294 C  
HETATM   32  C   UNL     1     -10.815   7.373  69.641  1.00  0.00    -0.210 C  
ENDBRANCH  27  28
ENDBRANCH  26  27
ENDBRANCH  25  26
ENDBRANCH  22  25
ENDBRANCH   3  19
TORSDOF 6
ENDMDL
MODEL       74
REMARK 921   NORMALIZED FREE ENERGY PREDICTED BY IDOCK:   -4.89 KCAL/MOL
REMARK 922        TOTAL FREE ENERGY PREDICTED BY IDOCK:   -8.53 KCAL/MOL
REMARK 923 INTER-LIGAND FREE ENERGY PREDICTED BY IDOCK:   -6.51 KCAL/MOL
REMARK 924 INTRA-LIGAND FREE ENERGY PREDICTED BY IDOCK:   -2.02 KCAL/MOL
REMARK 927      BINDING AFFINITY PREDICTED BY RF-SCORE:    0.00 PKD
ROOT
HETATM    1  C   UNL     1     -10.128   8.308  72.131  1.00  0.00    -0.344 C  
HETATM    2  C   UNL     1      -9.830   7.467  73.382  1.00  0.00    -0.365 C  
HETATM    3  C   UNL     1      -9.263   7.774  70.935  1.00  0.00    -0.155 C  
HETATM    4  C   UNL     1     -10.208   6.001  73.190  1.00  0.00    -0.212 C  
HETATM    5  C   UNL     1      -9.190   6.235  70.863  1.00  0.00    -0.163 A  
HETATM    6  C   UNL     1      -9.709   5.424  71.889  1.00  0.00    -0.204 A  
HETATM    7  H   UNL     1      -9.207   1.738  69.440  1.00  0.00     0.000 HD 
HETATM    8  C   UNL     1      -8.625   5.608  69.730  1.00  0.00    -0.121 A  
HETATM    9  C   UNL     1      -9.814   4.035  71.686  1.00  0.00    -0.253 A  
HETATM   10  C   UNL     1      -9.364   3.461  70.502  1.00  0.00    -0.161 A  
HETATM   11  O   UNL     1      -9.514   2.130  70.249  1.00  0.00    -0.118 OA 
HETATM   12  C   UNL     1      -8.745   4.234  69.535  1.00  0.00    -0.121 A  
ENDROOT
BRANCH   1  13
HETATM   13  C   UNL     1     -11.637   8.504  71.942  1.00  0.00    -0.410 A  
HETATM   14  C   UNL     1     -12.555   7.447  71.877  1.00  0.00    -0.322 A  
HETATM   15  C   UNL     1     -14.377   8.970  71.415  1.00  0.00    -0.133 A  
HETATM   16  C   UNL     1     -13.499  10.042  71.549  1.00  0.00    -0.375 A  
HETATM   17  C   UNL     1     -12.145   9.811  71.814  1.00  0.00    -0.425 A  
HETATM   18  C   UNL     1     -13.906   7.671  71.591  1.00  0.00    -0.480 A  
ENDBRANCH   1  13
BRANCH   3  19
HETATM   19  C   UNL     1      -9.639   8.453  69.610  1.00  0.00    -0.163 A  
HETATM   20  C   UNL     1     -10.433   7.769  68.684  1.00  0.00    -0.199 A  
HETATM   21  C   UNL     1     -10.751   8.316  67.458  1.00  0.00    -0.217 A  
HETATM   22  C   UNL     1     -10.332   9.602  67.116  1.00  0.00    -0.254 A  
HETATM   23  C   UNL     1      -9.218   9.750  69.276  1.00  0.00    -0.197 A  
HETATM   24  C   UNL     1      -9.568  10.323  68.036  1.00  0.00    -0.159 A  
BRANCH  22  25
HETATM   25  O   UNL     1     -10.637  10.205  65.911  1.00  0.00    -0.117 OA 
BRANCH  25  26
HETATM   26  C   UNL     1      -9.458  10.490  65.145  1.00  0.00    -0.233 C  
BRANCH  26  27
HETATM   27  C   UNL     1      -8.989   9.348  64.246  1.00  0.00    -0.160 C  
BRANCH  27  28
HETATM   28  N   UNL     1      -7.742   8.768  64.777  1.00  0.00    -0.107 NA 
HETATM   29  C   UNL     1      -7.079   9.589  65.794  1.00  0.00    -0.096 C  
HETATM   30  C   UNL     1      -6.115   8.614  66.435  1.00  0.00    -0.056 C  
HETATM   31  C   UNL     1      -6.900   7.315  66.467  1.00  0.00    -0.061 C  
HETATM   32  C   UNL     1      -7.936   7.440  65.354  1.00  0.00    -0.125 C  
ENDBRANCH  27  28
ENDBRANCH  26  27
ENDBRANCH  25  26
ENDBRANCH  22  25
ENDBRANCH   3  19
TORSDOF 6
ENDMDL
MODEL       75
REMARK 921   NORMALIZED FREE ENERGY PREDICTED BY IDOCK:   -4.84 KCAL/MOL
REMARK 922        TOTAL FREE ENERGY PREDICTED BY IDOCK:   -8.47 KCAL/MOL
REMARK 923 INTER-LIGAND FREE ENERGY PREDICTED BY IDOCK:   -6.35 KCAL/MOL
REMARK 924 INTRA-LIGAND FREE ENERGY PREDICTED BY IDOCK:   -2.12 KCAL/MOL
REMARK 927      BINDING AFFINITY PREDICTED BY RF-SCORE:    0.00 PKD
ROOT
HETATM    1  C   UNL     1     -12.161   7.257  70.842  1.00  0.00    -0.308 C  
HETATM    2  C   UNL     1     -13.493   7.560  71.545  1.00  0.00    -0.426 C  
HETATM    3  C   UNL     1     -11.904   8.344  69.739  1.00  0.00     0.707 C  
HETATM    4  C   UNL     1     -13.470   8.910  72.258  1.00  0.00    -0.503 C  
HETATM    5  C   UNL     1     -12.262   9.776  70.186  1.00  0.00     0.044 A  
HETATM    6  C   UNL     1     -12.923  10.025  71.403  1.00  0.00    -0.517 A  
HETATM    7  H   UNL     1     -12.250  14.413  71.050  1.00  0.00     0.000 HD 
HETATM    8  C   UNL     1     -11.894  10.878  69.383  1.00  0.00    -0.400 A  
HETATM    9  C   UNL     1     -13.038  11.347  71.869  1.00  0.00    -0.505 A  
HETATM   10  C   UNL     1     -12.548  12.406  71.111  1.00  0.00    -0.251 A  
HETATM   11  O   UNL     1     -12.585  13.690  71.568  1.00  0.00    -0.342 OA 
HETATM   12  C   UNL     1     -12.003  12.183  69.859  1.00  0.00    -0.380 A  
ENDROOT
BRANCH   1  13
HETATM   13  C   UNL     1     -11.058   6.939  71.858  1.00  0.00    -0.278 A  
HETATM   14  C   UNL     1     -10.580   7.860  72.800  1.00  0.00    -0.418 A  
HETATM   15  C   UNL     1      -8.898   6.302  73.570  1.00  0.00    -0.127 A  
HETATM   16  C   UNL     1      -9.404   5.342  72.697  1.00  0.00    -0.152 A  
HETATM   17  C   UNL     1     -10.475   5.657  71.853  1.00  0.00    -0.279 A  
HETATM   18  C   UNL     1      -9.496   7.558  73.630  1.00  0.00    -0.338 A  
ENDBRANCH   1  13
BRANCH   3  19
HETATM   19  C   UNL     1     -10.507   8.206  69.115  1.00  0.00    -0.217 A  
HETATM   20  C   UNL     1     -10.379   7.718  67.811  1.00  0.00    -0.284 A  
HETATM   21  C   UNL     1      -9.143   7.524  67.229  1.00  0.00    -0.137 A  
HETATM   22  C   UNL     1      -7.970   7.859  67.906  1.00  0.00    -0.128 A  
HETATM   23  C   UNL     1      -9.332   8.551  69.802  1.00  0.00    -0.161 A  
HETATM   24  C   UNL     1      -8.070   8.384  69.196  1.00  0.00    -0.119 A  
BRANCH  22  25
HETATM   25  O   UNL     1      -6.709   7.704  67.363  1.00  0.00    -0.063 OA 
BRANCH  25  26
HETATM   26  C   UNL     1      -6.569   6.442  66.695  1.00  0.00    -0.048 C  
BRANCH  26  27
HETATM   27  C   UNL     1      -6.066   5.304  67.578  1.00  0.00    -0.030 C  
BRANCH  27  28
HETATM   28  N   UNL     1      -7.158   4.349  67.843  1.00  0.00    -0.063 NA 
HETATM   29  C   UNL     1      -7.980   4.682  69.010  1.00  0.00    -0.071 C  
HETATM   30  C   UNL     1      -9.210   3.825  68.808  1.00  0.00    -0.218 C  
HETATM   31  C   UNL     1      -9.431   3.876  67.307  1.00  0.00    -0.235 C  
HETATM   32  C   UNL     1      -8.064   4.194  66.708  1.00  0.00    -0.101 C  
ENDBRANCH  27  28
ENDBRANCH  26  27
ENDBRANCH  25  26
ENDBRANCH  22  25
ENDBRANCH   3  19
TORSDOF 6
ENDMDL
MODEL       76
REMARK 921   NORMALIZED FREE ENERGY PREDICTED BY IDOCK:   -4.83 KCAL/MOL
REMARK 922        TOTAL FREE ENERGY PREDICTED BY IDOCK:   -8.45 KCAL/MOL
REMARK 923 INTER-LIGAND FREE ENERGY PREDICTED BY IDOCK:   -6.16 KCAL/MOL
REMARK 924 INTRA-LIGAND FREE ENERGY PREDICTED BY IDOCK:   -2.30 KCAL/MOL
REMARK 927      BINDING AFFINITY PREDICTED BY RF-SCORE:    0.00 PKD
ROOT
HETATM    1  C   UNL     1      -8.492   7.418  70.331  1.00  0.00    -0.142 C  
HETATM    2  C   UNL     1      -8.309   8.031  71.728  1.00  0.00    -0.159 C  
HETATM    3  C   UNL     1      -9.767   6.501  70.336  1.00  0.00    -0.186 C  
HETATM    4  C   UNL     1      -9.486   8.920  72.122  1.00  0.00    -0.182 C  
HETATM    5  C   UNL     1     -10.960   7.104  71.106  1.00  0.00    -0.272 A  
HETATM    6  C   UNL     1     -10.826   8.279  71.869  1.00  0.00    -0.350 A  
HETATM    7  H   UNL     1     -15.232   8.590  72.444  1.00  0.00     0.000 HD 
HETATM    8  C   UNL     1     -12.232   6.496  71.024  1.00  0.00    -0.239 A  
HETATM    9  C   UNL     1     -11.978   8.908  72.376  1.00  0.00    -0.320 A  
HETATM   10  C   UNL     1     -13.235   8.349  72.167  1.00  0.00    -0.318 A  
HETATM   11  O   UNL     1     -14.374   8.971  72.587  1.00  0.00    -0.603 OA 
HETATM   12  C   UNL     1     -13.367   7.134  71.519  1.00  0.00    -0.413 A  
ENDROOT
BRANCH   1  13
HETATM   13  C   UNL     1      -8.330   8.477  69.235  1.00  0.00    -0.120 A  
HETATM   14  C   UNL     1      -9.080   9.660  69.181  1.00  0.00    -0.154 A  
HETATM   15  C   UNL     1      -8.074  10.282  67.071  1.00  0.00    -0.121 A  
HETATM   16  C   UNL     1      -7.262   9.152  67.139  1.00  0.00    -0.086 A  
HETATM   17  C   UNL     1      -7.387   8.262  68.212  1.00  0.00    -0.095 A  
HETATM   18  C   UNL     1      -8.975  10.542  68.101  1.00  0.00    -0.138 A  
ENDBRANCH   1  13
BRANCH   3  19
HETATM   19  C   UNL     1     -10.112   5.995  68.928  1.00  0.00    -0.220 A  
HETATM   20  C   UNL     1      -9.649   4.743  68.512  1.00  0.00    -0.218 A  
HETATM   21  C   UNL     1      -9.885   4.269  67.238  1.00  0.00    -0.193 A  
HETATM   22  C   UNL     1     -10.646   5.005  66.329  1.00  0.00    -0.276 A  
HETATM   23  C   UNL     1     -10.883   6.739  68.021  1.00  0.00    -0.306 A  
HETATM   24  C   UNL     1     -11.154   6.243  66.730  1.00  0.00    -0.241 A  
BRANCH  22  25
HETATM   25  O   UNL     1     -10.930   4.570  65.049  1.00  0.00    -0.207 OA 
BRANCH  25  26
HETATM   26  C   UNL     1      -9.837   3.835  64.482  1.00  0.00    -0.190 C  
BRANCH  26  27
HETATM   27  C   UNL     1      -9.016   4.605  63.451  1.00  0.00    -0.110 C  
BRANCH  27  28
HETATM   28  N   UNL     1      -7.681   4.912  63.997  1.00  0.00    -0.073 NA 
HETATM   29  C   UNL     1      -7.619   6.151  64.778  1.00  0.00    -0.092 C  
HETATM   30  C   UNL     1      -6.313   6.007  65.530  1.00  0.00    -0.038 C  
HETATM   31  C   UNL     1      -6.271   4.530  65.880  1.00  0.00    -0.031 C  
HETATM   32  C   UNL     1      -7.153   3.843  64.841  1.00  0.00    -0.066 C  
ENDBRANCH  27  28
ENDBRANCH  26  27
ENDBRANCH  25  26
ENDBRANCH  22  25
ENDBRANCH   3  19
TORSDOF 6
ENDMDL
MODEL       77
REMARK 921   NORMALIZED FREE ENERGY PREDICTED BY IDOCK:   -4.79 KCAL/MOL
REMARK 922        TOTAL FREE ENERGY PREDICTED BY IDOCK:   -8.40 KCAL/MOL
REMARK 923 INTER-LIGAND FREE ENERGY PREDICTED BY IDOCK:   -7.19 KCAL/MOL
REMARK 924 INTRA-LIGAND FREE ENERGY PREDICTED BY IDOCK:   -1.21 KCAL/MOL
REMARK 927      BINDING AFFINITY PREDICTED BY RF-SCORE:    0.00 PKD
ROOT
HETATM    1  C   UNL     1     -11.857  12.346  66.882  1.00  0.00    -0.377 C  
HETATM    2  C   UNL     1     -12.353  12.881  65.530  1.00  0.00    -0.517 C  
HETATM    3  C   UNL     1     -11.273  10.903  66.680  1.00  0.00    -0.060 C  
HETATM    4  C   UNL     1     -11.220  13.005  64.513  1.00  0.00    -0.372 C  
HETATM    5  C   UNL     1     -10.423  10.752  65.402  1.00  0.00    -0.272 A  
HETATM    6  C   UNL     1     -10.348  11.778  64.441  1.00  0.00    -0.353 A  
HETATM    7  H   UNL     1      -7.042   9.722  62.278  1.00  0.00     0.000 HD 
HETATM    8  C   UNL     1      -9.666   9.578  65.193  1.00  0.00    -0.207 A  
HETATM    9  C   UNL     1      -9.401  11.687  63.405  1.00  0.00    -0.145 A  
HETATM   10  C   UNL     1      -8.577  10.570  63.301  1.00  0.00    -0.179 A  
HETATM   11  O   UNL     1      -7.605  10.485  62.349  1.00  0.00    -0.139 OA 
HETATM   12  C   UNL     1      -8.723   9.503  64.170  1.00  0.00    -0.239 A  
ENDROOT
BRANCH   1  13
HETATM   13  C   UNL     1     -11.024  13.398  67.623  1.00  0.00    -0.277 A  
HETATM   14  C   UNL     1      -9.687  13.688  67.318  1.00  0.00    -0.243 A  
HETATM   15  C   UNL     1      -9.529  15.236  69.169  1.00  0.00    -0.236 A  
HETATM   16  C   UNL     1     -10.877  15.024  69.446  1.00  0.00    -0.265 A  
HETATM   17  C   UNL     1     -11.616  14.117  68.679  1.00  0.00    -0.352 A  
HETATM   18  C   UNL     1      -8.937  14.576  68.095  1.00  0.00    -0.182 A  
ENDBRANCH   1  13
BRANCH   3  19
HETATM   19  C   UNL     1     -10.599  10.375  67.956  1.00  0.00    -0.259 A  
HETATM   20  C   UNL     1     -11.279  10.445  69.175  1.00  0.00    -0.301 A  
HETATM   21  C   UNL     1     -10.694  10.036  70.356  1.00  0.00    -0.369 A  
HETATM   22  C   UNL     1      -9.413   9.484  70.368  1.00  0.00    -0.262 A  
HETATM   23  C   UNL     1      -9.311   9.816  67.957  1.00  0.00    -0.138 A  
HETATM   24  C   UNL     1      -8.725   9.367  69.158  1.00  0.00    -0.142 A  
BRANCH  22  25
HETATM   25  O   UNL     1      -8.788   9.040  71.517  1.00  0.00    -0.289 OA 
BRANCH  25  26
HETATM   26  C   UNL     1      -9.730   8.532  72.472  1.00  0.00    -0.256 C  
BRANCH  26  27
HETATM   27  C   UNL     1     -10.248   7.127  72.174  1.00  0.00    -0.186 C  
BRANCH  27  28
HETATM   28  N   UNL     1     -11.698   7.058  72.431  1.00  0.00    -0.247 NA 
HETATM   29  C   UNL     1     -12.278   8.299  72.953  1.00  0.00     0.097 C  
HETATM   30  C   UNL     1     -13.761   8.093  72.733  1.00  0.00     0.236 C  
HETATM   31  C   UNL     1     -13.821   7.374  71.397  1.00  0.00    -0.436 C  
HETATM   32  C   UNL     1     -12.467   6.687  71.246  1.00  0.00    -0.228 C  
ENDBRANCH  27  28
ENDBRANCH  26  27
ENDBRANCH  25  26
ENDBRANCH  22  25
ENDBRANCH   3  19
TORSDOF 6
ENDMDL
MODEL       78
REMARK 921   NORMALIZED FREE ENERGY PREDICTED BY IDOCK:   -4.77 KCAL/MOL
REMARK 922        TOTAL FREE ENERGY PREDICTED BY IDOCK:   -8.37 KCAL/MOL
REMARK 923 INTER-LIGAND FREE ENERGY PREDICTED BY IDOCK:   -7.56 KCAL/MOL
REMARK 924 INTRA-LIGAND FREE ENERGY PREDICTED BY IDOCK:   -0.80 KCAL/MOL
REMARK 927      BINDING AFFINITY PREDICTED BY RF-SCORE:    0.00 PKD
ROOT
HETATM    1  C   UNL     1     -10.738  16.141  67.564  1.00  0.00    -0.304 C  
HETATM    2  C   UNL     1     -11.006  17.654  67.526  1.00  0.00    -0.085 C  
HETATM    3  C   UNL     1      -9.288  15.863  67.032  1.00  0.00    -0.230 C  
HETATM    4  C   UNL     1     -10.052  18.427  68.433  1.00  0.00    -0.418 C  
HETATM    5  C   UNL     1      -8.238  16.872  67.541  1.00  0.00    -0.191 A  
HETATM    6  C   UNL     1      -8.610  18.022  68.263  1.00  0.00    -0.293 A  
HETATM    7  H   UNL     1      -4.377  18.920  69.315  1.00  0.00     0.000 HD 
HETATM    8  C   UNL     1      -6.864  16.633  67.319  1.00  0.00    -0.212 A  
HETATM    9  C   UNL     1      -7.616  18.796  68.889  1.00  0.00    -0.312 A  
HETATM   10  C   UNL     1      -6.273  18.459  68.756  1.00  0.00    -0.212 A  
HETATM   11  O   UNL     1      -5.294  19.150  69.406  1.00  0.00    -0.191 OA 
HETATM   12  C   UNL     1      -5.889  17.400  67.952  1.00  0.00    -0.144 A  
ENDROOT
BRANCH   1  13
HETATM   13  C   UNL     1     -11.181  15.533  68.900  1.00  0.00    -0.306 A  
HETATM   14  C   UNL     1     -11.757  14.261  69.021  1.00  0.00    -0.352 A  
HETATM   15  C   UNL     1     -12.121  14.578  71.391  1.00  0.00    -0.420 A  
HETATM   16  C   UNL     1     -11.485  15.813  71.311  1.00  0.00    -0.481 A  
HETATM   17  C   UNL     1     -11.017  16.284  70.079  1.00  0.00    -0.356 A  
HETATM   18  C   UNL     1     -12.246  13.795  70.245  1.00  0.00    -0.429 A  
ENDBRANCH   1  13
BRANCH   3  19
HETATM   19  C   UNL     1      -8.888  14.390  67.206  1.00  0.00    -0.225 A  
HETATM   20  C   UNL     1      -7.987  14.034  68.214  1.00  0.00    -0.146 A  
HETATM   21  C   UNL     1      -7.555  12.733  68.374  1.00  0.00    -0.133 A  
HETATM   22  C   UNL     1      -8.046  11.710  67.563  1.00  0.00    -0.144 A  
HETATM   23  C   UNL     1      -9.392  13.366  66.389  1.00  0.00    -0.185 A  
HETATM   24  C   UNL     1      -8.976  12.031  66.571  1.00  0.00    -0.193 A  
BRANCH  22  25
HETATM   25  O   UNL     1      -7.664  10.389  67.691  1.00  0.00    -0.093 OA 
BRANCH  25  26
HETATM   26  C   UNL     1      -8.624   9.498  67.104  1.00  0.00    -0.132 C  
BRANCH  26  27
HETATM   27  C   UNL     1      -8.027   8.244  66.471  1.00  0.00    -0.100 C  
BRANCH  27  28
HETATM   28  N   UNL     1      -9.091   7.259  66.202  1.00  0.00    -0.153 NA 
HETATM   29  C   UNL     1      -8.726   5.875  66.521  1.00  0.00    -0.126 C  
HETATM   30  C   UNL     1     -10.067   5.175  66.551  1.00  0.00    -0.269 C  
HETATM   31  C   UNL     1     -10.985   6.202  67.188  1.00  0.00    -0.420 C  
HETATM   32  C   UNL     1     -10.330   7.554  66.917  1.00  0.00    -0.309 C  
ENDBRANCH  27  28
ENDBRANCH  26  27
ENDBRANCH  25  26
ENDBRANCH  22  25
ENDBRANCH   3  19
TORSDOF 6
ENDMDL
MODEL       79
REMARK 921   NORMALIZED FREE ENERGY PREDICTED BY IDOCK:   -4.74 KCAL/MOL
REMARK 922        TOTAL FREE ENERGY PREDICTED BY IDOCK:   -8.33 KCAL/MOL
REMARK 923 INTER-LIGAND FREE ENERGY PREDICTED BY IDOCK:   -6.86 KCAL/MOL
REMARK 924 INTRA-LIGAND FREE ENERGY PREDICTED BY IDOCK:   -1.47 KCAL/MOL
REMARK 927      BINDING AFFINITY PREDICTED BY RF-SCORE:    0.00 PKD
ROOT
HETATM    1  C   UNL     1     -11.134   7.101  70.722  1.00  0.00    -0.296 C  
HETATM    2  C   UNL     1     -12.596   6.906  71.151  1.00  0.00    -0.366 C  
HETATM    3  C   UNL     1     -11.015   8.428  69.891  1.00  0.00    -0.166 C  
HETATM    4  C   UNL     1     -13.082   8.035  72.057  1.00  0.00    -0.289 C  
HETATM    5  C   UNL     1     -11.839   9.596  70.470  1.00  0.00    -0.284 A  
HETATM    6  C   UNL     1     -12.740   9.407  71.534  1.00  0.00    -0.444 A  
HETATM    7  H   UNL     1     -13.301  13.796  72.044  1.00  0.00     0.000 HD 
HETATM    8  C   UNL     1     -11.671  10.901  69.955  1.00  0.00    -0.418 A  
HETATM    9  C   UNL     1     -13.306  10.528  72.168  1.00  0.00    -0.347 A  
HETATM   10  C   UNL     1     -13.018  11.812  71.717  1.00  0.00    -0.361 A  
HETATM   11  O   UNL     1     -13.498  12.919  72.352  1.00  0.00    -0.566 OA 
HETATM   12  C   UNL     1     -12.227  12.005  70.597  1.00  0.00    -0.409 A  
ENDROOT
BRANCH   1  13
HETATM   13  C   UNL     1     -10.175   6.857  71.893  1.00  0.00    -0.206 A  
HETATM   14  C   UNL     1     -10.176   7.618  73.069  1.00  0.00    -0.379 A  
HETATM   15  C   UNL     1      -8.246   6.432  73.918  1.00  0.00    -0.111 A  
HETATM   16  C   UNL     1      -8.271   5.612  72.793  1.00  0.00    -0.112 A  
HETATM   17  C   UNL     1      -9.227   5.820  71.794  1.00  0.00    -0.157 A  
HETATM   18  C   UNL     1      -9.208   7.429  74.061  1.00  0.00    -0.292 A  
ENDBRANCH   1  13
BRANCH   3  19
HETATM   19  C   UNL     1      -9.552   8.778  69.579  1.00  0.00    -0.167 A  
HETATM   20  C   UNL     1      -8.979   8.341  68.380  1.00  0.00    -0.136 A  
HETATM   21  C   UNL     1      -7.654   8.582  68.081  1.00  0.00    -0.098 A  
HETATM   22  C   UNL     1      -6.847   9.321  68.945  1.00  0.00    -0.056 A  
HETATM   23  C   UNL     1      -8.748   9.527  70.452  1.00  0.00    -0.265 A  
HETATM   24  C   UNL     1      -7.403   9.802  70.132  1.00  0.00    -0.159 A  
BRANCH  22  25
HETATM   25  O   UNL     1      -5.521   9.609  68.686  1.00  0.00    -0.037 OA 
BRANCH  25  26
HETATM   26  C   UNL     1      -5.238  11.006  68.846  1.00  0.00    -0.040 C  
BRANCH  26  27
HETATM   27  C   UNL     1      -6.114  11.935  68.009  1.00  0.00    -0.055 C  
BRANCH  27  28
HETATM   28  N   UNL     1      -6.072  13.302  68.561  1.00  0.00    -0.077 NA 
HETATM   29  C   UNL     1      -7.369  13.984  68.580  1.00  0.00    -0.120 C  
HETATM   30  C   UNL     1      -7.126  15.135  69.533  1.00  0.00    -0.195 C  
HETATM   31  C   UNL     1      -6.233  14.527  70.598  1.00  0.00    -0.141 C  
HETATM   32  C   UNL     1      -5.540  13.348  69.921  1.00  0.00    -0.110 C  
ENDBRANCH  27  28
ENDBRANCH  26  27
ENDBRANCH  25  26
ENDBRANCH  22  25
ENDBRANCH   3  19
TORSDOF 6
ENDMDL
MODEL       80
REMARK 921   NORMALIZED FREE ENERGY PREDICTED BY IDOCK:   -4.74 KCAL/MOL
REMARK 922        TOTAL FREE ENERGY PREDICTED BY IDOCK:   -8.33 KCAL/MOL
REMARK 923 INTER-LIGAND FREE ENERGY PREDICTED BY IDOCK:   -6.93 KCAL/MOL
REMARK 924 INTRA-LIGAND FREE ENERGY PREDICTED BY IDOCK:   -1.40 KCAL/MOL
REMARK 927      BINDING AFFINITY PREDICTED BY RF-SCORE:    0.00 PKD
ROOT
HETATM    1  C   UNL     1     -11.095   6.196  70.874  1.00  0.00    -0.371 C  
HETATM    2  C   UNL     1     -10.993   5.038  71.880  1.00  0.00    -0.044 C  
HETATM    3  C   UNL     1     -10.518   7.499  71.531  1.00  0.00    -0.226 C  
HETATM    4  C   UNL     1      -9.545   4.734  72.256  1.00  0.00    -0.195 C  
HETATM    5  C   UNL     1      -9.231   7.264  72.346  1.00  0.00    -0.160 A  
HETATM    6  C   UNL     1      -8.750   5.966  72.606  1.00  0.00    -0.122 A  
HETATM    7  H   UNL     1      -4.909   7.545  74.215  1.00  0.00     0.000 HD 
HETATM    8  C   UNL     1      -8.484   8.365  72.821  1.00  0.00    -0.224 A  
HETATM    9  C   UNL     1      -7.469   5.803  73.165  1.00  0.00    -0.095 A  
HETATM   10  C   UNL     1      -6.702   6.913  73.504  1.00  0.00    -0.070 A  
HETATM   11  O   UNL     1      -5.432   6.787  73.983  1.00  0.00    -0.049 OA 
HETATM   12  C   UNL     1      -7.212   8.192  73.362  1.00  0.00    -0.170 A  
ENDROOT
BRANCH   1  13
HETATM   13  C   UNL     1     -10.603   5.769  69.486  1.00  0.00    -0.390 A  
HETATM   14  C   UNL     1      -9.459   4.989  69.274  1.00  0.00    -0.197 A  
HETATM   15  C   UNL     1      -9.687   5.187  66.874  1.00  0.00    -0.175 A  
HETATM   16  C   UNL     1     -10.869   5.900  67.057  1.00  0.00    -0.379 A  
HETATM   17  C   UNL     1     -11.323   6.185  68.349  1.00  0.00    -0.014 A  
HETATM   18  C   UNL     1      -8.988   4.720  67.985  1.00  0.00    -0.126 A  
ENDBRANCH   1  13
BRANCH   3  19
HETATM   19  C   UNL     1     -10.427   8.655  70.523  1.00  0.00    -0.237 A  
HETATM   20  C   UNL     1     -11.527   9.498  70.338  1.00  0.00    -0.297 A  
HETATM   21  C   UNL     1     -11.512  10.514  69.404  1.00  0.00    -0.329 A  
HETATM   22  C   UNL     1     -10.372  10.772  68.643  1.00  0.00    -0.192 A  
HETATM   23  C   UNL     1      -9.273   8.911  69.765  1.00  0.00    -0.167 A  
HETATM   24  C   UNL     1      -9.245   9.970  68.834  1.00  0.00    -0.169 A  
BRANCH  22  25
HETATM   25  O   UNL     1     -10.296  11.788  67.710  1.00  0.00    -0.188 OA 
BRANCH  25  26
HETATM   26  C   UNL     1      -9.738  12.985  68.271  1.00  0.00    -0.221 C  
BRANCH  26  27
HETATM   27  C   UNL     1     -10.696  14.172  68.323  1.00  0.00    -0.249 C  
BRANCH  27  28
HETATM   28  N   UNL     1     -10.997  14.518  69.725  1.00  0.00    -0.198 NA 
HETATM   29  C   UNL     1     -10.961  15.955  70.012  1.00  0.00    -0.358 C  
HETATM   30  C   UNL     1     -11.684  16.048  71.339  1.00  0.00    -0.536 C  
HETATM   31  C   UNL     1     -12.793  15.020  71.207  1.00  0.00    -0.438 C  
HETATM   32  C   UNL     1     -12.299  14.022  70.164  1.00  0.00    -0.345 C  
ENDBRANCH  27  28
ENDBRANCH  26  27
ENDBRANCH  25  26
ENDBRANCH  22  25
ENDBRANCH   3  19
TORSDOF 6
ENDMDL
MODEL       81
REMARK 921   NORMALIZED FREE ENERGY PREDICTED BY IDOCK:   -4.73 KCAL/MOL
REMARK 922        TOTAL FREE ENERGY PREDICTED BY IDOCK:   -8.31 KCAL/MOL
REMARK 923 INTER-LIGAND FREE ENERGY PREDICTED BY IDOCK:   -6.48 KCAL/MOL
REMARK 924 INTRA-LIGAND FREE ENERGY PREDICTED BY IDOCK:   -1.84 KCAL/MOL
REMARK 927      BINDING AFFINITY PREDICTED BY RF-SCORE:    0.00 PKD
ROOT
HETATM    1  C   UNL     1      -7.937   6.354  68.876  1.00  0.00    -0.110 C  
HETATM    2  C   UNL     1      -7.536   4.901  69.175  1.00  0.00    -0.053 C  
HETATM    3  C   UNL     1      -7.775   6.626  67.339  1.00  0.00    -0.109 C  
HETATM    4  C   UNL     1      -8.435   3.899  68.456  1.00  0.00    -0.107 C  
HETATM    5  C   UNL     1      -8.264   5.465  66.450  1.00  0.00    -0.109 A  
HETATM    6  C   UNL     1      -8.643   4.225  66.999  1.00  0.00    -0.104 A  
HETATM    7  H   UNL     1     -10.311   2.838  63.109  1.00  0.00     0.000 HD 
HETATM    8  C   UNL     1      -8.374   5.643  65.053  1.00  0.00    -0.146 A  
HETATM    9  C   UNL     1      -9.282   3.274  66.182  1.00  0.00    -0.155 A  
HETATM   10  C   UNL     1      -9.492   3.534  64.832  1.00  0.00    -0.158 A  
HETATM   11  O   UNL     1     -10.167   2.660  64.031  1.00  0.00    -0.145 OA 
HETATM   12  C   UNL     1      -9.017   4.699  64.256  1.00  0.00    -0.136 A  
ENDROOT
BRANCH   1  13
HETATM   13  C   UNL     1      -9.254   6.719  69.571  1.00  0.00    -0.147 A  
HETATM   14  C   UNL     1     -10.443   5.995  69.412  1.00  0.00    -0.331 A  
HETATM   15  C   UNL     1     -11.670   7.582  70.763  1.00  0.00    -0.281 A  
HETATM   16  C   UNL     1     -10.487   8.277  71.000  1.00  0.00    -0.241 A  
HETATM   17  C   UNL     1      -9.292   7.847  70.413  1.00  0.00    -0.159 A  
HETATM   18  C   UNL     1     -11.645   6.432  69.978  1.00  0.00    -0.446 A  
ENDBRANCH   1  13
BRANCH   3  19
HETATM   19  C   UNL     1      -8.325   8.004  66.941  1.00  0.00    -0.116 A  
HETATM   20  C   UNL     1      -9.686   8.146  66.652  1.00  0.00    -0.318 A  
HETATM   21  C   UNL     1     -10.216   9.351  66.237  1.00  0.00    -0.284 A  
HETATM   22  C   UNL     1      -9.418  10.490  66.141  1.00  0.00    -0.180 A  
HETATM   23  C   UNL     1      -7.515   9.147  66.852  1.00  0.00    -0.091 A  
HETATM   24  C   UNL     1      -8.062  10.386  66.460  1.00  0.00    -0.122 A  
BRANCH  22  25
HETATM   25  O   UNL     1      -9.900  11.724  65.750  1.00  0.00    -0.228 OA 
BRANCH  25  26
HETATM   26  C   UNL     1      -9.789  12.696  66.800  1.00  0.00    -0.235 C  
BRANCH  26  27
HETATM   27  C   UNL     1     -11.122  13.193  67.354  1.00  0.00    -0.275 C  
BRANCH  27  28
HETATM   28  N   UNL     1     -11.182  12.961  68.809  1.00  0.00    -0.263 NA 
HETATM   29  C   UNL     1     -12.206  13.747  69.503  1.00  0.00    -0.293 C  
HETATM   30  C   UNL     1     -12.327  13.037  70.834  1.00  0.00    -0.376 C  
HETATM   31  C   UNL     1     -12.186  11.571  70.464  1.00  0.00    -0.469 C  
HETATM   32  C   UNL     1     -11.410  11.558  69.150  1.00  0.00    -0.286 C  
ENDBRANCH  27  28
ENDBRANCH  26  27
ENDBRANCH  25  26
ENDBRANCH  22  25
ENDBRANCH   3  19
TORSDOF 6
ENDMDL
MODEL       82
REMARK 921   NORMALIZED FREE ENERGY PREDICTED BY IDOCK:   -4.72 KCAL/MOL
REMARK 922        TOTAL FREE ENERGY PREDICTED BY IDOCK:   -8.30 KCAL/MOL
REMARK 923 INTER-LIGAND FREE ENERGY PREDICTED BY IDOCK:   -7.18 KCAL/MOL
REMARK 924 INTRA-LIGAND FREE ENERGY PREDICTED BY IDOCK:   -1.12 KCAL/MOL
REMARK 927      BINDING AFFINITY PREDICTED BY RF-SCORE:    0.00 PKD
ROOT
HETATM    1  C   UNL     1     -11.642  12.489  67.730  1.00  0.00    -0.401 C  
HETATM    2  C   UNL     1     -12.003  13.932  67.346  1.00  0.00    -0.436 C  
HETATM    3  C   UNL     1     -10.158  12.200  67.308  1.00  0.00    -0.214 C  
HETATM    4  C   UNL     1     -11.133  14.953  68.075  1.00  0.00    -0.301 C  
HETATM    5  C   UNL     1      -9.194  13.367  67.599  1.00  0.00    -0.212 A  
HETATM    6  C   UNL     1      -9.664  14.621  68.034  1.00  0.00    -0.216 A  
HETATM    7  H   UNL     1      -5.537  16.023  68.950  1.00  0.00     0.000 HD 
HETATM    8  C   UNL     1      -7.800  13.180  67.467  1.00  0.00    -0.173 A  
HETATM    9  C   UNL     1      -8.744  15.583  68.490  1.00  0.00    -0.184 A  
HETATM   10  C   UNL     1      -7.379  15.319  68.467  1.00  0.00    -0.119 A  
HETATM   11  O   UNL     1      -6.469  16.204  68.966  1.00  0.00    -0.136 OA 
HETATM   12  C   UNL     1      -6.899  14.135  67.933  1.00  0.00    -0.173 A  
ENDROOT
BRANCH   1  13
HETATM   13  C   UNL     1     -12.096  12.166  69.159  1.00  0.00    -0.224 A  
HETATM   14  C   UNL     1     -12.382  10.870  69.609  1.00  0.00    -0.290 A  
HETATM   15  C   UNL     1     -13.093  11.703  71.765  1.00  0.00    -0.487 A  
HETATM   16  C   UNL     1     -12.745  12.992  71.369  1.00  0.00    -0.375 A  
HETATM   17  C   UNL     1     -12.249  13.220  70.081  1.00  0.00    -0.376 A  
HETATM   18  C   UNL     1     -12.900  10.639  70.887  1.00  0.00    -0.473 A  
ENDBRANCH   1  13
BRANCH   3  19
HETATM   19  C   UNL     1      -9.674  10.835  67.820  1.00  0.00    -0.179 A  
HETATM   20  C   UNL     1      -9.976   9.679  67.093  1.00  0.00    -0.249 A  
HETATM   21  C   UNL     1      -9.611   8.426  67.541  1.00  0.00    -0.194 A  
HETATM   22  C   UNL     1      -8.876   8.270  68.716  1.00  0.00    -0.137 A  
HETATM   23  C   UNL     1      -8.930  10.688  69.001  1.00  0.00    -0.165 A  
HETATM   24  C   UNL     1      -8.529   9.411  69.443  1.00  0.00    -0.142 A  
BRANCH  22  25
HETATM   25  O   UNL     1      -8.468   7.042  69.200  1.00  0.00    -0.127 OA 
BRANCH  25  26
HETATM   26  C   UNL     1      -9.554   6.107  69.262  1.00  0.00    -0.133 C  
BRANCH  26  27
HETATM   27  C   UNL     1     -10.171   5.935  70.647  1.00  0.00    -0.209 C  
BRANCH  27  28
HETATM   28  N   UNL     1      -9.231   6.407  71.681  1.00  0.00    -0.145 NA 
HETATM   29  C   UNL     1      -9.675   7.605  72.399  1.00  0.00    -0.178 C  
HETATM   30  C   UNL     1      -8.777   7.617  73.617  1.00  0.00    -0.283 C  
HETATM   31  C   UNL     1      -8.658   6.147  73.979  1.00  0.00    -0.119 C  
HETATM   32  C   UNL     1      -8.935   5.387  72.685  1.00  0.00    -0.132 C  
ENDBRANCH  27  28
ENDBRANCH  26  27
ENDBRANCH  25  26
ENDBRANCH  22  25
ENDBRANCH   3  19
TORSDOF 6
ENDMDL
MODEL       83
REMARK 921   NORMALIZED FREE ENERGY PREDICTED BY IDOCK:   -4.71 KCAL/MOL
REMARK 922        TOTAL FREE ENERGY PREDICTED BY IDOCK:   -8.29 KCAL/MOL
REMARK 923 INTER-LIGAND FREE ENERGY PREDICTED BY IDOCK:   -7.06 KCAL/MOL
REMARK 924 INTRA-LIGAND FREE ENERGY PREDICTED BY IDOCK:   -1.24 KCAL/MOL
REMARK 927      BINDING AFFINITY PREDICTED BY RF-SCORE:    0.00 PKD
ROOT
HETATM    1  C   UNL     1     -11.752  12.751  67.547  1.00  0.00    -0.422 C  
HETATM    2  C   UNL     1     -12.408  13.369  66.303  1.00  0.00    -0.410 C  
HETATM    3  C   UNL     1     -11.285  11.290  67.209  1.00  0.00    -0.364 C  
HETATM    4  C   UNL     1     -11.429  13.482  65.136  1.00  0.00    -0.317 C  
HETATM    5  C   UNL     1     -10.638  11.154  65.816  1.00  0.00    -0.289 A  
HETATM    6  C   UNL     1     -10.646  12.216  64.893  1.00  0.00    -0.332 A  
HETATM    7  H   UNL     1      -7.806  10.096  62.195  1.00  0.00     0.000 HD 
HETATM    8  C   UNL     1      -9.986   9.954  65.456  1.00  0.00    -0.363 A  
HETATM    9  C   UNL     1      -9.865  12.124  63.727  1.00  0.00    -0.259 A  
HETATM   10  C   UNL     1      -9.128  10.974  63.462  1.00  0.00    -0.167 A  
HETATM   11  O   UNL     1      -8.309  10.882  62.376  1.00  0.00    -0.226 OA 
HETATM   12  C   UNL     1      -9.206   9.878  64.304  1.00  0.00    -0.317 A  
ENDROOT
BRANCH   1  13
HETATM   13  C   UNL     1     -10.764  13.727  68.196  1.00  0.00    -0.258 A  
HETATM   14  C   UNL     1      -9.448  13.910  67.752  1.00  0.00    -0.214 A  
HETATM   15  C   UNL     1      -8.971  15.425  69.576  1.00  0.00    -0.229 A  
HETATM   16  C   UNL     1     -10.295  15.319  69.994  1.00  0.00    -0.240 A  
HETATM   17  C   UNL     1     -11.182  14.482  69.309  1.00  0.00    -0.309 A  
HETATM   18  C   UNL     1      -8.551  14.728  68.445  1.00  0.00    -0.166 A  
ENDBRANCH   1  13
BRANCH   3  19
HETATM   19  C   UNL     1     -10.465  10.674  68.353  1.00  0.00    -0.212 A  
HETATM   20  C   UNL     1     -11.124  10.103  69.445  1.00  0.00    -0.288 A  
HETATM   21  C   UNL     1     -10.431   9.587  70.521  1.00  0.00    -0.358 A  
HETATM   22  C   UNL     1      -9.037   9.569  70.534  1.00  0.00    -0.219 A  
HETATM   23  C   UNL     1      -9.061  10.656  68.354  1.00  0.00    -0.156 A  
HETATM   24  C   UNL     1      -8.351  10.100  69.438  1.00  0.00    -0.174 A  
BRANCH  22  25
HETATM   25  O   UNL     1      -8.293   9.048  71.575  1.00  0.00    -0.304 OA 
BRANCH  25  26
HETATM   26  C   UNL     1      -8.372   7.616  71.620  1.00  0.00    -0.108 C  
BRANCH  26  27
HETATM   27  C   UNL     1      -8.489   7.028  73.024  1.00  0.00    -0.113 C  
BRANCH  27  28
HETATM   28  N   UNL     1      -7.277   6.253  73.349  1.00  0.00    -0.087 NA 
HETATM   29  C   UNL     1      -7.410   4.808  73.138  1.00  0.00    -0.082 C  
HETATM   30  C   UNL     1      -5.971   4.337  73.140  1.00  0.00    -0.012 C  
HETATM   31  C   UNL     1      -5.236   5.450  72.416  1.00  0.00    -0.016 C  
HETATM   32  C   UNL     1      -6.104   6.693  72.596  1.00  0.00    -0.046 C  
ENDBRANCH  27  28
ENDBRANCH  26  27
ENDBRANCH  25  26
ENDBRANCH  22  25
ENDBRANCH   3  19
TORSDOF 6
ENDMDL
MODEL       84
REMARK 921   NORMALIZED FREE ENERGY PREDICTED BY IDOCK:   -4.68 KCAL/MOL
REMARK 922        TOTAL FREE ENERGY PREDICTED BY IDOCK:   -8.25 KCAL/MOL
REMARK 923 INTER-LIGAND FREE ENERGY PREDICTED BY IDOCK:   -7.33 KCAL/MOL
REMARK 924 INTRA-LIGAND FREE ENERGY PREDICTED BY IDOCK:   -0.92 KCAL/MOL
REMARK 927      BINDING AFFINITY PREDICTED BY RF-SCORE:    0.00 PKD
ROOT
HETATM    1  C   UNL     1      -7.734   7.199  69.731  1.00  0.00    -0.108 C  
HETATM    2  C   UNL     1      -6.303   6.806  69.331  1.00  0.00    -0.042 C  
HETATM    3  C   UNL     1      -7.766   8.726  70.091  1.00  0.00    -0.084 C  
HETATM    4  C   UNL     1      -5.828   7.559  68.091  1.00  0.00    -0.031 C  
HETATM    5  C   UNL     1      -6.936   9.605  69.135  1.00  0.00    -0.050 A  
HETATM    6  C   UNL     1      -6.098   9.041  68.155  1.00  0.00    -0.050 A  
HETATM    7  H   UNL     1      -5.420  13.000  66.232  1.00  0.00     0.000 HD 
HETATM    8  C   UNL     1      -7.034  11.013  69.206  1.00  0.00    -0.116 A  
HETATM    9  C   UNL     1      -5.529   9.870  67.171  1.00  0.00    -0.042 A  
HETATM   10  C   UNL     1      -5.750  11.243  67.194  1.00  0.00    -0.077 A  
HETATM   11  O   UNL     1      -5.268  12.063  66.216  1.00  0.00    -0.297 OA 
HETATM   12  C   UNL     1      -6.475  11.823  68.220  1.00  0.00    -0.051 A  
ENDROOT
BRANCH   1  13
HETATM   13  C   UNL     1      -8.760   6.637  68.740  1.00  0.00    -0.128 A  
HETATM   14  C   UNL     1      -8.543   6.558  67.357  1.00  0.00    -0.118 A  
HETATM   15  C   UNL     1     -10.789   5.744  66.982  1.00  0.00    -0.328 A  
HETATM   16  C   UNL     1     -11.004   5.740  68.357  1.00  0.00    -0.159 A  
HETATM   17  C   UNL     1      -9.999   6.178  69.226  1.00  0.00    -0.196 A  
HETATM   18  C   UNL     1      -9.551   6.142  66.482  1.00  0.00    -0.183 A  
ENDBRANCH   1  13
BRANCH   3  19
HETATM   19  C   UNL     1      -9.199   9.227  70.330  1.00  0.00    -0.273 A  
HETATM   20  C   UNL     1      -9.846   8.919  71.530  1.00  0.00    -0.384 A  
HETATM   21  C   UNL     1     -11.152   9.299  71.767  1.00  0.00    -0.398 A  
HETATM   22  C   UNL     1     -11.859  10.055  70.833  1.00  0.00    -0.368 A  
HETATM   23  C   UNL     1      -9.902   9.993  69.386  1.00  0.00    -0.240 A  
HETATM   24  C   UNL     1     -11.225  10.409  69.641  1.00  0.00    -0.333 A  
BRANCH  22  25
HETATM   25  O   UNL     1     -13.160  10.478  71.027  1.00  0.00    -0.377 OA 
BRANCH  25  26
HETATM   26  C   UNL     1     -13.220  11.653  71.848  1.00  0.00    -0.369 C  
BRANCH  26  27
HETATM   27  C   UNL     1     -12.695  12.924  71.183  1.00  0.00    -0.276 C  
BRANCH  27  28
HETATM   28  N   UNL     1     -12.604  14.011  72.175  1.00  0.00    -0.243 NA 
HETATM   29  C   UNL     1     -11.731  15.120  71.776  1.00  0.00    -0.413 C  
HETATM   30  C   UNL     1     -12.135  16.223  72.730  1.00  0.00    -0.637 C  
HETATM   31  C   UNL     1     -13.638  16.048  72.852  1.00  0.00    -0.508 C  
HETATM   32  C   UNL     1     -13.905  14.585  72.509  1.00  0.00    -0.452 C  
ENDBRANCH  27  28
ENDBRANCH  26  27
ENDBRANCH  25  26
ENDBRANCH  22  25
ENDBRANCH   3  19
TORSDOF 6
ENDMDL
MODEL       85
REMARK 921   NORMALIZED FREE ENERGY PREDICTED BY IDOCK:   -4.67 KCAL/MOL
REMARK 922        TOTAL FREE ENERGY PREDICTED BY IDOCK:   -8.24 KCAL/MOL
REMARK 923 INTER-LIGAND FREE ENERGY PREDICTED BY IDOCK:   -7.36 KCAL/MOL
REMARK 924 INTRA-LIGAND FREE ENERGY PREDICTED BY IDOCK:   -0.88 KCAL/MOL
REMARK 927      BINDING AFFINITY PREDICTED BY RF-SCORE:    0.00 PKD
ROOT
HETATM    1  C   UNL     1      -7.292  11.336  68.362  1.00  0.00    -0.097 C  
HETATM    2  C   UNL     1      -6.120  11.338  67.368  1.00  0.00    -0.066 C  
HETATM    3  C   UNL     1      -8.558  11.948  67.663  1.00  0.00    -0.156 C  
HETATM    4  C   UNL     1      -6.406  10.472  66.144  1.00  0.00    -0.119 C  
HETATM    5  C   UNL     1      -8.748  11.481  66.206  1.00  0.00    -0.159 A  
HETATM    6  C   UNL     1      -7.765  10.724  65.541  1.00  0.00    -0.020 A  
HETATM    7  H   UNL     1     -10.499   9.886  62.127  1.00  0.00     0.000 HD 
HETATM    8  C   UNL     1      -9.945  11.780  65.519  1.00  0.00    -0.273 A  
HETATM    9  C   UNL     1      -8.066  10.141  64.297  1.00  0.00    -0.159 A  
HETATM   10  C   UNL     1      -9.307  10.350  63.704  1.00  0.00    -0.291 A  
HETATM   11  O   UNL     1      -9.652   9.743  62.532  1.00  0.00    -0.171 OA 
HETATM   12  C   UNL     1     -10.238  11.188  64.293  1.00  0.00    -0.399 A  
ENDROOT
BRANCH   1  13
HETATM   13  C   UNL     1      -7.407   9.988  69.082  1.00  0.00    -0.087 A  
HETATM   14  C   UNL     1      -7.669   8.777  68.427  1.00  0.00    -0.096 A  
HETATM   15  C   UNL     1      -7.772   7.584  70.528  1.00  0.00    -0.094 A  
HETATM   16  C   UNL     1      -7.437   8.759  71.197  1.00  0.00    -0.115 A  
HETATM   17  C   UNL     1      -7.253   9.946  70.481  1.00  0.00    -0.099 A  
HETATM   18  C   UNL     1      -7.876   7.592  69.139  1.00  0.00    -0.119 A  
ENDBRANCH   1  13
BRANCH   3  19
HETATM   19  C   UNL     1      -9.814  11.817  68.539  1.00  0.00    -0.192 A  
HETATM   20  C   UNL     1     -10.526  12.965  68.900  1.00  0.00    -0.109 A  
HETATM   21  C   UNL     1     -11.626  12.903  69.731  1.00  0.00    -0.288 A  
HETATM   22  C   UNL     1     -12.103  11.679  70.200  1.00  0.00    -0.333 A  
HETATM   23  C   UNL     1     -10.290  10.580  69.002  1.00  0.00    -0.232 A  
HETATM   24  C   UNL     1     -11.433  10.513  69.824  1.00  0.00    -0.365 A  
BRANCH  22  25
HETATM   25  O   UNL     1     -13.210  11.558  71.016  1.00  0.00    -0.114 OA 
BRANCH  25  26
HETATM   26  C   UNL     1     -13.166  12.480  72.114  1.00  0.00    -0.403 C  
BRANCH  26  27
HETATM   27  C   UNL     1     -14.284  13.519  72.122  1.00  0.00    -0.320 C  
BRANCH  27  28
HETATM   28  N   UNL     1     -13.727  14.859  72.384  1.00  0.00    -0.434 NA 
HETATM   29  C   UNL     1     -12.843  14.927  73.551  1.00  0.00    -0.463 C  
HETATM   30  C   UNL     1     -12.119  16.240  73.345  1.00  0.00    -0.572 C  
HETATM   31  C   UNL     1     -11.899  16.288  71.844  1.00  0.00    -0.538 C  
HETATM   32  C   UNL     1     -12.984  15.396  71.247  1.00  0.00    -0.473 C  
ENDBRANCH  27  28
ENDBRANCH  26  27
ENDBRANCH  25  26
ENDBRANCH  22  25
ENDBRANCH   3  19
TORSDOF 6
ENDMDL
MODEL       86
REMARK 921   NORMALIZED FREE ENERGY PREDICTED BY IDOCK:   -4.64 KCAL/MOL
REMARK 922        TOTAL FREE ENERGY PREDICTED BY IDOCK:   -8.19 KCAL/MOL
REMARK 923 INTER-LIGAND FREE ENERGY PREDICTED BY IDOCK:   -7.14 KCAL/MOL
REMARK 924 INTRA-LIGAND FREE ENERGY PREDICTED BY IDOCK:   -1.06 KCAL/MOL
REMARK 927      BINDING AFFINITY PREDICTED BY RF-SCORE:    0.00 PKD
ROOT
HETATM    1  C   UNL     1     -10.380  14.887  68.808  1.00  0.00    -0.245 C  
HETATM    2  C   UNL     1     -10.950  16.175  68.195  1.00  0.00    -0.341 C  
HETATM    3  C   UNL     1     -11.266  13.670  68.362  1.00  0.00    -0.306 C  
HETATM    4  C   UNL     1     -10.916  16.145  66.669  1.00  0.00    -0.055 C  
HETATM    5  C   UNL     1     -11.694  13.726  66.882  1.00  0.00    -0.424 A  
HETATM    6  C   UNL     1     -11.450  14.861  66.087  1.00  0.00    -0.272 A  
HETATM    7  H   UNL     1     -12.643  12.708  62.375  1.00  0.00     0.000 HD 
HETATM    8  C   UNL     1     -12.315  12.607  66.284  1.00  0.00    -0.031 A  
HETATM    9  C   UNL     1     -11.662  14.791  64.697  1.00  0.00    -0.426 A  
HETATM   10  C   UNL     1     -12.155  13.625  64.119  1.00  0.00    -0.435 A  
HETATM   11  O   UNL     1     -12.306  13.504  62.770  1.00  0.00    -0.359 OA 
HETATM   12  C   UNL     1     -12.509  12.543  64.906  1.00  0.00    -0.524 A  
ENDROOT
BRANCH   1  13
HETATM   13  C   UNL     1      -8.859  14.816  68.634  1.00  0.00    -0.180 A  
HETATM   14  C   UNL     1      -8.230  14.493  67.424  1.00  0.00    -0.220 A  
HETATM   15  C   UNL     1      -6.048  14.542  68.467  1.00  0.00    -0.091 A  
HETATM   16  C   UNL     1      -6.642  14.938  69.663  1.00  0.00    -0.162 A  
HETATM   17  C   UNL     1      -8.032  15.076  69.744  1.00  0.00     0.025 A  
HETATM   18  C   UNL     1      -6.843  14.331  67.343  1.00  0.00    -0.042 A  
ENDBRANCH   1  13
BRANCH   3  19
HETATM   19  C   UNL     1     -10.653  12.329  68.794  1.00  0.00    -0.223 A  
HETATM   20  C   UNL     1     -11.320  11.537  69.735  1.00  0.00    -0.303 A  
HETATM   21  C   UNL     1     -10.783  10.352  70.195  1.00  0.00    -0.292 A  
HETATM   22  C   UNL     1      -9.572   9.872  69.696  1.00  0.00    -0.227 A  
HETATM   23  C   UNL     1      -9.437  11.850  68.283  1.00  0.00    -0.197 A  
HETATM   24  C   UNL     1      -8.903  10.624  68.728  1.00  0.00    -0.161 A  
BRANCH  22  25
HETATM   25  O   UNL     1      -8.999   8.684  70.107  1.00  0.00    -0.143 OA 
BRANCH  25  26
HETATM   26  C   UNL     1      -8.213   8.855  71.295  1.00  0.00    -0.157 C  
BRANCH  26  27
HETATM   27  C   UNL     1      -8.774   8.166  72.536  1.00  0.00    -0.203 C  
BRANCH  27  28
HETATM   28  N   UNL     1      -9.755   7.138  72.143  1.00  0.00    -0.147 NA 
HETATM   29  C   UNL     1      -9.210   5.779  72.075  1.00  0.00    -0.147 C  
HETATM   30  C   UNL     1     -10.456   4.919  72.068  1.00  0.00    -0.245 C  
HETATM   31  C   UNL     1     -11.386   5.641  73.027  1.00  0.00    -0.288 C  
HETATM   32  C   UNL     1     -10.915   7.094  73.030  1.00  0.00    -0.317 C  
ENDBRANCH  27  28
ENDBRANCH  26  27
ENDBRANCH  25  26
ENDBRANCH  22  25
ENDBRANCH   3  19
TORSDOF 6
ENDMDL
MODEL       87
REMARK 921   NORMALIZED FREE ENERGY PREDICTED BY IDOCK:   -4.63 KCAL/MOL
REMARK 922        TOTAL FREE ENERGY PREDICTED BY IDOCK:   -8.19 KCAL/MOL
REMARK 923 INTER-LIGAND FREE ENERGY PREDICTED BY IDOCK:   -6.52 KCAL/MOL
REMARK 924 INTRA-LIGAND FREE ENERGY PREDICTED BY IDOCK:   -1.67 KCAL/MOL
REMARK 927      BINDING AFFINITY PREDICTED BY RF-SCORE:    0.00 PKD
ROOT
HETATM    1  C   UNL     1     -12.348   7.024  71.005  1.00  0.00    -0.402 C  
HETATM    2  C   UNL     1     -13.847   7.202  71.290  1.00  0.00    -0.292 C  
HETATM    3  C   UNL     1     -11.837   8.247  70.163  1.00  0.00     0.319 C  
HETATM    4  C   UNL     1     -14.127   8.452  72.121  1.00  0.00    -0.460 C  
HETATM    5  C   UNL     1     -12.405   9.602  70.633  1.00  0.00    -0.201 A  
HETATM    6  C   UNL     1     -13.418   9.678  71.607  1.00  0.00    -0.455 A  
HETATM    7  H   UNL     1     -12.951  14.093  71.969  1.00  0.00     0.000 HD 
HETATM    8  C   UNL     1     -11.881  10.806  70.111  1.00  0.00    -0.427 A  
HETATM    9  C   UNL     1     -13.754  10.929  72.158  1.00  0.00     0.065 A  
HETATM   10  C   UNL     1     -13.125  12.086  71.711  1.00  0.00    -0.355 A  
HETATM   11  O   UNL     1     -13.380  13.302  72.274  1.00  0.00    -0.495 OA 
HETATM   12  C   UNL     1     -12.212  12.037  70.673  1.00  0.00    -0.409 A  
ENDROOT
BRANCH   1  13
HETATM   13  C   UNL     1     -11.587   6.610  72.270  1.00  0.00    -0.313 A  
HETATM   14  C   UNL     1     -10.890   7.510  73.086  1.00  0.00    -0.448 A  
HETATM   15  C   UNL     1     -10.072   5.714  74.484  1.00  0.00    -0.296 A  
HETATM   16  C   UNL     1     -10.818   4.807  73.734  1.00  0.00    -0.379 A  
HETATM   17  C   UNL     1     -11.569   5.252  72.641  1.00  0.00    -0.226 A  
HETATM   18  C   UNL     1     -10.119   7.069  74.167  1.00  0.00    -0.290 A  
ENDBRANCH   1  13
BRANCH   3  19
HETATM   19  C   UNL     1     -10.311   8.225  69.991  1.00  0.00    -0.212 A  
HETATM   20  C   UNL     1      -9.518   9.092  70.749  1.00  0.00    -0.334 A  
HETATM   21  C   UNL     1      -8.148   9.148  70.589  1.00  0.00    -0.198 A  
HETATM   22  C   UNL     1      -7.496   8.297  69.696  1.00  0.00    -0.081 A  
HETATM   23  C   UNL     1      -9.662   7.362  69.094  1.00  0.00    -0.165 A  
HETATM   24  C   UNL     1      -8.259   7.395  68.953  1.00  0.00    -0.129 A  
BRANCH  22  25
HETATM   25  O   UNL     1      -6.127   8.297  69.511  1.00  0.00    -0.035 OA 
BRANCH  25  26
HETATM   26  C   UNL     1      -5.424   8.064  70.740  1.00  0.00    -0.029 C  
BRANCH  26  27
HETATM   27  C   UNL     1      -5.125   6.597  71.037  1.00  0.00    -0.019 C  
BRANCH  27  28
HETATM   28  N   UNL     1      -6.238   5.999  71.797  1.00  0.00    -0.043 NA 
HETATM   29  C   UNL     1      -6.832   4.817  71.167  1.00  0.00    -0.039 C  
HETATM   30  C   UNL     1      -7.617   4.193  72.301  1.00  0.00    -0.076 C  
HETATM   31  C   UNL     1      -6.726   4.414  73.509  1.00  0.00    -0.058 C  
HETATM   32  C   UNL     1      -5.857   5.618  73.155  1.00  0.00    -0.035 C  
ENDBRANCH  27  28
ENDBRANCH  26  27
ENDBRANCH  25  26
ENDBRANCH  22  25
ENDBRANCH   3  19
TORSDOF 6
ENDMDL
MODEL       88
REMARK 921   NORMALIZED FREE ENERGY PREDICTED BY IDOCK:   -4.61 KCAL/MOL
REMARK 922        TOTAL FREE ENERGY PREDICTED BY IDOCK:   -8.15 KCAL/MOL
REMARK 923 INTER-LIGAND FREE ENERGY PREDICTED BY IDOCK:   -6.88 KCAL/MOL
REMARK 924 INTRA-LIGAND FREE ENERGY PREDICTED BY IDOCK:   -1.27 KCAL/MOL
REMARK 927      BINDING AFFINITY PREDICTED BY RF-SCORE:    0.00 PKD
ROOT
HETATM    1  C   UNL     1      -8.813   8.641  67.966  1.00  0.00    -0.141 C  
HETATM    2  C   UNL     1      -9.156   7.315  68.662  1.00  0.00    -0.133 C  
HETATM    3  C   UNL     1     -10.116   9.509  67.842  1.00  0.00    -0.234 C  
HETATM    4  C   UNL     1      -9.675   7.531  70.081  1.00  0.00    -0.172 C  
HETATM    5  C   UNL     1     -11.003   9.476  69.102  1.00  0.00    -0.148 A  
HETATM    6  C   UNL     1     -10.733   8.601  70.171  1.00  0.00    -0.244 A  
HETATM    7  H   UNL     1     -13.740  10.606  72.775  1.00  0.00     0.000 HD 
HETATM    8  C   UNL     1     -12.096  10.364  69.219  1.00  0.00    -0.022 A  
HETATM    9  C   UNL     1     -11.433   8.752  71.382  1.00  0.00    -0.366 A  
HETATM   10  C   UNL     1     -12.420   9.726  71.508  1.00  0.00    -0.403 A  
HETATM   11  O   UNL     1     -13.067   9.941  72.689  1.00  0.00    -0.166 OA 
HETATM   12  C   UNL     1     -12.775  10.513  70.427  1.00  0.00    -0.325 A  
ENDROOT
BRANCH   1  13
HETATM   13  C   UNL     1      -7.545   9.267  68.558  1.00  0.00    -0.085 A  
HETATM   14  C   UNL     1      -7.447   9.717  69.882  1.00  0.00    -0.142 A  
HETATM   15  C   UNL     1      -5.214  10.565  69.499  1.00  0.00    -0.038 A  
HETATM   16  C   UNL     1      -5.258  10.059  68.203  1.00  0.00    -0.035 A  
HETATM   17  C   UNL     1      -6.410   9.414  67.739  1.00  0.00    -0.058 A  
HETATM   18  C   UNL     1      -6.307  10.382  70.344  1.00  0.00    -0.127 A  
ENDBRANCH   1  13
BRANCH   3  19
HETATM   19  C   UNL     1      -9.815  10.920  67.315  1.00  0.00    -0.202 A  
HETATM   20  C   UNL     1      -9.361  11.904  68.198  1.00  0.00    -0.191 A  
HETATM   21  C   UNL     1      -9.130  13.200  67.783  1.00  0.00    -0.200 A  
HETATM   22  C   UNL     1      -9.293  13.564  66.446  1.00  0.00    -0.176 A  
HETATM   23  C   UNL     1      -9.977  11.276  65.966  1.00  0.00    -0.273 A  
HETATM   24  C   UNL     1      -9.711  12.592  65.534  1.00  0.00    -0.133 A  
BRANCH  22  25
HETATM   25  O   UNL     1      -9.058  14.840  65.972  1.00  0.00    -0.209 OA 
BRANCH  25  26
HETATM   26  C   UNL     1      -9.820  15.822  66.689  1.00  0.00    -0.252 C  
BRANCH  26  27
HETATM   27  C   UNL     1     -10.343  16.973  65.833  1.00  0.00    -0.298 C  
BRANCH  27  28
HETATM   28  N   UNL     1      -9.760  18.248  66.291  1.00  0.00    -0.451 NA 
HETATM   29  C   UNL     1     -10.700  19.372  66.300  1.00  0.00    -0.411 C  
HETATM   30  C   UNL     1      -9.993  20.392  67.167  1.00  0.00    -0.568 C  
HETATM   31  C   UNL     1      -9.342  19.545  68.246  1.00  0.00    -0.420 C  
HETATM   32  C   UNL     1      -9.181  18.158  67.629  1.00  0.00    -0.259 C  
ENDBRANCH  27  28
ENDBRANCH  26  27
ENDBRANCH  25  26
ENDBRANCH  22  25
ENDBRANCH   3  19
TORSDOF 6
ENDMDL
MODEL       89
REMARK 921   NORMALIZED FREE ENERGY PREDICTED BY IDOCK:   -4.60 KCAL/MOL
REMARK 922        TOTAL FREE ENERGY PREDICTED BY IDOCK:   -8.14 KCAL/MOL
REMARK 923 INTER-LIGAND FREE ENERGY PREDICTED BY IDOCK:   -7.55 KCAL/MOL
REMARK 924 INTRA-LIGAND FREE ENERGY PREDICTED BY IDOCK:   -0.59 KCAL/MOL
REMARK 927      BINDING AFFINITY PREDICTED BY RF-SCORE:    0.00 PKD
ROOT
HETATM    1  C   UNL     1      -7.448  17.721  66.461  1.00  0.00    -0.284 C  
HETATM    2  C   UNL     1      -6.056  18.212  66.887  1.00  0.00    -0.176 C  
HETATM    3  C   UNL     1      -7.517  16.161  66.628  1.00  0.00    -0.200 C  
HETATM    4  C   UNL     1      -5.771  17.917  68.358  1.00  0.00    -0.164 C  
HETATM    5  C   UNL     1      -6.852  15.648  67.921  1.00  0.00    -0.159 A  
HETATM    6  C   UNL     1      -6.108  16.502  68.757  1.00  0.00    -0.135 A  
HETATM    7  H   UNL     1      -5.868  13.416  71.959  1.00  0.00     0.000 HD 
HETATM    8  C   UNL     1      -7.014  14.300  68.311  1.00  0.00    -0.108 A  
HETATM    9  C   UNL     1      -5.703  16.048  70.025  1.00  0.00    -0.171 A  
HETATM   10  C   UNL     1      -5.991  14.749  70.432  1.00  0.00    -0.159 A  
HETATM   11  O   UNL     1      -5.671  14.303  71.681  1.00  0.00    -0.203 OA 
HETATM   12  C   UNL     1      -6.618  13.864  69.574  1.00  0.00    -0.097 A  
ENDROOT
BRANCH   1  13
HETATM   13  C   UNL     1      -8.554  18.593  67.067  1.00  0.00    -0.280 A  
HETATM   14  C   UNL     1      -9.463  19.338  66.303  1.00  0.00    -0.387 A  
HETATM   15  C   UNL     1     -10.444  20.306  68.291  1.00  0.00    -0.267 A  
HETATM   16  C   UNL     1      -9.604  19.519  69.074  1.00  0.00    -0.419 A  
HETATM   17  C   UNL     1      -8.672  18.669  68.468  1.00  0.00    -0.362 A  
HETATM   18  C   UNL     1     -10.381  20.205  66.903  1.00  0.00    -0.503 A  
ENDBRANCH   1  13
BRANCH   3  19
HETATM   19  C   UNL     1      -8.935  15.622  66.387  1.00  0.00    -0.362 A  
HETATM   20  C   UNL     1      -9.794  15.430  67.474  1.00  0.00    -0.217 A  
HETATM   21  C   UNL     1     -11.056  14.896  67.314  1.00  0.00    -0.336 A  
HETATM   22  C   UNL     1     -11.544  14.576  66.047  1.00  0.00    -0.356 A  
HETATM   23  C   UNL     1      -9.420  15.308  65.108  1.00  0.00     0.359 A  
HETATM   24  C   UNL     1     -10.721  14.793  64.939  1.00  0.00    -0.438 A  
BRANCH  22  25
HETATM   25  O   UNL     1     -12.806  14.058  65.828  1.00  0.00    -0.516 OA 
BRANCH  25  26
HETATM   26  C   UNL     1     -12.773  12.635  65.648  1.00  0.00     0.239 C  
BRANCH  26  27
HETATM   27  C   UNL     1     -11.500  11.957  66.149  1.00  0.00    -0.288 C  
BRANCH  27  28
HETATM   28  N   UNL     1     -11.796  11.148  67.346  1.00  0.00    -0.513 NA 
HETATM   29  C   UNL     1     -10.787  10.130  67.650  1.00  0.00    -0.290 C  
HETATM   30  C   UNL     1     -11.108   9.758  69.082  1.00  0.00    -0.158 C  
HETATM   31  C   UNL     1     -11.498  11.084  69.709  1.00  0.00    -0.387 C  
HETATM   32  C   UNL     1     -11.968  11.958  68.549  1.00  0.00    -0.212 C  
ENDBRANCH  27  28
ENDBRANCH  26  27
ENDBRANCH  25  26
ENDBRANCH  22  25
ENDBRANCH   3  19
TORSDOF 6
ENDMDL
MODEL       90
REMARK 921   NORMALIZED FREE ENERGY PREDICTED BY IDOCK:   -4.58 KCAL/MOL
REMARK 922        TOTAL FREE ENERGY PREDICTED BY IDOCK:   -8.12 KCAL/MOL
REMARK 923 INTER-LIGAND FREE ENERGY PREDICTED BY IDOCK:   -6.81 KCAL/MOL
REMARK 924 INTRA-LIGAND FREE ENERGY PREDICTED BY IDOCK:   -1.31 KCAL/MOL
REMARK 927      BINDING AFFINITY PREDICTED BY RF-SCORE:    0.00 PKD
ROOT
HETATM    1  C   UNL     1     -10.201  14.289  68.899  1.00  0.00    -0.203 C  
HETATM    2  C   UNL     1     -11.331  15.324  68.790  1.00  0.00    -0.318 C  
HETATM    3  C   UNL     1     -10.645  12.966  68.179  1.00  0.00    -0.249 C  
HETATM    4  C   UNL     1     -11.630  15.694  67.339  1.00  0.00     0.013 C  
HETATM    5  C   UNL     1     -11.382  13.204  66.846  1.00  0.00    -0.355 A  
HETATM    6  C   UNL     1     -11.762  14.495  66.435  1.00  0.00    -0.372 A  
HETATM    7  H   UNL     1     -12.864  13.044  62.371  1.00  0.00     0.000 HD 
HETATM    8  C   UNL     1     -11.658  12.116  65.988  1.00  0.00    -0.420 A  
HETATM    9  C   UNL     1     -12.237  14.691  65.125  1.00  0.00    -0.282 A  
HETATM   10  C   UNL     1     -12.376  13.612  64.258  1.00  0.00    -0.335 A  
HETATM   11  O   UNL     1     -12.768  13.781  62.963  1.00  0.00    -0.671 OA 
HETATM   12  C   UNL     1     -12.117  12.323  64.690  1.00  0.00    -0.449 A  
ENDROOT
BRANCH   1  13
HETATM   13  C   UNL     1      -8.842  14.912  68.558  1.00  0.00    -0.174 A  
HETATM   14  C   UNL     1      -7.766  14.968  69.454  1.00  0.00    -0.190 A  
HETATM   15  C   UNL     1      -6.437  16.241  67.885  1.00  0.00    -0.156 A  
HETATM   16  C   UNL     1      -7.463  16.135  66.948  1.00  0.00    -0.266 A  
HETATM   17  C   UNL     1      -8.650  15.474  67.281  1.00  0.00    -0.215 A  
HETATM   18  C   UNL     1      -6.585  15.646  69.135  1.00  0.00    -0.140 A  
ENDBRANCH   1  13
BRANCH   3  19
HETATM   19  C   UNL     1      -9.498  11.947  68.096  1.00  0.00    -0.195 A  
HETATM   20  C   UNL     1      -9.394  10.945  69.065  1.00  0.00    -0.144 A  
HETATM   21  C   UNL     1      -8.350  10.042  69.065  1.00  0.00    -0.134 A  
HETATM   22  C   UNL     1      -7.383  10.065  68.059  1.00  0.00    -0.087 A  
HETATM   23  C   UNL     1      -8.532  11.974  67.078  1.00  0.00    -0.183 A  
HETATM   24  C   UNL     1      -7.483  11.032  67.057  1.00  0.00    -0.127 A  
BRANCH  22  25
HETATM   25  O   UNL     1      -6.330   9.174  67.999  1.00  0.00    -0.054 OA 
BRANCH  25  26
HETATM   26  C   UNL     1      -6.677   7.900  68.560  1.00  0.00    -0.062 C  
BRANCH  26  27
HETATM   27  C   UNL     1      -6.921   6.795  67.536  1.00  0.00    -0.083 C  
BRANCH  27  28
HETATM   28  N   UNL     1      -8.286   6.257  67.688  1.00  0.00    -0.117 NA 
HETATM   29  C   UNL     1      -9.341   7.136  67.174  1.00  0.00    -0.140 C  
HETATM   30  C   UNL     1     -10.531   6.206  67.075  1.00  0.00    -0.341 C  
HETATM   31  C   UNL     1      -9.917   4.899  66.605  1.00  0.00    -0.254 C  
HETATM   32  C   UNL     1      -8.457   4.956  67.046  1.00  0.00    -0.105 C  
ENDBRANCH  27  28
ENDBRANCH  26  27
ENDBRANCH  25  26
ENDBRANCH  22  25
ENDBRANCH   3  19
TORSDOF 6
ENDMDL
MODEL       91
REMARK 921   NORMALIZED FREE ENERGY PREDICTED BY IDOCK:   -4.57 KCAL/MOL
REMARK 922        TOTAL FREE ENERGY PREDICTED BY IDOCK:   -8.10 KCAL/MOL
REMARK 923 INTER-LIGAND FREE ENERGY PREDICTED BY IDOCK:   -7.27 KCAL/MOL
REMARK 924 INTRA-LIGAND FREE ENERGY PREDICTED BY IDOCK:   -0.83 KCAL/MOL
REMARK 927      BINDING AFFINITY PREDICTED BY RF-SCORE:    0.00 PKD
ROOT
HETATM    1  C   UNL     1     -11.078   6.481  71.095  1.00  0.00    -0.332 C  
HETATM    2  C   UNL     1     -11.298   5.315  72.070  1.00  0.00    -0.019 C  
HETATM    3  C   UNL     1     -10.228   7.593  71.808  1.00  0.00    -0.225 C  
HETATM    4  C   UNL     1      -9.983   4.661  72.488  1.00  0.00    -0.220 C  
HETATM    5  C   UNL     1      -9.070   7.036  72.660  1.00  0.00    -0.153 A  
HETATM    6  C   UNL     1      -8.928   5.656  72.899  1.00  0.00    -0.123 A  
HETATM    7  H   UNL     1      -4.887   6.223  74.682  1.00  0.00     0.000 HD 
HETATM    8  C   UNL     1      -8.099   7.914  73.190  1.00  0.00    -0.213 A  
HETATM    9  C   UNL     1      -7.748   5.176  73.496  1.00  0.00    -0.099 A  
HETATM   10  C   UNL     1      -6.750   6.060  73.893  1.00  0.00    -0.079 A  
HETATM   11  O   UNL     1      -5.568   5.619  74.411  1.00  0.00    -0.041 OA 
HETATM   12  C   UNL     1      -6.929   7.427  73.770  1.00  0.00    -0.093 A  
ENDROOT
BRANCH   1  13
HETATM   13  C   UNL     1     -10.648   5.975  69.713  1.00  0.00    -0.356 A  
HETATM   14  C   UNL     1     -10.868   6.682  68.524  1.00  0.00    -0.319 A  
HETATM   15  C   UNL     1      -9.971   4.869  67.199  1.00  0.00    -0.229 A  
HETATM   16  C   UNL     1      -9.672   4.177  68.370  1.00  0.00    -0.150 A  
HETATM   17  C   UNL     1     -10.004   4.727  69.613  1.00  0.00    -0.297 A  
HETATM   18  C   UNL     1     -10.559   6.129  67.277  1.00  0.00    -0.362 A  
ENDBRANCH   1  13
BRANCH   3  19
HETATM   19  C   UNL     1      -9.820   8.711  70.836  1.00  0.00    -0.256 A  
HETATM   20  C   UNL     1     -10.758   9.678  70.464  1.00  0.00    -0.374 A  
HETATM   21  C   UNL     1     -10.455  10.668  69.552  1.00  0.00    -0.236 A  
HETATM   22  C   UNL     1      -9.176  10.772  69.005  1.00  0.00    -0.146 A  
HETATM   23  C   UNL     1      -8.528   8.811  70.295  1.00  0.00    -0.154 A  
HETATM   24  C   UNL     1      -8.208   9.842  69.388  1.00  0.00    -0.135 A  
BRANCH  22  25
HETATM   25  O   UNL     1      -8.813  11.754  68.104  1.00  0.00    -0.157 OA 
BRANCH  25  26
HETATM   26  C   UNL     1      -8.704  11.238  66.770  1.00  0.00    -0.166 C  
BRANCH  26  27
HETATM   27  C   UNL     1     -10.025  10.801  66.144  1.00  0.00    -0.232 C  
BRANCH  27  28
HETATM   28  N   UNL     1     -10.575  11.887  65.312  1.00  0.00    -0.265 NA 
HETATM   29  C   UNL     1     -10.800  11.518  63.911  1.00  0.00    -0.401 C  
HETATM   30  C   UNL     1     -11.713  12.621  63.419  1.00  0.00    -0.571 C  
HETATM   31  C   UNL     1     -12.622  12.881  64.606  1.00  0.00    -0.459 C  
HETATM   32  C   UNL     1     -11.835  12.415  65.828  1.00  0.00    -0.406 C  
ENDBRANCH  27  28
ENDBRANCH  26  27
ENDBRANCH  25  26
ENDBRANCH  22  25
ENDBRANCH   3  19
TORSDOF 6
ENDMDL
MODEL       92
REMARK 921   NORMALIZED FREE ENERGY PREDICTED BY IDOCK:   -4.57 KCAL/MOL
REMARK 922        TOTAL FREE ENERGY PREDICTED BY IDOCK:   -8.10 KCAL/MOL
REMARK 923 INTER-LIGAND FREE ENERGY PREDICTED BY IDOCK:   -6.84 KCAL/MOL
REMARK 924 INTRA-LIGAND FREE ENERGY PREDICTED BY IDOCK:   -1.25 KCAL/MOL
REMARK 927      BINDING AFFINITY PREDICTED BY RF-SCORE:    0.00 PKD
ROOT
HETATM    1  C   UNL     1      -8.275   7.125  69.945  1.00  0.00    -0.133 C  
HETATM    2  C   UNL     1      -7.728   5.765  70.405  1.00  0.00    -0.095 C  
HETATM    3  C   UNL     1      -8.032   7.281  68.401  1.00  0.00    -0.124 C  
HETATM    4  C   UNL     1      -8.446   4.600  69.728  1.00  0.00    -0.088 C  
HETATM    5  C   UNL     1      -8.312   5.996  67.598  1.00  0.00    -0.108 A  
HETATM    6  C   UNL     1      -8.583   4.771  68.237  1.00  0.00    -0.107 A  
HETATM    7  H   UNL     1      -9.779   2.855  64.398  1.00  0.00     0.000 HD 
HETATM    8  C   UNL     1      -8.338   6.037  66.186  1.00  0.00    -0.126 A  
HETATM    9  C   UNL     1      -9.041   3.680  67.475  1.00  0.00    -0.185 A  
HETATM   10  C   UNL     1      -9.179   3.794  66.096  1.00  0.00    -0.164 A  
HETATM   11  O   UNL     1      -9.684   2.777  65.341  1.00  0.00     0.007 OA 
HETATM   12  C   UNL     1      -8.804   4.955  65.443  1.00  0.00    -0.149 A  
ENDROOT
BRANCH   1  13
HETATM   13  C   UNL     1      -9.674   7.382  70.517  1.00  0.00    -0.175 A  
HETATM   14  C   UNL     1     -10.778   6.554  70.271  1.00  0.00    -0.307 A  
HETATM   15  C   UNL     1     -12.250   8.044  71.480  1.00  0.00    -0.328 A  
HETATM   16  C   UNL     1     -11.157   8.844  71.802  1.00  0.00    -0.433 A  
HETATM   17  C   UNL     1      -9.882   8.513  71.329  1.00  0.00    -0.279 A  
HETATM   18  C   UNL     1     -12.058   6.891  70.723  1.00  0.00    -0.400 A  
ENDBRANCH   1  13
BRANCH   3  19
HETATM   19  C   UNL     1      -8.711   8.540  67.841  1.00  0.00    -0.138 A  
HETATM   20  C   UNL     1      -9.912   8.420  67.134  1.00  0.00    -0.304 A  
HETATM   21  C   UNL     1     -10.529   9.515  66.564  1.00  0.00    -0.201 A  
HETATM   22  C   UNL     1     -10.001  10.797  66.718  1.00  0.00    -0.206 A  
HETATM   23  C   UNL     1      -8.175   9.827  68.005  1.00  0.00    -0.109 A  
HETATM   24  C   UNL     1      -8.822  10.951  67.451  1.00  0.00    -0.133 A  
BRANCH  22  25
HETATM   25  O   UNL     1     -10.588  11.928  66.187  1.00  0.00    -0.241 OA 
BRANCH  25  26
HETATM   26  C   UNL     1     -11.359  12.638  67.167  1.00  0.00    -0.319 C  
BRANCH  26  27
HETATM   27  C   UNL     1     -11.915  13.979  66.693  1.00  0.00    -0.445 C  
BRANCH  27  28
HETATM   28  N   UNL     1     -10.972  15.063  67.025  1.00  0.00    -0.313 NA 
HETATM   29  C   UNL     1     -10.782  16.045  65.954  1.00  0.00    -0.280 C  
HETATM   30  C   UNL     1     -10.135  17.207  66.678  1.00  0.00    -0.306 C  
HETATM   31  C   UNL     1     -10.846  17.225  68.018  1.00  0.00    -0.297 C  
HETATM   32  C   UNL     1     -11.357  15.801  68.225  1.00  0.00    -0.354 C  
ENDBRANCH  27  28
ENDBRANCH  26  27
ENDBRANCH  25  26
ENDBRANCH  22  25
ENDBRANCH   3  19
TORSDOF 6
ENDMDL
MODEL       93
REMARK 921   NORMALIZED FREE ENERGY PREDICTED BY IDOCK:   -4.56 KCAL/MOL
REMARK 922        TOTAL FREE ENERGY PREDICTED BY IDOCK:   -8.09 KCAL/MOL
REMARK 923 INTER-LIGAND FREE ENERGY PREDICTED BY IDOCK:   -6.96 KCAL/MOL
REMARK 924 INTRA-LIGAND FREE ENERGY PREDICTED BY IDOCK:   -1.13 KCAL/MOL
REMARK 927      BINDING AFFINITY PREDICTED BY RF-SCORE:    0.00 PKD
ROOT
HETATM    1  C   UNL     1     -10.237  14.665  66.911  1.00  0.00    -0.262 C  
HETATM    2  C   UNL     1     -10.812  15.887  66.179  1.00  0.00    -0.208 C  
HETATM    3  C   UNL     1      -8.678  14.640  66.724  1.00  0.00    -0.233 C  
HETATM    4  C   UNL     1     -10.281  17.199  66.751  1.00  0.00    -0.311 C  
HETATM    5  C   UNL     1      -8.017  16.027  66.848  1.00  0.00    -0.283 A  
HETATM    6  C   UNL     1      -8.785  17.204  66.940  1.00  0.00    -0.254 A  
HETATM    7  H   UNL     1      -5.202  19.647  67.953  1.00  0.00     0.000 HD 
HETATM    8  C   UNL     1      -6.610  16.136  66.909  1.00  0.00    -0.052 A  
HETATM    9  C   UNL     1      -8.153  18.418  67.266  1.00  0.00    -0.243 A  
HETATM   10  C   UNL     1      -6.774  18.467  67.446  1.00  0.00    -0.197 A  
HETATM   11  O   UNL     1      -6.143  19.614  67.829  1.00  0.00    -0.200 OA 
HETATM   12  C   UNL     1      -5.996  17.341  67.243  1.00  0.00    -0.168 A  
ENDROOT
BRANCH   1  13
HETATM   13  C   UNL     1     -10.828  14.533  68.320  1.00  0.00    -0.247 A  
HETATM   14  C   UNL     1     -11.807  13.593  68.666  1.00  0.00    -0.409 A  
HETATM   15  C   UNL     1     -11.976  14.492  70.905  1.00  0.00    -0.389 A  
HETATM   16  C   UNL     1     -10.951  15.387  70.609  1.00  0.00    -0.350 A  
HETATM   17  C   UNL     1     -10.381  15.405  69.332  1.00  0.00    -0.258 A  
HETATM   18  C   UNL     1     -12.396  13.586  69.934  1.00  0.00    -0.287 A  
ENDBRANCH   1  13
BRANCH   3  19
HETATM   19  C   UNL     1      -8.018  13.545  67.574  1.00  0.00    -0.186 A  
HETATM   20  C   UNL     1      -8.279  12.200  67.292  1.00  0.00    -0.180 A  
HETATM   21  C   UNL     1      -7.753  11.183  68.063  1.00  0.00    -0.107 A  
HETATM   22  C   UNL     1      -6.894  11.460  69.126  1.00  0.00    -0.111 A  
HETATM   23  C   UNL     1      -7.149  13.832  68.640  1.00  0.00    -0.104 A  
HETATM   24  C   UNL     1      -6.586  12.792  69.408  1.00  0.00    -0.064 A  
BRANCH  22  25
HETATM   25  O   UNL     1      -6.325  10.480  69.917  1.00  0.00    -0.073 OA 
BRANCH  25  26
HETATM   26  C   UNL     1      -7.238   9.404  70.171  1.00  0.00    -0.096 C  
BRANCH  26  27
HETATM   27  C   UNL     1      -7.136   8.796  71.568  1.00  0.00    -0.083 C  
BRANCH  27  28
HETATM   28  N   UNL     1      -8.447   8.853  72.241  1.00  0.00    -0.371 NA 
HETATM   29  C   UNL     1      -9.589   8.585  71.361  1.00  0.00    -0.215 C  
HETATM   30  C   UNL     1     -10.707   8.302  72.342  1.00  0.00    -0.411 C  
HETATM   31  C   UNL     1     -10.015   7.526  73.448  1.00  0.00    -0.378 C  
HETATM   32  C   UNL     1      -8.546   7.931  73.369  1.00  0.00    -0.227 C  
ENDBRANCH  27  28
ENDBRANCH  26  27
ENDBRANCH  25  26
ENDBRANCH  22  25
ENDBRANCH   3  19
TORSDOF 6
ENDMDL
MODEL       94
REMARK 921   NORMALIZED FREE ENERGY PREDICTED BY IDOCK:   -4.54 KCAL/MOL
REMARK 922        TOTAL FREE ENERGY PREDICTED BY IDOCK:   -8.06 KCAL/MOL
REMARK 923 INTER-LIGAND FREE ENERGY PREDICTED BY IDOCK:   -6.89 KCAL/MOL
REMARK 924 INTRA-LIGAND FREE ENERGY PREDICTED BY IDOCK:   -1.17 KCAL/MOL
REMARK 927      BINDING AFFINITY PREDICTED BY RF-SCORE:    0.00 PKD
ROOT
HETATM    1  C   UNL     1      -7.649   7.397  70.492  1.00  0.00    -0.087 C  
HETATM    2  C   UNL     1      -6.567   6.318  70.656  1.00  0.00    -0.045 C  
HETATM    3  C   UNL     1      -7.722   7.824  68.983  1.00  0.00    -0.109 C  
HETATM    4  C   UNL     1      -6.890   5.057  69.859  1.00  0.00    -0.051 C  
HETATM    5  C   UNL     1      -7.618   6.642  67.999  1.00  0.00    -0.107 A  
HETATM    6  C   UNL     1      -7.307   5.342  68.439  1.00  0.00    -0.071 A  
HETATM    7  H   UNL     1      -8.269   3.596  64.456  1.00  0.00     0.000 HD 
HETATM    8  C   UNL     1      -7.875   6.843  66.624  1.00  0.00    -0.107 A  
HETATM    9  C   UNL     1      -7.432   4.261  67.547  1.00  0.00    -0.069 A  
HETATM   10  C   UNL     1      -7.813   4.479  66.226  1.00  0.00    -0.099 A  
HETATM   11  O   UNL     1      -8.009   3.447  65.358  1.00  0.00    -0.088 OA 
HETATM   12  C   UNL     1      -8.007   5.765  65.752  1.00  0.00    -0.110 A  
ENDROOT
BRANCH   1  13
HETATM   13  C   UNL     1      -8.936   7.008  71.228  1.00  0.00    -0.137 A  
HETATM   14  C   UNL     1      -9.317   7.546  72.464  1.00  0.00    -0.200 A  
HETATM   15  C   UNL     1     -11.245   6.091  72.581  1.00  0.00    -0.326 A  
HETATM   16  C   UNL     1     -10.931   5.593  71.319  1.00  0.00    -0.251 A  
HETATM   17  C   UNL     1      -9.791   6.050  70.649  1.00  0.00    -0.222 A  
HETATM   18  C   UNL     1     -10.443   7.078  73.149  1.00  0.00    -0.335 A  
ENDBRANCH   1  13
BRANCH   3  19
HETATM   19  C   UNL     1      -8.902   8.771  68.714  1.00  0.00    -0.134 A  
HETATM   20  C   UNL     1      -8.830  10.101  69.141  1.00  0.00    -0.179 A  
HETATM   21  C   UNL     1      -9.886  10.974  68.972  1.00  0.00    -0.165 A  
HETATM   22  C   UNL     1     -11.050  10.573  68.317  1.00  0.00    -0.284 A  
HETATM   23  C   UNL     1     -10.068   8.361  68.048  1.00  0.00    -0.245 A  
HETATM   24  C   UNL     1     -11.134   9.261  67.846  1.00  0.00     0.068 A  
BRANCH  22  25
HETATM   25  O   UNL     1     -12.127  11.410  68.103  1.00  0.00    -0.623 OA 
BRANCH  25  26
HETATM   26  C   UNL     1     -11.764  12.791  68.238  1.00  0.00    -0.344 C  
BRANCH  26  27
HETATM   27  C   UNL     1     -11.895  13.615  66.960  1.00  0.00    -0.408 C  
BRANCH  27  28
HETATM   28  N   UNL     1     -11.814  12.733  65.781  1.00  0.00    -0.411 NA 
HETATM   29  C   UNL     1     -12.623  13.176  64.641  1.00  0.00    -0.322 C  
HETATM   30  C   UNL     1     -12.052  12.371  63.494  1.00  0.00    -0.651 C  
HETATM   31  C   UNL     1     -10.563  12.344  63.790  1.00  0.00    -0.486 C  
HETATM   32  C   UNL     1     -10.447  12.557  65.297  1.00  0.00    -0.287 C  
ENDBRANCH  27  28
ENDBRANCH  26  27
ENDBRANCH  25  26
ENDBRANCH  22  25
ENDBRANCH   3  19
TORSDOF 6
ENDMDL
MODEL       95
REMARK 921   NORMALIZED FREE ENERGY PREDICTED BY IDOCK:   -4.52 KCAL/MOL
REMARK 922        TOTAL FREE ENERGY PREDICTED BY IDOCK:   -8.03 KCAL/MOL
REMARK 923 INTER-LIGAND FREE ENERGY PREDICTED BY IDOCK:   -6.33 KCAL/MOL
REMARK 924 INTRA-LIGAND FREE ENERGY PREDICTED BY IDOCK:   -1.70 KCAL/MOL
REMARK 927      BINDING AFFINITY PREDICTED BY RF-SCORE:    0.00 PKD
ROOT
HETATM    1  C   UNL     1     -10.054  10.872  66.203  1.00  0.00    -0.291 C  
HETATM    2  C   UNL     1     -10.603   9.495  66.606  1.00  0.00    -0.174 C  
HETATM    3  C   UNL     1     -11.055  11.984  66.679  1.00  0.00    -0.358 C  
HETATM    4  C   UNL     1     -10.730   9.351  68.120  1.00  0.00    -0.230 C  
HETATM    5  C   UNL     1     -11.630  11.736  68.088  1.00  0.00    -0.391 A  
HETATM    6  C   UNL     1     -11.400  10.531  68.776  1.00  0.00    -0.310 A  
HETATM    7  H   UNL     1     -13.104  12.179  72.547  1.00  0.00     0.000 HD 
HETATM    8  C   UNL     1     -12.378  12.747  68.732  1.00  0.00     0.209 A  
HETATM    9  C   UNL     1     -11.759  10.430  70.133  1.00  0.00    -0.394 A  
HETATM   10  C   UNL     1     -12.381  11.495  70.777  1.00  0.00    -0.375 A  
HETATM   11  O   UNL     1     -12.679  11.452  72.107  1.00  0.00    -0.162 OA 
HETATM   12  C   UNL     1     -12.719  12.641  70.079  1.00  0.00     0.265 A  
ENDROOT
BRANCH   1  13
HETATM   13  C   UNL     1      -8.566  10.999  66.550  1.00  0.00    -0.165 A  
HETATM   14  C   UNL     1      -8.094  11.490  67.775  1.00  0.00    -0.133 A  
HETATM   15  C   UNL     1      -5.799  11.355  67.021  1.00  0.00    -0.108 A  
HETATM   16  C   UNL     1      -6.238  10.794  65.825  1.00  0.00    -0.101 A  
HETATM   17  C   UNL     1      -7.607  10.616  65.594  1.00  0.00    -0.100 A  
HETATM   18  C   UNL     1      -6.729  11.691  68.003  1.00  0.00    -0.064 A  
ENDBRANCH   1  13
BRANCH   3  19
HETATM   19  C   UNL     1     -10.486  13.395  66.466  1.00  0.00    -0.283 A  
HETATM   20  C   UNL     1     -10.663  14.032  65.234  1.00  0.00    -0.367 A  
HETATM   21  C   UNL     1     -10.123  15.275  64.976  1.00  0.00    -0.250 A  
HETATM   22  C   UNL     1      -9.420  15.969  65.961  1.00  0.00    -0.349 A  
HETATM   23  C   UNL     1      -9.784  14.089  67.464  1.00  0.00    -0.232 A  
HETATM   24  C   UNL     1      -9.259  15.373  67.213  1.00  0.00    -0.217 A  
BRANCH  22  25
HETATM   25  O   UNL     1      -8.876  17.223  65.764  1.00  0.00    -0.530 OA 
BRANCH  25  26
HETATM   26  C   UNL     1      -7.481  17.257  66.099  1.00  0.00    -0.286 C  
BRANCH  26  27
HETATM   27  C   UNL     1      -7.128  18.163  67.275  1.00  0.00    -0.194 C  
BRANCH  27  28
HETATM   28  N   UNL     1      -6.221  17.459  68.201  1.00  0.00    -0.153 NA 
HETATM   29  C   UNL     1      -6.873  16.942  69.407  1.00  0.00    -0.195 C  
HETATM   30  C   UNL     1      -5.856  15.955  69.939  1.00  0.00    -0.159 C  
HETATM   31  C   UNL     1      -5.295  15.317  68.681  1.00  0.00    -0.092 C  
HETATM   32  C   UNL     1      -5.526  16.339  67.571  1.00  0.00    -0.143 C  
ENDBRANCH  27  28
ENDBRANCH  26  27
ENDBRANCH  25  26
ENDBRANCH  22  25
ENDBRANCH   3  19
TORSDOF 6
ENDMDL
MODEL       96
REMARK 921   NORMALIZED FREE ENERGY PREDICTED BY IDOCK:   -4.51 KCAL/MOL
REMARK 922        TOTAL FREE ENERGY PREDICTED BY IDOCK:   -8.02 KCAL/MOL
REMARK 923 INTER-LIGAND FREE ENERGY PREDICTED BY IDOCK:   -6.15 KCAL/MOL
REMARK 924 INTRA-LIGAND FREE ENERGY PREDICTED BY IDOCK:   -1.88 KCAL/MOL
REMARK 927      BINDING AFFINITY PREDICTED BY RF-SCORE:    0.00 PKD
ROOT
HETATM    1  C   UNL     1     -11.508   7.276  71.419  1.00  0.00    -0.294 C  
HETATM    2  C   UNL     1     -12.542   8.386  71.660  1.00  0.00    -0.362 C  
HETATM    3  C   UNL     1     -11.093   7.279  69.905  1.00  0.00    -0.233 C  
HETATM    4  C   UNL     1     -11.973   9.772  71.365  1.00  0.00    -0.493 C  
HETATM    5  C   UNL     1     -10.896   8.692  69.321  1.00  0.00    -0.082 A  
HETATM    6  C   UNL     1     -11.239   9.846  70.050  1.00  0.00    -0.327 A  
HETATM    7  H   UNL     1      -9.254  12.504  67.078  1.00  0.00     0.000 HD 
HETATM    8  C   UNL     1     -10.325   8.853  68.039  1.00  0.00    -0.271 A  
HETATM    9  C   UNL     1     -10.847  11.109  69.571  1.00  0.00    -0.241 A  
HETATM   10  C   UNL     1     -10.169  11.223  68.361  1.00  0.00    -0.195 A  
HETATM   11  O   UNL     1      -9.717  12.426  67.904  1.00  0.00    -0.191 OA 
HETATM   12  C   UNL     1      -9.931  10.107  67.579  1.00  0.00    -0.231 A  
ENDROOT
BRANCH   1  13
HETATM   13  C   UNL     1     -10.420   7.288  72.499  1.00  0.00    -0.273 A  
HETATM   14  C   UNL     1      -9.462   8.304  72.624  1.00  0.00    -0.354 A  
HETATM   15  C   UNL     1      -8.348   7.124  74.418  1.00  0.00    -0.210 A  
HETATM   16  C   UNL     1      -9.331   6.139  74.364  1.00  0.00    -0.181 A  
HETATM   17  C   UNL     1     -10.357   6.223  73.417  1.00  0.00    -0.257 A  
HETATM   18  C   UNL     1      -8.421   8.214  73.554  1.00  0.00    -0.310 A  
ENDBRANCH   1  13
BRANCH   3  19
HETATM   19  C   UNL     1      -9.933   6.311  69.628  1.00  0.00    -0.201 A  
HETATM   20  C   UNL     1     -10.198   4.950  69.450  1.00  0.00    -0.229 A  
HETATM   21  C   UNL     1      -9.185   4.034  69.254  1.00  0.00    -0.219 A  
HETATM   22  C   UNL     1      -7.854   4.444  69.174  1.00  0.00    -0.061 A  
HETATM   23  C   UNL     1      -8.597   6.733  69.543  1.00  0.00    -0.133 A  
HETATM   24  C   UNL     1      -7.563   5.803  69.311  1.00  0.00    -0.088 A  
BRANCH  22  25
HETATM   25  O   UNL     1      -6.803   3.573  68.960  1.00  0.00    -0.044 OA 
BRANCH  25  26
HETATM   26  C   UNL     1      -7.169   2.504  68.075  1.00  0.00    -0.048 C  
BRANCH  26  27
HETATM   27  C   UNL     1      -6.474   2.533  66.716  1.00  0.00    -0.035 C  
BRANCH  27  28
HETATM   28  N   UNL     1      -7.357   3.152  65.711  1.00  0.00    -0.071 NA 
HETATM   29  C   UNL     1      -8.787   3.052  66.020  1.00  0.00    -0.142 C  
HETATM   30  C   UNL     1      -9.401   4.082  65.096  1.00  0.00    -0.163 C  
HETATM   31  C   UNL     1      -8.390   5.214  65.110  1.00  0.00    -0.141 C  
HETATM   32  C   UNL     1      -7.061   4.566  65.490  1.00  0.00    -0.067 C  
ENDBRANCH  27  28
ENDBRANCH  26  27
ENDBRANCH  25  26
ENDBRANCH  22  25
ENDBRANCH   3  19
TORSDOF 6
ENDMDL
MODEL       97
REMARK 921   NORMALIZED FREE ENERGY PREDICTED BY IDOCK:   -4.47 KCAL/MOL
REMARK 922        TOTAL FREE ENERGY PREDICTED BY IDOCK:   -7.96 KCAL/MOL
REMARK 923 INTER-LIGAND FREE ENERGY PREDICTED BY IDOCK:   -6.71 KCAL/MOL
REMARK 924 INTRA-LIGAND FREE ENERGY PREDICTED BY IDOCK:   -1.25 KCAL/MOL
REMARK 927      BINDING AFFINITY PREDICTED BY RF-SCORE:    0.00 PKD
ROOT
HETATM    1  C   UNL     1     -11.480  12.699  67.414  1.00  0.00    -0.397 C  
HETATM    2  C   UNL     1     -12.182  14.018  67.059  1.00  0.00    -0.387 C  
HETATM    3  C   UNL     1      -9.963  12.802  67.022  1.00  0.00    -0.231 C  
HETATM    4  C   UNL     1     -11.609  15.200  67.837  1.00  0.00    -0.326 C  
HETATM    5  C   UNL     1      -9.326  14.163  67.368  1.00  0.00    -0.215 A  
HETATM    6  C   UNL     1     -10.102  15.246  67.824  1.00  0.00    -0.230 A  
HETATM    7  H   UNL     1      -6.473  17.602  68.881  1.00  0.00     0.000 HD 
HETATM    8  C   UNL     1      -7.928  14.334  67.267  1.00  0.00    -0.191 A  
HETATM    9  C   UNL     1      -9.461  16.392  68.329  1.00  0.00    -0.217 A  
HETATM   10  C   UNL     1      -8.072  16.476  68.333  1.00  0.00    -0.196 A  
HETATM   11  O   UNL     1      -7.422  17.544  68.878  1.00  0.00    -0.261 OA 
HETATM   12  C   UNL     1      -7.302  15.468  67.780  1.00  0.00    -0.174 A  
ENDROOT
BRANCH   1  13
HETATM   13  C   UNL     1     -11.864  12.228  68.822  1.00  0.00    -0.356 A  
HETATM   14  C   UNL     1     -12.010  10.880  69.177  1.00  0.00    -0.359 A  
HETATM   15  C   UNL     1     -12.747  11.477  71.402  1.00  0.00    -0.469 A  
HETATM   16  C   UNL     1     -12.537  12.819  71.099  1.00  0.00    -0.365 A  
HETATM   17  C   UNL     1     -12.097  13.190  69.823  1.00  0.00    -0.336 A  
HETATM   18  C   UNL     1     -12.471  10.505  70.443  1.00  0.00    -0.392 A  
ENDBRANCH   1  13
BRANCH   3  19
HETATM   19  C   UNL     1      -9.163  11.585  67.510  1.00  0.00    -0.166 A  
HETATM   20  C   UNL     1      -9.157  10.413  66.747  1.00  0.00    -0.161 A  
HETATM   21  C   UNL     1      -8.498   9.277  67.171  1.00  0.00    -0.124 A  
HETATM   22  C   UNL     1      -7.767   9.273  68.358  1.00  0.00    -0.090 A  
HETATM   23  C   UNL     1      -8.424  11.592  68.704  1.00  0.00    -0.115 A  
HETATM   24  C   UNL     1      -7.725  10.441  69.122  1.00  0.00    -0.126 A  
BRANCH  22  25
HETATM   25  O   UNL     1      -7.074   8.170  68.820  1.00  0.00    -0.068 OA 
BRANCH  25  26
HETATM   26  C   UNL     1      -6.491   7.420  67.744  1.00  0.00    -0.050 C  
BRANCH  26  27
HETATM   27  C   UNL     1      -6.328   5.928  68.022  1.00  0.00    -0.041 C  
BRANCH  27  28
HETATM   28  N   UNL     1      -7.466   5.181  67.455  1.00  0.00    -0.082 NA 
HETATM   29  C   UNL     1      -8.613   5.052  68.359  1.00  0.00    -0.097 C  
HETATM   30  C   UNL     1      -9.730   4.640  67.424  1.00  0.00    -0.215 C  
HETATM   31  C   UNL     1      -9.455   5.448  66.170  1.00  0.00    -0.171 C  
HETATM   32  C   UNL     1      -7.961   5.762  66.209  1.00  0.00    -0.102 C  
ENDBRANCH  27  28
ENDBRANCH  26  27
ENDBRANCH  25  26
ENDBRANCH  22  25
ENDBRANCH   3  19
TORSDOF 6
ENDMDL
MODEL       98
REMARK 921   NORMALIZED FREE ENERGY PREDICTED BY IDOCK:   -4.45 KCAL/MOL
REMARK 922        TOTAL FREE ENERGY PREDICTED BY IDOCK:   -7.94 KCAL/MOL
REMARK 923 INTER-LIGAND FREE ENERGY PREDICTED BY IDOCK:   -5.57 KCAL/MOL
REMARK 924 INTRA-LIGAND FREE ENERGY PREDICTED BY IDOCK:   -2.37 KCAL/MOL
REMARK 927      BINDING AFFINITY PREDICTED BY RF-SCORE:    0.00 PKD
ROOT
HETATM    1  C   UNL     1      -7.951   9.168  69.226  1.00  0.00    -0.097 C  
HETATM    2  C   UNL     1      -8.431  10.612  69.010  1.00  0.00    -0.148 C  
HETATM    3  C   UNL     1      -8.470   8.657  70.617  1.00  0.00    -0.174 C  
HETATM    4  C   UNL     1      -9.954  10.709  68.972  1.00  0.00    -0.226 C  
HETATM    5  C   UNL     1      -9.924   9.069  70.924  1.00  0.00    -0.326 A  
HETATM    6  C   UNL     1     -10.626   9.967  70.099  1.00  0.00    -0.350 A  
HETATM    7  H   UNL     1     -14.466   9.132  72.194  1.00  0.00     0.000 HD 
HETATM    8  C   UNL     1     -10.594   8.513  72.036  1.00  0.00    -0.408 A  
HETATM    9  C   UNL     1     -12.008  10.148  70.292  1.00  0.00    -0.315 A  
HETATM   10  C   UNL     1     -12.667   9.484  71.322  1.00  0.00    -0.332 A  
HETATM   11  O   UNL     1     -14.016   9.586  71.491  1.00  0.00    -0.248 OA 
HETATM   12  C   UNL     1     -11.965   8.690  72.212  1.00  0.00    -0.438 A  
ENDROOT
BRANCH   1  13
HETATM   13  C   UNL     1      -8.184   8.314  67.975  1.00  0.00    -0.128 A  
HETATM   14  C   UNL     1      -9.446   8.099  67.404  1.00  0.00    -0.191 A  
HETATM   15  C   UNL     1      -8.523   6.577  65.767  1.00  0.00    -0.149 A  
HETATM   16  C   UNL     1      -7.248   6.832  66.267  1.00  0.00    -0.072 A  
HETATM   17  C   UNL     1      -7.081   7.694  67.357  1.00  0.00    -0.086 A  
HETATM   18  C   UNL     1      -9.622   7.222  66.329  1.00  0.00    -0.103 A  
ENDBRANCH   1  13
BRANCH   3  19
HETATM   19  C   UNL     1      -8.177   7.163  70.822  1.00  0.00    -0.120 A  
HETATM   20  C   UNL     1      -6.963   6.770  71.393  1.00  0.00    -0.070 A  
HETATM   21  C   UNL     1      -6.631   5.440  71.546  1.00  0.00    -0.040 A  
HETATM   22  C   UNL     1      -7.525   4.432  71.183  1.00  0.00    -0.059 A  
HETATM   23  C   UNL     1      -9.085   6.155  70.459  1.00  0.00    -0.159 A  
HETATM   24  C   UNL     1      -8.761   4.796  70.645  1.00  0.00    -0.134 A  
BRANCH  22  25
HETATM   25  O   UNL     1      -7.253   3.086  71.333  1.00  0.00    -0.032 OA 
BRANCH  25  26
HETATM   26  C   UNL     1      -8.305   2.405  72.031  1.00  0.00    -0.057 C  
BRANCH  26  27
HETATM   27  C   UNL     1      -8.205   2.465  73.553  1.00  0.00    -0.062 C  
BRANCH  27  28
HETATM   28  N   UNL     1      -9.312   3.271  74.101  1.00  0.00    -0.091 NA 
HETATM   29  C   UNL     1      -8.979   4.681  74.324  1.00  0.00    -0.108 C  
HETATM   30  C   UNL     1     -10.340   5.325  74.475  1.00  0.00    -0.286 C  
HETATM   31  C   UNL     1     -11.194   4.585  73.462  1.00  0.00    -0.388 C  
HETATM   32  C   UNL     1     -10.507   3.236  73.262  1.00  0.00    -0.166 C  
ENDBRANCH  27  28
ENDBRANCH  26  27
ENDBRANCH  25  26
ENDBRANCH  22  25
ENDBRANCH   3  19
TORSDOF 6
ENDMDL
MODEL       99
REMARK 921   NORMALIZED FREE ENERGY PREDICTED BY IDOCK:   -4.45 KCAL/MOL
REMARK 922        TOTAL FREE ENERGY PREDICTED BY IDOCK:   -7.94 KCAL/MOL
REMARK 923 INTER-LIGAND FREE ENERGY PREDICTED BY IDOCK:   -7.06 KCAL/MOL
REMARK 924 INTRA-LIGAND FREE ENERGY PREDICTED BY IDOCK:   -0.88 KCAL/MOL
REMARK 927      BINDING AFFINITY PREDICTED BY RF-SCORE:    0.00 PKD
ROOT
HETATM    1  C   UNL     1      -9.180   8.446  67.812  1.00  0.00    -0.142 C  
HETATM    2  C   UNL     1      -8.724   6.979  67.770  1.00  0.00    -0.121 C  
HETATM    3  C   UNL     1     -10.620   8.518  68.435  1.00  0.00    -0.161 C  
HETATM    4  C   UNL     1      -8.628   6.369  69.166  1.00  0.00    -0.125 C  
HETATM    5  C   UNL     1     -10.817   7.586  69.647  1.00  0.00    -0.210 A  
HETATM    6  C   UNL     1      -9.839   6.644  70.020  1.00  0.00    -0.178 A  
HETATM    7  H   UNL     1     -11.933   5.756  73.849  1.00  0.00     0.000 HD 
HETATM    8  C   UNL     1     -11.984   7.692  70.436  1.00  0.00     0.059 A  
HETATM    9  C   UNL     1      -9.963   5.969  71.248  1.00  0.00    -0.223 A  
HETATM   10  C   UNL     1     -11.066   6.192  72.066  1.00  0.00    -0.274 A  
HETATM   11  O   UNL     1     -11.179   5.604  73.291  1.00  0.00    -0.268 OA 
HETATM   12  C   UNL     1     -12.091   7.027  71.655  1.00  0.00    -0.384 A  
ENDROOT
BRANCH   1  13
HETATM   13  C   UNL     1      -8.075   9.355  68.362  1.00  0.00    -0.109 A  
HETATM   14  C   UNL     1      -7.136  10.011  67.555  1.00  0.00    -0.087 A  
HETATM   15  C   UNL     1      -5.971  10.870  69.492  1.00  0.00    -0.054 A  
HETATM   16  C   UNL     1      -6.935  10.291  70.313  1.00  0.00    -0.136 A  
HETATM   17  C   UNL     1      -7.977   9.545  69.753  1.00  0.00    -0.134 A  
HETATM   18  C   UNL     1      -6.079  10.739  68.110  1.00  0.00    -0.050 A  
ENDBRANCH   1  13
BRANCH   3  19
HETATM   19  C   UNL     1     -11.069   9.968  68.670  1.00  0.00    -0.223 A  
HETATM   20  C   UNL     1     -11.343  10.403  69.970  1.00  0.00    -0.384 A  
HETATM   21  C   UNL     1     -11.802  11.679  70.225  1.00  0.00    -0.414 A  
HETATM   22  C   UNL     1     -11.960  12.604  69.193  1.00  0.00    -0.243 A  
HETATM   23  C   UNL     1     -11.220  10.894  67.625  1.00  0.00    -0.379 A  
HETATM   24  C   UNL     1     -11.658  12.208  67.888  1.00  0.00    -0.413 A  
BRANCH  22  25
HETATM   25  O   UNL     1     -12.397  13.899  69.394  1.00  0.00    -0.329 OA 
BRANCH  25  26
HETATM   26  C   UNL     1     -11.713  14.829  68.542  1.00  0.00    -0.317 C  
BRANCH  26  27
HETATM   27  C   UNL     1     -11.133  16.045  69.260  1.00  0.00    -0.331 C  
BRANCH  27  28
HETATM   28  N   UNL     1     -10.178  16.743  68.380  1.00  0.00    -0.278 NA 
HETATM   29  C   UNL     1     -10.632  18.058  67.919  1.00  0.00    -0.372 C  
HETATM   30  C   UNL     1      -9.355  18.694  67.414  1.00  0.00    -0.298 C  
HETATM   31  C   UNL     1      -8.310  18.223  68.409  1.00  0.00    -0.323 C  
HETATM   32  C   UNL     1      -8.869  16.932  69.001  1.00  0.00    -0.159 C  
ENDBRANCH  27  28
ENDBRANCH  26  27
ENDBRANCH  25  26
ENDBRANCH  22  25
ENDBRANCH   3  19
TORSDOF 6
ENDMDL
MODEL      100
REMARK 921   NORMALIZED FREE ENERGY PREDICTED BY IDOCK:   -4.45 KCAL/MOL
REMARK 922        TOTAL FREE ENERGY PREDICTED BY IDOCK:   -7.93 KCAL/MOL
REMARK 923 INTER-LIGAND FREE ENERGY PREDICTED BY IDOCK:   -6.29 KCAL/MOL
REMARK 924 INTRA-LIGAND FREE ENERGY PREDICTED BY IDOCK:   -1.65 KCAL/MOL
REMARK 927      BINDING AFFINITY PREDICTED BY RF-SCORE:    0.00 PKD
ROOT
HETATM    1  C   UNL     1      -9.101   8.399  67.621  1.00  0.00    -0.144 C  
HETATM    2  C   UNL     1      -9.710   7.060  68.064  1.00  0.00    -0.140 C  
HETATM    3  C   UNL     1     -10.194   9.521  67.729  1.00  0.00    -0.265 C  
HETATM    4  C   UNL     1     -10.162   7.091  69.522  1.00  0.00    -0.208 C  
HETATM    5  C   UNL     1     -11.060   9.421  69.001  1.00  0.00    -0.014 A  
HETATM    6  C   UNL     1     -10.972   8.315  69.867  1.00  0.00    -0.166 A  
HETATM    7  H   UNL     1     -13.473  10.334  72.950  1.00  0.00     0.000 HD 
HETATM    8  C   UNL     1     -11.941  10.472  69.339  1.00  0.00    -0.230 A  
HETATM    9  C   UNL     1     -11.617   8.363  71.117  1.00  0.00    -0.317 A  
HETATM   10  C   UNL     1     -12.376   9.472  71.475  1.00  0.00    -0.380 A  
HETATM   11  O   UNL     1     -12.955   9.576  72.705  1.00  0.00    -0.294 OA 
HETATM   12  C   UNL     1     -12.565  10.514  70.584  1.00  0.00    -0.457 A  
ENDROOT
BRANCH   1  13
HETATM   13  C   UNL     1      -7.726   8.622  68.261  1.00  0.00    -0.101 A  
HETATM   14  C   UNL     1      -7.399   8.213  69.561  1.00  0.00    -0.081 A  
HETATM   15  C   UNL     1      -5.215   9.238  69.407  1.00  0.00    -0.035 A  
HETATM   16  C   UNL     1      -5.486   9.590  68.088  1.00  0.00    -0.037 A  
HETATM   17  C   UNL     1      -6.727   9.281  67.520  1.00  0.00    -0.069 A  
HETATM   18  C   UNL     1      -6.169   8.538  70.141  1.00  0.00    -0.034 A  
ENDBRANCH   1  13
BRANCH   3  19
HETATM   19  C   UNL     1      -9.607  10.917  67.470  1.00  0.00    -0.171 A  
HETATM   20  C   UNL     1      -9.197  11.704  68.550  1.00  0.00    -0.163 A  
HETATM   21  C   UNL     1      -8.716  12.985  68.371  1.00  0.00    -0.115 A  
HETATM   22  C   UNL     1      -8.571  13.525  67.093  1.00  0.00    -0.195 A  
HETATM   23  C   UNL     1      -9.460  11.450  66.180  1.00  0.00    -0.237 A  
HETATM   24  C   UNL     1      -8.938  12.746  65.993  1.00  0.00     0.242 A  
BRANCH  22  25
HETATM   25  O   UNL     1      -8.077  14.793  66.855  1.00  0.00    -0.182 OA 
BRANCH  25  26
HETATM   26  C   UNL     1      -9.040  15.623  66.191  1.00  0.00    -0.342 C  
BRANCH  26  27
HETATM   27  C   UNL     1     -10.349  15.817  66.951  1.00  0.00    -0.295 C  
BRANCH  27  28
HETATM   28  N   UNL     1     -11.483  15.354  66.130  1.00  0.00    -0.095 NA 
HETATM   29  C   UNL     1     -11.144  15.085  64.729  1.00  0.00    -0.376 C  
HETATM   30  C   UNL     1     -12.323  14.264  64.252  1.00  0.00    -0.407 C  
HETATM   31  C   UNL     1     -12.651  13.392  65.450  1.00  0.00    -0.528 C  
HETATM   32  C   UNL     1     -12.112  14.147  66.661  1.00  0.00    -0.451 C  
ENDBRANCH  27  28
ENDBRANCH  26  27
ENDBRANCH  25  26
ENDBRANCH  22  25
ENDBRANCH   3  19
TORSDOF 6
ENDMDL
MODEL      101
REMARK 921   NORMALIZED FREE ENERGY PREDICTED BY IDOCK:   -4.44 KCAL/MOL
REMARK 922        TOTAL FREE ENERGY PREDICTED BY IDOCK:   -7.93 KCAL/MOL
REMARK 923 INTER-LIGAND FREE ENERGY PREDICTED BY IDOCK:   -6.48 KCAL/MOL
REMARK 924 INTRA-LIGAND FREE ENERGY PREDICTED BY IDOCK:   -1.46 KCAL/MOL
REMARK 927      BINDING AFFINITY PREDICTED BY RF-SCORE:    0.00 PKD
ROOT
HETATM    1  C   UNL     1      -9.682  13.528  66.271  1.00  0.00    -0.287 C  
HETATM    2  C   UNL     1      -9.770  15.057  66.395  1.00  0.00    -0.305 C  
HETATM    3  C   UNL     1      -9.683  12.896  67.708  1.00  0.00    -0.214 C  
HETATM    4  C   UNL     1     -11.065  15.503  67.068  1.00  0.00    -0.238 C  
HETATM    5  C   UNL     1     -10.682  13.561  68.676  1.00  0.00    -0.271 A  
HETATM    6  C   UNL     1     -11.377  14.734  68.327  1.00  0.00    -0.319 A  
HETATM    7  H   UNL     1     -14.022  14.415  71.896  1.00  0.00     0.000 HD 
HETATM    8  C   UNL     1     -10.944  12.973  69.934  1.00  0.00     0.393 A  
HETATM    9  C   UNL     1     -12.428  15.185  69.146  1.00  0.00     0.025 A  
HETATM   10  C   UNL     1     -12.748  14.506  70.318  1.00  0.00    -0.272 A  
HETATM   11  O   UNL     1     -13.804  14.878  71.095  1.00  0.00    -0.406 OA 
HETATM   12  C   UNL     1     -11.995  13.421  70.731  1.00  0.00    -0.223 A  
ENDROOT
BRANCH   1  13
HETATM   13  C   UNL     1     -10.659  13.000  65.215  1.00  0.00    -0.320 A  
HETATM   14  C   UNL     1     -12.049  13.159  65.295  1.00  0.00    -0.471 A  
HETATM   15  C   UNL     1     -12.383  11.834  63.299  1.00  0.00    -0.412 A  
HETATM   16  C   UNL     1     -11.002  11.725  63.155  1.00  0.00    -0.275 A  
HETATM   17  C   UNL     1     -10.150  12.306  64.101  1.00  0.00    -0.329 A  
HETATM   18  C   UNL     1     -12.906  12.562  64.364  1.00  0.00    -0.366 A  
ENDBRANCH   1  13
BRANCH   3  19
HETATM   19  C   UNL     1      -9.774  11.363  67.658  1.00  0.00    -0.183 A  
HETATM   20  C   UNL     1      -8.605  10.606  67.531  1.00  0.00    -0.122 A  
HETATM   21  C   UNL     1      -8.641   9.231  67.426  1.00  0.00    -0.122 A  
HETATM   22  C   UNL     1      -9.849   8.537  67.496  1.00  0.00    -0.177 A  
HETATM   23  C   UNL     1     -10.994  10.673  67.736  1.00  0.00    -0.364 A  
HETATM   24  C   UNL     1     -11.029   9.265  67.661  1.00  0.00    -0.071 A  
BRANCH  22  25
HETATM   25  O   UNL     1      -9.941   7.161  67.417  1.00  0.00    -0.148 OA 
BRANCH  25  26
HETATM   26  C   UNL     1     -10.972   6.647  68.271  1.00  0.00    -0.244 C  
BRANCH  26  27
HETATM   27  C   UNL     1     -10.517   5.552  69.233  1.00  0.00    -0.266 C  
BRANCH  27  28
HETATM   28  N   UNL     1      -9.271   4.934  68.742  1.00  0.00    -0.113 NA 
HETATM   29  C   UNL     1      -8.085   5.249  69.543  1.00  0.00    -0.094 C  
HETATM   30  C   UNL     1      -7.089   4.202  69.091  1.00  0.00    -0.050 C  
HETATM   31  C   UNL     1      -7.944   2.962  68.906  1.00  0.00    -0.065 C  
HETATM   32  C   UNL     1      -9.358   3.478  68.653  1.00  0.00    -0.166 C  
ENDBRANCH  27  28
ENDBRANCH  26  27
ENDBRANCH  25  26
ENDBRANCH  22  25
ENDBRANCH   3  19
TORSDOF 6
ENDMDL
MODEL      102
REMARK 921   NORMALIZED FREE ENERGY PREDICTED BY IDOCK:   -4.43 KCAL/MOL
REMARK 922        TOTAL FREE ENERGY PREDICTED BY IDOCK:   -7.91 KCAL/MOL
REMARK 923 INTER-LIGAND FREE ENERGY PREDICTED BY IDOCK:   -6.51 KCAL/MOL
REMARK 924 INTRA-LIGAND FREE ENERGY PREDICTED BY IDOCK:   -1.40 KCAL/MOL
REMARK 927      BINDING AFFINITY PREDICTED BY RF-SCORE:    0.00 PKD
ROOT
HETATM    1  C   UNL     1      -8.324  11.710  66.503  1.00  0.00    -0.122 C  
HETATM    2  C   UNL     1      -8.080  10.813  65.280  1.00  0.00    -0.021 C  
HETATM    3  C   UNL     1      -9.065  13.015  66.043  1.00  0.00     0.175 C  
HETATM    4  C   UNL     1      -9.386  10.368  64.627  1.00  0.00    -0.304 C  
HETATM    5  C   UNL     1     -10.177  12.763  65.005  1.00  0.00    -0.292 A  
HETATM    6  C   UNL     1     -10.361  11.498  64.415  1.00  0.00    -0.364 A  
HETATM    7  H   UNL     1     -14.222  12.745  62.580  1.00  0.00     0.000 HD 
HETATM    8  C   UNL     1     -11.064  13.804  64.654  1.00  0.00    -0.391 A  
HETATM    9  C   UNL     1     -11.511  11.257  63.641  1.00  0.00    -0.042 A  
HETATM   10  C   UNL     1     -12.435  12.273  63.419  1.00  0.00    -0.481 A  
HETATM   11  O   UNL     1     -13.591  12.051  62.731  1.00  0.00     0.226 OA 
HETATM   12  C   UNL     1     -12.205  13.552  63.896  1.00  0.00    -0.458 A  
ENDROOT
BRANCH   1  13
HETATM   13  C   UNL     1      -8.881  10.902  67.681  1.00  0.00    -0.133 A  
HETATM   14  C   UNL     1     -10.158  10.323  67.690  1.00  0.00    -0.229 A  
HETATM   15  C   UNL     1      -9.877   9.580  69.975  1.00  0.00    -0.269 A  
HETATM   16  C   UNL     1      -8.577  10.079  69.965  1.00  0.00    -0.122 A  
HETATM   17  C   UNL     1      -8.084  10.730  68.829  1.00  0.00    -0.143 A  
HETATM   18  C   UNL     1     -10.664   9.691  68.831  1.00  0.00    -0.230 A  
ENDBRANCH   1  13
BRANCH   3  19
HETATM   19  C   UNL     1      -9.497  13.878  67.238  1.00  0.00    -0.239 A  
HETATM   20  C   UNL     1     -10.858  14.074  67.491  1.00  0.00    -0.277 A  
HETATM   21  C   UNL     1     -11.295  14.885  68.519  1.00  0.00    -0.314 A  
HETATM   22  C   UNL     1     -10.387  15.501  69.381  1.00  0.00    -0.258 A  
HETATM   23  C   UNL     1      -8.577  14.490  68.105  1.00  0.00    -0.169 A  
HETATM   24  C   UNL     1      -9.022  15.293  69.174  1.00  0.00    -0.233 A  
BRANCH  22  25
HETATM   25  O   UNL     1     -10.769  16.307  70.436  1.00  0.00    -0.250 OA 
BRANCH  25  26
HETATM   26  C   UNL     1     -12.014  15.880  71.008  1.00  0.00    -0.412 C  
BRANCH  26  27
HETATM   27  C   UNL     1     -11.909  14.677  71.941  1.00  0.00    -0.189 C  
BRANCH  27  28
HETATM   28  N   UNL     1     -12.802  13.598  71.477  1.00  0.00    -0.359 NA 
HETATM   29  C   UNL     1     -12.156  12.616  70.601  1.00  0.00    -0.226 C  
HETATM   30  C   UNL     1     -13.131  11.459  70.622  1.00  0.00     0.097 C  
HETATM   31  C   UNL     1     -13.621  11.438  72.058  1.00  0.00    -0.127 C  
HETATM   32  C   UNL     1     -13.416  12.859  72.577  1.00  0.00    -0.352 C  
ENDBRANCH  27  28
ENDBRANCH  26  27
ENDBRANCH  25  26
ENDBRANCH  22  25
ENDBRANCH   3  19
TORSDOF 6
ENDMDL
MODEL      103
REMARK 921   NORMALIZED FREE ENERGY PREDICTED BY IDOCK:   -4.42 KCAL/MOL
REMARK 922        TOTAL FREE ENERGY PREDICTED BY IDOCK:   -7.90 KCAL/MOL
REMARK 923 INTER-LIGAND FREE ENERGY PREDICTED BY IDOCK:   -6.92 KCAL/MOL
REMARK 924 INTRA-LIGAND FREE ENERGY PREDICTED BY IDOCK:   -0.98 KCAL/MOL
REMARK 927      BINDING AFFINITY PREDICTED BY RF-SCORE:    0.00 PKD
ROOT
HETATM    1  C   UNL     1     -10.621  11.109  67.490  1.00  0.00    -0.258 C  
HETATM    2  C   UNL     1     -10.899   9.599  67.451  1.00  0.00    -0.242 C  
HETATM    3  C   UNL     1      -9.182  11.352  68.070  1.00  0.00    -0.171 C  
HETATM    4  C   UNL     1      -9.927   8.861  66.534  1.00  0.00    -0.358 C  
HETATM    5  C   UNL     1      -8.127  10.360  67.542  1.00  0.00    -0.107 A  
HETATM    6  C   UNL     1      -8.487   9.248  66.759  1.00  0.00    -0.129 A  
HETATM    7  H   UNL     1      -4.234   8.367  65.774  1.00  0.00     0.000 HD 
HETATM    8  C   UNL     1      -6.757  10.579  67.810  1.00  0.00    -0.069 A  
HETATM    9  C   UNL     1      -7.482   8.495  66.124  1.00  0.00    -0.089 A  
HETATM   10  C   UNL     1      -6.141   8.816  66.306  1.00  0.00    -0.059 A  
HETATM   11  O   UNL     1      -5.150   8.148  65.650  1.00  0.00    -0.024 OA 
HETATM   12  C   UNL     1      -5.771   9.834  67.167  1.00  0.00    -0.047 A  
ENDROOT
BRANCH   1  13
HETATM   13  C   UNL     1     -11.025  11.782  66.172  1.00  0.00    -0.355 A  
HETATM   14  C   UNL     1     -10.427  11.494  64.938  1.00  0.00    -0.345 A  
HETATM   15  C   UNL     1     -11.729  13.206  63.832  1.00  0.00    -0.515 A  
HETATM   16  C   UNL     1     -12.392  13.459  65.030  1.00  0.00    -0.481 A  
HETATM   17  C   UNL     1     -12.046  12.751  66.186  1.00  0.00    -0.429 A  
HETATM   18  C   UNL     1     -10.753  12.214  63.784  1.00  0.00    -0.488 A  
ENDBRANCH   1  13
BRANCH   3  19
HETATM   19  C   UNL     1      -8.769  12.829  67.974  1.00  0.00    -0.194 A  
HETATM   20  C   UNL     1      -7.674  13.189  67.182  1.00  0.00    -0.032 A  
HETATM   21  C   UNL     1      -7.231  14.494  67.108  1.00  0.00     0.125 A  
HETATM   22  C   UNL     1      -7.897  15.516  67.784  1.00  0.00    -0.143 A  
HETATM   23  C   UNL     1      -9.448  13.852  68.653  1.00  0.00    -0.123 A  
HETATM   24  C   UNL     1      -9.017  15.191  68.553  1.00  0.00    -0.186 A  
BRANCH  22  25
HETATM   25  O   UNL     1      -7.510  16.841  67.730  1.00  0.00    -0.156 OA 
BRANCH  25  26
HETATM   26  C   UNL     1      -8.293  17.661  68.608  1.00  0.00    -0.267 C  
BRANCH  26  27
HETATM   27  C   UNL     1      -8.948  18.867  67.941  1.00  0.00    -0.297 C  
BRANCH  27  28
HETATM   28  N   UNL     1      -7.971  19.965  67.811  1.00  0.00    -0.287 NA 
HETATM   29  C   UNL     1      -6.773  19.807  68.640  1.00  0.00    -0.306 C  
HETATM   30  C   UNL     1      -5.808  20.797  68.025  1.00  0.00    -0.340 C  
HETATM   31  C   UNL     1      -6.090  20.684  66.537  1.00  0.00    -0.264 C  
HETATM   32  C   UNL     1      -7.521  20.162  66.435  1.00  0.00    -0.279 C  
ENDBRANCH  27  28
ENDBRANCH  26  27
ENDBRANCH  25  26
ENDBRANCH  22  25
ENDBRANCH   3  19
TORSDOF 6
ENDMDL
MODEL      104
REMARK 921   NORMALIZED FREE ENERGY PREDICTED BY IDOCK:   -4.42 KCAL/MOL
REMARK 922        TOTAL FREE ENERGY PREDICTED BY IDOCK:   -7.90 KCAL/MOL
REMARK 923 INTER-LIGAND FREE ENERGY PREDICTED BY IDOCK:   -6.57 KCAL/MOL
REMARK 924 INTRA-LIGAND FREE ENERGY PREDICTED BY IDOCK:   -1.32 KCAL/MOL
REMARK 927      BINDING AFFINITY PREDICTED BY RF-SCORE:    0.00 PKD
ROOT
HETATM    1  C   UNL     1     -12.328   9.103  70.724  1.00  0.00    -0.103 C  
HETATM    2  C   UNL     1     -13.516   9.684  71.506  1.00  0.00    -0.430 C  
HETATM    3  C   UNL     1     -12.036  10.017  69.481  1.00  0.00     0.179 C  
HETATM    4  C   UNL     1     -13.218  11.079  72.050  1.00  0.00    -0.447 C  
HETATM    5  C   UNL     1     -12.130  11.526  69.787  1.00  0.00    -0.374 A  
HETATM    6  C   UNL     1     -12.609  11.999  71.022  1.00  0.00    -0.370 A  
HETATM    7  H   UNL     1     -11.342  16.167  70.093  1.00  0.00     0.000 HD 
HETATM    8  C   UNL     1     -11.694  12.468  68.829  1.00  0.00    -0.371 A  
HETATM    9  C   UNL     1     -12.478  13.364  71.338  1.00  0.00    -0.317 A  
HETATM   10  C   UNL     1     -11.924  14.249  70.418  1.00  0.00    -0.332 A  
HETATM   11  O   UNL     1     -11.721  15.563  70.721  1.00  0.00    -0.295 OA 
HETATM   12  C   UNL     1     -11.557  13.815  69.156  1.00  0.00    -0.363 A  
ENDROOT
BRANCH   1  13
HETATM   13  C   UNL     1     -11.179   8.720  71.664  1.00  0.00    -0.394 A  
HETATM   14  C   UNL     1      -9.891   9.265  71.578  1.00  0.00    -0.245 A  
HETATM   15  C   UNL     1      -9.086   7.814  73.338  1.00  0.00    -0.336 A  
HETATM   16  C   UNL     1     -10.375   7.311  73.495  1.00  0.00    -0.412 A  
HETATM   17  C   UNL     1     -11.410   7.762  72.670  1.00  0.00    -0.449 A  
HETATM   18  C   UNL     1      -8.847   8.802  72.385  1.00  0.00    -0.049 A  
ENDBRANCH   1  13
BRANCH   3  19
HETATM   19  C   UNL     1     -10.751   9.597  68.752  1.00  0.00    -0.234 A  
HETATM   20  C   UNL     1      -9.639  10.444  68.768  1.00  0.00    -0.178 A  
HETATM   21  C   UNL     1      -8.483  10.136  68.082  1.00  0.00    -0.118 A  
HETATM   22  C   UNL     1      -8.362   8.933  67.385  1.00  0.00    -0.108 A  
HETATM   23  C   UNL     1     -10.636   8.382  68.057  1.00  0.00    -0.191 A  
HETATM   24  C   UNL     1      -9.444   8.050  67.382  1.00  0.00    -0.187 A  
BRANCH  22  25
HETATM   25  O   UNL     1      -7.222   8.565  66.698  1.00  0.00    -0.072 OA 
BRANCH  25  26
HETATM   26  C   UNL     1      -6.650   7.358  67.223  1.00  0.00    -0.061 C  
BRANCH  26  27
HETATM   27  C   UNL     1      -6.030   7.497  68.611  1.00  0.00    -0.027 C  
BRANCH  27  28
HETATM   28  N   UNL     1      -6.887   6.839  69.615  1.00  0.00    -0.053 NA 
HETATM   29  C   UNL     1      -7.372   5.513  69.219  1.00  0.00    -0.070 C  
HETATM   30  C   UNL     1      -7.844   4.925  70.531  1.00  0.00    -0.066 C  
HETATM   31  C   UNL     1      -6.815   5.422  71.529  1.00  0.00    -0.061 C  
HETATM   32  C   UNL     1      -6.229   6.689  70.910  1.00  0.00    -0.039 C  
ENDBRANCH  27  28
ENDBRANCH  26  27
ENDBRANCH  25  26
ENDBRANCH  22  25
ENDBRANCH   3  19
TORSDOF 6
ENDMDL
MODEL      105
REMARK 921   NORMALIZED FREE ENERGY PREDICTED BY IDOCK:   -4.40 KCAL/MOL
REMARK 922        TOTAL FREE ENERGY PREDICTED BY IDOCK:   -7.86 KCAL/MOL
REMARK 923 INTER-LIGAND FREE ENERGY PREDICTED BY IDOCK:   -6.58 KCAL/MOL
REMARK 924 INTRA-LIGAND FREE ENERGY PREDICTED BY IDOCK:   -1.28 KCAL/MOL
REMARK 927      BINDING AFFINITY PREDICTED BY RF-SCORE:    0.00 PKD
ROOT
HETATM    1  C   UNL     1      -9.046   7.508  72.491  1.00  0.00    -0.189 C  
HETATM    2  C   UNL     1      -8.986   7.328  74.016  1.00  0.00    -0.268 C  
HETATM    3  C   UNL     1      -8.752   6.129  71.800  1.00  0.00    -0.137 C  
HETATM    4  C   UNL     1     -10.046   6.351  74.519  1.00  0.00    -0.358 C  
HETATM    5  C   UNL     1      -9.437   4.932  72.489  1.00  0.00    -0.164 A  
HETATM    6  C   UNL     1     -10.104   5.074  73.720  1.00  0.00    -0.216 A  
HETATM    7  H   UNL     1     -11.837   0.981  73.427  1.00  0.00     0.000 HD 
HETATM    8  C   UNL     1      -9.435   3.664  71.867  1.00  0.00    -0.203 A  
HETATM    9  C   UNL     1     -10.893   4.014  74.204  1.00  0.00    -0.243 A  
HETATM   10  C   UNL     1     -10.973   2.817  73.499  1.00  0.00    -0.216 A  
HETATM   11  O   UNL     1     -11.782   1.798  73.909  1.00  0.00    -0.165 OA 
HETATM   12  C   UNL     1     -10.228   2.625  72.349  1.00  0.00    -0.215 A  
ENDROOT
BRANCH   1  13
HETATM   13  C   UNL     1     -10.285   8.310  72.075  1.00  0.00    -0.339 A  
HETATM   14  C   UNL     1     -11.560   8.106  72.619  1.00  0.00    -0.441 A  
HETATM   15  C   UNL     1     -12.535   9.726  71.111  1.00  0.00    -0.443 A  
HETATM   16  C   UNL     1     -11.267  10.002  70.606  1.00  0.00    -0.425 A  
HETATM   17  C   UNL     1     -10.154   9.304  71.087  1.00  0.00    -0.374 A  
HETATM   18  C   UNL     1     -12.680   8.785  72.128  1.00  0.00    -0.461 A  
ENDBRANCH   1  13
BRANCH   3  19
HETATM   19  C   UNL     1      -8.968   6.194  70.280  1.00  0.00    -0.154 A  
HETATM   20  C   UNL     1     -10.240   5.954  69.753  1.00  0.00    -0.281 A  
HETATM   21  C   UNL     1     -10.471   5.947  68.393  1.00  0.00    -0.294 A  
HETATM   22  C   UNL     1      -9.447   6.233  67.490  1.00  0.00    -0.112 A  
HETATM   23  C   UNL     1      -7.932   6.489  69.379  1.00  0.00    -0.114 A  
HETATM   24  C   UNL     1      -8.174   6.513  67.990  1.00  0.00    -0.116 A  
BRANCH  22  25
HETATM   25  O   UNL     1      -9.628   6.259  66.121  1.00  0.00    -0.125 OA 
BRANCH  25  26
HETATM   26  C   UNL     1      -9.557   4.944  65.550  1.00  0.00    -0.132 C  
BRANCH  26  27
HETATM   27  C   UNL     1      -8.865   4.875  64.191  1.00  0.00    -0.091 C  
BRANCH  27  28
HETATM   28  N   UNL     1      -8.209   3.564  64.025  1.00  0.00    -0.089 NA 
HETATM   29  C   UNL     1      -6.746   3.626  63.965  1.00  0.00    -0.043 C  
HETATM   30  C   UNL     1      -6.341   2.188  64.208  1.00  0.00    -0.019 C  
HETATM   31  C   UNL     1      -7.340   1.713  65.248  1.00  0.00    -0.053 C  
HETATM   32  C   UNL     1      -8.559   2.618  65.081  1.00  0.00    -0.103 C  
ENDBRANCH  27  28
ENDBRANCH  26  27
ENDBRANCH  25  26
ENDBRANCH  22  25
ENDBRANCH   3  19
TORSDOF 6
ENDMDL
MODEL      106
REMARK 921   NORMALIZED FREE ENERGY PREDICTED BY IDOCK:   -4.38 KCAL/MOL
REMARK 922        TOTAL FREE ENERGY PREDICTED BY IDOCK:   -7.84 KCAL/MOL
REMARK 923 INTER-LIGAND FREE ENERGY PREDICTED BY IDOCK:   -7.67 KCAL/MOL
REMARK 924 INTRA-LIGAND FREE ENERGY PREDICTED BY IDOCK:   -0.17 KCAL/MOL
REMARK 927      BINDING AFFINITY PREDICTED BY RF-SCORE:    0.00 PKD
ROOT
HETATM    1  C   UNL     1      -8.615   8.781  70.268  1.00  0.00    -0.158 C  
HETATM    2  C   UNL     1      -8.263   7.424  70.896  1.00  0.00    -0.114 C  
HETATM    3  C   UNL     1      -8.281   8.740  68.734  1.00  0.00    -0.116 C  
HETATM    4  C   UNL     1      -9.086   6.286  70.298  1.00  0.00    -0.156 C  
HETATM    5  C   UNL     1      -8.678   7.418  68.049  1.00  0.00    -0.124 A  
HETATM    6  C   UNL     1      -9.128   6.309  68.792  1.00  0.00    -0.127 A  
HETATM    7  H   UNL     1     -10.365   4.144  65.101  1.00  0.00     0.000 HD 
HETATM    8  C   UNL     1      -8.631   7.310  66.642  1.00  0.00    -0.128 A  
HETATM    9  C   UNL     1      -9.680   5.204  68.118  1.00  0.00    -0.190 A  
HETATM   10  C   UNL     1      -9.736   5.184  66.728  1.00  0.00    -0.165 A  
HETATM   11  O   UNL     1     -10.326   4.158  66.050  1.00  0.00    -0.155 OA 
HETATM   12  C   UNL     1      -9.190   6.216  65.985  1.00  0.00    -0.116 A  
ENDROOT
BRANCH   1  13
HETATM   13  C   UNL     1      -9.998   9.261  70.725  1.00  0.00    -0.357 A  
HETATM   14  C   UNL     1     -10.740   8.640  71.738  1.00  0.00    -0.392 A  
HETATM   15  C   UNL     1     -12.614  10.124  71.369  1.00  0.00    -0.526 A  
HETATM   16  C   UNL     1     -11.869  10.806  70.410  1.00  0.00    -0.450 A  
HETATM   17  C   UNL     1     -10.574  10.381  70.094  1.00  0.00    -0.245 A  
HETATM   18  C   UNL     1     -12.043   9.047  72.042  1.00  0.00    -0.440 A  
ENDBRANCH   1  13
BRANCH   3  19
HETATM   19  C   UNL     1      -8.771  10.002  68.009  1.00  0.00    -0.125 A  
HETATM   20  C   UNL     1      -9.874   9.922  67.153  1.00  0.00    -0.235 A  
HETATM   21  C   UNL     1     -10.316  11.015  66.437  1.00  0.00    -0.302 A  
HETATM   22  C   UNL     1      -9.707  12.262  66.582  1.00  0.00    -0.222 A  
HETATM   23  C   UNL     1      -8.155  11.255  68.165  1.00  0.00    -0.134 A  
HETATM   24  C   UNL     1      -8.626  12.380  67.458  1.00  0.00    -0.177 A  
BRANCH  22  25
HETATM   25  O   UNL     1     -10.121  13.393  65.905  1.00  0.00    -0.286 OA 
BRANCH  25  26
HETATM   26  C   UNL     1     -10.561  14.420  66.805  1.00  0.00    -0.282 C  
BRANCH  26  27
HETATM   27  C   UNL     1     -12.003  14.276  67.284  1.00  0.00    -0.405 C  
BRANCH  27  28
HETATM   28  N   UNL     1     -12.187  14.995  68.558  1.00  0.00    -0.122 NA 
HETATM   29  C   UNL     1     -12.165  14.135  69.744  1.00  0.00    -0.344 C  
HETATM   30  C   UNL     1     -11.959  15.125  70.871  1.00  0.00    -0.378 C  
HETATM   31  C   UNL     1     -10.996  16.137  70.277  1.00  0.00    -0.345 C  
HETATM   32  C   UNL     1     -11.191  16.043  68.766  1.00  0.00    -0.360 C  
ENDBRANCH  27  28
ENDBRANCH  26  27
ENDBRANCH  25  26
ENDBRANCH  22  25
ENDBRANCH   3  19
TORSDOF 6
ENDMDL
MODEL      107
REMARK 921   NORMALIZED FREE ENERGY PREDICTED BY IDOCK:   -4.33 KCAL/MOL
REMARK 922        TOTAL FREE ENERGY PREDICTED BY IDOCK:   -7.78 KCAL/MOL
REMARK 923 INTER-LIGAND FREE ENERGY PREDICTED BY IDOCK:   -7.88 KCAL/MOL
REMARK 924 INTRA-LIGAND FREE ENERGY PREDICTED BY IDOCK:    0.11 KCAL/MOL
REMARK 927      BINDING AFFINITY PREDICTED BY RF-SCORE:    0.00 PKD
ROOT
HETATM    1  C   UNL     1      -7.040  18.477  66.933  1.00  0.00    -0.220 C  
HETATM    2  C   UNL     1      -5.827  19.267  67.448  1.00  0.00    -0.184 C  
HETATM    3  C   UNL     1      -6.804  16.947  67.195  1.00  0.00    -0.221 C  
HETATM    4  C   UNL     1      -5.635  19.106  68.954  1.00  0.00    -0.211 C  
HETATM    5  C   UNL     1      -6.180  16.644  68.572  1.00  0.00    -0.135 A  
HETATM    6  C   UNL     1      -5.714  17.672  69.413  1.00  0.00    -0.217 A  
HETATM    7  H   UNL     1      -5.167  14.853  72.817  1.00  0.00     0.000 HD 
HETATM    8  C   UNL     1      -6.101  15.310  69.033  1.00  0.00    -0.099 A  
HETATM    9  C   UNL     1      -5.352  17.370  70.739  1.00  0.00    -0.216 A  
HETATM   10  C   UNL     1      -5.408  16.060  71.202  1.00  0.00     0.007 A  
HETATM   11  O   UNL     1      -5.129  15.748  72.500  1.00  0.00    -0.063 OA 
HETATM   12  C   UNL     1      -5.752  15.025  70.351  1.00  0.00    -0.143 A  
ENDROOT
BRANCH   1  13
HETATM   13  C   UNL     1      -8.355  19.124  67.382  1.00  0.00    -0.307 A  
HETATM   14  C   UNL     1      -8.778  19.179  68.717  1.00  0.00    -0.365 A  
HETATM   15  C   UNL     1     -10.882  20.187  68.080  1.00  0.00     0.100 A  
HETATM   16  C   UNL     1     -10.454  20.214  66.756  1.00  0.00    -0.438 A  
HETATM   17  C   UNL     1      -9.203  19.691  66.412  1.00  0.00    -0.448 A  
HETATM   18  C   UNL     1     -10.036  19.679  69.064  1.00  0.00    -0.443 A  
ENDBRANCH   1  13
BRANCH   3  19
HETATM   19  C   UNL     1      -8.051  16.112  66.866  1.00  0.00    -0.275 A  
HETATM   20  C   UNL     1      -8.040  14.733  67.102  1.00  0.00    -0.226 A  
HETATM   21  C   UNL     1      -9.115  13.934  66.771  1.00  0.00    -0.238 A  
HETATM   22  C   UNL     1     -10.279  14.483  66.234  1.00  0.00    -0.297 A  
HETATM   23  C   UNL     1      -9.221  16.674  66.331  1.00  0.00    -0.318 A  
HETATM   24  C   UNL     1     -10.332  15.863  66.023  1.00  0.00    -0.363 A  
BRANCH  22  25
HETATM   25  O   UNL     1     -11.391  13.733  65.904  1.00  0.00    -0.302 OA 
BRANCH  25  26
HETATM   26  C   UNL     1     -12.351  13.707  66.969  1.00  0.00    -0.232 C  
BRANCH  26  27
HETATM   27  C   UNL     1     -11.769  13.401  68.347  1.00  0.00    -0.355 C  
BRANCH  27  28
HETATM   28  N   UNL     1     -12.020  14.529  69.263  1.00  0.00    -0.322 NA 
HETATM   29  C   UNL     1     -12.771  14.170  70.470  1.00  0.00    -0.309 C  
HETATM   30  C   UNL     1     -12.528  15.356  71.379  1.00  0.00    -0.457 C  
HETATM   31  C   UNL     1     -11.081  15.721  71.100  1.00  0.00    -0.300 C  
HETATM   32  C   UNL     1     -10.792  15.190  69.698  1.00  0.00    -0.286 C  
ENDBRANCH  27  28
ENDBRANCH  26  27
ENDBRANCH  25  26
ENDBRANCH  22  25
ENDBRANCH   3  19
TORSDOF 6
ENDMDL
MODEL      108
REMARK 921   NORMALIZED FREE ENERGY PREDICTED BY IDOCK:   -4.33 KCAL/MOL
REMARK 922        TOTAL FREE ENERGY PREDICTED BY IDOCK:   -7.77 KCAL/MOL
REMARK 923 INTER-LIGAND FREE ENERGY PREDICTED BY IDOCK:   -6.41 KCAL/MOL
REMARK 924 INTRA-LIGAND FREE ENERGY PREDICTED BY IDOCK:   -1.36 KCAL/MOL
REMARK 927      BINDING AFFINITY PREDICTED BY RF-SCORE:    0.00 PKD
ROOT
HETATM    1  C   UNL     1     -11.953  12.971  68.148  1.00  0.00    -0.322 C  
HETATM    2  C   UNL     1     -12.276  14.088  69.153  1.00  0.00    -0.299 C  
HETATM    3  C   UNL     1     -11.063  13.558  66.996  1.00  0.00    -0.310 C  
HETATM    4  C   UNL     1     -11.017  14.646  69.812  1.00  0.00    -0.232 C  
HETATM    5  C   UNL     1      -9.970  14.526  67.490  1.00  0.00    -0.224 A  
HETATM    6  C   UNL     1      -9.919  14.959  68.828  1.00  0.00    -0.228 A  
HETATM    7  H   UNL     1      -5.912  16.813  68.239  1.00  0.00     0.000 HD 
HETATM    8  C   UNL     1      -8.966  14.970  66.601  1.00  0.00    -0.313 A  
HETATM    9  C   UNL     1      -8.791  15.665  69.284  1.00  0.00    -0.264 A  
HETATM   10  C   UNL     1      -7.755  15.977  68.409  1.00  0.00    -0.147 A  
HETATM   11  O   UNL     1      -6.620  16.600  68.836  1.00  0.00    -0.156 OA 
HETATM   12  C   UNL     1      -7.848  15.659  67.065  1.00  0.00    -0.266 A  
ENDROOT
BRANCH   1  13
HETATM   13  C   UNL     1     -11.509  11.691  68.866  1.00  0.00    -0.349 A  
HETATM   14  C   UNL     1     -10.215  11.160  68.777  1.00  0.00    -0.219 A  
HETATM   15  C   UNL     1     -10.844   9.230  70.091  1.00  0.00    -0.275 A  
HETATM   16  C   UNL     1     -12.115   9.773  70.259  1.00  0.00    -0.104 A  
HETATM   17  C   UNL     1     -12.442  10.992  69.655  1.00  0.00    -0.208 A  
HETATM   18  C   UNL     1      -9.889   9.931  69.360  1.00  0.00    -0.231 A  
ENDBRANCH   1  13
BRANCH   3  19
HETATM   19  C   UNL     1     -10.556  12.459  66.049  1.00  0.00    -0.286 A  
HETATM   20  C   UNL     1     -11.383  12.000  65.020  1.00  0.00    -0.365 A  
HETATM   21  C   UNL     1     -10.994  10.976  64.180  1.00  0.00    -0.133 A  
HETATM   22  C   UNL     1      -9.731  10.395  64.295  1.00  0.00    -0.326 A  
HETATM   23  C   UNL     1      -9.281  11.884  66.169  1.00  0.00    -0.204 A  
HETATM   24  C   UNL     1      -8.869  10.860  65.291  1.00  0.00    -0.179 A  
BRANCH  22  25
HETATM   25  O   UNL     1      -9.283   9.383  63.469  1.00  0.00    -0.137 OA 
BRANCH  25  26
HETATM   26  C   UNL     1      -7.995   8.897  63.874  1.00  0.00    -0.154 C  
BRANCH  26  27
HETATM   27  C   UNL     1      -7.994   7.473  64.424  1.00  0.00    -0.117 C  
BRANCH  27  28
HETATM   28  N   UNL     1      -7.200   7.411  65.665  1.00  0.00    -0.064 NA 
HETATM   29  C   UNL     1      -6.184   8.461  65.783  1.00  0.00    -0.052 C  
HETATM   30  C   UNL     1      -5.830   8.418  67.254  1.00  0.00    -0.043 C  
HETATM   31  C   UNL     1      -7.164   8.153  67.929  1.00  0.00    -0.091 C  
HETATM   32  C   UNL     1      -8.024   7.470  66.869  1.00  0.00    -0.115 C  
ENDBRANCH  27  28
ENDBRANCH  26  27
ENDBRANCH  25  26
ENDBRANCH  22  25
ENDBRANCH   3  19
TORSDOF 6
ENDMDL
MODEL      109
REMARK 921   NORMALIZED FREE ENERGY PREDICTED BY IDOCK:   -4.32 KCAL/MOL
REMARK 922        TOTAL FREE ENERGY PREDICTED BY IDOCK:   -7.76 KCAL/MOL
REMARK 923 INTER-LIGAND FREE ENERGY PREDICTED BY IDOCK:   -6.40 KCAL/MOL
REMARK 924 INTRA-LIGAND FREE ENERGY PREDICTED BY IDOCK:   -1.36 KCAL/MOL
REMARK 927      BINDING AFFINITY PREDICTED BY RF-SCORE:    0.00 PKD
ROOT
HETATM    1  C   UNL     1      -9.377  13.745  68.469  1.00  0.00    -0.144 C  
HETATM    2  C   UNL     1      -9.380  15.198  67.969  1.00  0.00    -0.187 C  
HETATM    3  C   UNL     1     -10.758  13.081  68.128  1.00  0.00    -0.258 C  
HETATM    4  C   UNL     1      -9.544  15.281  66.454  1.00  0.00    -0.317 C  
HETATM    5  C   UNL     1     -11.288  13.440  66.725  1.00  0.00    -0.353 A  
HETATM    6  C   UNL     1     -10.659  14.414  65.927  1.00  0.00    -0.312 A  
HETATM    7  H   UNL     1     -13.115  13.315  62.378  1.00  0.00     0.000 HD 
HETATM    8  C   UNL     1     -12.408  12.760  66.198  1.00  0.00    -0.190 A  
HETATM    9  C   UNL     1     -11.042  14.557  64.581  1.00  0.00    -0.356 A  
HETATM   10  C   UNL     1     -12.068  13.779  64.055  1.00  0.00    -0.403 A  
HETATM   11  O   UNL     1     -12.415  13.847  62.738  1.00  0.00    -0.391 OA 
HETATM   12  C   UNL     1     -12.772  12.902  64.861  1.00  0.00    -0.474 A  
ENDROOT
BRANCH   1  13
HETATM   13  C   UNL     1      -8.080  13.027  68.079  1.00  0.00    -0.157 A  
HETATM   14  C   UNL     1      -7.968  12.169  66.977  1.00  0.00    -0.138 A  
HETATM   15  C   UNL     1      -5.684  11.618  67.552  1.00  0.00    -0.071 A  
HETATM   16  C   UNL     1      -5.745  12.522  68.610  1.00  0.00    -0.054 A  
HETATM   17  C   UNL     1      -6.929  13.221  68.868  1.00  0.00    -0.096 A  
HETATM   18  C   UNL     1      -6.794  11.451  66.727  1.00  0.00    -0.132 A  
ENDBRANCH   1  13
BRANCH   3  19
HETATM   19  C   UNL     1     -10.763  11.577  68.441  1.00  0.00    -0.241 A  
HETATM   20  C   UNL     1     -10.843  11.149  69.770  1.00  0.00    -0.152 A  
HETATM   21  C   UNL     1     -10.794   9.811  70.104  1.00  0.00    -0.340 A  
HETATM   22  C   UNL     1     -10.716   8.828  69.118  1.00  0.00    -0.131 A  
HETATM   23  C   UNL     1     -10.689  10.594  67.442  1.00  0.00    -0.326 A  
HETATM   24  C   UNL     1     -10.672   9.225  67.780  1.00  0.00    -0.270 A  
BRANCH  22  25
HETATM   25  O   UNL     1     -10.684   7.475  69.395  1.00  0.00    -0.229 OA 
BRANCH  25  26
HETATM   26  C   UNL     1     -10.348   6.702  68.234  1.00  0.00    -0.190 C  
BRANCH  26  27
HETATM   27  C   UNL     1      -9.653   5.376  68.529  1.00  0.00    -0.129 C  
BRANCH  27  28
HETATM   28  N   UNL     1      -8.415   5.267  67.736  1.00  0.00    -0.105 NA 
HETATM   29  C   UNL     1      -8.259   6.308  66.716  1.00  0.00    -0.110 C  
HETATM   30  C   UNL     1      -6.790   6.212  66.363  1.00  0.00    -0.062 C  
HETATM   31  C   UNL     1      -6.126   5.929  67.699  1.00  0.00    -0.022 C  
HETATM   32  C   UNL     1      -7.210   5.287  68.561  1.00  0.00    -0.063 C  
ENDBRANCH  27  28
ENDBRANCH  26  27
ENDBRANCH  25  26
ENDBRANCH  22  25
ENDBRANCH   3  19
TORSDOF 6
ENDMDL
MODEL      110
REMARK 921   NORMALIZED FREE ENERGY PREDICTED BY IDOCK:   -4.31 KCAL/MOL
REMARK 922        TOTAL FREE ENERGY PREDICTED BY IDOCK:   -7.75 KCAL/MOL
REMARK 923 INTER-LIGAND FREE ENERGY PREDICTED BY IDOCK:   -7.51 KCAL/MOL
REMARK 924 INTRA-LIGAND FREE ENERGY PREDICTED BY IDOCK:   -0.24 KCAL/MOL
REMARK 927      BINDING AFFINITY PREDICTED BY RF-SCORE:    0.00 PKD
ROOT
HETATM    1  C   UNL     1     -11.446  14.988  67.712  1.00  0.00    -0.347 C  
HETATM    2  C   UNL     1     -11.485  16.501  67.444  1.00  0.00     0.354 C  
HETATM    3  C   UNL     1     -10.112  14.398  67.132  1.00  0.00    -0.253 C  
HETATM    4  C   UNL     1     -10.342  17.235  68.140  1.00  0.00    -0.357 C  
HETATM    5  C   UNL     1      -8.878  15.286  67.390  1.00  0.00    -0.191 A  
HETATM    6  C   UNL     1      -9.001  16.578  67.936  1.00  0.00    -0.205 A  
HETATM    7  H   UNL     1      -4.599  16.918  68.519  1.00  0.00     0.000 HD 
HETATM    8  C   UNL     1      -7.583  14.794  67.112  1.00  0.00    -0.114 A  
HETATM    9  C   UNL     1      -7.846  17.265  68.352  1.00  0.00    -0.254 A  
HETATM   10  C   UNL     1      -6.588  16.696  68.181  1.00  0.00    -0.143 A  
HETATM   11  O   UNL     1      -5.457  17.307  68.636  1.00  0.00    -0.139 OA 
HETATM   12  C   UNL     1      -6.447  15.478  67.539  1.00  0.00    -0.186 A  
ENDROOT
BRANCH   1  13
HETATM   13  C   UNL     1     -11.843  14.671  69.159  1.00  0.00    -0.347 A  
HETATM   14  C   UNL     1     -12.063  13.372  69.637  1.00  0.00    -0.349 A  
HETATM   15  C   UNL     1     -12.743  14.212  71.801  1.00  0.00    -0.420 A  
HETATM   16  C   UNL     1     -12.460  15.506  71.374  1.00  0.00    -0.480 A  
HETATM   17  C   UNL     1     -12.011  15.733  70.069  1.00  0.00    -0.352 A  
HETATM   18  C   UNL     1     -12.532  13.142  70.934  1.00  0.00    -0.407 A  
ENDBRANCH   1  13
BRANCH   3  19
HETATM   19  C   UNL     1      -9.923  12.923  67.518  1.00  0.00    -0.215 A  
HETATM   20  C   UNL     1      -8.838  12.553  68.318  1.00  0.00    -0.171 A  
HETATM   21  C   UNL     1      -8.596  11.234  68.645  1.00  0.00    -0.139 A  
HETATM   22  C   UNL     1      -9.461  10.222  68.231  1.00  0.00    -0.142 A  
HETATM   23  C   UNL     1     -10.803  11.912  67.101  1.00  0.00    -0.301 A  
HETATM   24  C   UNL     1     -10.575  10.568  67.462  1.00  0.00    -0.306 A  
BRANCH  22  25
HETATM   25  O   UNL     1      -9.278   8.890  68.546  1.00  0.00    -0.137 OA 
BRANCH  25  26
HETATM   26  C   UNL     1      -8.505   8.728  69.743  1.00  0.00    -0.129 C  
BRANCH  26  27
HETATM   27  C   UNL     1      -9.242   9.079  71.032  1.00  0.00    -0.264 C  
BRANCH  27  28
HETATM   28  N   UNL     1     -10.611   8.533  70.996  1.00  0.00    -0.208 NA 
HETATM   29  C   UNL     1     -10.929   7.629  72.105  1.00  0.00    -0.257 C  
HETATM   30  C   UNL     1     -12.441   7.559  72.057  1.00  0.00    -0.289 C  
HETATM   31  C   UNL     1     -12.846   8.976  71.695  1.00  0.00    -0.419 C  
HETATM   32  C   UNL     1     -11.637   9.573  70.980  1.00  0.00    -0.344 C  
ENDBRANCH  27  28
ENDBRANCH  26  27
ENDBRANCH  25  26
ENDBRANCH  22  25
ENDBRANCH   3  19
TORSDOF 6
ENDMDL
MODEL      111
REMARK 921   NORMALIZED FREE ENERGY PREDICTED BY IDOCK:   -4.31 KCAL/MOL
REMARK 922        TOTAL FREE ENERGY PREDICTED BY IDOCK:   -7.74 KCAL/MOL
REMARK 923 INTER-LIGAND FREE ENERGY PREDICTED BY IDOCK:   -6.24 KCAL/MOL
REMARK 924 INTRA-LIGAND FREE ENERGY PREDICTED BY IDOCK:   -1.50 KCAL/MOL
REMARK 927      BINDING AFFINITY PREDICTED BY RF-SCORE:    0.00 PKD
ROOT
HETATM    1  C   UNL     1      -7.750  14.250  67.115  1.00  0.00    -0.046 C  
HETATM    2  C   UNL     1      -6.980  15.515  67.525  1.00  0.00    -0.223 C  
HETATM    3  C   UNL     1      -6.939  12.986  67.572  1.00  0.00    -0.155 C  
HETATM    4  C   UNL     1      -6.820  15.622  69.039  1.00  0.00    -0.140 C  
HETATM    5  C   UNL     1      -6.321  13.122  68.978  1.00  0.00    -0.099 A  
HETATM    6  C   UNL     1      -6.346  14.343  69.679  1.00  0.00    -0.140 A  
HETATM    7  H   UNL     1      -4.906  12.402  73.420  1.00  0.00     0.000 HD 
HETATM    8  C   UNL     1      -5.742  11.997  69.607  1.00  0.00    -0.095 A  
HETATM    9  C   UNL     1      -5.966  14.370  71.033  1.00  0.00    -0.159 A  
HETATM   10  C   UNL     1      -5.520  13.212  71.662  1.00  0.00    -0.049 A  
HETATM   11  O   UNL     1      -5.210  13.193  72.990  1.00  0.00    -0.382 OA 
HETATM   12  C   UNL     1      -5.379  12.033  70.952  1.00  0.00    -0.139 A  
ENDROOT
BRANCH   1  13
HETATM   13  C   UNL     1      -9.236  14.364  67.475  1.00  0.00    -0.200 A  
HETATM   14  C   UNL     1      -9.707  14.542  68.782  1.00  0.00    -0.210 A  
HETATM   15  C   UNL     1     -12.006  14.386  68.048  1.00  0.00    -0.326 A  
HETATM   16  C   UNL     1     -11.565  14.283  66.731  1.00  0.00    -0.407 A  
HETATM   17  C   UNL     1     -10.195  14.276  66.448  1.00  0.00    -0.295 A  
HETATM   18  C   UNL     1     -11.074  14.527  69.074  1.00  0.00    -0.279 A  
ENDBRANCH   1  13
BRANCH   3  19
HETATM   19  C   UNL     1      -7.732  11.688  67.352  1.00  0.00    -0.147 A  
HETATM   20  C   UNL     1      -7.430  10.872  66.258  1.00  0.00    -0.129 A  
HETATM   21  C   UNL     1      -8.150   9.727  65.988  1.00  0.00    -0.114 A  
HETATM   22  C   UNL     1      -9.180   9.311  66.832  1.00  0.00    -0.144 A  
HETATM   23  C   UNL     1      -8.763  11.274  68.211  1.00  0.00    -0.158 A  
HETATM   24  C   UNL     1      -9.479  10.087  67.954  1.00  0.00    -0.159 A  
BRANCH  22  25
HETATM   25  O   UNL     1      -9.920   8.164  66.620  1.00  0.00    -0.247 OA 
BRANCH  25  26
HETATM   26  C   UNL     1      -9.695   7.189  67.648  1.00  0.00    -0.143 C  
BRANCH  26  27
HETATM   27  C   UNL     1     -10.777   6.118  67.760  1.00  0.00    -0.303 C  
BRANCH  27  28
HETATM   28  N   UNL     1     -11.144   5.916  69.174  1.00  0.00    -0.326 NA 
HETATM   29  C   UNL     1     -10.223   5.051  69.918  1.00  0.00    -0.270 C  
HETATM   30  C   UNL     1     -10.580   5.345  71.359  1.00  0.00    -0.282 C  
HETATM   31  C   UNL     1     -10.862   6.837  71.353  1.00  0.00    -0.269 C  
HETATM   32  C   UNL     1     -11.253   7.169  69.916  1.00  0.00    -0.208 C  
ENDBRANCH  27  28
ENDBRANCH  26  27
ENDBRANCH  25  26
ENDBRANCH  22  25
ENDBRANCH   3  19
TORSDOF 6
ENDMDL
MODEL      112
REMARK 921   NORMALIZED FREE ENERGY PREDICTED BY IDOCK:   -4.29 KCAL/MOL
REMARK 922        TOTAL FREE ENERGY PREDICTED BY IDOCK:   -7.72 KCAL/MOL
REMARK 923 INTER-LIGAND FREE ENERGY PREDICTED BY IDOCK:   -6.09 KCAL/MOL
REMARK 924 INTRA-LIGAND FREE ENERGY PREDICTED BY IDOCK:   -1.63 KCAL/MOL
REMARK 927      BINDING AFFINITY PREDICTED BY RF-SCORE:    0.00 PKD
ROOT
HETATM    1  C   UNL     1      -7.093  11.425  68.095  1.00  0.00    -0.075 C  
HETATM    2  C   UNL     1      -5.938  11.540  67.089  1.00  0.00    -0.111 C  
HETATM    3  C   UNL     1      -8.444  11.754  67.365  1.00  0.00    -0.158 C  
HETATM    4  C   UNL     1      -6.073  10.539  65.944  1.00  0.00    -0.128 C  
HETATM    5  C   UNL     1      -8.551  11.142  65.954  1.00  0.00    -0.135 A  
HETATM    6  C   UNL     1      -7.453  10.509  65.341  1.00  0.00    -0.089 A  
HETATM    7  H   UNL     1     -10.005   8.941  62.044  1.00  0.00     0.000 HD 
HETATM    8  C   UNL     1      -9.781  11.177  65.261  1.00  0.00    -0.285 A  
HETATM    9  C   UNL     1      -7.651   9.781  64.153  1.00  0.00    -0.134 A  
HETATM   10  C   UNL     1      -8.909   9.729  63.561  1.00  0.00    -0.241 A  
HETATM   11  O   UNL     1      -9.146   8.977  62.448  1.00  0.00    -0.186 OA 
HETATM   12  C   UNL     1      -9.968  10.444  64.091  1.00  0.00    -0.337 A  
ENDROOT
BRANCH   1  13
HETATM   13  C   UNL     1      -6.980  10.141  68.925  1.00  0.00    -0.063 A  
HETATM   14  C   UNL     1      -6.965   8.855  68.369  1.00  0.00    -0.065 A  
HETATM   15  C   UNL     1      -6.942   7.833  70.561  1.00  0.00    -0.046 A  
HETATM   16  C   UNL     1      -6.879   9.099  71.137  1.00  0.00    -0.088 A  
HETATM   17  C   UNL     1      -6.894  10.240  70.327  1.00  0.00    -0.145 A  
HETATM   18  C   UNL     1      -6.973   7.711  69.174  1.00  0.00    -0.068 A  
ENDBRANCH   1  13
BRANCH   3  19
HETATM   19  C   UNL     1      -9.660  11.488  68.265  1.00  0.00    -0.189 A  
HETATM   20  C   UNL     1      -9.968  10.176  68.638  1.00  0.00    -0.181 A  
HETATM   21  C   UNL     1     -11.081   9.881  69.398  1.00  0.00    -0.237 A  
HETATM   22  C   UNL     1     -11.915  10.894  69.871  1.00  0.00    -0.353 A  
HETATM   23  C   UNL     1     -10.491  12.514  68.741  1.00  0.00    -0.169 A  
HETATM   24  C   UNL     1     -11.610  12.217  69.546  1.00  0.00    -0.366 A  
BRANCH  22  25
HETATM   25  O   UNL     1     -13.030  10.658  70.652  1.00  0.00    -0.345 OA 
BRANCH  25  26
HETATM   26  C   UNL     1     -13.233   9.256  70.878  1.00  0.00     0.020 C  
BRANCH  26  27
HETATM   27  C   UNL     1     -12.912   8.784  72.294  1.00  0.00    -0.408 C  
BRANCH  27  28
HETATM   28  N   UNL     1     -12.152   7.521  72.245  1.00  0.00    -0.265 NA 
HETATM   29  C   UNL     1     -12.095   6.902  70.917  1.00  0.00    -0.373 C  
HETATM   30  C   UNL     1     -10.963   5.908  71.061  1.00  0.00    -0.335 C  
HETATM   31  C   UNL     1      -9.960   6.641  71.933  1.00  0.00    -0.189 C  
HETATM   32  C   UNL     1     -10.776   7.669  72.713  1.00  0.00    -0.345 C  
ENDBRANCH  27  28
ENDBRANCH  26  27
ENDBRANCH  25  26
ENDBRANCH  22  25
ENDBRANCH   3  19
TORSDOF 6
ENDMDL
MODEL      113
REMARK 921   NORMALIZED FREE ENERGY PREDICTED BY IDOCK:   -4.27 KCAL/MOL
REMARK 922        TOTAL FREE ENERGY PREDICTED BY IDOCK:   -7.69 KCAL/MOL
REMARK 923 INTER-LIGAND FREE ENERGY PREDICTED BY IDOCK:   -6.49 KCAL/MOL
REMARK 924 INTRA-LIGAND FREE ENERGY PREDICTED BY IDOCK:   -1.20 KCAL/MOL
REMARK 927      BINDING AFFINITY PREDICTED BY RF-SCORE:    0.00 PKD
ROOT
HETATM    1  C   UNL     1     -11.591   9.871  69.342  1.00  0.00    -0.004 C  
HETATM    2  C   UNL     1     -12.408  11.050  69.891  1.00  0.00    -0.356 C  
HETATM    3  C   UNL     1     -11.213  10.159  67.846  1.00  0.00    -0.234 C  
HETATM    4  C   UNL     1     -11.611  12.352  69.884  1.00  0.00    -0.260 C  
HETATM    5  C   UNL     1     -10.783  11.617  67.587  1.00  0.00    -0.249 A  
HETATM    6  C   UNL     1     -10.902  12.608  68.579  1.00  0.00    -0.279 A  
HETATM    7  H   UNL     1      -8.544  15.520  66.171  1.00  0.00     0.000 HD 
HETATM    8  C   UNL     1     -10.219  11.976  66.342  1.00  0.00    -0.243 A  
HETATM    9  C   UNL     1     -10.304  13.866  68.375  1.00  0.00    -0.249 A  
HETATM   10  C   UNL     1      -9.643  14.145  67.184  1.00  0.00    -0.244 A  
HETATM   11  O   UNL     1      -8.996  15.329  66.985  1.00  0.00    -0.204 OA 
HETATM   12  C   UNL     1      -9.620  13.219  66.155  1.00  0.00    -0.211 A  
ENDROOT
BRANCH   1  13
HETATM   13  C   UNL     1     -10.495   9.449  70.328  1.00  0.00    -0.298 A  
HETATM   14  C   UNL     1      -9.129   9.683  70.118  1.00  0.00    -0.280 A  
HETATM   15  C   UNL     1      -8.543   8.475  72.129  1.00  0.00    -0.242 A  
HETATM   16  C   UNL     1      -9.897   8.295  72.401  1.00  0.00    -0.375 A  
HETATM   17  C   UNL     1     -10.862   8.780  71.511  1.00  0.00    -0.374 A  
HETATM   18  C   UNL     1      -8.160   9.181  70.992  1.00  0.00    -0.179 A  
ENDBRANCH   1  13
BRANCH   3  19
HETATM   19  C   UNL     1     -10.247   9.104  67.286  1.00  0.00    -0.319 A  
HETATM   20  C   UNL     1      -8.916   9.451  67.037  1.00  0.00    -0.146 A  
HETATM   21  C   UNL     1      -8.025   8.554  66.483  1.00  0.00    -0.099 A  
HETATM   22  C   UNL     1      -8.411   7.243  66.199  1.00  0.00    -0.133 A  
HETATM   23  C   UNL     1     -10.642   7.786  67.009  1.00  0.00    -0.396 A  
HETATM   24  C   UNL     1      -9.725   6.859  66.473  1.00  0.00    -0.185 A  
BRANCH  22  25
HETATM   25  O   UNL     1      -7.556   6.300  65.663  1.00  0.00    -0.080 OA 
BRANCH  25  26
HETATM   26  C   UNL     1      -7.128   5.349  66.649  1.00  0.00    -0.069 C  
BRANCH  26  27
HETATM   27  C   UNL     1      -6.852   5.940  68.029  1.00  0.00    -0.067 C  
BRANCH  27  28
HETATM   28  N   UNL     1      -7.567   5.168  69.061  1.00  0.00    -0.075 NA 
HETATM   29  C   UNL     1      -8.805   5.795  69.534  1.00  0.00    -0.117 C  
HETATM   30  C   UNL     1      -9.511   4.653  70.233  1.00  0.00    -0.240 C  
HETATM   31  C   UNL     1      -9.198   3.456  69.355  1.00  0.00    -0.222 C  
HETATM   32  C   UNL     1      -7.907   3.816  68.624  1.00  0.00    -0.063 C  
ENDBRANCH  27  28
ENDBRANCH  26  27
ENDBRANCH  25  26
ENDBRANCH  22  25
ENDBRANCH   3  19
TORSDOF 6
ENDMDL
MODEL      114
REMARK 921   NORMALIZED FREE ENERGY PREDICTED BY IDOCK:   -4.27 KCAL/MOL
REMARK 922        TOTAL FREE ENERGY PREDICTED BY IDOCK:   -7.69 KCAL/MOL
REMARK 923 INTER-LIGAND FREE ENERGY PREDICTED BY IDOCK:   -7.96 KCAL/MOL
REMARK 924 INTRA-LIGAND FREE ENERGY PREDICTED BY IDOCK:    0.27 KCAL/MOL
REMARK 927      BINDING AFFINITY PREDICTED BY RF-SCORE:    0.00 PKD
ROOT
HETATM    1  C   UNL     1     -10.911   6.349  68.615  1.00  0.00    -0.404 C  
HETATM    2  C   UNL     1     -10.492   4.880  68.446  1.00  0.00     0.063 C  
HETATM    3  C   UNL     1     -11.131   6.648  70.140  1.00  0.00    -0.384 C  
HETATM    4  C   UNL     1      -9.170   4.579  69.147  1.00  0.00    -0.194 C  
HETATM    5  C   UNL     1     -10.065   6.014  71.056  1.00  0.00    -0.241 A  
HETATM    6  C   UNL     1      -9.108   5.111  70.556  1.00  0.00    -0.177 A  
HETATM    7  H   UNL     1      -6.804   5.206  74.367  1.00  0.00     0.000 HD 
HETATM    8  C   UNL     1     -10.011   6.363  72.423  1.00  0.00    -0.183 A  
HETATM    9  C   UNL     1      -8.030   4.724  71.374  1.00  0.00    -0.101 A  
HETATM   10  C   UNL     1      -7.936   5.190  72.681  1.00  0.00    -0.102 A  
HETATM   11  O   UNL     1      -6.868   4.887  73.474  1.00  0.00    -0.066 OA 
HETATM   12  C   UNL     1      -8.933   5.984  73.220  1.00  0.00    -0.130 A  
ENDROOT
BRANCH   1  13
HETATM   13  C   UNL     1     -10.018   7.279  67.785  1.00  0.00    -0.205 A  
HETATM   14  C   UNL     1     -10.506   8.356  67.033  1.00  0.00    -0.375 A  
HETATM   15  C   UNL     1      -8.303   8.825  66.152  1.00  0.00    -0.126 A  
HETATM   16  C   UNL     1      -7.781   7.809  66.948  1.00  0.00    -0.103 A  
HETATM   17  C   UNL     1      -8.630   7.047  67.759  1.00  0.00    -0.122 A  
HETATM   18  C   UNL     1      -9.666   9.107  66.204  1.00  0.00    -0.357 A  
ENDBRANCH   1  13
BRANCH   3  19
HETATM   19  C   UNL     1     -11.381   8.142  70.399  1.00  0.00    -0.181 A  
HETATM   20  C   UNL     1     -12.495   8.536  71.146  1.00  0.00    -0.195 A  
HETATM   21  C   UNL     1     -12.792   9.867  71.358  1.00  0.00    -0.505 A  
HETATM   22  C   UNL     1     -11.956  10.873  70.875  1.00  0.00    -0.311 A  
HETATM   23  C   UNL     1     -10.531   9.148  69.914  1.00  0.00    -0.239 A  
HETATM   24  C   UNL     1     -10.815  10.508  70.157  1.00  0.00    -0.291 A  
BRANCH  22  25
HETATM   25  O   UNL     1     -12.194  12.219  71.074  1.00  0.00    -0.306 OA 
BRANCH  25  26
HETATM   26  C   UNL     1     -12.256  12.938  69.834  1.00  0.00    -0.188 C  
BRANCH  26  27
HETATM   27  C   UNL     1     -11.722  14.366  69.896  1.00  0.00    -0.303 C  
BRANCH  27  28
HETATM   28  N   UNL     1     -12.441  15.130  70.933  1.00  0.00    -0.334 NA 
HETATM   29  C   UNL     1     -13.844  14.742  71.105  1.00  0.00    -0.322 C  
HETATM   30  C   UNL     1     -14.198  15.352  72.444  1.00  0.00    -0.584 C  
HETATM   31  C   UNL     1     -12.936  15.155  73.264  1.00  0.00    -0.645 C  
HETATM   32  C   UNL     1     -11.804  15.041  72.245  1.00  0.00    -0.350 C  
ENDBRANCH  27  28
ENDBRANCH  26  27
ENDBRANCH  25  26
ENDBRANCH  22  25
ENDBRANCH   3  19
TORSDOF 6
ENDMDL
MODEL      115
REMARK 921   NORMALIZED FREE ENERGY PREDICTED BY IDOCK:   -4.23 KCAL/MOL
REMARK 922        TOTAL FREE ENERGY PREDICTED BY IDOCK:   -7.64 KCAL/MOL
REMARK 923 INTER-LIGAND FREE ENERGY PREDICTED BY IDOCK:   -6.46 KCAL/MOL
REMARK 924 INTRA-LIGAND FREE ENERGY PREDICTED BY IDOCK:   -1.18 KCAL/MOL
REMARK 927      BINDING AFFINITY PREDICTED BY RF-SCORE:    0.00 PKD
ROOT
HETATM    1  C   UNL     1      -6.902  15.357  69.996  1.00  0.00    -0.048 C  
HETATM    2  C   UNL     1      -5.785  16.377  70.265  1.00  0.00    -0.155 C  
HETATM    3  C   UNL     1      -8.089  16.078  69.262  1.00  0.00    -0.212 C  
HETATM    4  C   UNL     1      -5.214  16.956  68.973  1.00  0.00    -0.133 C  
HETATM    5  C   UNL     1      -7.633  17.068  68.172  1.00  0.00    -0.194 A  
HETATM    6  C   UNL     1      -6.276  17.403  68.001  1.00  0.00    -0.149 A  
HETATM    7  H   UNL     1      -7.120  19.521  64.175  1.00  0.00     0.000 HD 
HETATM    8  C   UNL     1      -8.581  17.633  67.290  1.00  0.00    -0.238 A  
HETATM    9  C   UNL     1      -5.883  18.137  66.867  1.00  0.00    -0.168 A  
HETATM   10  C   UNL     1      -6.831  18.571  65.946  1.00  0.00    -0.283 A  
HETATM   11  O   UNL     1      -6.473  19.225  64.804  1.00  0.00    -0.430 OA 
HETATM   12  C   UNL     1      -8.179  18.349  66.165  1.00  0.00    -0.181 A  
ENDROOT
BRANCH   1  13
HETATM   13  C   UNL     1      -6.337  14.056  69.415  1.00  0.00    -0.115 A  
HETATM   14  C   UNL     1      -5.881  13.926  68.096  1.00  0.00    -0.124 A  
HETATM   15  C   UNL     1      -5.475  11.561  68.397  1.00  0.00    -0.045 A  
HETATM   16  C   UNL     1      -5.850  11.679  69.732  1.00  0.00    -0.111 A  
HETATM   17  C   UNL     1      -6.273  12.914  70.236  1.00  0.00     0.014 A  
HETATM   18  C   UNL     1      -5.479  12.690  67.581  1.00  0.00    -0.124 A  
ENDBRANCH   1  13
BRANCH   3  19
HETATM   19  C   UNL     1      -9.166  15.082  68.804  1.00  0.00    -0.200 A  
HETATM   20  C   UNL     1     -10.386  15.025  69.484  1.00  0.00    -0.230 A  
HETATM   21  C   UNL     1     -11.362  14.110  69.146  1.00  0.00    -0.318 A  
HETATM   22  C   UNL     1     -11.186  13.239  68.071  1.00  0.00    -0.276 A  
HETATM   23  C   UNL     1      -8.982  14.213  67.718  1.00  0.00    -0.187 A  
HETATM   24  C   UNL     1      -9.992  13.299  67.350  1.00  0.00    -0.233 A  
BRANCH  22  25
HETATM   25  O   UNL     1     -12.137  12.318  67.677  1.00  0.00    -0.502 OA 
BRANCH  25  26
HETATM   26  C   UNL     1     -11.887  11.021  68.237  1.00  0.00    -0.148 C  
BRANCH  26  27
HETATM   27  C   UNL     1     -11.465  11.030  69.704  1.00  0.00    -0.303 C  
BRANCH  27  28
HETATM   28  N   UNL     1     -10.630   9.851  69.997  1.00  0.00    -0.268 NA 
HETATM   29  C   UNL     1      -9.189  10.085  69.869  1.00  0.00    -0.158 C  
HETATM   30  C   UNL     1      -8.592   8.901  70.599  1.00  0.00    -0.224 C  
HETATM   31  C   UNL     1      -9.532   8.702  71.773  1.00  0.00    -0.354 C  
HETATM   32  C   UNL     1     -10.862   9.310  71.335  1.00  0.00    -0.364 C  
ENDBRANCH  27  28
ENDBRANCH  26  27
ENDBRANCH  25  26
ENDBRANCH  22  25
ENDBRANCH   3  19
TORSDOF 6
ENDMDL
MODEL      116
REMARK 921   NORMALIZED FREE ENERGY PREDICTED BY IDOCK:   -4.22 KCAL/MOL
REMARK 922        TOTAL FREE ENERGY PREDICTED BY IDOCK:   -7.63 KCAL/MOL
REMARK 923 INTER-LIGAND FREE ENERGY PREDICTED BY IDOCK:   -6.24 KCAL/MOL
REMARK 924 INTRA-LIGAND FREE ENERGY PREDICTED BY IDOCK:   -1.39 KCAL/MOL
REMARK 927      BINDING AFFINITY PREDICTED BY RF-SCORE:    0.00 PKD
ROOT
HETATM    1  C   UNL     1      -7.753   7.326  68.491  1.00  0.00    -0.120 C  
HETATM    2  C   UNL     1      -7.156   6.076  69.156  1.00  0.00    -0.070 C  
HETATM    3  C   UNL     1      -9.319   7.213  68.498  1.00  0.00    -0.136 C  
HETATM    4  C   UNL     1      -7.579   5.948  70.617  1.00  0.00    -0.092 C  
HETATM    5  C   UNL     1      -9.893   6.661  69.818  1.00  0.00    -0.174 A  
HETATM    6  C   UNL     1      -9.058   6.147  70.828  1.00  0.00    -0.156 A  
HETATM    7  H   UNL     1     -12.434   5.927  73.724  1.00  0.00     0.000 HD 
HETATM    8  C   UNL     1     -11.286   6.696  70.051  1.00  0.00    -0.440 A  
HETATM    9  C   UNL     1      -9.601   5.854  72.092  1.00  0.00    -0.164 A  
HETATM   10  C   UNL     1     -10.962   6.022  72.329  1.00  0.00    -0.265 A  
HETATM   11  O   UNL     1     -11.505   5.812  73.562  1.00  0.00     0.024 OA 
HETATM   12  C   UNL     1     -11.812   6.414  71.310  1.00  0.00    -0.333 A  
ENDROOT
BRANCH   1  13
HETATM   13  C   UNL     1      -7.087   8.604  69.014  1.00  0.00    -0.065 A  
HETATM   14  C   UNL     1      -6.801   8.833  70.367  1.00  0.00    -0.045 A  
HETATM   15  C   UNL     1      -6.015  11.070  69.892  1.00  0.00    -0.099 A  
HETATM   16  C   UNL     1      -6.219  10.840  68.534  1.00  0.00    -0.046 A  
HETATM   17  C   UNL     1      -6.745   9.619  68.100  1.00  0.00    -0.062 A  
HETATM   18  C   UNL     1      -6.296  10.060  70.809  1.00  0.00    -0.074 A  
ENDBRANCH   1  13
BRANCH   3  19
HETATM   19  C   UNL     1      -9.987   8.507  68.009  1.00  0.00    -0.221 A  
HETATM   20  C   UNL     1      -9.979   8.814  66.644  1.00  0.00    -0.355 A  
HETATM   21  C   UNL     1     -10.517   9.990  66.163  1.00  0.00    -0.156 A  
HETATM   22  C   UNL     1     -11.140  10.897  67.021  1.00  0.00    -0.202 A  
HETATM   23  C   UNL     1     -10.617   9.412  68.878  1.00  0.00    -0.231 A  
HETATM   24  C   UNL     1     -11.196  10.598  68.384  1.00  0.00    -0.347 A  
BRANCH  22  25
HETATM   25  O   UNL     1     -11.712  12.079  66.591  1.00  0.00    -0.522 OA 
BRANCH  25  26
HETATM   26  C   UNL     1     -10.736  12.971  66.034  1.00  0.00    -0.274 C  
BRANCH  26  27
HETATM   27  C   UNL     1      -9.824  13.641  67.059  1.00  0.00    -0.251 C  
BRANCH  27  28
HETATM   28  N   UNL     1     -10.556  14.709  67.764  1.00  0.00    -0.249 NA 
HETATM   29  C   UNL     1     -10.959  14.365  69.131  1.00  0.00    -0.265 C  
HETATM   30  C   UNL     1     -11.293  15.714  69.730  1.00  0.00    -0.327 C  
HETATM   31  C   UNL     1     -10.243  16.633  69.134  1.00  0.00    -0.309 C  
HETATM   32  C   UNL     1      -9.803  15.959  67.837  1.00  0.00    -0.218 C  
ENDBRANCH  27  28
ENDBRANCH  26  27
ENDBRANCH  25  26
ENDBRANCH  22  25
ENDBRANCH   3  19
TORSDOF 6
ENDMDL
MODEL      117
REMARK 921   NORMALIZED FREE ENERGY PREDICTED BY IDOCK:   -4.22 KCAL/MOL
REMARK 922        TOTAL FREE ENERGY PREDICTED BY IDOCK:   -7.63 KCAL/MOL
REMARK 923 INTER-LIGAND FREE ENERGY PREDICTED BY IDOCK:   -5.35 KCAL/MOL
REMARK 924 INTRA-LIGAND FREE ENERGY PREDICTED BY IDOCK:   -2.28 KCAL/MOL
REMARK 927      BINDING AFFINITY PREDICTED BY RF-SCORE:    0.00 PKD
ROOT
HETATM    1  C   UNL     1      -8.439   9.445  69.397  1.00  0.00    -0.142 C  
HETATM    2  C   UNL     1      -9.190  10.778  69.263  1.00  0.00    -0.068 C  
HETATM    3  C   UNL     1      -8.691   8.855  70.831  1.00  0.00    -0.256 C  
HETATM    4  C   UNL     1     -10.700  10.602  69.405  1.00  0.00    -0.281 C  
HETATM    5  C   UNL     1     -10.148   9.002  71.313  1.00  0.00    -0.384 A  
HETATM    6  C   UNL     1     -11.091   9.757  70.590  1.00  0.00    -0.398 A  
HETATM    7  H   UNL     1     -14.447   8.260  73.107  1.00  0.00     0.000 HD 
HETATM    8  C   UNL     1     -10.573   8.341  72.486  1.00  0.00    -0.407 A  
HETATM    9  C   UNL     1     -12.450   9.689  70.947  1.00  0.00    -0.320 A  
HETATM   10  C   UNL     1     -12.855   8.923  72.035  1.00  0.00    -0.397 A  
HETATM   11  O   UNL     1     -14.171   8.783  72.364  1.00  0.00    -0.458 OA 
HETATM   12  C   UNL     1     -11.922   8.271  72.824  1.00  0.00    -0.243 A  
ENDROOT
BRANCH   1  13
HETATM   13  C   UNL     1      -8.662   8.556  68.168  1.00  0.00    -0.142 A  
HETATM   14  C   UNL     1      -9.919   8.076  67.775  1.00  0.00    -0.224 A  
HETATM   15  C   UNL     1      -8.938   6.781  65.982  1.00  0.00    -0.129 A  
HETATM   16  C   UNL     1      -7.688   7.304  66.305  1.00  0.00    -0.097 A  
HETATM   17  C   UNL     1      -7.553   8.185  67.383  1.00  0.00    -0.101 A  
HETATM   18  C   UNL     1     -10.057   7.178  66.711  1.00  0.00    -0.278 A  
ENDBRANCH   1  13
BRANCH   3  19
HETATM   19  C   UNL     1      -8.115   7.439  70.975  1.00  0.00    -0.101 A  
HETATM   20  C   UNL     1      -6.767   7.272  71.308  1.00  0.00    -0.051 A  
HETATM   21  C   UNL     1      -6.191   6.021  71.395  1.00  0.00    -0.043 A  
HETATM   22  C   UNL     1      -6.951   4.868  71.204  1.00  0.00    -0.051 A  
HETATM   23  C   UNL     1      -8.888   6.282  70.787  1.00  0.00    -0.144 A  
HETATM   24  C   UNL     1      -8.309   5.003  70.907  1.00  0.00    -0.112 A  
BRANCH  22  25
HETATM   25  O   UNL     1      -6.431   3.591  71.298  1.00  0.00    -0.018 OA 
BRANCH  25  26
HETATM   26  C   UNL     1      -5.753   3.203  70.095  1.00  0.00    -0.017 C  
BRANCH  26  27
HETATM   27  C   UNL     1      -6.131   1.821  69.567  1.00  0.00    -0.024 C  
BRANCH  27  28
HETATM   28  N   UNL     1      -7.221   1.937  68.581  1.00  0.00    -0.043 NA 
HETATM   29  C   UNL     1      -8.566   1.858  69.157  1.00  0.00    -0.060 C  
HETATM   30  C   UNL     1      -9.438   2.403  68.046  1.00  0.00    -0.199 C  
HETATM   31  C   UNL     1      -8.599   3.525  67.461  1.00  0.00    -0.114 C  
HETATM   32  C   UNL     1      -7.155   3.174  67.806  1.00  0.00    -0.050 C  
ENDBRANCH  27  28
ENDBRANCH  26  27
ENDBRANCH  25  26
ENDBRANCH  22  25
ENDBRANCH   3  19
TORSDOF 6
ENDMDL
MODEL      118
REMARK 921   NORMALIZED FREE ENERGY PREDICTED BY IDOCK:   -4.22 KCAL/MOL
REMARK 922        TOTAL FREE ENERGY PREDICTED BY IDOCK:   -7.63 KCAL/MOL
REMARK 923 INTER-LIGAND FREE ENERGY PREDICTED BY IDOCK:   -6.61 KCAL/MOL
REMARK 924 INTRA-LIGAND FREE ENERGY PREDICTED BY IDOCK:   -1.02 KCAL/MOL
REMARK 927      BINDING AFFINITY PREDICTED BY RF-SCORE:    0.00 PKD
ROOT
HETATM    1  C   UNL     1      -8.365   7.613  66.607  1.00  0.00    -0.127 C  
HETATM    2  C   UNL     1      -7.975   6.295  67.293  1.00  0.00    -0.109 C  
HETATM    3  C   UNL     1      -9.786   8.053  67.109  1.00  0.00    -0.274 C  
HETATM    4  C   UNL     1      -7.877   6.447  68.809  1.00  0.00    -0.109 C  
HETATM    5  C   UNL     1      -9.999   7.849  68.622  1.00  0.00    -0.201 A  
HETATM    6  C   UNL     1      -9.056   7.165  69.413  1.00  0.00    -0.145 A  
HETATM    7  H   UNL     1     -11.104   8.379  73.177  1.00  0.00     0.000 HD 
HETATM    8  C   UNL     1     -11.143   8.386  69.253  1.00  0.00     0.142 A  
HETATM    9  C   UNL     1      -9.183   7.188  70.814  1.00  0.00    -0.157 A  
HETATM   10  C   UNL     1     -10.257   7.838  71.413  1.00  0.00    -0.182 A  
HETATM   11  O   UNL     1     -10.370   7.935  72.769  1.00  0.00    -0.280 OA 
HETATM   12  C   UNL     1     -11.253   8.413  70.642  1.00  0.00    -0.275 A  
ENDROOT
BRANCH   1  13
HETATM   13  C   UNL     1      -7.209   8.620  66.642  1.00  0.00    -0.081 A  
HETATM   14  C   UNL     1      -6.972   9.493  67.712  1.00  0.00    -0.080 A  
HETATM   15  C   UNL     1      -5.152  10.558  66.527  1.00  0.00    -0.048 A  
HETATM   16  C   UNL     1      -5.318   9.652  65.483  1.00  0.00    -0.044 A  
HETATM   17  C   UNL     1      -6.334   8.692  65.542  1.00  0.00    -0.055 A  
HETATM   18  C   UNL     1      -5.973  10.470  67.649  1.00  0.00    -0.044 A  
ENDBRANCH   1  13
BRANCH   3  19
HETATM   19  C   UNL     1     -10.165   9.452  66.599  1.00  0.00    -0.319 A  
HETATM   20  C   UNL     1      -9.997   9.761  65.246  1.00  0.00    -0.251 A  
HETATM   21  C   UNL     1     -10.270  11.020  64.751  1.00  0.00    -0.381 A  
HETATM   22  C   UNL     1     -10.779  12.021  65.579  1.00  0.00    -0.276 A  
HETATM   23  C   UNL     1     -10.682  10.451  67.438  1.00  0.00    -0.338 A  
HETATM   24  C   UNL     1     -10.993  11.728  66.928  1.00  0.00    -0.333 A  
BRANCH  22  25
HETATM   25  O   UNL     1     -11.089  13.291  65.133  1.00  0.00    -0.288 OA 
BRANCH  25  26
HETATM   26  C   UNL     1     -11.802  14.044  66.124  1.00  0.00    -0.407 C  
BRANCH  26  27
HETATM   27  C   UNL     1     -11.083  15.297  66.615  1.00  0.00    -0.276 C  
BRANCH  27  28
HETATM   28  N   UNL     1     -10.944  15.258  68.083  1.00  0.00    -0.280 NA 
HETATM   29  C   UNL     1     -11.024  16.570  68.731  1.00  0.00    -0.330 C  
HETATM   30  C   UNL     1     -11.266  16.211  70.182  1.00  0.00    -0.374 C  
HETATM   31  C   UNL     1     -12.194  15.013  70.097  1.00  0.00    -0.392 C  
HETATM   32  C   UNL     1     -11.937  14.399  68.723  1.00  0.00    -0.295 C  
ENDBRANCH  27  28
ENDBRANCH  26  27
ENDBRANCH  25  26
ENDBRANCH  22  25
ENDBRANCH   3  19
TORSDOF 6
ENDMDL
MODEL      119
REMARK 921   NORMALIZED FREE ENERGY PREDICTED BY IDOCK:   -4.19 KCAL/MOL
REMARK 922        TOTAL FREE ENERGY PREDICTED BY IDOCK:   -7.58 KCAL/MOL
REMARK 923 INTER-LIGAND FREE ENERGY PREDICTED BY IDOCK:   -7.93 KCAL/MOL
REMARK 924 INTRA-LIGAND FREE ENERGY PREDICTED BY IDOCK:    0.34 KCAL/MOL
REMARK 927      BINDING AFFINITY PREDICTED BY RF-SCORE:    0.00 PKD
ROOT
HETATM    1  C   UNL     1     -12.161  13.887  68.989  1.00  0.00    -0.365 C  
HETATM    2  C   UNL     1     -11.897  15.196  68.231  1.00  0.00    -0.275 C  
HETATM    3  C   UNL     1     -11.150  12.792  68.493  1.00  0.00    -0.300 C  
HETATM    4  C   UNL     1     -10.496  15.740  68.499  1.00  0.00    -0.236 C  
HETATM    5  C   UNL     1      -9.716  13.321  68.290  1.00  0.00    -0.225 A  
HETATM    6  C   UNL     1      -9.418  14.694  68.376  1.00  0.00    -0.209 A  
HETATM    7  H   UNL     1      -5.035  13.904  68.294  1.00  0.00     0.000 HD 
HETATM    8  C   UNL     1      -8.658  12.417  68.047  1.00  0.00    -0.180 A  
HETATM    9  C   UNL     1      -8.073  15.109  68.397  1.00  0.00    -0.139 A  
HETATM   10  C   UNL     1      -7.047  14.177  68.285  1.00  0.00    -0.112 A  
HETATM   11  O   UNL     1      -5.736  14.541  68.371  1.00  0.00    -0.091 OA 
HETATM   12  C   UNL     1      -7.331  12.837  68.082  1.00  0.00    -0.118 A  
ENDROOT
BRANCH   1  13
HETATM   13  C   UNL     1     -12.319  14.139  70.493  1.00  0.00    -0.434 A  
HETATM   14  C   UNL     1     -13.268  13.490  71.294  1.00  0.00    -0.290 A  
HETATM   15  C   UNL     1     -12.641  14.808  73.223  1.00  0.00    -0.554 A  
HETATM   16  C   UNL     1     -11.639  15.414  72.468  1.00  0.00    -0.525 A  
HETATM   17  C   UNL     1     -11.478  15.079  71.119  1.00  0.00    -0.355 A  
HETATM   18  C   UNL     1     -13.448  13.836  72.637  1.00  0.00    -0.638 A  
ENDBRANCH   1  13
BRANCH   3  19
HETATM   19  C   UNL     1     -11.240  11.509  69.332  1.00  0.00    -0.324 A  
HETATM   20  C   UNL     1     -12.490  11.046  69.753  1.00  0.00    -0.251 A  
HETATM   21  C   UNL     1     -12.617   9.929  70.555  1.00  0.00    -0.156 A  
HETATM   22  C   UNL     1     -11.498   9.187  70.932  1.00  0.00    -0.296 A  
HETATM   23  C   UNL     1     -10.109  10.764  69.703  1.00  0.00    -0.053 A  
HETATM   24  C   UNL     1     -10.239   9.605  70.494  1.00  0.00    -0.351 A  
BRANCH  22  25
HETATM   25  O   UNL     1     -11.569   8.052  71.715  1.00  0.00    -0.262 OA 
BRANCH  25  26
HETATM   26  C   UNL     1     -10.445   7.186  71.501  1.00  0.00    -0.203 C  
BRANCH  26  27
HETATM   27  C   UNL     1     -10.332   6.029  72.489  1.00  0.00    -0.195 C  
BRANCH  27  28
HETATM   28  N   UNL     1      -9.193   6.250  73.399  1.00  0.00    -0.131 NA 
HETATM   29  C   UNL     1      -7.884   5.948  72.811  1.00  0.00    -0.104 C  
HETATM   30  C   UNL     1      -6.926   6.631  73.763  1.00  0.00    -0.076 C  
HETATM   31  C   UNL     1      -7.652   7.911  74.134  1.00  0.00    -0.218 C  
HETATM   32  C   UNL     1      -9.133   7.617  73.910  1.00  0.00    -0.261 C  
ENDBRANCH  27  28
ENDBRANCH  26  27
ENDBRANCH  25  26
ENDBRANCH  22  25
ENDBRANCH   3  19
TORSDOF 6
ENDMDL
MODEL      120
REMARK 921   NORMALIZED FREE ENERGY PREDICTED BY IDOCK:   -4.17 KCAL/MOL
REMARK 922        TOTAL FREE ENERGY PREDICTED BY IDOCK:   -7.56 KCAL/MOL
REMARK 923 INTER-LIGAND FREE ENERGY PREDICTED BY IDOCK:   -7.04 KCAL/MOL
REMARK 924 INTRA-LIGAND FREE ENERGY PREDICTED BY IDOCK:   -0.52 KCAL/MOL
REMARK 927      BINDING AFFINITY PREDICTED BY RF-SCORE:    0.00 PKD
ROOT
HETATM    1  C   UNL     1     -10.171  15.197  68.808  1.00  0.00    -0.235 C  
HETATM    2  C   UNL     1     -10.329  16.528  68.058  1.00  0.00    -0.294 C  
HETATM    3  C   UNL     1     -11.369  14.252  68.437  1.00  0.00    -0.309 C  
HETATM    4  C   UNL     1     -10.286  16.341  66.544  1.00  0.00    -0.310 C  
HETATM    5  C   UNL     1     -11.743  14.285  66.942  1.00  0.00    -0.430 A  
HETATM    6  C   UNL     1     -11.166  15.217  66.058  1.00  0.00    -0.231 A  
HETATM    7  H   UNL     1     -12.891  13.152  62.509  1.00  0.00     0.000 HD 
HETATM    8  C   UNL     1     -12.657  13.342  66.422  1.00  0.00    -0.160 A  
HETATM    9  C   UNL     1     -11.372  15.075  64.673  1.00  0.00    -0.357 A  
HETATM   10  C   UNL     1     -12.178  14.053  64.183  1.00  0.00    -0.396 A  
HETATM   11  O   UNL     1     -12.341  13.850  62.844  1.00  0.00    -0.487 OA 
HETATM   12  C   UNL     1     -12.844  13.204  65.048  1.00  0.00    -0.370 A  
ENDROOT
BRANCH   1  13
HETATM   13  C   UNL     1      -8.735  14.669  68.703  1.00  0.00    -0.174 A  
HETATM   14  C   UNL     1      -7.772  14.832  69.708  1.00  0.00     0.068 A  
HETATM   15  C   UNL     1      -6.066  13.808  68.334  1.00  0.00    -0.101 A  
HETATM   16  C   UNL     1      -7.021  13.565  67.350  1.00  0.00    -0.086 A  
HETATM   17  C   UNL     1      -8.342  13.988  67.535  1.00  0.00    -0.200 A  
HETATM   18  C   UNL     1      -6.445  14.432  69.520  1.00  0.00    -0.133 A  
ENDBRANCH   1  13
BRANCH   3  19
HETATM   19  C   UNL     1     -11.183  12.840  69.013  1.00  0.00    -0.317 A  
HETATM   20  C   UNL     1     -10.216  11.993  68.463  1.00  0.00    -0.218 A  
HETATM   21  C   UNL     1     -10.050  10.697  68.909  1.00  0.00    -0.215 A  
HETATM   22  C   UNL     1     -10.811  10.201  69.968  1.00  0.00    -0.307 A  
HETATM   23  C   UNL     1     -11.949  12.350  70.082  1.00  0.00    -0.376 A  
HETATM   24  C   UNL     1     -11.758  11.038  70.561  1.00  0.00    -0.416 A  
BRANCH  22  25
HETATM   25  O   UNL     1     -10.672   8.920  70.467  1.00  0.00    -0.212 OA 
BRANCH  25  26
HETATM   26  C   UNL     1      -9.446   8.763  71.195  1.00  0.00    -0.240 C  
BRANCH  26  27
HETATM   27  C   UNL     1      -9.097   7.321  71.554  1.00  0.00    -0.140 C  
BRANCH  27  28
HETATM   28  N   UNL     1      -8.149   6.770  70.567  1.00  0.00    -0.114 NA 
HETATM   29  C   UNL     1      -6.868   6.341  71.135  1.00  0.00    -0.067 C  
HETATM   30  C   UNL     1      -6.289   5.475  70.037  1.00  0.00    -0.033 C  
HETATM   31  C   UNL     1      -7.502   4.746  69.489  1.00  0.00    -0.056 C  
HETATM   32  C   UNL     1      -8.696   5.634  69.829  1.00  0.00    -0.125 C  
ENDBRANCH  27  28
ENDBRANCH  26  27
ENDBRANCH  25  26
ENDBRANCH  22  25
ENDBRANCH   3  19
TORSDOF 6
ENDMDL
MODEL      121
REMARK 921   NORMALIZED FREE ENERGY PREDICTED BY IDOCK:   -4.13 KCAL/MOL
REMARK 922        TOTAL FREE ENERGY PREDICTED BY IDOCK:   -7.51 KCAL/MOL
REMARK 923 INTER-LIGAND FREE ENERGY PREDICTED BY IDOCK:   -5.73 KCAL/MOL
REMARK 924 INTRA-LIGAND FREE ENERGY PREDICTED BY IDOCK:   -1.78 KCAL/MOL
REMARK 927      BINDING AFFINITY PREDICTED BY RF-SCORE:    0.00 PKD
ROOT
HETATM    1  C   UNL     1     -11.721   7.325  71.683  1.00  0.00    -0.316 C  
HETATM    2  C   UNL     1     -12.778   8.387  72.026  1.00  0.00    -0.399 C  
HETATM    3  C   UNL     1     -11.393   7.404  70.150  1.00  0.00    -0.200 C  
HETATM    4  C   UNL     1     -12.274   9.803  71.759  1.00  0.00    -0.449 C  
HETATM    5  C   UNL     1     -11.277   8.846  69.615  1.00  0.00     0.035 A  
HETATM    6  C   UNL     1     -11.618   9.956  70.410  1.00  0.00    -0.356 A  
HETATM    7  H   UNL     1      -9.897  12.802  67.448  1.00  0.00     0.000 HD 
HETATM    8  C   UNL     1     -10.785   9.078  68.312  1.00  0.00    -0.155 A  
HETATM    9  C   UNL     1     -11.297  11.251  69.963  1.00  0.00    -0.292 A  
HETATM   10  C   UNL     1     -10.694  11.438  68.724  1.00  0.00    -0.203 A  
HETATM   11  O   UNL     1     -10.310  12.674  68.294  1.00  0.00    -0.229 OA 
HETATM   12  C   UNL     1     -10.461  10.364  67.884  1.00  0.00    -0.248 A  
ENDROOT
BRANCH   1  13
HETATM   13  C   UNL     1     -10.575   7.335  72.701  1.00  0.00    -0.305 A  
HETATM   14  C   UNL     1      -9.564   8.304  72.722  1.00  0.00    -0.338 A  
HETATM   15  C   UNL     1      -8.410   7.159  74.513  1.00  0.00    -0.215 A  
HETATM   16  C   UNL     1      -9.441   6.224  74.563  1.00  0.00    -0.251 A  
HETATM   17  C   UNL     1     -10.513   6.314  73.668  1.00  0.00    -0.299 A  
HETATM   18  C   UNL     1      -8.478   8.207  73.599  1.00  0.00    -0.308 A  
ENDBRANCH   1  13
BRANCH   3  19
HETATM   19  C   UNL     1     -10.217   6.491  69.769  1.00  0.00    -0.221 A  
HETATM   20  C   UNL     1      -8.927   7.024  69.693  1.00  0.00    -0.141 A  
HETATM   21  C   UNL     1      -7.849   6.256  69.301  1.00  0.00    -0.105 A  
HETATM   22  C   UNL     1      -8.000   4.899  69.017  1.00  0.00    -0.076 A  
HETATM   23  C   UNL     1     -10.378   5.125  69.490  1.00  0.00    -0.292 A  
HETATM   24  C   UNL     1      -9.272   4.332  69.121  1.00  0.00    -0.209 A  
BRANCH  22  25
HETATM   25  O   UNL     1      -6.953   4.081  68.640  1.00  0.00    -0.046 OA 
BRANCH  25  26
HETATM   26  C   UNL     1      -5.755   4.380  69.371  1.00  0.00    -0.017 C  
BRANCH  26  27
HETATM   27  C   UNL     1      -5.230   3.235  70.233  1.00  0.00    -0.004 C  
BRANCH  27  28
HETATM   28  N   UNL     1      -6.055   3.099  71.448  1.00  0.00    -0.014 NA 
HETATM   29  C   UNL     1      -5.543   2.127  72.419  1.00  0.00    -0.004 C  
HETATM   30  C   UNL     1      -6.303   2.482  73.679  1.00  0.00    -0.016 C  
HETATM   31  C   UNL     1      -6.372   3.997  73.632  1.00  0.00    -0.040 C  
HETATM   32  C   UNL     1      -6.234   4.363  72.156  1.00  0.00    -0.021 C  
ENDBRANCH  27  28
ENDBRANCH  26  27
ENDBRANCH  25  26
ENDBRANCH  22  25
ENDBRANCH   3  19
TORSDOF 6
ENDMDL
MODEL      122
REMARK 921   NORMALIZED FREE ENERGY PREDICTED BY IDOCK:   -4.12 KCAL/MOL
REMARK 922        TOTAL FREE ENERGY PREDICTED BY IDOCK:   -7.49 KCAL/MOL
REMARK 923 INTER-LIGAND FREE ENERGY PREDICTED BY IDOCK:   -6.65 KCAL/MOL
REMARK 924 INTRA-LIGAND FREE ENERGY PREDICTED BY IDOCK:   -0.85 KCAL/MOL
REMARK 927      BINDING AFFINITY PREDICTED BY RF-SCORE:    0.00 PKD
ROOT
HETATM    1  C   UNL     1     -11.697  12.935  67.804  1.00  0.00    -0.412 C  
HETATM    2  C   UNL     1     -11.995  14.436  67.669  1.00  0.00    -0.378 C  
HETATM    3  C   UNL     1     -10.234  12.655  67.307  1.00  0.00    -0.227 C  
HETATM    4  C   UNL     1     -11.068  15.284  68.536  1.00  0.00    -0.284 C  
HETATM    5  C   UNL     1      -9.212  13.715  67.763  1.00  0.00    -0.214 A  
HETATM    6  C   UNL     1      -9.616  14.899  68.407  1.00  0.00    -0.209 A  
HETATM    7  H   UNL     1      -5.414  15.950  69.448  1.00  0.00     0.000 HD 
HETATM    8  C   UNL     1      -7.830  13.491  67.571  1.00  0.00    -0.184 A  
HETATM    9  C   UNL     1      -8.646  15.732  68.994  1.00  0.00    -0.236 A  
HETATM   10  C   UNL     1      -7.294  15.415  68.897  1.00  0.00    -0.147 A  
HETATM   11  O   UNL     1      -6.337  16.166  69.514  1.00  0.00    -0.170 OA 
HETATM   12  C   UNL     1      -6.879  14.316  68.166  1.00  0.00    -0.126 A  
ENDROOT
BRANCH   1  13
HETATM   13  C   UNL     1     -12.144  12.402  69.170  1.00  0.00    -0.195 A  
HETATM   14  C   UNL     1     -12.335  13.215  70.296  1.00  0.00    -0.319 A  
HETATM   15  C   UNL     1     -12.800  11.292  71.688  1.00  0.00    -0.510 A  
HETATM   16  C   UNL     1     -12.690  10.471  70.569  1.00  0.00    -0.385 A  
HETATM   17  C   UNL     1     -12.369  11.021  69.324  1.00  0.00    -0.160 A  
HETATM   18  C   UNL     1     -12.634  12.668  71.548  1.00  0.00    -0.256 A  
ENDBRANCH   1  13
BRANCH   3  19
HETATM   19  C   UNL     1      -9.807  11.204  67.577  1.00  0.00    -0.197 A  
HETATM   20  C   UNL     1     -10.149  10.203  66.663  1.00  0.00    -0.283 A  
HETATM   21  C   UNL     1      -9.836   8.878  66.890  1.00  0.00    -0.288 A  
HETATM   22  C   UNL     1      -9.116   8.494  68.021  1.00  0.00    -0.140 A  
HETATM   23  C   UNL     1      -9.078  10.828  68.716  1.00  0.00    -0.180 A  
HETATM   24  C   UNL     1      -8.729   9.479  68.933  1.00  0.00    -0.133 A  
BRANCH  22  25
HETATM   25  O   UNL     1      -8.759   7.187  68.288  1.00  0.00    -0.128 OA 
BRANCH  25  26
HETATM   26  C   UNL     1      -8.777   6.379  67.102  1.00  0.00    -0.110 C  
BRANCH  26  27
HETATM   27  C   UNL     1      -8.270   4.952  67.294  1.00  0.00    -0.106 C  
BRANCH  27  28
HETATM   28  N   UNL     1      -8.530   4.156  66.080  1.00  0.00    -0.109 NA 
HETATM   29  C   UNL     1      -9.853   4.375  65.488  1.00  0.00    -0.216 C  
HETATM   30  C   UNL     1      -9.698   3.790  64.100  1.00  0.00    -0.171 C  
HETATM   31  C   UNL     1      -8.284   4.181  63.710  1.00  0.00    -0.094 C  
HETATM   32  C   UNL     1      -7.542   4.386  65.029  1.00  0.00    -0.077 C  
ENDBRANCH  27  28
ENDBRANCH  26  27
ENDBRANCH  25  26
ENDBRANCH  22  25
ENDBRANCH   3  19
TORSDOF 6
ENDMDL
MODEL      123
REMARK 921   NORMALIZED FREE ENERGY PREDICTED BY IDOCK:   -4.07 KCAL/MOL
REMARK 922        TOTAL FREE ENERGY PREDICTED BY IDOCK:   -7.42 KCAL/MOL
REMARK 923 INTER-LIGAND FREE ENERGY PREDICTED BY IDOCK:   -5.62 KCAL/MOL
REMARK 924 INTRA-LIGAND FREE ENERGY PREDICTED BY IDOCK:   -1.80 KCAL/MOL
REMARK 927      BINDING AFFINITY PREDICTED BY RF-SCORE:    0.00 PKD
ROOT
HETATM    1  C   UNL     1     -12.070   8.482  70.257  1.00  0.00     0.398 C  
HETATM    2  C   UNL     1     -13.344   8.597  71.108  1.00  0.00    -0.059 C  
HETATM    3  C   UNL     1     -11.940   9.759  69.352  1.00  0.00     0.388 C  
HETATM    4  C   UNL     1     -13.297   9.797  72.050  1.00  0.00    -0.547 C  
HETATM    5  C   UNL     1     -12.298  11.071  70.079  1.00  0.00    -0.377 A  
HETATM    6  C   UNL     1     -12.857  11.069  71.371  1.00  0.00    -0.548 A  
HETATM    7  H   UNL     1     -12.340  15.475  71.768  1.00  0.00     0.000 HD 
HETATM    8  C   UNL     1     -12.031  12.314  69.463  1.00  0.00    -0.333 A  
HETATM    9  C   UNL     1     -12.968  12.281  72.077  1.00  0.00    -0.375 A  
HETATM   10  C   UNL     1     -12.576  13.478  71.487  1.00  0.00    -0.266 A  
HETATM   11  O   UNL     1     -12.608  14.657  72.171  1.00  0.00    -0.317 OA 
HETATM   12  C   UNL     1     -12.135  13.506  70.176  1.00  0.00    -0.425 A  
ENDROOT
BRANCH   1  13
HETATM   13  C   UNL     1     -10.875   8.035  71.106  1.00  0.00    -0.267 A  
HETATM   14  C   UNL     1     -10.452   8.701  72.264  1.00  0.00    -0.376 A  
HETATM   15  C   UNL     1      -8.550   7.226  72.500  1.00  0.00    -0.131 A  
HETATM   16  C   UNL     1      -8.991   6.501  71.396  1.00  0.00    -0.140 A  
HETATM   17  C   UNL     1     -10.142   6.899  70.709  1.00  0.00    -0.208 A  
HETATM   18  C   UNL     1      -9.290   8.320  72.942  1.00  0.00    -0.324 A  
ENDBRANCH   1  13
BRANCH   3  19
HETATM   19  C   UNL     1     -10.599   9.794  68.604  1.00  0.00    -0.249 A  
HETATM   20  C   UNL     1      -9.473  10.336  69.231  1.00  0.00    -0.230 A  
HETATM   21  C   UNL     1      -8.261  10.441  68.579  1.00  0.00    -0.119 A  
HETATM   22  C   UNL     1      -8.101   9.958  67.280  1.00  0.00    -0.113 A  
HETATM   23  C   UNL     1     -10.445   9.300  67.299  1.00  0.00    -0.334 A  
HETATM   24  C   UNL     1      -9.200   9.377  66.643  1.00  0.00    -0.193 A  
BRANCH  22  25
HETATM   25  O   UNL     1      -6.907  10.018  66.589  1.00  0.00    -0.078 OA 
BRANCH  25  26
HETATM   26  C   UNL     1      -6.429   8.712  66.237  1.00  0.00    -0.061 C  
BRANCH  26  27
HETATM   27  C   UNL     1      -5.817   7.923  67.391  1.00  0.00    -0.038 C  
BRANCH  27  28
HETATM   28  N   UNL     1      -6.154   6.493  67.261  1.00  0.00    -0.027 NA 
HETATM   29  C   UNL     1      -7.548   6.171  67.580  1.00  0.00    -0.097 C  
HETATM   30  C   UNL     1      -7.716   4.790  66.984  1.00  0.00    -0.091 C  
HETATM   31  C   UNL     1      -6.913   4.862  65.698  1.00  0.00    -0.063 C  
HETATM   32  C   UNL     1      -5.884   5.967  65.925  1.00  0.00    -0.024 C  
ENDBRANCH  27  28
ENDBRANCH  26  27
ENDBRANCH  25  26
ENDBRANCH  22  25
ENDBRANCH   3  19
TORSDOF 6
ENDMDL
MODEL      124
REMARK 921   NORMALIZED FREE ENERGY PREDICTED BY IDOCK:   -4.05 KCAL/MOL
REMARK 922        TOTAL FREE ENERGY PREDICTED BY IDOCK:   -7.40 KCAL/MOL
REMARK 923 INTER-LIGAND FREE ENERGY PREDICTED BY IDOCK:   -5.81 KCAL/MOL
REMARK 924 INTRA-LIGAND FREE ENERGY PREDICTED BY IDOCK:   -1.59 KCAL/MOL
REMARK 927      BINDING AFFINITY PREDICTED BY RF-SCORE:    0.00 PKD
ROOT
HETATM    1  C   UNL     1     -11.252   9.551  68.742  1.00  0.00     0.050 C  
HETATM    2  C   UNL     1     -11.497  11.067  68.790  1.00  0.00    -0.372 C  
HETATM    3  C   UNL     1     -10.352   9.215  67.500  1.00  0.00    -0.324 C  
HETATM    4  C   UNL     1     -10.198  11.851  68.965  1.00  0.00    -0.016 C  
HETATM    5  C   UNL     1      -9.200  10.217  67.281  1.00  0.00    -0.154 A  
HETATM    6  C   UNL     1      -9.103  11.403  68.032  1.00  0.00    -0.171 A  
HETATM    7  H   UNL     1      -5.014  12.236  66.474  1.00  0.00     0.000 HD 
HETATM    8  C   UNL     1      -8.190   9.934  66.335  1.00  0.00    -0.117 A  
HETATM    9  C   UNL     1      -7.930  12.177  67.952  1.00  0.00    -0.150 A  
HETATM   10  C   UNL     1      -6.895  11.801  67.102  1.00  0.00    -0.148 A  
HETATM   11  O   UNL     1      -5.721  12.493  67.055  1.00  0.00    -0.315 OA 
HETATM   12  C   UNL     1      -7.028  10.701  66.273  1.00  0.00    -0.133 A  
ENDROOT
BRANCH   1  13
HETATM   13  C   UNL     1     -10.863   9.008  70.122  1.00  0.00    -0.261 A  
HETATM   14  C   UNL     1     -11.791   8.529  71.057  1.00  0.00    -0.290 A  
HETATM   15  C   UNL     1     -10.055   8.190  72.707  1.00  0.00    -0.367 A  
HETATM   16  C   UNL     1      -9.104   8.590  71.771  1.00  0.00    -0.304 A  
HETATM   17  C   UNL     1      -9.505   8.991  70.491  1.00  0.00    -0.265 A  
HETATM   18  C   UNL     1     -11.399   8.148  72.344  1.00  0.00    -0.456 A  
ENDBRANCH   1  13
BRANCH   3  19
HETATM   19  C   UNL     1      -9.921   7.741  67.488  1.00  0.00    -0.242 A  
HETATM   20  C   UNL     1      -8.780   7.350  68.195  1.00  0.00    -0.122 A  
HETATM   21  C   UNL     1      -8.323   6.048  68.169  1.00  0.00    -0.113 A  
HETATM   22  C   UNL     1      -9.017   5.058  67.474  1.00  0.00    -0.110 A  
HETATM   23  C   UNL     1     -10.629   6.750  66.790  1.00  0.00    -0.311 A  
HETATM   24  C   UNL     1     -10.181   5.413  66.789  1.00  0.00    -0.282 A  
BRANCH  22  25
HETATM   25  O   UNL     1      -8.615   3.737  67.431  1.00  0.00    -0.098 OA 
BRANCH  25  26
HETATM   26  C   UNL     1      -9.528   2.880  68.132  1.00  0.00    -0.161 C  
BRANCH  26  27
HETATM   27  C   UNL     1      -8.888   2.015  69.214  1.00  0.00    -0.083 C  
BRANCH  27  28
HETATM   28  N   UNL     1      -8.789   2.773  70.475  1.00  0.00    -0.077 NA 
HETATM   29  C   UNL     1      -7.536   3.518  70.634  1.00  0.00    -0.040 C  
HETATM   30  C   UNL     1      -7.864   4.487  71.749  1.00  0.00    -0.096 C  
HETATM   31  C   UNL     1      -9.301   4.881  71.462  1.00  0.00    -0.196 C  
HETATM   32  C   UNL     1      -9.882   3.726  70.650  1.00  0.00    -0.089 C  
ENDBRANCH  27  28
ENDBRANCH  26  27
ENDBRANCH  25  26
ENDBRANCH  22  25
ENDBRANCH   3  19
TORSDOF 6
ENDMDL
MODEL      125
REMARK 921   NORMALIZED FREE ENERGY PREDICTED BY IDOCK:   -4.01 KCAL/MOL
REMARK 922        TOTAL FREE ENERGY PREDICTED BY IDOCK:   -7.34 KCAL/MOL
REMARK 923 INTER-LIGAND FREE ENERGY PREDICTED BY IDOCK:   -5.31 KCAL/MOL
REMARK 924 INTRA-LIGAND FREE ENERGY PREDICTED BY IDOCK:   -2.03 KCAL/MOL
REMARK 927      BINDING AFFINITY PREDICTED BY RF-SCORE:    0.00 PKD
ROOT
HETATM    1  C   UNL     1      -8.039  10.000  66.973  1.00  0.00    -0.117 C  
HETATM    2  C   UNL     1      -8.640   9.025  65.949  1.00  0.00    -0.172 C  
HETATM    3  C   UNL     1      -7.994  11.439  66.347  1.00  0.00    -0.088 C  
HETATM    4  C   UNL     1     -10.077   9.390  65.585  1.00  0.00    -0.074 C  
HETATM    5  C   UNL     1      -9.259  11.805  65.544  1.00  0.00    -0.067 A  
HETATM    6  C   UNL     1     -10.258  10.852  65.268  1.00  0.00    -0.351 A  
HETATM    7  H   UNL     1     -13.035  13.980  63.738  1.00  0.00     0.000 HD 
HETATM    8  C   UNL     1      -9.453  13.131  65.099  1.00  0.00     0.340 A  
HETATM    9  C   UNL     1     -11.484  11.275  64.724  1.00  0.00     0.044 A  
HETATM   10  C   UNL     1     -11.692  12.615  64.414  1.00  0.00    -0.369 A  
HETATM   11  O   UNL     1     -12.893  13.065  63.950  1.00  0.00    -0.664 OA 
HETATM   12  C   UNL     1     -10.676  13.541  64.572  1.00  0.00    -0.431 A  
ENDROOT
BRANCH   1  13
HETATM   13  C   UNL     1      -8.662   9.801  68.360  1.00  0.00    -0.120 A  
HETATM   14  C   UNL     1      -9.983  10.147  68.675  1.00  0.00    -0.181 A  
HETATM   15  C   UNL     1      -9.657   9.552  70.996  1.00  0.00    -0.160 A  
HETATM   16  C   UNL     1      -8.365   9.129  70.694  1.00  0.00    -0.239 A  
HETATM   17  C   UNL     1      -7.875   9.249  69.389  1.00  0.00    -0.083 A  
HETATM   18  C   UNL     1     -10.471  10.050  69.982  1.00  0.00    -0.337 A  
ENDBRANCH   1  13
BRANCH   3  19
HETATM   19  C   UNL     1      -7.569  12.497  67.377  1.00  0.00    -0.156 A  
HETATM   20  C   UNL     1      -6.210  12.701  67.635  1.00  0.00    -0.148 A  
HETATM   21  C   UNL     1      -5.781  13.600  68.590  1.00  0.00    -0.087 A  
HETATM   22  C   UNL     1      -6.693  14.381  69.300  1.00  0.00    -0.126 A  
HETATM   23  C   UNL     1      -8.493  13.283  68.083  1.00  0.00    -0.173 A  
HETATM   24  C   UNL     1      -8.055  14.225  69.037  1.00  0.00    -0.003 A  
BRANCH  22  25
HETATM   25  O   UNL     1      -6.318  15.309  70.253  1.00  0.00    -0.138 OA 
BRANCH  25  26
HETATM   26  C   UNL     1      -5.767  16.491  69.655  1.00  0.00    -0.182 C  
BRANCH  26  27
HETATM   27  C   UNL     1      -6.633  17.740  69.794  1.00  0.00     0.019 C  
BRANCH  27  28
HETATM   28  N   UNL     1      -7.364  17.990  68.538  1.00  0.00    -0.264 NA 
HETATM   29  C   UNL     1      -6.812  17.296  67.370  1.00  0.00    -0.161 C  
HETATM   30  C   UNL     1      -7.940  17.384  66.365  1.00  0.00    -0.325 C  
HETATM   31  C   UNL     1      -9.183  17.200  67.216  1.00  0.00    -0.232 C  
HETATM   32  C   UNL     1      -8.778  17.631  68.624  1.00  0.00    -0.266 C  
ENDBRANCH  27  28
ENDBRANCH  26  27
ENDBRANCH  25  26
ENDBRANCH  22  25
ENDBRANCH   3  19
TORSDOF 6
ENDMDL
MODEL      126
REMARK 921   NORMALIZED FREE ENERGY PREDICTED BY IDOCK:   -3.96 KCAL/MOL
REMARK 922        TOTAL FREE ENERGY PREDICTED BY IDOCK:   -7.27 KCAL/MOL
REMARK 923 INTER-LIGAND FREE ENERGY PREDICTED BY IDOCK:   -6.40 KCAL/MOL
REMARK 924 INTRA-LIGAND FREE ENERGY PREDICTED BY IDOCK:   -0.87 KCAL/MOL
REMARK 927      BINDING AFFINITY PREDICTED BY RF-SCORE:    0.00 PKD
ROOT
HETATM    1  C   UNL     1     -10.641  16.290  67.488  1.00  0.00    -0.310 C  
HETATM    2  C   UNL     1     -10.838  17.807  67.344  1.00  0.00    -0.195 C  
HETATM    3  C   UNL     1      -9.179  15.919  67.053  1.00  0.00    -0.231 C  
HETATM    4  C   UNL     1      -9.898  18.595  68.253  1.00  0.00    -0.410 C  
HETATM    5  C   UNL     1      -8.113  16.912  67.556  1.00  0.00    -0.188 A  
HETATM    6  C   UNL     1      -8.469  18.120  68.186  1.00  0.00    -0.282 A  
HETATM    7  H   UNL     1      -4.259  18.903  69.408  1.00  0.00     0.000 HD 
HETATM    8  C   UNL     1      -6.741  16.603  67.422  1.00  0.00    -0.199 A  
HETATM    9  C   UNL     1      -7.475  18.890  68.817  1.00  0.00    -0.360 A  
HETATM   10  C   UNL     1      -6.143  18.489  68.777  1.00  0.00    -0.217 A  
HETATM   11  O   UNL     1      -5.168  19.177  69.436  1.00  0.00    -0.186 OA 
HETATM   12  C   UNL     1      -5.766  17.366  68.060  1.00  0.00    -0.133 A  
ENDROOT
BRANCH   1  13
HETATM   13  C   UNL     1     -11.179  15.786  68.832  1.00  0.00    -0.332 A  
HETATM   14  C   UNL     1     -10.870  16.378  70.064  1.00  0.00    -0.306 A  
HETATM   15  C   UNL     1     -12.085  14.668  71.268  1.00  0.00    -0.410 A  
HETATM   16  C   UNL     1     -12.469  14.104  70.054  1.00  0.00    -0.352 A  
HETATM   17  C   UNL     1     -12.024  14.659  68.850  1.00  0.00    -0.309 A  
HETATM   18  C   UNL     1     -11.294  15.815  71.271  1.00  0.00    -0.437 A  
ENDBRANCH   1  13
BRANCH   3  19
HETATM   19  C   UNL     1      -8.856  14.444  67.337  1.00  0.00    -0.211 A  
HETATM   20  C   UNL     1      -8.139  14.104  68.488  1.00  0.00    -0.143 A  
HETATM   21  C   UNL     1      -7.777  12.800  68.757  1.00  0.00     0.007 A  
HETATM   22  C   UNL     1      -8.162  11.760  67.911  1.00  0.00    -0.147 A  
HETATM   23  C   UNL     1      -9.252  13.403  66.482  1.00  0.00    -0.182 A  
HETATM   24  C   UNL     1      -8.911  12.066  66.773  1.00  0.00    -0.198 A  
BRANCH  22  25
HETATM   25  O   UNL     1      -7.844  10.436  68.142  1.00  0.00    -0.104 OA 
BRANCH  25  26
HETATM   26  C   UNL     1      -8.986   9.682  68.573  1.00  0.00    -0.124 C  
BRANCH  26  27
HETATM   27  C   UNL     1      -8.756   8.177  68.677  1.00  0.00    -0.134 C  
BRANCH  27  28
HETATM   28  N   UNL     1      -7.690   7.895  69.656  1.00  0.00    -0.101 NA 
HETATM   29  C   UNL     1      -7.760   6.559  70.255  1.00  0.00    -0.098 C  
HETATM   30  C   UNL     1      -6.383   6.394  70.864  1.00  0.00    -0.047 C  
HETATM   31  C   UNL     1      -5.469   7.054  69.847  1.00  0.00    -0.019 C  
HETATM   32  C   UNL     1      -6.350   8.047  69.095  1.00  0.00    -0.039 C  
ENDBRANCH  27  28
ENDBRANCH  26  27
ENDBRANCH  25  26
ENDBRANCH  22  25
ENDBRANCH   3  19
TORSDOF 6
ENDMDL
MODEL      127
REMARK 921   NORMALIZED FREE ENERGY PREDICTED BY IDOCK:   -3.92 KCAL/MOL
REMARK 922        TOTAL FREE ENERGY PREDICTED BY IDOCK:   -7.22 KCAL/MOL
REMARK 923 INTER-LIGAND FREE ENERGY PREDICTED BY IDOCK:   -6.77 KCAL/MOL
REMARK 924 INTRA-LIGAND FREE ENERGY PREDICTED BY IDOCK:   -0.45 KCAL/MOL
REMARK 927      BINDING AFFINITY PREDICTED BY RF-SCORE:    0.00 PKD
ROOT
HETATM    1  C   UNL     1      -7.585   9.804  69.230  1.00  0.00    -0.097 C  
HETATM    2  C   UNL     1      -7.056   8.363  69.168  1.00  0.00    -0.064 C  
HETATM    3  C   UNL     1      -7.169  10.562  67.919  1.00  0.00    -0.084 C  
HETATM    4  C   UNL     1      -7.657   7.583  68.002  1.00  0.00    -0.110 C  
HETATM    5  C   UNL     1      -7.318   9.713  66.641  1.00  0.00    -0.090 A  
HETATM    6  C   UNL     1      -7.625   8.340  66.699  1.00  0.00    -0.090 A  
HETATM    7  H   UNL     1      -8.313   8.150  62.303  1.00  0.00     0.000 HD 
HETATM    8  C   UNL     1      -7.181  10.318  65.372  1.00  0.00    -0.143 A  
HETATM    9  C   UNL     1      -7.960   7.656  65.516  1.00  0.00    -0.120 A  
HETATM   10  C   UNL     1      -7.941   8.317  64.292  1.00  0.00    -0.148 A  
HETATM   11  O   UNL     1      -8.326   7.699  63.139  1.00  0.00    -0.040 OA 
HETATM   12  C   UNL     1      -7.527   9.635  64.208  1.00  0.00    -0.125 A  
ENDROOT
BRANCH   1  13
HETATM   13  C   UNL     1      -9.047   9.838  69.689  1.00  0.00    -0.235 A  
HETATM   14  C   UNL     1      -9.485   9.351  70.928  1.00  0.00    -0.279 A  
HETATM   15  C   UNL     1     -11.795   9.791  70.362  1.00  0.00    -0.264 A  
HETATM   16  C   UNL     1     -11.380  10.351  69.157  1.00  0.00    -0.286 A  
HETATM   17  C   UNL     1     -10.021  10.377  68.826  1.00  0.00    -0.196 A  
HETATM   18  C   UNL     1     -10.844   9.302  71.254  1.00  0.00    -0.417 A  
ENDBRANCH   1  13
BRANCH   3  19
HETATM   19  C   UNL     1      -7.814  11.953  67.835  1.00  0.00    -0.138 A  
HETATM   20  C   UNL     1      -8.801  12.199  66.875  1.00  0.00    -0.202 A  
HETATM   21  C   UNL     1      -9.369  13.448  66.724  1.00  0.00    -0.260 A  
HETATM   22  C   UNL     1      -9.015  14.503  67.564  1.00  0.00    -0.188 A  
HETATM   23  C   UNL     1      -7.455  13.009  68.688  1.00  0.00    -0.093 A  
HETATM   24  C   UNL     1      -8.059  14.276  68.556  1.00  0.00    -0.147 A  
BRANCH  22  25
HETATM   25  O   UNL     1      -9.566  15.767  67.470  1.00  0.00    -0.221 OA 
BRANCH  25  26
HETATM   26  C   UNL     1      -9.267  16.564  68.624  1.00  0.00    -0.238 C  
BRANCH  26  27
HETATM   27  C   UNL     1     -10.378  17.523  69.043  1.00  0.00    -0.303 C  
BRANCH  27  28
HETATM   28  N   UNL     1     -10.153  18.851  68.444  1.00  0.00    -0.380 NA 
HETATM   29  C   UNL     1      -8.740  19.210  68.288  1.00  0.00    -0.338 C  
HETATM   30  C   UNL     1      -8.796  20.368  67.315  1.00  0.00    -0.444 C  
HETATM   31  C   UNL     1      -9.900  19.967  66.354  1.00  0.00    -0.572 C  
HETATM   32  C   UNL     1     -10.783  18.996  67.134  1.00  0.00    -0.456 C  
ENDBRANCH  27  28
ENDBRANCH  26  27
ENDBRANCH  25  26
ENDBRANCH  22  25
ENDBRANCH   3  19
TORSDOF 6
ENDMDL
MODEL      128
REMARK 921   NORMALIZED FREE ENERGY PREDICTED BY IDOCK:   -3.91 KCAL/MOL
REMARK 922        TOTAL FREE ENERGY PREDICTED BY IDOCK:   -7.21 KCAL/MOL
REMARK 923 INTER-LIGAND FREE ENERGY PREDICTED BY IDOCK:   -6.44 KCAL/MOL
REMARK 924 INTRA-LIGAND FREE ENERGY PREDICTED BY IDOCK:   -0.77 KCAL/MOL
REMARK 927      BINDING AFFINITY PREDICTED BY RF-SCORE:    0.00 PKD
ROOT
HETATM    1  C   UNL     1     -11.610  15.453  68.316  1.00  0.00    -0.361 C  
HETATM    2  C   UNL     1     -11.386  16.942  68.012  1.00  0.00     0.073 C  
HETATM    3  C   UNL     1     -10.462  14.615  67.648  1.00  0.00    -0.243 C  
HETATM    4  C   UNL     1     -10.072  17.455  68.597  1.00  0.00    -0.355 C  
HETATM    5  C   UNL     1      -9.067  15.256  67.785  1.00  0.00    -0.182 A  
HETATM    6  C   UNL     1      -8.900  16.553  68.306  1.00  0.00    -0.210 A  
HETATM    7  H   UNL     1      -4.479  16.061  68.531  1.00  0.00     0.000 HD 
HETATM    8  C   UNL     1      -7.915  14.525  67.419  1.00  0.00    -0.221 A  
HETATM    9  C   UNL     1      -7.606  17.014  68.612  1.00  0.00    -0.238 A  
HETATM   10  C   UNL     1      -6.496  16.215  68.357  1.00  0.00    -0.119 A  
HETATM   11  O   UNL     1      -5.237  16.607  68.705  1.00  0.00    -0.119 OA 
HETATM   12  C   UNL     1      -6.640  14.986  67.737  1.00  0.00    -0.189 A  
ENDROOT
BRANCH   1  13
HETATM   13  C   UNL     1     -11.939  15.232  69.797  1.00  0.00    -0.374 A  
HETATM   14  C   UNL     1     -13.226  14.941  70.271  1.00  0.00     0.005 A  
HETATM   15  C   UNL     1     -12.469  15.016  72.567  1.00  0.00    -0.443 A  
HETATM   16  C   UNL     1     -11.168  15.229  72.119  1.00  0.00    -0.293 A  
HETATM   17  C   UNL     1     -10.906  15.333  70.748  1.00  0.00    -0.255 A  
HETATM   18  C   UNL     1     -13.497  14.859  71.641  1.00  0.00    -0.484 A  
ENDBRANCH   1  13
BRANCH   3  19
HETATM   19  C   UNL     1     -10.523  13.135  68.056  1.00  0.00    -0.245 A  
HETATM   20  C   UNL     1      -9.368  12.500  68.523  1.00  0.00    -0.084 A  
HETATM   21  C   UNL     1      -9.360  11.159  68.848  1.00  0.00    -0.117 A  
HETATM   22  C   UNL     1     -10.525  10.396  68.774  1.00  0.00    -0.199 A  
HETATM   23  C   UNL     1     -11.702  12.376  67.983  1.00  0.00    -0.414 A  
HETATM   24  C   UNL     1     -11.703  11.014  68.347  1.00  0.00    -0.329 A  
BRANCH  22  25
HETATM   25  O   UNL     1     -10.578   9.057  69.106  1.00  0.00    -0.227 OA 
BRANCH  25  26
HETATM   26  C   UNL     1      -9.430   8.343  68.625  1.00  0.00    -0.147 C  
BRANCH  26  27
HETATM   27  C   UNL     1      -9.632   7.638  67.287  1.00  0.00    -0.157 C  
BRANCH  27  28
HETATM   28  N   UNL     1      -8.396   7.713  66.485  1.00  0.00    -0.124 NA 
HETATM   29  C   UNL     1      -8.382   6.832  65.314  1.00  0.00    -0.105 C  
HETATM   30  C   UNL     1      -7.247   7.394  64.486  1.00  0.00    -0.073 C  
HETATM   31  C   UNL     1      -7.378   8.894  64.683  1.00  0.00    -0.101 C  
HETATM   32  C   UNL     1      -8.110   9.065  66.011  1.00  0.00    -0.111 C  
ENDBRANCH  27  28
ENDBRANCH  26  27
ENDBRANCH  25  26
ENDBRANCH  22  25
ENDBRANCH   3  19
TORSDOF 6
ENDMDL
MODEL      129
REMARK 921   NORMALIZED FREE ENERGY PREDICTED BY IDOCK:   -3.89 KCAL/MOL
REMARK 922        TOTAL FREE ENERGY PREDICTED BY IDOCK:   -7.18 KCAL/MOL
REMARK 923 INTER-LIGAND FREE ENERGY PREDICTED BY IDOCK:   -5.80 KCAL/MOL
REMARK 924 INTRA-LIGAND FREE ENERGY PREDICTED BY IDOCK:   -1.39 KCAL/MOL
REMARK 927      BINDING AFFINITY PREDICTED BY RF-SCORE:    0.00 PKD
ROOT
HETATM    1  C   UNL     1     -12.120   7.418  71.050  1.00  0.00    -0.330 C  
HETATM    2  C   UNL     1     -13.551   7.629  71.569  1.00  0.00    -0.422 C  
HETATM    3  C   UNL     1     -11.755   8.581  70.060  1.00  0.00     0.301 C  
HETATM    4  C   UNL     1     -13.688   8.931  72.354  1.00  0.00    -0.512 C  
HETATM    5  C   UNL     1     -12.236   9.968  70.532  1.00  0.00    -0.308 A  
HETATM    6  C   UNL     1     -13.073  10.116  71.654  1.00  0.00    -0.550 A  
HETATM    7  H   UNL     1     -12.548  14.539  71.656  1.00  0.00     0.000 HD 
HETATM    8  C   UNL     1     -11.805  11.131  69.856  1.00  0.00    -0.439 A  
HETATM    9  C   UNL     1     -13.311  11.401  72.174  1.00  0.00    -0.271 A  
HETATM   10  C   UNL     1     -12.764  12.522  71.557  1.00  0.00    -0.220 A  
HETATM   11  O   UNL     1     -12.921  13.773  72.077  1.00  0.00    -0.346 OA 
HETATM   12  C   UNL     1     -12.037  12.398  70.387  1.00  0.00    -0.381 A  
ENDROOT
BRANCH   1  13
HETATM   13  C   UNL     1     -11.160   7.074  72.195  1.00  0.00    -0.279 A  
HETATM   14  C   UNL     1     -10.823   7.967  73.220  1.00  0.00    -0.192 A  
HETATM   15  C   UNL     1      -9.243   6.395  74.162  1.00  0.00    -0.181 A  
HETATM   16  C   UNL     1      -9.617   5.462  73.198  1.00  0.00    -0.156 A  
HETATM   17  C   UNL     1     -10.568   5.797  72.228  1.00  0.00    -0.264 A  
HETATM   18  C   UNL     1      -9.857   7.646  74.179  1.00  0.00     0.253 A  
ENDBRANCH   1  13
BRANCH   3  19
HETATM   19  C   UNL     1     -10.279   8.531  69.639  1.00  0.00    -0.209 A  
HETATM   20  C   UNL     1      -9.827   7.481  68.832  1.00  0.00    -0.159 A  
HETATM   21  C   UNL     1      -8.500   7.363  68.474  1.00  0.00    -0.125 A  
HETATM   22  C   UNL     1      -7.564   8.322  68.862  1.00  0.00    -0.093 A  
HETATM   23  C   UNL     1      -9.345   9.503  70.029  1.00  0.00    -0.265 A  
HETATM   24  C   UNL     1      -7.995   9.401  69.637  1.00  0.00    -0.109 A  
BRANCH  22  25
HETATM   25  O   UNL     1      -6.228   8.263  68.515  1.00  0.00    -0.050 OA 
BRANCH  25  26
HETATM   26  C   UNL     1      -6.052   8.141  67.097  1.00  0.00    -0.054 C  
BRANCH  26  27
HETATM   27  C   UNL     1      -6.309   9.422  66.308  1.00  0.00    -0.069 C  
BRANCH  27  28
HETATM   28  N   UNL     1      -6.760   9.092  64.943  1.00  0.00    -0.073 NA 
HETATM   29  C   UNL     1      -5.874   9.579  63.881  1.00  0.00    -0.091 C  
HETATM   30  C   UNL     1      -6.325   8.779  62.678  1.00  0.00    -0.095 C  
HETATM   31  C   UNL     1      -6.630   7.411  63.260  1.00  0.00    -0.054 C  
HETATM   32  C   UNL     1      -6.936   7.657  64.735  1.00  0.00    -0.055 C  
ENDBRANCH  27  28
ENDBRANCH  26  27
ENDBRANCH  25  26
ENDBRANCH  22  25
ENDBRANCH   3  19
TORSDOF 6
ENDMDL
MODEL      130
REMARK 921   NORMALIZED FREE ENERGY PREDICTED BY IDOCK:   -3.82 KCAL/MOL
REMARK 922        TOTAL FREE ENERGY PREDICTED BY IDOCK:   -7.09 KCAL/MOL
REMARK 923 INTER-LIGAND FREE ENERGY PREDICTED BY IDOCK:   -6.00 KCAL/MOL
REMARK 924 INTRA-LIGAND FREE ENERGY PREDICTED BY IDOCK:   -1.09 KCAL/MOL
REMARK 927      BINDING AFFINITY PREDICTED BY RF-SCORE:    0.00 PKD
ROOT
HETATM    1  C   UNL     1     -10.167  14.037  68.885  1.00  0.00    -0.159 C  
HETATM    2  C   UNL     1     -11.442  14.892  68.812  1.00  0.00    -0.328 C  
HETATM    3  C   UNL     1     -10.398  12.703  68.090  1.00  0.00    -0.238 C  
HETATM    4  C   UNL     1     -11.782  15.290  67.378  1.00  0.00    -0.120 C  
HETATM    5  C   UNL     1     -11.152  12.898  66.760  1.00  0.00    -0.315 A  
HETATM    6  C   UNL     1     -11.723  14.136  66.410  1.00  0.00    -0.404 A  
HETATM    7  H   UNL     1     -12.556  12.756  62.259  1.00  0.00     0.000 HD 
HETATM    8  C   UNL     1     -11.251  11.829  65.842  1.00  0.00    -0.345 A  
HETATM    9  C   UNL     1     -12.211  14.328  65.105  1.00  0.00    -0.422 A  
HETATM   10  C   UNL     1     -12.177  13.289  64.181  1.00  0.00    -0.401 A  
HETATM   11  O   UNL     1     -12.579  13.466  62.890  1.00  0.00    -0.576 OA 
HETATM   12  C   UNL     1     -11.726  12.033  64.548  1.00  0.00    -0.380 A  
ENDROOT
BRANCH   1  13
HETATM   13  C   UNL     1      -8.918  14.878  68.599  1.00  0.00    -0.184 A  
HETATM   14  C   UNL     1      -7.954  15.191  69.567  1.00  0.00    -0.175 A  
HETATM   15  C   UNL     1      -6.740  16.584  68.006  1.00  0.00    -0.147 A  
HETATM   16  C   UNL     1      -7.642  16.228  67.006  1.00  0.00    -0.250 A  
HETATM   17  C   UNL     1      -8.717  15.381  67.300  1.00  0.00    -0.215 A  
HETATM   18  C   UNL     1      -6.890  16.054  69.286  1.00  0.00    -0.201 A  
ENDBRANCH   1  13
BRANCH   3  19
HETATM   19  C   UNL     1      -9.107  11.878  67.973  1.00  0.00    -0.189 A  
HETATM   20  C   UNL     1      -8.226  12.122  66.915  1.00  0.00    -0.134 A  
HETATM   21  C   UNL     1      -7.083  11.370  66.736  1.00  0.00    -0.132 A  
HETATM   22  C   UNL     1      -6.736  10.366  67.640  1.00  0.00    -0.074 A  
HETATM   23  C   UNL     1      -8.763  10.873  68.891  1.00  0.00    -0.144 A  
HETATM   24  C   UNL     1      -7.579  10.125  68.727  1.00  0.00    -0.089 A  
BRANCH  22  25
HETATM   25  O   UNL     1      -5.595   9.597  67.521  1.00  0.00    -0.037 OA 
BRANCH  25  26
HETATM   26  C   UNL     1      -5.899   8.196  67.487  1.00  0.00    -0.039 C  
BRANCH  26  27
HETATM   27  C   UNL     1      -5.203   7.365  68.562  1.00  0.00    -0.021 C  
BRANCH  27  28
HETATM   28  N   UNL     1      -6.206   6.731  69.438  1.00  0.00    -0.029 NA 
HETATM   29  C   UNL     1      -7.508   6.510  68.803  1.00  0.00    -0.088 C  
HETATM   30  C   UNL     1      -8.170   5.518  69.735  1.00  0.00    -0.101 C  
HETATM   31  C   UNL     1      -7.026   4.610  70.151  1.00  0.00    -0.048 C  
HETATM   32  C   UNL     1      -5.761   5.445  69.970  1.00  0.00    -0.016 C  
ENDBRANCH  27  28
ENDBRANCH  26  27
ENDBRANCH  25  26
ENDBRANCH  22  25
ENDBRANCH   3  19
TORSDOF 6
ENDMDL
MODEL      131
REMARK 921   NORMALIZED FREE ENERGY PREDICTED BY IDOCK:   -3.81 KCAL/MOL
REMARK 922        TOTAL FREE ENERGY PREDICTED BY IDOCK:   -7.08 KCAL/MOL
REMARK 923 INTER-LIGAND FREE ENERGY PREDICTED BY IDOCK:   -5.67 KCAL/MOL
REMARK 924 INTRA-LIGAND FREE ENERGY PREDICTED BY IDOCK:   -1.41 KCAL/MOL
REMARK 927      BINDING AFFINITY PREDICTED BY RF-SCORE:    0.00 PKD
ROOT
HETATM    1  C   UNL     1     -10.604   6.065  69.869  1.00  0.00    -0.345 C  
HETATM    2  C   UNL     1     -10.744   4.865  70.818  1.00  0.00     0.057 C  
HETATM    3  C   UNL     1     -10.243   7.343  70.707  1.00  0.00    -0.200 C  
HETATM    4  C   UNL     1      -9.438   4.556  71.547  1.00  0.00    -0.214 C  
HETATM    5  C   UNL     1      -9.209   7.081  71.820  1.00  0.00    -0.145 A  
HETATM    6  C   UNL     1      -8.787   5.778  72.143  1.00  0.00    -0.137 A  
HETATM    7  H   UNL     1      -5.529   7.315  74.762  1.00  0.00     0.000 HD 
HETATM    8  C   UNL     1      -8.633   8.167  72.518  1.00  0.00    -0.255 A  
HETATM    9  C   UNL     1      -7.692   5.600  73.009  1.00  0.00    -0.101 A  
HETATM   10  C   UNL     1      -7.063   6.700  73.582  1.00  0.00    -0.080 A  
HETATM   11  O   UNL     1      -5.959   6.563  74.371  1.00  0.00    -0.062 OA 
HETATM   12  C   UNL     1      -7.543   7.980  73.365  1.00  0.00    -0.201 A  
ENDROOT
BRANCH   1  13
HETATM   13  C   UNL     1      -9.759   5.706  68.642  1.00  0.00    -0.175 A  
HETATM   14  C   UNL     1      -8.415   5.316  68.711  1.00  0.00    -0.092 A  
HETATM   15  C   UNL     1      -8.244   5.235  66.300  1.00  0.00    -0.109 A  
HETATM   16  C   UNL     1      -9.597   5.547  66.205  1.00  0.00    -0.173 A  
HETATM   17  C   UNL     1     -10.347   5.777  67.364  1.00  0.00    -0.279 A  
HETATM   18  C   UNL     1      -7.655   5.107  67.556  1.00  0.00    -0.088 A  
ENDBRANCH   1  13
BRANCH   3  19
HETATM   19  C   UNL     1      -9.916   8.544  69.807  1.00  0.00    -0.191 A  
HETATM   20  C   UNL     1     -10.954   9.342  69.317  1.00  0.00    -0.137 A  
HETATM   21  C   UNL     1     -10.714  10.397  68.460  1.00  0.00    -0.255 A  
HETATM   22  C   UNL     1      -9.413  10.739  68.091  1.00  0.00    -0.158 A  
HETATM   23  C   UNL     1      -8.603   8.884  69.445  1.00  0.00    -0.133 A  
HETATM   24  C   UNL     1      -8.354   9.982  68.595  1.00  0.00    -0.116 A  
BRANCH  22  25
HETATM   25  O   UNL     1      -9.114  11.796  67.254  1.00  0.00    -0.163 OA 
BRANCH  25  26
HETATM   26  C   UNL     1      -8.647  12.939  67.985  1.00  0.00    -0.186 C  
BRANCH  26  27
HETATM   27  C   UNL     1      -9.662  14.071  68.119  1.00  0.00    -0.220 C  
BRANCH  27  28
HETATM   28  N   UNL     1      -9.574  14.970  66.953  1.00  0.00    -0.230 NA 
HETATM   29  C   UNL     1     -10.662  14.810  65.985  1.00  0.00    -0.312 C  
HETATM   30  C   UNL     1     -10.561  16.073  65.157  1.00  0.00    -0.394 C  
HETATM   31  C   UNL     1     -10.200  17.135  66.180  1.00  0.00    -0.343 C  
HETATM   32  C   UNL     1      -9.533  16.381  67.328  1.00  0.00    -0.227 C  
ENDBRANCH  27  28
ENDBRANCH  26  27
ENDBRANCH  25  26
ENDBRANCH  22  25
ENDBRANCH   3  19
TORSDOF 6
ENDMDL
MODEL      132
REMARK 921   NORMALIZED FREE ENERGY PREDICTED BY IDOCK:   -3.73 KCAL/MOL
REMARK 922        TOTAL FREE ENERGY PREDICTED BY IDOCK:   -6.96 KCAL/MOL
REMARK 923 INTER-LIGAND FREE ENERGY PREDICTED BY IDOCK:   -5.60 KCAL/MOL
REMARK 924 INTRA-LIGAND FREE ENERGY PREDICTED BY IDOCK:   -1.36 KCAL/MOL
REMARK 927      BINDING AFFINITY PREDICTED BY RF-SCORE:    0.00 PKD
ROOT
HETATM    1  C   UNL     1      -8.690  11.452  66.598  1.00  0.00    -0.178 C  
HETATM    2  C   UNL     1      -8.514  10.341  65.551  1.00  0.00    -0.167 C  
HETATM    3  C   UNL     1      -9.192  12.757  65.884  1.00  0.00     0.102 C  
HETATM    4  C   UNL     1      -9.832   9.986  64.867  1.00  0.00    -0.352 C  
HETATM    5  C   UNL     1     -10.265  12.499  64.807  1.00  0.00    -0.304 A  
HETATM    6  C   UNL     1     -10.606  11.194  64.404  1.00  0.00    -0.411 A  
HETATM    7  H   UNL     1     -14.113  12.661  62.083  1.00  0.00     0.000 HD 
HETATM    8  C   UNL     1     -10.959  13.584  64.228  1.00  0.00    -0.355 A  
HETATM    9  C   UNL     1     -11.731  10.996  63.583  1.00  0.00     0.787 A  
HETATM   10  C   UNL     1     -12.473  12.083  63.131  1.00  0.00    -0.263 A  
HETATM   11  O   UNL     1     -13.606  11.919  62.391  1.00  0.00     0.896 OA 
HETATM   12  C   UNL     1     -12.078  13.377  63.425  1.00  0.00    -0.437 A  
ENDROOT
BRANCH   1  13
HETATM   13  C   UNL     1      -9.435  10.936  67.835  1.00  0.00    -0.166 A  
HETATM   14  C   UNL     1     -10.825  11.018  67.995  1.00  0.00    -0.278 A  
HETATM   15  C   UNL     1     -10.689  10.110  70.232  1.00  0.00    -0.352 A  
HETATM   16  C   UNL     1      -9.316   9.947  70.069  1.00  0.00    -0.232 A  
HETATM   17  C   UNL     1      -8.697  10.352  68.882  1.00  0.00    -0.157 A  
HETATM   18  C   UNL     1     -11.446  10.636  69.188  1.00  0.00    -0.349 A  
ENDBRANCH   1  13
BRANCH   3  19
HETATM   19  C   UNL     1      -9.557  13.856  66.892  1.00  0.00    -0.271 A  
HETATM   20  C   UNL     1      -8.548  14.468  67.642  1.00  0.00    -0.184 A  
HETATM   21  C   UNL     1      -8.832  15.420  68.600  1.00  0.00    -0.186 A  
HETATM   22  C   UNL     1     -10.142  15.848  68.818  1.00  0.00    -0.221 A  
HETATM   23  C   UNL     1     -10.877  14.285  67.102  1.00  0.00    -0.296 A  
HETATM   24  C   UNL     1     -11.166  15.282  68.057  1.00  0.00    -0.330 A  
BRANCH  22  25
HETATM   25  O   UNL     1     -10.480  16.812  69.748  1.00  0.00    -0.250 OA 
BRANCH  25  26
HETATM   26  C   UNL     1      -9.717  18.013  69.572  1.00  0.00     0.327 C  
BRANCH  26  27
HETATM   27  C   UNL     1     -10.106  18.845  68.353  1.00  0.00    -0.392 C  
BRANCH  27  28
HETATM   28  N   UNL     1      -8.952  19.642  67.896  1.00  0.00    -0.319 NA 
HETATM   29  C   UNL     1      -7.663  19.203  68.439  1.00  0.00    -0.324 C  
HETATM   30  C   UNL     1      -6.667  19.884  67.524  1.00  0.00    -0.254 C  
HETATM   31  C   UNL     1      -7.328  19.798  66.160  1.00  0.00    -0.307 C  
HETATM   32  C   UNL     1      -8.822  19.668  66.441  1.00  0.00    -0.376 C  
ENDBRANCH  27  28
ENDBRANCH  26  27
ENDBRANCH  25  26
ENDBRANCH  22  25
ENDBRANCH   3  19
TORSDOF 6
ENDMDL
MODEL      133
REMARK 921   NORMALIZED FREE ENERGY PREDICTED BY IDOCK:   -3.72 KCAL/MOL
REMARK 922        TOTAL FREE ENERGY PREDICTED BY IDOCK:   -6.95 KCAL/MOL
REMARK 923 INTER-LIGAND FREE ENERGY PREDICTED BY IDOCK:   -5.95 KCAL/MOL
REMARK 924 INTRA-LIGAND FREE ENERGY PREDICTED BY IDOCK:   -1.01 KCAL/MOL
REMARK 927      BINDING AFFINITY PREDICTED BY RF-SCORE:    0.00 PKD
ROOT
HETATM    1  C   UNL     1     -12.239   8.282  71.441  1.00  0.00    -0.328 C  
HETATM    2  C   UNL     1     -13.292   9.183  72.104  1.00  0.00    -0.525 C  
HETATM    3  C   UNL     1     -12.031   8.744  69.954  1.00  0.00     0.641 C  
HETATM    4  C   UNL     1     -12.845  10.642  72.158  1.00  0.00    -0.239 C  
HETATM    5  C   UNL     1     -11.993  10.276  69.782  1.00  0.00    -0.176 A  
HETATM    6  C   UNL     1     -12.299  11.145  70.846  1.00  0.00    -0.500 A  
HETATM    7  H   UNL     1     -10.882  14.694  68.558  1.00  0.00     0.000 HD 
HETATM    8  C   UNL     1     -11.609  10.837  68.544  1.00  0.00    -0.325 A  
HETATM    9  C   UNL     1     -12.046  12.522  70.708  1.00  0.00    -0.240 A  
HETATM   10  C   UNL     1     -11.544  13.029  69.513  1.00  0.00    -0.276 A  
HETATM   11  O   UNL     1     -11.225  14.348  69.373  1.00  0.00    -0.264 OA 
HETATM   12  C   UNL     1     -11.350  12.201  68.422  1.00  0.00    -0.336 A  
ENDROOT
BRANCH   1  13
HETATM   13  C   UNL     1     -11.018   8.094  72.349  1.00  0.00    -0.414 A  
HETATM   14  C   UNL     1      -9.791   8.739  72.143  1.00  0.00    -0.347 A  
HETATM   15  C   UNL     1      -8.777   7.542  73.984  1.00  0.00    -0.283 A  
HETATM   16  C   UNL     1     -10.005   6.945  74.257  1.00  0.00    -0.308 A  
HETATM   17  C   UNL     1     -11.114   7.222  73.449  1.00  0.00    -0.185 A  
HETATM   18  C   UNL     1      -8.673   8.450  72.933  1.00  0.00    -0.240 A  
ENDBRANCH   1  13
BRANCH   3  19
HETATM   19  C   UNL     1     -10.866   8.001  69.283  1.00  0.00    -0.072 A  
HETATM   20  C   UNL     1     -10.936   6.615  69.117  1.00  0.00    -0.338 A  
HETATM   21  C   UNL     1      -9.892   5.897  68.570  1.00  0.00    -0.166 A  
HETATM   22  C   UNL     1      -8.742   6.540  68.111  1.00  0.00    -0.117 A  
HETATM   23  C   UNL     1      -9.715   8.658  68.818  1.00  0.00    -0.171 A  
HETATM   24  C   UNL     1      -8.661   7.929  68.230  1.00  0.00    -0.124 A  
BRANCH  22  25
HETATM   25  O   UNL     1      -7.676   5.874  67.538  1.00  0.00    -0.095 OA 
BRANCH  25  26
HETATM   26  C   UNL     1      -7.668   6.013  66.110  1.00  0.00    -0.102 C  
BRANCH  26  27
HETATM   27  C   UNL     1      -8.523   4.992  65.364  1.00  0.00    -0.138 C  
BRANCH  27  28
HETATM   28  N   UNL     1      -7.729   3.784  65.073  1.00  0.00    -0.084 NA 
HETATM   29  C   UNL     1      -8.422   2.792  64.246  1.00  0.00    -0.086 C  
HETATM   30  C   UNL     1      -7.292   1.903  63.774  1.00  0.00    -0.053 C  
HETATM   31  C   UNL     1      -6.156   2.880  63.528  1.00  0.00    -0.014 C  
HETATM   32  C   UNL     1      -6.461   4.086  64.413  1.00  0.00    -0.042 C  
ENDBRANCH  27  28
ENDBRANCH  26  27
ENDBRANCH  25  26
ENDBRANCH  22  25
ENDBRANCH   3  19
TORSDOF 6
ENDMDL
MODEL      134
REMARK 921   NORMALIZED FREE ENERGY PREDICTED BY IDOCK:   -3.72 KCAL/MOL
REMARK 922        TOTAL FREE ENERGY PREDICTED BY IDOCK:   -6.95 KCAL/MOL
REMARK 923 INTER-LIGAND FREE ENERGY PREDICTED BY IDOCK:   -5.16 KCAL/MOL
REMARK 924 INTRA-LIGAND FREE ENERGY PREDICTED BY IDOCK:   -1.78 KCAL/MOL
REMARK 927      BINDING AFFINITY PREDICTED BY RF-SCORE:    0.00 PKD
ROOT
HETATM    1  C   UNL     1      -7.037  15.483  69.668  1.00  0.00    -0.170 C  
HETATM    2  C   UNL     1      -6.012  16.462  70.261  1.00  0.00    -0.064 C  
HETATM    3  C   UNL     1      -8.059  16.283  68.784  1.00  0.00    -0.227 C  
HETATM    4  C   UNL     1      -5.197  17.164  69.177  1.00  0.00    -0.145 C  
HETATM    5  C   UNL     1      -7.403  17.374  67.915  1.00  0.00    -0.194 A  
HETATM    6  C   UNL     1      -6.045  17.715  68.059  1.00  0.00    -0.158 A  
HETATM    7  H   UNL     1      -6.120  20.215  64.374  1.00  0.00     0.000 HD 
HETATM    8  C   UNL     1      -8.159  18.033  66.920  1.00  0.00    -0.255 A  
HETATM    9  C   UNL     1      -5.439  18.557  67.109  1.00  0.00    -0.138 A  
HETATM   10  C   UNL     1      -6.185  19.089  66.062  1.00  0.00    -0.191 A  
HETATM   11  O   UNL     1      -5.611  19.851  65.089  1.00  0.00    -0.161 OA 
HETATM   12  C   UNL     1      -7.547  18.855  65.977  1.00  0.00    -0.259 A  
ENDROOT
BRANCH   1  13
HETATM   13  C   UNL     1      -6.348  14.243  69.088  1.00  0.00    -0.104 A  
HETATM   14  C   UNL     1      -5.929  14.139  67.755  1.00  0.00    -0.111 A  
HETATM   15  C   UNL     1      -5.244  11.842  68.078  1.00  0.00    -0.047 A  
HETATM   16  C   UNL     1      -5.582  11.943  69.425  1.00  0.00    -0.067 A  
HETATM   17  C   UNL     1      -6.124  13.132  69.925  1.00  0.00    -0.128 A  
HETATM   18  C   UNL     1      -5.407  12.946  67.245  1.00  0.00     0.101 A  
ENDBRANCH   1  13
BRANCH   3  19
HETATM   19  C   UNL     1      -9.007  15.347  68.019  1.00  0.00    -0.171 A  
HETATM   20  C   UNL     1      -9.874  14.512  68.730  1.00  0.00    -0.220 A  
HETATM   21  C   UNL     1     -10.704  13.615  68.089  1.00  0.00    -0.260 A  
HETATM   22  C   UNL     1     -10.746  13.546  66.696  1.00  0.00    -0.282 A  
HETATM   23  C   UNL     1      -9.046  15.288  66.617  1.00  0.00    -0.312 A  
HETATM   24  C   UNL     1      -9.917  14.395  65.959  1.00  0.00    -0.337 A  
BRANCH  22  25
HETATM   25  O   UNL     1     -11.571  12.682  66.003  1.00  0.00    -0.349 OA 
BRANCH  25  26
HETATM   26  C   UNL     1     -10.913  12.122  64.857  1.00  0.00    -0.309 C  
BRANCH  26  27
HETATM   27  C   UNL     1     -11.005  10.603  64.746  1.00  0.00     0.353 C  
BRANCH  27  28
HETATM   28  N   UNL     1      -9.904   9.973  65.499  1.00  0.00    -0.288 NA 
HETATM   29  C   UNL     1      -8.770  10.863  65.765  1.00  0.00    -0.190 C  
HETATM   30  C   UNL     1      -8.019  10.129  66.856  1.00  0.00    -0.114 C  
HETATM   31  C   UNL     1      -9.127   9.539  67.709  1.00  0.00    -0.133 C  
HETATM   32  C   UNL     1     -10.335   9.427  66.783  1.00  0.00    -0.233 C  
ENDBRANCH  27  28
ENDBRANCH  26  27
ENDBRANCH  25  26
ENDBRANCH  22  25
ENDBRANCH   3  19
TORSDOF 6
ENDMDL
MODEL      135
REMARK 921   NORMALIZED FREE ENERGY PREDICTED BY IDOCK:   -3.71 KCAL/MOL
REMARK 922        TOTAL FREE ENERGY PREDICTED BY IDOCK:   -6.94 KCAL/MOL
REMARK 923 INTER-LIGAND FREE ENERGY PREDICTED BY IDOCK:   -5.51 KCAL/MOL
REMARK 924 INTRA-LIGAND FREE ENERGY PREDICTED BY IDOCK:   -1.43 KCAL/MOL
REMARK 927      BINDING AFFINITY PREDICTED BY RF-SCORE:    0.00 PKD
ROOT
HETATM    1  C   UNL     1      -8.999   6.675  69.131  1.00  0.00    -0.131 C  
HETATM    2  C   UNL     1      -9.940   5.514  69.489  1.00  0.00    -0.278 C  
HETATM    3  C   UNL     1      -9.851   7.972  68.894  1.00  0.00    -0.176 C  
HETATM    4  C   UNL     1     -10.706   5.777  70.782  1.00  0.00    -0.342 C  
HETATM    5  C   UNL     1     -10.993   8.157  69.913  1.00  0.00    -0.168 A  
HETATM    6  C   UNL     1     -11.324   7.150  70.839  1.00  0.00    -0.319 A  
HETATM    7  H   UNL     1     -14.044   9.883  73.069  1.00  0.00     0.000 HD 
HETATM    8  C   UNL     1     -11.711   9.373  69.955  1.00  0.00     0.028 A  
HETATM    9  C   UNL     1     -12.222   7.440  71.883  1.00  0.00    -0.344 A  
HETATM   10  C   UNL     1     -12.817   8.694  71.971  1.00  0.00    -0.379 A  
HETATM   11  O   UNL     1     -13.638   9.026  73.009  1.00  0.00    -0.293 OA 
HETATM   12  C   UNL     1     -12.589   9.653  71.000  1.00  0.00    -0.367 A  
ENDROOT
BRANCH   1  13
HETATM   13  C   UNL     1      -7.796   6.726  70.080  1.00  0.00    -0.111 A  
HETATM   14  C   UNL     1      -7.909   6.841  71.472  1.00  0.00    -0.101 A  
HETATM   15  C   UNL     1      -5.508   6.988  71.723  1.00  0.00    -0.036 A  
HETATM   16  C   UNL     1      -5.365   6.799  70.351  1.00  0.00    -0.019 A  
HETATM   17  C   UNL     1      -6.497   6.666  69.539  1.00  0.00    -0.044 A  
HETATM   18  C   UNL     1      -6.782   6.997  72.285  1.00  0.00    -0.057 A  
ENDBRANCH   1  13
BRANCH   3  19
HETATM   19  C   UNL     1      -8.963   9.212  68.705  1.00  0.00    -0.136 A  
HETATM   20  C   UNL     1      -8.756   9.722  67.420  1.00  0.00    -0.133 A  
HETATM   21  C   UNL     1      -7.923  10.799  67.194  1.00  0.00    -0.124 A  
HETATM   22  C   UNL     1      -7.295  11.455  68.253  1.00  0.00    -0.089 A  
HETATM   23  C   UNL     1      -8.340   9.870  69.777  1.00  0.00    -0.196 A  
HETATM   24  C   UNL     1      -7.515  10.990  69.551  1.00  0.00    -0.031 A  
BRANCH  22  25
HETATM   25  O   UNL     1      -6.469  12.549  68.086  1.00  0.00    -0.063 OA 
BRANCH  25  26
HETATM   26  C   UNL     1      -7.200  13.710  67.669  1.00  0.00    -0.170 C  
BRANCH  26  27
HETATM   27  C   UNL     1      -7.996  14.396  68.776  1.00  0.00    -0.133 C  
BRANCH  27  28
HETATM   28  N   UNL     1      -9.005  15.297  68.189  1.00  0.00    -0.171 NA 
HETATM   29  C   UNL     1      -8.898  15.457  66.736  1.00  0.00    -0.269 C  
HETATM   30  C   UNL     1     -10.237  16.058  66.367  1.00  0.00    -0.315 C  
HETATM   31  C   UNL     1     -11.209  15.341  67.286  1.00  0.00    -0.306 C  
HETATM   32  C   UNL     1     -10.375  14.881  68.478  1.00  0.00    -0.237 C  
ENDBRANCH  27  28
ENDBRANCH  26  27
ENDBRANCH  25  26
ENDBRANCH  22  25
ENDBRANCH   3  19
TORSDOF 6
ENDMDL
MODEL      136
REMARK 921   NORMALIZED FREE ENERGY PREDICTED BY IDOCK:   -3.68 KCAL/MOL
REMARK 922        TOTAL FREE ENERGY PREDICTED BY IDOCK:   -6.89 KCAL/MOL
REMARK 923 INTER-LIGAND FREE ENERGY PREDICTED BY IDOCK:   -7.00 KCAL/MOL
REMARK 924 INTRA-LIGAND FREE ENERGY PREDICTED BY IDOCK:    0.11 KCAL/MOL
REMARK 927      BINDING AFFINITY PREDICTED BY RF-SCORE:    0.00 PKD
ROOT
HETATM    1  C   UNL     1      -8.820  10.532  67.182  1.00  0.00    -0.140 C  
HETATM    2  C   UNL     1      -8.104  10.511  65.823  1.00  0.00    -0.158 C  
HETATM    3  C   UNL     1      -9.860  11.708  67.197  1.00  0.00    -0.205 C  
HETATM    4  C   UNL     1      -9.072  10.254  64.670  1.00  0.00    -0.265 C  
HETATM    5  C   UNL     1     -10.646  11.856  65.879  1.00  0.00    -0.306 A  
HETATM    6  C   UNL     1     -10.312  11.109  64.734  1.00  0.00    -0.387 A  
HETATM    7  H   UNL     1     -14.019  12.394  62.626  1.00  0.00     0.000 HD 
HETATM    8  C   UNL     1     -11.754  12.730  65.812  1.00  0.00    -0.449 A  
HETATM    9  C   UNL     1     -11.181  11.115  63.627  1.00  0.00    -0.034 A  
HETATM   10  C   UNL     1     -12.336  11.891  63.643  1.00  0.00    -0.481 A  
HETATM   11  O   UNL     1     -13.231  11.864  62.614  1.00  0.00     0.047 OA 
HETATM   12  C   UNL     1     -12.613  12.720  64.716  1.00  0.00    -0.518 A  
ENDROOT
BRANCH   1  13
HETATM   13  C   UNL     1      -9.269   9.125  67.595  1.00  0.00    -0.143 A  
HETATM   14  C   UNL     1     -10.513   8.576  67.255  1.00  0.00    -0.366 A  
HETATM   15  C   UNL     1     -10.065   6.586  68.556  1.00  0.00    -0.172 A  
HETATM   16  C   UNL     1      -8.794   7.076  68.845  1.00  0.00    -0.130 A  
HETATM   17  C   UNL     1      -8.400   8.330  68.367  1.00  0.00    -0.132 A  
HETATM   18  C   UNL     1     -10.921   7.332  67.749  1.00  0.00    -0.141 A  
ENDBRANCH   1  13
BRANCH   3  19
HETATM   19  C   UNL     1     -10.736  11.681  68.459  1.00  0.00    -0.250 A  
HETATM   20  C   UNL     1     -11.711  12.666  68.643  1.00  0.00    -0.364 A  
HETATM   21  C   UNL     1     -12.484  12.716  69.785  1.00  0.00     0.062 A  
HETATM   22  C   UNL     1     -12.355  11.747  70.780  1.00  0.00    -0.337 A  
HETATM   23  C   UNL     1     -10.604  10.699  69.453  1.00  0.00    -0.270 A  
HETATM   24  C   UNL     1     -11.415  10.729  70.606  1.00  0.00    -0.314 A  
BRANCH  22  25
HETATM   25  O   UNL     1     -13.116  11.737  71.933  1.00  0.00    -0.468 OA 
BRANCH  25  26
HETATM   26  C   UNL     1     -13.820  12.974  72.117  1.00  0.00    -0.358 C  
BRANCH  26  27
HETATM   27  C   UNL     1     -13.147  13.957  73.070  1.00  0.00    -0.140 C  
BRANCH  27  28
HETATM   28  N   UNL     1     -12.853  15.220  72.369  1.00  0.00    -0.334 NA 
HETATM   29  C   UNL     1     -11.441  15.400  72.017  1.00  0.00    -0.434 C  
HETATM   30  C   UNL     1     -11.492  16.511  70.990  1.00  0.00    -0.079 C  
HETATM   31  C   UNL     1     -12.750  16.202  70.200  1.00  0.00     0.727 C  
HETATM   32  C   UNL     1     -13.628  15.380  71.141  1.00  0.00    -0.462 C  
ENDBRANCH  27  28
ENDBRANCH  26  27
ENDBRANCH  25  26
ENDBRANCH  22  25
ENDBRANCH   3  19
TORSDOF 6
ENDMDL
MODEL      137
REMARK 921   NORMALIZED FREE ENERGY PREDICTED BY IDOCK:   -3.60 KCAL/MOL
REMARK 922        TOTAL FREE ENERGY PREDICTED BY IDOCK:   -6.80 KCAL/MOL
REMARK 923 INTER-LIGAND FREE ENERGY PREDICTED BY IDOCK:   -5.75 KCAL/MOL
REMARK 924 INTRA-LIGAND FREE ENERGY PREDICTED BY IDOCK:   -1.05 KCAL/MOL
REMARK 927      BINDING AFFINITY PREDICTED BY RF-SCORE:    0.00 PKD
ROOT
HETATM    1  C   UNL     1      -8.147  14.143  67.055  1.00  0.00    -0.044 C  
HETATM    2  C   UNL     1      -7.336  15.405  67.387  1.00  0.00    -0.244 C  
HETATM    3  C   UNL     1      -7.313  12.875  67.456  1.00  0.00    -0.154 C  
HETATM    4  C   UNL     1      -7.050  15.524  68.881  1.00  0.00    -0.134 C  
HETATM    5  C   UNL     1      -6.579  13.019  68.804  1.00  0.00    -0.096 A  
HETATM    6  C   UNL     1      -6.536  14.246  69.493  1.00  0.00    -0.132 A  
HETATM    7  H   UNL     1      -4.807  12.326  73.121  1.00  0.00     0.000 HD 
HETATM    8  C   UNL     1      -5.960  11.895  69.395  1.00  0.00    -0.084 A  
HETATM    9  C   UNL     1      -6.044  14.282  70.811  1.00  0.00    -0.174 A  
HETATM   10  C   UNL     1      -5.558  13.126  71.412  1.00  0.00    -0.063 A  
HETATM   11  O   UNL     1      -5.139  13.116  72.710  1.00  0.00    -0.343 OA 
HETATM   12  C   UNL     1      -5.487  11.939  70.704  1.00  0.00    -0.156 A  
ENDROOT
BRANCH   1  13
HETATM   13  C   UNL     1      -9.597  14.274  67.535  1.00  0.00    -0.216 A  
HETATM   14  C   UNL     1     -10.709  13.954  66.745  1.00  0.00    -0.281 A  
HETATM   15  C   UNL     1     -12.234  14.719  68.460  1.00  0.00    -0.114 A  
HETATM   16  C   UNL     1     -11.148  14.974  69.294  1.00  0.00    -0.280 A  
HETATM   17  C   UNL     1      -9.845  14.750  68.837  1.00  0.00    -0.222 A  
HETATM   18  C   UNL     1     -12.014  14.196  67.188  1.00  0.00    -0.460 A  
ENDBRANCH   1  13
BRANCH   3  19
HETATM   19  C   UNL     1      -8.133  11.584  67.316  1.00  0.00    -0.153 A  
HETATM   20  C   UNL     1      -8.293  11.002  66.054  1.00  0.00    -0.147 A  
HETATM   21  C   UNL     1      -9.066   9.874  65.869  1.00  0.00    -0.201 A  
HETATM   22  C   UNL     1      -9.676   9.238  66.951  1.00  0.00    -0.190 A  
HETATM   23  C   UNL     1      -8.738  10.947  68.410  1.00  0.00    -0.147 A  
HETATM   24  C   UNL     1      -9.502   9.775  68.228  1.00  0.00    -0.148 A  
BRANCH  22  25
HETATM   25  O   UNL     1     -10.443   8.096  66.826  1.00  0.00    -0.326 OA 
BRANCH  25  26
HETATM   26  C   UNL     1     -10.416   7.303  68.021  1.00  0.00    -0.197 C  
BRANCH  26  27
HETATM   27  C   UNL     1     -10.824   5.845  67.830  1.00  0.00    -0.233 C  
BRANCH  27  28
HETATM   28  N   UNL     1      -9.807   5.136  67.032  1.00  0.00    -0.161 NA 
HETATM   29  C   UNL     1      -9.234   3.959  67.693  1.00  0.00    -0.167 C  
HETATM   30  C   UNL     1      -8.574   3.222  66.548  1.00  0.00    -0.117 C  
HETATM   31  C   UNL     1      -9.540   3.425  65.395  1.00  0.00    -0.101 C  
HETATM   32  C   UNL     1     -10.311   4.699  65.732  1.00  0.00    -0.264 C  
ENDBRANCH  27  28
ENDBRANCH  26  27
ENDBRANCH  25  26
ENDBRANCH  22  25
ENDBRANCH   3  19
TORSDOF 6
ENDMDL
MODEL      138
REMARK 921   NORMALIZED FREE ENERGY PREDICTED BY IDOCK:   -3.49 KCAL/MOL
REMARK 922        TOTAL FREE ENERGY PREDICTED BY IDOCK:   -6.64 KCAL/MOL
REMARK 923 INTER-LIGAND FREE ENERGY PREDICTED BY IDOCK:   -5.20 KCAL/MOL
REMARK 924 INTRA-LIGAND FREE ENERGY PREDICTED BY IDOCK:   -1.44 KCAL/MOL
REMARK 927      BINDING AFFINITY PREDICTED BY RF-SCORE:    0.00 PKD
ROOT
HETATM    1  C   UNL     1     -10.042  10.148  66.075  1.00  0.00    -0.317 C  
HETATM    2  C   UNL     1     -10.224  10.401  64.571  1.00  0.00    -0.281 C  
HETATM    3  C   UNL     1      -9.778   8.618  66.311  1.00  0.00    -0.322 C  
HETATM    4  C   UNL     1      -8.970  10.045  63.775  1.00  0.00    -0.274 C  
HETATM    5  C   UNL     1      -8.825   7.988  65.276  1.00  0.00     0.003 A  
HETATM    6  C   UNL     1      -8.396   8.700  64.139  1.00  0.00    -0.133 A  
HETATM    7  H   UNL     1      -5.386   5.577  63.128  1.00  0.00     0.000 HD 
HETATM    8  C   UNL     1      -8.331   6.680  65.475  1.00  0.00    -0.144 A  
HETATM    9  C   UNL     1      -7.367   8.170  63.340  1.00  0.00    -0.103 A  
HETATM   10  C   UNL     1      -6.810   6.931  63.639  1.00  0.00    -0.054 A  
HETATM   11  O   UNL     1      -5.766   6.424  62.923  1.00  0.00    -0.025 OA 
HETATM   12  C   UNL     1      -7.304   6.170  64.684  1.00  0.00    -0.072 A  
ENDROOT
BRANCH   1  13
HETATM   13  C   UNL     1      -9.097  11.180  66.701  1.00  0.00    -0.180 A  
HETATM   14  C   UNL     1      -7.710  11.185  66.503  1.00  0.00    -0.146 A  
HETATM   15  C   UNL     1      -7.427  13.027  68.044  1.00  0.00    -0.134 A  
HETATM   16  C   UNL     1      -8.810  13.093  68.200  1.00  0.00    -0.194 A  
HETATM   17  C   UNL     1      -9.635  12.182  67.532  1.00  0.00    -0.179 A  
HETATM   18  C   UNL     1      -6.878  12.079  67.185  1.00  0.00    -0.136 A  
ENDBRANCH   1  13
BRANCH   3  19
HETATM   19  C   UNL     1      -9.413   8.320  67.773  1.00  0.00    -0.171 A  
HETATM   20  C   UNL     1     -10.427   8.050  68.696  1.00  0.00    -0.196 A  
HETATM   21  C   UNL     1     -10.153   7.831  70.031  1.00  0.00    -0.201 A  
HETATM   22  C   UNL     1      -8.840   7.819  70.500  1.00  0.00    -0.145 A  
HETATM   23  C   UNL     1      -8.087   8.304  68.236  1.00  0.00    -0.124 A  
HETATM   24  C   UNL     1      -7.803   8.048  69.593  1.00  0.00    -0.104 A  
BRANCH  22  25
HETATM   25  O   UNL     1      -8.507   7.585  71.820  1.00  0.00    -0.106 OA 
BRANCH  25  26
HETATM   26  C   UNL     1      -9.657   7.637  72.676  1.00  0.00    -0.181 C  
BRANCH  26  27
HETATM   27  C   UNL     1      -9.392   7.248  74.128  1.00  0.00    -0.219 C  
BRANCH  27  28
HETATM   28  N   UNL     1      -9.866   5.874  74.378  1.00  0.00    -0.215 NA 
HETATM   29  C   UNL     1     -10.874   5.402  73.424  1.00  0.00    -0.297 C  
HETATM   30  C   UNL     1     -10.867   3.904  73.646  1.00  0.00    -0.331 C  
HETATM   31  C   UNL     1      -9.401   3.591  73.881  1.00  0.00    -0.108 C  
HETATM   32  C   UNL     1      -8.784   4.893  74.384  1.00  0.00    -0.112 C  
ENDBRANCH  27  28
ENDBRANCH  26  27
ENDBRANCH  25  26
ENDBRANCH  22  25
ENDBRANCH   3  19
TORSDOF 6
ENDMDL
MODEL      139
REMARK 921   NORMALIZED FREE ENERGY PREDICTED BY IDOCK:   -3.48 KCAL/MOL
REMARK 922        TOTAL FREE ENERGY PREDICTED BY IDOCK:   -6.62 KCAL/MOL
REMARK 923 INTER-LIGAND FREE ENERGY PREDICTED BY IDOCK:   -5.31 KCAL/MOL
REMARK 924 INTRA-LIGAND FREE ENERGY PREDICTED BY IDOCK:   -1.31 KCAL/MOL
REMARK 927      BINDING AFFINITY PREDICTED BY RF-SCORE:    0.00 PKD
ROOT
HETATM    1  C   UNL     1      -7.789  10.063  66.806  1.00  0.00    -0.110 C  
HETATM    2  C   UNL     1      -8.444   9.081  65.822  1.00  0.00    -0.153 C  
HETATM    3  C   UNL     1      -7.960  11.526  66.261  1.00  0.00     0.019 C  
HETATM    4  C   UNL     1      -9.944   9.324  65.685  1.00  0.00    -0.130 C  
HETATM    5  C   UNL     1      -9.354  11.805  65.665  1.00  0.00    -0.165 A  
HETATM    6  C   UNL     1     -10.295  10.775  65.478  1.00  0.00    -0.308 A  
HETATM    7  H   UNL     1     -13.526  13.691  64.528  1.00  0.00     0.000 HD 
HETATM    8  C   UNL     1      -9.725  13.125  65.326  1.00  0.00     0.009 A  
HETATM    9  C   UNL     1     -11.620  11.104  65.134  1.00  0.00     0.379 A  
HETATM   10  C   UNL     1     -11.986  12.430  64.932  1.00  0.00    -0.398 A  
HETATM   11  O   UNL     1     -13.276  12.784  64.666  1.00  0.00    -0.776 OA 
HETATM   12  C   UNL     1     -11.042  13.440  64.998  1.00  0.00    -0.332 A  
ENDROOT
BRANCH   1  13
HETATM   13  C   UNL     1      -8.186   9.747  68.252  1.00  0.00    -0.105 A  
HETATM   14  C   UNL     1      -9.414  10.112  68.818  1.00  0.00    -0.171 A  
HETATM   15  C   UNL     1      -8.746   9.267  70.983  1.00  0.00    -0.182 A  
HETATM   16  C   UNL     1      -7.547   8.826  70.427  1.00  0.00    -0.082 A  
HETATM   17  C   UNL     1      -7.273   9.060  69.076  1.00  0.00    -0.072 A  
HETATM   18  C   UNL     1      -9.685   9.900  70.174  1.00  0.00    -0.255 A  
ENDBRANCH   1  13
BRANCH   3  19
HETATM   19  C   UNL     1      -7.484  12.574  67.278  1.00  0.00    -0.125 A  
HETATM   20  C   UNL     1      -6.116  12.725  67.525  1.00  0.00    -0.152 A  
HETATM   21  C   UNL     1      -5.644  13.613  68.470  1.00  0.00    -0.091 A  
HETATM   22  C   UNL     1      -6.518  14.436  69.180  1.00  0.00    -0.107 A  
HETATM   23  C   UNL     1      -8.371  13.402  67.985  1.00  0.00    -0.165 A  
HETATM   24  C   UNL     1      -7.888  14.333  68.927  1.00  0.00    -0.097 A  
BRANCH  22  25
HETATM   25  O   UNL     1      -6.099  15.356  70.121  1.00  0.00    -0.150 OA 
BRANCH  25  26
HETATM   26  C   UNL     1      -5.153  16.285  69.574  1.00  0.00    -0.114 C  
BRANCH  26  27
HETATM   27  C   UNL     1      -5.751  17.612  69.116  1.00  0.00    -0.197 C  
BRANCH  27  28
HETATM   28  N   UNL     1      -5.153  18.725  69.878  1.00  0.00    -0.181 NA 
HETATM   29  C   UNL     1      -5.679  20.047  69.526  1.00  0.00    -0.272 C  
HETATM   30  C   UNL     1      -5.229  20.905  70.689  1.00  0.00    -0.220 C  
HETATM   31  C   UNL     1      -5.388  19.986  71.886  1.00  0.00    -0.384 C  
HETATM   32  C   UNL     1      -5.307  18.570  71.322  1.00  0.00    -0.226 C  
ENDBRANCH  27  28
ENDBRANCH  26  27
ENDBRANCH  25  26
ENDBRANCH  22  25
ENDBRANCH   3  19
TORSDOF 6
ENDMDL
MODEL      140
REMARK 921   NORMALIZED FREE ENERGY PREDICTED BY IDOCK:   -3.37 KCAL/MOL
REMARK 922        TOTAL FREE ENERGY PREDICTED BY IDOCK:   -6.47 KCAL/MOL
REMARK 923 INTER-LIGAND FREE ENERGY PREDICTED BY IDOCK:   -5.68 KCAL/MOL
REMARK 924 INTRA-LIGAND FREE ENERGY PREDICTED BY IDOCK:   -0.79 KCAL/MOL
REMARK 927      BINDING AFFINITY PREDICTED BY RF-SCORE:    0.00 PKD
ROOT
HETATM    1  C   UNL     1      -7.776   8.310  68.685  1.00  0.00    -0.114 C  
HETATM    2  C   UNL     1      -6.527   7.418  68.621  1.00  0.00    -0.044 C  
HETATM    3  C   UNL     1      -7.508   9.627  67.873  1.00  0.00    -0.083 C  
HETATM    4  C   UNL     1      -6.199   6.992  67.193  1.00  0.00    -0.044 C  
HETATM    5  C   UNL     1      -6.761   9.393  66.544  1.00  0.00    -0.072 A  
HETATM    6  C   UNL     1      -6.227   8.135  66.210  1.00  0.00    -0.046 A  
HETATM    7  H   UNL     1      -5.358   9.438  62.041  1.00  0.00     0.000 HD 
HETATM    8  C   UNL     1      -6.632  10.447  65.613  1.00  0.00    -0.129 A  
HETATM    9  C   UNL     1      -5.745   7.912  64.907  1.00  0.00    -0.040 A  
HETATM   10  C   UNL     1      -5.751   8.940  63.970  1.00  0.00    -0.070 A  
HETATM   11  O   UNL     1      -5.354   8.736  62.681  1.00  0.00    -0.070 OA 
HETATM   12  C   UNL     1      -6.164  10.213  64.322  1.00  0.00    -0.132 A  
ENDROOT
BRANCH   1  13
HETATM   13  C   UNL     1      -9.049   7.502  68.410  1.00  0.00    -0.133 A  
HETATM   14  C   UNL     1     -10.060   7.299  69.359  1.00  0.00    -0.183 A  
HETATM   15  C   UNL     1     -11.276   5.848  67.854  1.00  0.00     0.128 A  
HETATM   16  C   UNL     1     -10.324   6.094  66.868  1.00  0.00    -0.307 A  
HETATM   17  C   UNL     1      -9.225   6.915  67.142  1.00  0.00    -0.153 A  
HETATM   18  C   UNL     1     -11.149   6.462  69.098  1.00  0.00    -0.428 A  
ENDBRANCH   1  13
BRANCH   3  19
HETATM   19  C   UNL     1      -8.774  10.488  67.745  1.00  0.00    -0.122 A  
HETATM   20  C   UNL     1      -9.190  11.267  68.829  1.00  0.00    -0.133 A  
HETATM   21  C   UNL     1     -10.350  12.013  68.782  1.00  0.00    -0.181 A  
HETATM   22  C   UNL     1     -11.127  12.058  67.624  1.00  0.00    -0.264 A  
HETATM   23  C   UNL     1      -9.547  10.531  66.574  1.00  0.00    -0.216 A  
HETATM   24  C   UNL     1     -10.715  11.318  66.513  1.00  0.00    -0.323 A  
BRANCH  22  25
HETATM   25  O   UNL     1     -12.285  12.802  67.515  1.00  0.00    -0.348 OA 
BRANCH  25  26
HETATM   26  C   UNL     1     -12.033  14.100  66.957  1.00  0.00    -0.439 C  
BRANCH  26  27
HETATM   27  C   UNL     1     -10.947  14.902  67.669  1.00  0.00    -0.300 C  
BRANCH  27  28
HETATM   28  N   UNL     1     -11.135  16.342  67.416  1.00  0.00    -0.142 NA 
HETATM   29  C   UNL     1     -10.803  17.203  68.555  1.00  0.00    -0.281 C  
HETATM   30  C   UNL     1     -10.685  18.570  67.917  1.00  0.00    -0.337 C  
HETATM   31  C   UNL     1     -10.026  18.279  66.582  1.00  0.00    -0.370 C  
HETATM   32  C   UNL     1     -10.363  16.822  66.273  1.00  0.00    -0.310 C  
ENDBRANCH  27  28
ENDBRANCH  26  27
ENDBRANCH  25  26
ENDBRANCH  22  25
ENDBRANCH   3  19
TORSDOF 6
ENDMDL
MODEL      141
REMARK 921   NORMALIZED FREE ENERGY PREDICTED BY IDOCK:   -3.35 KCAL/MOL
REMARK 922        TOTAL FREE ENERGY PREDICTED BY IDOCK:   -6.45 KCAL/MOL
REMARK 923 INTER-LIGAND FREE ENERGY PREDICTED BY IDOCK:   -5.99 KCAL/MOL
REMARK 924 INTRA-LIGAND FREE ENERGY PREDICTED BY IDOCK:   -0.47 KCAL/MOL
REMARK 927      BINDING AFFINITY PREDICTED BY RF-SCORE:    0.00 PKD
ROOT
HETATM    1  C   UNL     1     -10.760  15.856  67.421  1.00  0.00    -0.313 C  
HETATM    2  C   UNL     1     -11.038  17.366  67.469  1.00  0.00     0.052 C  
HETATM    3  C   UNL     1      -9.319  15.617  66.845  1.00  0.00    -0.252 C  
HETATM    4  C   UNL     1     -10.069  18.097  68.395  1.00  0.00    -0.401 C  
HETATM    5  C   UNL     1      -8.265  16.605  67.385  1.00  0.00    -0.189 A  
HETATM    6  C   UNL     1      -8.629  17.712  68.174  1.00  0.00    -0.261 A  
HETATM    7  H   UNL     1      -4.380  18.585  69.184  1.00  0.00     0.000 HD 
HETATM    8  C   UNL     1      -6.894  16.388  67.122  1.00  0.00    -0.238 A  
HETATM    9  C   UNL     1      -7.627  18.461  68.819  1.00  0.00    -0.295 A  
HETATM   10  C   UNL     1      -6.285  18.141  68.641  1.00  0.00    -0.204 A  
HETATM   11  O   UNL     1      -5.296  18.804  69.306  1.00  0.00    -0.195 OA 
HETATM   12  C   UNL     1      -5.911  17.128  67.775  1.00  0.00    -0.137 A  
ENDROOT
BRANCH   1  13
HETATM   13  C   UNL     1     -11.170  15.175  68.732  1.00  0.00    -0.293 A  
HETATM   14  C   UNL     1     -11.930  13.999  68.791  1.00  0.00    -0.382 A  
HETATM   15  C   UNL     1     -12.020  14.098  71.206  1.00  0.00    -0.262 A  
HETATM   16  C   UNL     1     -11.202  15.225  71.178  1.00  0.00    -0.378 A  
HETATM   17  C   UNL     1     -10.779  15.755  69.954  1.00  0.00    -0.332 A  
HETATM   18  C   UNL     1     -12.374  13.478  70.010  1.00  0.00    -0.315 A  
ENDBRANCH   1  13
BRANCH   3  19
HETATM   19  C   UNL     1      -8.906  14.140  66.933  1.00  0.00    -0.223 A  
HETATM   20  C   UNL     1      -7.913  13.753  67.838  1.00  0.00    -0.157 A  
HETATM   21  C   UNL     1      -7.469  12.449  67.914  1.00  0.00    -0.120 A  
HETATM   22  C   UNL     1      -8.038  11.451  67.121  1.00  0.00    -0.155 A  
HETATM   23  C   UNL     1      -9.488  13.141  66.136  1.00  0.00    -0.156 A  
HETATM   24  C   UNL     1      -9.059  11.802  66.235  1.00  0.00    -0.209 A  
BRANCH  22  25
HETATM   25  O   UNL     1      -7.647  10.127  67.171  1.00  0.00    -0.091 OA 
BRANCH  25  26
HETATM   26  C   UNL     1      -6.892   9.752  66.010  1.00  0.00    -0.094 C  
BRANCH  26  27
HETATM   27  C   UNL     1      -7.734   9.346  64.804  1.00  0.00    -0.116 C  
BRANCH  27  28
HETATM   28  N   UNL     1      -7.091   8.225  64.093  1.00  0.00    -0.081 NA 
HETATM   29  C   UNL     1      -5.655   8.403  63.859  1.00  0.00    -0.061 C  
HETATM   30  C   UNL     1      -5.197   7.002  63.517  1.00  0.00    -0.028 C  
HETATM   31  C   UNL     1      -6.019   6.127  64.446  1.00  0.00    -0.025 C  
HETATM   32  C   UNL     1      -7.262   6.947  64.780  1.00  0.00    -0.075 C  
ENDBRANCH  27  28
ENDBRANCH  26  27
ENDBRANCH  25  26
ENDBRANCH  22  25
ENDBRANCH   3  19
TORSDOF 6
ENDMDL
MODEL      142
REMARK 921   NORMALIZED FREE ENERGY PREDICTED BY IDOCK:   -3.34 KCAL/MOL
REMARK 922        TOTAL FREE ENERGY PREDICTED BY IDOCK:   -6.43 KCAL/MOL
REMARK 923 INTER-LIGAND FREE ENERGY PREDICTED BY IDOCK:   -4.73 KCAL/MOL
REMARK 924 INTRA-LIGAND FREE ENERGY PREDICTED BY IDOCK:   -1.70 KCAL/MOL
REMARK 927      BINDING AFFINITY PREDICTED BY RF-SCORE:    0.00 PKD
ROOT
HETATM    1  C   UNL     1      -7.521  11.427  68.766  1.00  0.00    -0.124 C  
HETATM    2  C   UNL     1      -6.643  12.248  67.810  1.00  0.00    -0.108 C  
HETATM    3  C   UNL     1      -8.838  11.007  68.022  1.00  0.00    -0.138 C  
HETATM    4  C   UNL     1      -6.216  11.438  66.588  1.00  0.00    -0.137 C  
HETATM    5  C   UNL     1      -8.609  10.557  66.566  1.00  0.00    -0.140 A  
HETATM    6  C   UNL     1      -7.356  10.693  65.940  1.00  0.00    -0.128 A  
HETATM    7  H   UNL     1      -8.655   8.246  62.454  1.00  0.00     0.000 HD 
HETATM    8  C   UNL     1      -9.662   9.957  65.839  1.00  0.00    -0.326 A  
HETATM    9  C   UNL     1      -7.134  10.079  64.694  1.00  0.00    -0.140 A  
HETATM   10  C   UNL     1      -8.159   9.383  64.060  1.00  0.00    -0.150 A  
HETATM   11  O   UNL     1      -7.956   8.721  62.886  1.00  0.00    -0.142 OA 
HETATM   12  C   UNL     1      -9.429   9.342  64.611  1.00  0.00    -0.022 A  
ENDROOT
BRANCH   1  13
HETATM   13  C   UNL     1      -6.698  10.361  69.499  1.00  0.00    -0.081 A  
HETATM   14  C   UNL     1      -6.550   9.044  69.043  1.00  0.00    -0.048 A  
HETATM   15  C   UNL     1      -5.299   8.428  71.019  1.00  0.00    -0.028 A  
HETATM   16  C   UNL     1      -5.365   9.748  71.457  1.00  0.00    -0.077 A  
HETATM   17  C   UNL     1      -6.054  10.704  70.703  1.00  0.00    -0.075 A  
HETATM   18  C   UNL     1      -5.882   8.079  69.803  1.00  0.00    -0.023 A  
ENDBRANCH   1  13
BRANCH   3  19
HETATM   19  C   UNL     1      -9.684  10.037  68.860  1.00  0.00    -0.181 A  
HETATM   20  C   UNL     1      -9.651   8.668  68.574  1.00  0.00    -0.162 A  
HETATM   21  C   UNL     1     -10.435   7.765  69.262  1.00  0.00    -0.221 A  
HETATM   22  C   UNL     1     -11.255   8.181  70.311  1.00  0.00    -0.182 A  
HETATM   23  C   UNL     1     -10.502  10.463  69.919  1.00  0.00    -0.266 A  
HETATM   24  C   UNL     1     -11.279   9.537  70.644  1.00  0.00    -0.364 A  
BRANCH  22  25
HETATM   25  O   UNL     1     -12.044   7.317  71.046  1.00  0.00    -0.321 OA 
BRANCH  25  26
HETATM   26  C   UNL     1     -11.340   6.117  71.393  1.00  0.00    -0.275 C  
BRANCH  26  27
HETATM   27  C   UNL     1     -10.953   6.005  72.865  1.00  0.00    -0.269 C  
BRANCH  27  28
HETATM   28  N   UNL     1      -9.546   5.582  72.987  1.00  0.00    -0.150 NA 
HETATM   29  C   UNL     1      -8.781   5.664  71.739  1.00  0.00    -0.136 C  
HETATM   30  C   UNL     1      -7.348   5.584  72.220  1.00  0.00    -0.094 C  
HETATM   31  C   UNL     1      -7.365   6.389  73.508  1.00  0.00    -0.086 C  
HETATM   32  C   UNL     1      -8.811   6.343  73.995  1.00  0.00    -0.137 C  
ENDBRANCH  27  28
ENDBRANCH  26  27
ENDBRANCH  25  26
ENDBRANCH  22  25
ENDBRANCH   3  19
TORSDOF 6
ENDMDL
MODEL      143
REMARK 921   NORMALIZED FREE ENERGY PREDICTED BY IDOCK:   -3.32 KCAL/MOL
REMARK 922        TOTAL FREE ENERGY PREDICTED BY IDOCK:   -6.41 KCAL/MOL
REMARK 923 INTER-LIGAND FREE ENERGY PREDICTED BY IDOCK:   -5.37 KCAL/MOL
REMARK 924 INTRA-LIGAND FREE ENERGY PREDICTED BY IDOCK:   -1.04 KCAL/MOL
REMARK 927      BINDING AFFINITY PREDICTED BY RF-SCORE:    0.00 PKD
ROOT
HETATM    1  C   UNL     1      -9.736   7.657  67.196  1.00  0.00    -0.239 C  
HETATM    2  C   UNL     1      -9.803   6.210  67.708  1.00  0.00    -0.131 C  
HETATM    3  C   UNL     1      -9.737   8.636  68.424  1.00  0.00    -0.176 C  
HETATM    4  C   UNL     1      -8.588   5.847  68.558  1.00  0.00    -0.110 C  
HETATM    5  C   UNL     1      -8.852   8.163  69.594  1.00  0.00    -0.143 A  
HETATM    6  C   UNL     1      -8.259   6.886  69.600  1.00  0.00    -0.131 A  
HETATM    7  H   UNL     1      -5.756   7.895  73.142  1.00  0.00     0.000 HD 
HETATM    8  C   UNL     1      -8.589   9.031  70.676  1.00  0.00    -0.245 A  
HETATM    9  C   UNL     1      -7.294   6.577  70.575  1.00  0.00    -0.082 A  
HETATM   10  C   UNL     1      -6.962   7.506  71.556  1.00  0.00    -0.054 A  
HETATM   11  O   UNL     1      -5.982   7.260  72.473  1.00  0.00    -0.041 OA 
HETATM   12  C   UNL     1      -7.623   8.719  71.630  1.00  0.00    -0.109 A  
ENDROOT
BRANCH   1  13
HETATM   13  C   UNL     1      -8.666   7.813  66.109  1.00  0.00    -0.177 A  
HETATM   14  C   UNL     1      -7.334   7.408  66.267  1.00  0.00    -0.082 A  
HETATM   15  C   UNL     1      -6.733   8.305  64.103  1.00  0.00    -0.067 A  
HETATM   16  C   UNL     1      -8.066   8.649  63.890  1.00  0.00    -0.163 A  
HETATM   17  C   UNL     1      -9.022   8.402  64.881  1.00  0.00     0.128 A  
HETATM   18  C   UNL     1      -6.370   7.672  65.290  1.00  0.00    -0.038 A  
ENDBRANCH   1  13
BRANCH   3  19
HETATM   19  C   UNL     1      -9.495  10.091  67.994  1.00  0.00    -0.150 A  
HETATM   20  C   UNL     1      -8.285  10.713  68.316  1.00  0.00    -0.120 A  
HETATM   21  C   UNL     1      -8.044  12.035  68.001  1.00  0.00    -0.153 A  
HETATM   22  C   UNL     1      -8.985  12.788  67.298  1.00  0.00    -0.199 A  
HETATM   23  C   UNL     1     -10.446  10.840  67.282  1.00  0.00    -0.282 A  
HETATM   24  C   UNL     1     -10.188  12.181  66.931  1.00  0.00    -0.228 A  
BRANCH  22  25
HETATM   25  O   UNL     1      -8.787  14.107  66.939  1.00  0.00    -0.227 OA 
BRANCH  25  26
HETATM   26  C   UNL     1      -9.343  15.010  67.906  1.00  0.00    -0.183 C  
BRANCH  26  27
HETATM   27  C   UNL     1      -8.451  16.197  68.259  1.00  0.00    -0.180 C  
BRANCH  27  28
HETATM   28  N   UNL     1      -8.801  17.359  67.423  1.00  0.00    -0.225 NA 
HETATM   29  C   UNL     1     -10.075  17.227  66.710  1.00  0.00    -0.302 C  
HETATM   30  C   UNL     1     -10.374  18.651  66.294  1.00  0.00    -0.483 C  
HETATM   31  C   UNL     1      -9.905  19.470  67.483  1.00  0.00    -0.470 C  
HETATM   32  C   UNL     1      -8.859  18.606  68.182  1.00  0.00    -0.311 C  
ENDBRANCH  27  28
ENDBRANCH  26  27
ENDBRANCH  25  26
ENDBRANCH  22  25
ENDBRANCH   3  19
TORSDOF 6
ENDMDL
MODEL      144
REMARK 921   NORMALIZED FREE ENERGY PREDICTED BY IDOCK:   -3.18 KCAL/MOL
REMARK 922        TOTAL FREE ENERGY PREDICTED BY IDOCK:   -6.23 KCAL/MOL
REMARK 923 INTER-LIGAND FREE ENERGY PREDICTED BY IDOCK:   -5.16 KCAL/MOL
REMARK 924 INTRA-LIGAND FREE ENERGY PREDICTED BY IDOCK:   -1.07 KCAL/MOL
REMARK 927      BINDING AFFINITY PREDICTED BY RF-SCORE:    0.00 PKD
ROOT
HETATM    1  C   UNL     1      -9.597  13.272  69.041  1.00  0.00     0.331 C  
HETATM    2  C   UNL     1      -9.835  14.750  69.386  1.00  0.00    -0.072 C  
HETATM    3  C   UNL     1     -10.726  12.784  68.065  1.00  0.00    -0.246 C  
HETATM    4  C   UNL     1      -9.764  15.645  68.151  1.00  0.00    -0.204 C  
HETATM    5  C   UNL     1     -11.085  13.810  66.971  1.00  0.00    -0.313 A  
HETATM    6  C   UNL     1     -10.562  15.117  66.986  1.00  0.00    -0.300 A  
HETATM    7  H   UNL     1     -12.108  15.948  62.893  1.00  0.00     0.000 HD 
HETATM    8  C   UNL     1     -11.929  13.436  65.902  1.00  0.00    -0.452 A  
HETATM    9  C   UNL     1     -10.742  15.946  65.864  1.00  0.00    -0.303 A  
HETATM   10  C   UNL     1     -11.474  15.499  64.769  1.00  0.00    -0.313 A  
HETATM   11  O   UNL     1     -11.608  16.254  63.641  1.00  0.00    -0.836 OA 
HETATM   12  C   UNL     1     -12.092  14.261  64.792  1.00  0.00    -0.457 A  
ENDROOT
BRANCH   1  13
HETATM   13  C   UNL     1      -8.129  13.016  68.682  1.00  0.00    -0.011 A  
HETATM   14  C   UNL     1      -7.260  12.246  69.467  1.00  0.00     0.312 A  
HETATM   15  C   UNL     1      -5.392  12.752  68.017  1.00  0.00    -0.091 A  
HETATM   16  C   UNL     1      -6.249  13.460  67.179  1.00  0.00     0.493 A  
HETATM   17  C   UNL     1      -7.604  13.587  67.507  1.00  0.00    -0.176 A  
HETATM   18  C   UNL     1      -5.901  12.134  69.157  1.00  0.00    -0.070 A  
ENDBRANCH   1  13
BRANCH   3  19
HETATM   19  C   UNL     1     -10.453  11.367  67.539  1.00  0.00    -0.233 A  
HETATM   20  C   UNL     1     -10.677  10.267  68.372  1.00  0.00    -0.263 A  
HETATM   21  C   UNL     1     -10.394   8.979  67.964  1.00  0.00    -0.275 A  
HETATM   22  C   UNL     1      -9.921   8.722  66.677  1.00  0.00    -0.285 A  
HETATM   23  C   UNL     1      -9.983  11.117  66.240  1.00  0.00    -0.261 A  
HETATM   24  C   UNL     1      -9.724   9.799  65.810  1.00  0.00    -0.340 A  
BRANCH  22  25
HETATM   25  O   UNL     1      -9.641   7.453  66.210  1.00  0.00    -0.149 OA 
BRANCH  25  26
HETATM   26  C   UNL     1      -8.821   6.717  67.129  1.00  0.00    -0.115 C  
BRANCH  26  27
HETATM   27  C   UNL     1      -7.931   5.658  66.485  1.00  0.00    -0.101 C  
BRANCH  27  28
HETATM   28  N   UNL     1      -8.254   4.326  67.029  1.00  0.00    -0.101 NA 
HETATM   29  C   UNL     1      -9.512   3.760  66.532  1.00  0.00    -0.187 C  
HETATM   30  C   UNL     1      -9.388   2.297  66.901  1.00  0.00     0.004 C  
HETATM   31  C   UNL     1      -7.921   1.996  66.657  1.00  0.00    -0.076 C  
HETATM   32  C   UNL     1      -7.207   3.340  66.775  1.00  0.00    -0.062 C  
ENDBRANCH  27  28
ENDBRANCH  26  27
ENDBRANCH  25  26
ENDBRANCH  22  25
ENDBRANCH   3  19
TORSDOF 6
ENDMDL
MODEL      145
REMARK 921   NORMALIZED FREE ENERGY PREDICTED BY IDOCK:   -3.16 KCAL/MOL
REMARK 922        TOTAL FREE ENERGY PREDICTED BY IDOCK:   -6.20 KCAL/MOL
REMARK 923 INTER-LIGAND FREE ENERGY PREDICTED BY IDOCK:   -5.63 KCAL/MOL
REMARK 924 INTRA-LIGAND FREE ENERGY PREDICTED BY IDOCK:   -0.57 KCAL/MOL
REMARK 927      BINDING AFFINITY PREDICTED BY RF-SCORE:    0.00 PKD
ROOT
HETATM    1  C   UNL     1      -8.656  11.512  66.764  1.00  0.00    -0.170 C  
HETATM    2  C   UNL     1      -8.952  12.575  67.833  1.00  0.00    -0.188 C  
HETATM    3  C   UNL     1      -8.357  10.142  67.469  1.00  0.00    -0.118 C  
HETATM    4  C   UNL     1     -10.190  12.228  68.657  1.00  0.00    -0.177 C  
HETATM    5  C   UNL     1      -9.295   9.840  68.655  1.00  0.00    -0.147 A  
HETATM    6  C   UNL     1     -10.200  10.801  69.143  1.00  0.00    -0.229 A  
HETATM    7  H   UNL     1     -12.232   7.800  71.733  1.00  0.00     0.000 HD 
HETATM    8  C   UNL     1      -9.285   8.560  69.254  1.00  0.00    -0.153 A  
HETATM    9  C   UNL     1     -11.180  10.417  70.077  1.00  0.00    -0.385 A  
HETATM   10  C   UNL     1     -11.224   9.111  70.554  1.00  0.00    -0.264 A  
HETATM   11  O   UNL     1     -12.202   8.693  71.407  1.00  0.00    -0.293 OA 
HETATM   12  C   UNL     1     -10.266   8.188  70.170  1.00  0.00    -0.199 A  
ENDROOT
BRANCH   1  13
HETATM   13  C   UNL     1      -9.684  11.567  65.628  1.00  0.00    -0.261 A  
HETATM   14  C   UNL     1      -9.437  11.092  64.333  1.00  0.00    -0.251 A  
HETATM   15  C   UNL     1     -11.591  11.875  63.562  1.00  0.00    -0.537 A  
HETATM   16  C   UNL     1     -11.892  12.287  64.857  1.00  0.00    -0.417 A  
HETATM   17  C   UNL     1     -10.949  12.131  65.880  1.00  0.00    -0.332 A  
HETATM   18  C   UNL     1     -10.366  11.266  63.302  1.00  0.00    -0.406 A  
ENDBRANCH   1  13
BRANCH   3  19
HETATM   19  C   UNL     1      -8.225   8.994  66.457  1.00  0.00    -0.114 A  
HETATM   20  C   UNL     1      -7.156   8.990  65.555  1.00  0.00    -0.081 A  
HETATM   21  C   UNL     1      -7.026   8.011  64.591  1.00  0.00    -0.071 A  
HETATM   22  C   UNL     1      -7.934   6.954  64.515  1.00  0.00    -0.106 A  
HETATM   23  C   UNL     1      -9.140   7.932  66.391  1.00  0.00    -0.221 A  
HETATM   24  C   UNL     1      -8.990   6.913  65.428  1.00  0.00     0.173 A  
BRANCH  22  25
HETATM   25  O   UNL     1      -7.840   5.938  63.584  1.00  0.00    -0.093 OA 
BRANCH  25  26
HETATM   26  C   UNL     1      -8.322   4.692  64.107  1.00  0.00    -0.120 C  
BRANCH  26  27
HETATM   27  C   UNL     1      -7.343   3.961  65.022  1.00  0.00    -0.068 C  
BRANCH  27  28
HETATM   28  N   UNL     1      -8.021   3.560  66.269  1.00  0.00    -0.088 NA 
HETATM   29  C   UNL     1      -8.334   2.131  66.353  1.00  0.00    -0.095 C  
HETATM   30  C   UNL     1      -8.621   1.937  67.826  1.00  0.00    -0.105 C  
HETATM   31  C   UNL     1      -7.607   2.842  68.503  1.00  0.00    -0.048 C  
HETATM   32  C   UNL     1      -7.258   3.906  67.466  1.00  0.00    -0.067 C  
ENDBRANCH  27  28
ENDBRANCH  26  27
ENDBRANCH  25  26
ENDBRANCH  22  25
ENDBRANCH   3  19
TORSDOF 6
ENDMDL
MODEL      146
REMARK 921   NORMALIZED FREE ENERGY PREDICTED BY IDOCK:   -3.13 KCAL/MOL
REMARK 922        TOTAL FREE ENERGY PREDICTED BY IDOCK:   -6.15 KCAL/MOL
REMARK 923 INTER-LIGAND FREE ENERGY PREDICTED BY IDOCK:   -4.65 KCAL/MOL
REMARK 924 INTRA-LIGAND FREE ENERGY PREDICTED BY IDOCK:   -1.50 KCAL/MOL
REMARK 927      BINDING AFFINITY PREDICTED BY RF-SCORE:    0.00 PKD
ROOT
HETATM    1  C   UNL     1      -7.098   8.806  67.361  1.00  0.00    -0.079 C  
HETATM    2  C   UNL     1      -7.179   9.233  65.888  1.00  0.00    -0.091 C  
HETATM    3  C   UNL     1      -7.469  10.031  68.271  1.00  0.00    -0.079 C  
HETATM    4  C   UNL     1      -8.590   9.661  65.492  1.00  0.00    -0.162 C  
HETATM    5  C   UNL     1      -8.660  10.856  67.743  1.00  0.00    -0.128 A  
HETATM    6  C   UNL     1      -9.220  10.614  66.475  1.00  0.00    -0.187 A  
HETATM    7  H   UNL     1     -12.672  13.300  67.314  1.00  0.00     0.000 HD 
HETATM    8  C   UNL     1      -9.239  11.858  68.554  1.00  0.00    -0.136 A  
HETATM    9  C   UNL     1     -10.431  11.238  66.123  1.00  0.00    -0.305 A  
HETATM   10  C   UNL     1     -11.045  12.126  67.000  1.00  0.00    -0.294 A  
HETATM   11  O   UNL     1     -12.252  12.694  66.715  1.00  0.00    -0.506 OA 
HETATM   12  C   UNL     1     -10.444  12.462  68.200  1.00  0.00    -0.228 A  
ENDROOT
BRANCH   1  13
HETATM   13  C   UNL     1      -7.797   7.461  67.588  1.00  0.00    -0.113 A  
HETATM   14  C   UNL     1      -8.921   7.038  66.867  1.00  0.00    -0.135 A  
HETATM   15  C   UNL     1      -9.112   5.034  68.208  1.00  0.00    -0.135 A  
HETATM   16  C   UNL     1      -7.952   5.394  68.889  1.00  0.00    -0.094 A  
HETATM   17  C   UNL     1      -7.300   6.593  68.580  1.00  0.00    -0.087 A  
HETATM   18  C   UNL     1      -9.590   5.852  67.187  1.00  0.00    -0.136 A  
ENDBRANCH   1  13
BRANCH   3  19
HETATM   19  C   UNL     1      -7.581   9.631  69.750  1.00  0.00    -0.123 A  
HETATM   20  C   UNL     1      -6.468   9.763  70.586  1.00  0.00    -0.109 A  
HETATM   21  C   UNL     1      -6.503   9.365  71.907  1.00  0.00     0.194 A  
HETATM   22  C   UNL     1      -7.674   8.863  72.474  1.00  0.00     0.319 A  
HETATM   23  C   UNL     1      -8.766   9.132  70.314  1.00  0.00    -0.223 A  
HETATM   24  C   UNL     1      -8.813   8.756  71.672  1.00  0.00    -0.278 A  
BRANCH  22  25
HETATM   25  O   UNL     1      -7.771   8.469  73.794  1.00  0.00    -0.350 OA 
BRANCH  25  26
HETATM   26  C   UNL     1      -8.562   7.281  73.938  1.00  0.00    -0.180 C  
BRANCH  26  27
HETATM   27  C   UNL     1      -7.763   5.980  73.955  1.00  0.00    -0.094 C  
BRANCH  27  28
HETATM   28  N   UNL     1      -8.639   4.845  73.610  1.00  0.00    -0.105 NA 
HETATM   29  C   UNL     1     -10.068   5.103  73.812  1.00  0.00    -0.198 C  
HETATM   30  C   UNL     1     -10.723   3.990  73.023  1.00  0.00    -0.251 C  
HETATM   31  C   UNL     1      -9.832   3.855  71.801  1.00  0.00    -0.249 C  
HETATM   32  C   UNL     1      -8.472   4.398  72.230  1.00  0.00    -0.109 C  
ENDBRANCH  27  28
ENDBRANCH  26  27
ENDBRANCH  25  26
ENDBRANCH  22  25
ENDBRANCH   3  19
TORSDOF 6
ENDMDL
MODEL      147
REMARK 921   NORMALIZED FREE ENERGY PREDICTED BY IDOCK:   -3.10 KCAL/MOL
REMARK 922        TOTAL FREE ENERGY PREDICTED BY IDOCK:   -6.11 KCAL/MOL
REMARK 923 INTER-LIGAND FREE ENERGY PREDICTED BY IDOCK:   -4.87 KCAL/MOL
REMARK 924 INTRA-LIGAND FREE ENERGY PREDICTED BY IDOCK:   -1.24 KCAL/MOL
REMARK 927      BINDING AFFINITY PREDICTED BY RF-SCORE:    0.00 PKD
ROOT
HETATM    1  C   UNL     1     -10.948   8.290  71.017  1.00  0.00    -0.280 C  
HETATM    2  C   UNL     1     -12.095   7.731  71.873  1.00  0.00    -0.341 C  
HETATM    3  C   UNL     1      -9.617   8.242  71.848  1.00  0.00    -0.288 C  
HETATM    4  C   UNL     1     -11.867   6.269  72.250  1.00  0.00    -0.326 C  
HETATM    5  C   UNL     1      -9.443   6.945  72.664  1.00  0.00    -0.159 A  
HETATM    6  C   UNL     1     -10.480   5.999  72.774  1.00  0.00    -0.243 A  
HETATM    7  H   UNL     1      -7.769   3.021  74.676  1.00  0.00     0.000 HD 
HETATM    8  C   UNL     1      -8.210   6.667  73.293  1.00  0.00    -0.120 A  
HETATM    9  C   UNL     1     -10.210   4.741  73.344  1.00  0.00    -0.213 A  
HETATM   10  C   UNL     1      -8.943   4.451  73.841  1.00  0.00    -0.102 A  
HETATM   11  O   UNL     1      -8.634   3.219  74.337  1.00  0.00    -0.078 OA 
HETATM   12  C   UNL     1      -7.950   5.415  73.845  1.00  0.00    -0.108 A  
ENDROOT
BRANCH   1  13
HETATM   13  C   UNL     1     -10.975   7.702  69.602  1.00  0.00    -0.145 A  
HETATM   14  C   UNL     1     -11.236   6.353  69.326  1.00  0.00    -0.440 A  
HETATM   15  C   UNL     1     -10.828   6.687  66.965  1.00  0.00    -0.467 A  
HETATM   16  C   UNL     1     -10.639   8.046  67.203  1.00  0.00    -0.367 A  
HETATM   17  C   UNL     1     -10.715   8.548  68.506  1.00  0.00    -0.080 A  
HETATM   18  C   UNL     1     -11.139   5.842  68.028  1.00  0.00    -0.109 A  
ENDBRANCH   1  13
BRANCH   3  19
HETATM   19  C   UNL     1      -8.397   8.622  70.995  1.00  0.00    -0.193 A  
HETATM   20  C   UNL     1      -8.183   9.961  70.654  1.00  0.00     0.281 A  
HETATM   21  C   UNL     1      -7.134  10.344  69.844  1.00  0.00    -0.160 A  
HETATM   22  C   UNL     1      -6.211   9.408  69.376  1.00  0.00    -0.040 A  
HETATM   23  C   UNL     1      -7.469   7.674  70.533  1.00  0.00    -0.079 A  
HETATM   24  C   UNL     1      -6.378   8.068  69.732  1.00  0.00    -0.036 A  
BRANCH  22  25
HETATM   25  O   UNL     1      -5.132   9.739  68.580  1.00  0.00    -0.034 OA 
BRANCH  25  26
HETATM   26  C   UNL     1      -5.545  10.369  67.359  1.00  0.00    -0.041 C  
BRANCH  26  27
HETATM   27  C   UNL     1      -6.267   9.450  66.378  1.00  0.00    -0.064 C  
BRANCH  27  28
HETATM   28  N   UNL     1      -6.533  10.166  65.116  1.00  0.00    -0.115 NA 
HETATM   29  C   UNL     1      -5.559   9.898  64.054  1.00  0.00    -0.097 C  
HETATM   30  C   UNL     1      -6.272  10.396  62.815  1.00  0.00    -0.141 C  
HETATM   31  C   UNL     1      -7.716   9.995  63.055  1.00  0.00    -0.143 C  
HETATM   32  C   UNL     1      -7.857   9.880  64.571  1.00  0.00    -0.142 C  
ENDBRANCH  27  28
ENDBRANCH  26  27
ENDBRANCH  25  26
ENDBRANCH  22  25
ENDBRANCH   3  19
TORSDOF 6
ENDMDL
MODEL      148
REMARK 921   NORMALIZED FREE ENERGY PREDICTED BY IDOCK:   -2.99 KCAL/MOL
REMARK 922        TOTAL FREE ENERGY PREDICTED BY IDOCK:   -5.97 KCAL/MOL
REMARK 923 INTER-LIGAND FREE ENERGY PREDICTED BY IDOCK:   -4.98 KCAL/MOL
REMARK 924 INTRA-LIGAND FREE ENERGY PREDICTED BY IDOCK:   -0.99 KCAL/MOL
REMARK 927      BINDING AFFINITY PREDICTED BY RF-SCORE:    0.00 PKD
ROOT
HETATM    1  C   UNL     1      -9.547  15.031  66.459  1.00  0.00    -0.299 C  
HETATM    2  C   UNL     1     -10.357  16.325  66.279  1.00  0.00    -0.335 C  
HETATM    3  C   UNL     1      -9.119  14.899  67.964  1.00  0.00    -0.180 C  
HETATM    4  C   UNL     1     -11.643  16.314  67.102  1.00  0.00     0.534 C  
HETATM    5  C   UNL     1     -10.228  15.290  68.960  1.00  0.00    -0.239 A  
HETATM    6  C   UNL     1     -11.433  15.877  68.529  1.00  0.00    -0.377 A  
HETATM    7  H   UNL     1     -13.274  15.428  72.559  1.00  0.00     0.000 HD 
HETATM    8  C   UNL     1     -10.064  15.027  70.338  1.00  0.00     0.247 A  
HETATM    9  C   UNL     1     -12.496  16.020  69.439  1.00  0.00     0.361 A  
HETATM   10  C   UNL     1     -12.344  15.631  70.766  1.00  0.00    -0.419 A  
HETATM   11  O   UNL     1     -13.378  15.694  71.653  1.00  0.00    -0.485 OA 
HETATM   12  C   UNL     1     -11.127  15.162  71.228  1.00  0.00    -0.257 A  
ENDROOT
BRANCH   1  13
HETATM   13  C   UNL     1     -10.231  13.848  65.764  1.00  0.00    -0.331 A  
HETATM   14  C   UNL     1      -9.609  13.055  64.790  1.00  0.00     0.268 A  
HETATM   15  C   UNL     1     -11.642  11.799  64.418  1.00  0.00    -0.325 A  
HETATM   16  C   UNL     1     -12.260  12.521  65.435  1.00  0.00    -0.475 A  
HETATM   17  C   UNL     1     -11.560  13.532  66.102  1.00  0.00    -0.371 A  
HETATM   18  C   UNL     1     -10.310  12.058  64.104  1.00  0.00    -0.381 A  
ENDBRANCH   1  13
BRANCH   3  19
HETATM   19  C   UNL     1      -8.457  13.542  68.252  1.00  0.00    -0.168 A  
HETATM   20  C   UNL     1      -9.221  12.373  68.182  1.00  0.00    -0.205 A  
HETATM   21  C   UNL     1      -8.685  11.139  68.487  1.00  0.00    -0.161 A  
HETATM   22  C   UNL     1      -7.339  11.005  68.826  1.00  0.00    -0.111 A  
HETATM   23  C   UNL     1      -7.100  13.417  68.588  1.00  0.00    -0.106 A  
HETATM   24  C   UNL     1      -6.543  12.152  68.867  1.00  0.00    -0.090 A  
BRANCH  22  25
HETATM   25  O   UNL     1      -6.747   9.793  69.121  1.00  0.00    -0.051 OA 
BRANCH  25  26
HETATM   26  C   UNL     1      -7.080   8.789  68.152  1.00  0.00    -0.078 C  
BRANCH  26  27
HETATM   27  C   UNL     1      -7.949   7.652  68.682  1.00  0.00    -0.122 C  
BRANCH  27  28
HETATM   28  N   UNL     1      -9.074   7.404  67.761  1.00  0.00    -0.129 NA 
HETATM   29  C   UNL     1      -9.090   6.059  67.177  1.00  0.00    -0.113 C  
HETATM   30  C   UNL     1     -10.500   5.945  66.641  1.00  0.00    -0.310 C  
HETATM   31  C   UNL     1     -11.334   6.654  67.692  1.00  0.00    -0.078 C  
HETATM   32  C   UNL     1     -10.376   7.618  68.387  1.00  0.00    -0.194 C  
ENDBRANCH  27  28
ENDBRANCH  26  27
ENDBRANCH  25  26
ENDBRANCH  22  25
ENDBRANCH   3  19
TORSDOF 6
ENDMDL
MODEL      149
REMARK 921   NORMALIZED FREE ENERGY PREDICTED BY IDOCK:   -2.98 KCAL/MOL
REMARK 922        TOTAL FREE ENERGY PREDICTED BY IDOCK:   -5.96 KCAL/MOL
REMARK 923 INTER-LIGAND FREE ENERGY PREDICTED BY IDOCK:   -5.29 KCAL/MOL
REMARK 924 INTRA-LIGAND FREE ENERGY PREDICTED BY IDOCK:   -0.66 KCAL/MOL
REMARK 927      BINDING AFFINITY PREDICTED BY RF-SCORE:    0.00 PKD
ROOT
HETATM    1  C   UNL     1      -7.036   6.988  68.501  1.00  0.00    -0.089 C  
HETATM    2  C   UNL     1      -5.714   6.331  68.075  1.00  0.00    -0.012 C  
HETATM    3  C   UNL     1      -7.100   8.443  67.914  1.00  0.00    -0.083 C  
HETATM    4  C   UNL     1      -5.606   6.196  66.558  1.00  0.00    -0.013 C  
HETATM    5  C   UNL     1      -6.589   8.547  66.463  1.00  0.00    -0.059 A  
HETATM    6  C   UNL     1      -5.966   7.460  65.821  1.00  0.00    -0.037 A  
HETATM    7  H   UNL     1      -6.068   9.530  61.879  1.00  0.00     0.000 HD 
HETATM    8  C   UNL     1      -6.776   9.742  65.733  1.00  0.00    -0.093 A  
HETATM    9  C   UNL     1      -5.711   7.527  64.439  1.00  0.00    -0.037 A  
HETATM   10  C   UNL     1      -6.025   8.676  63.720  1.00  0.00    -0.072 A  
HETATM   11  O   UNL     1      -5.853   8.745  62.369  1.00  0.00    -0.087 OA 
HETATM   12  C   UNL     1      -6.530   9.793  64.363  1.00  0.00    -0.117 A  
ENDROOT
BRANCH   1  13
HETATM   13  C   UNL     1      -8.221   6.038  68.291  1.00  0.00    -0.110 A  
HETATM   14  C   UNL     1      -8.524   4.972  69.148  1.00  0.00    -0.088 A  
HETATM   15  C   UNL     1     -10.327   4.240  67.713  1.00  0.00     0.328 A  
HETATM   16  C   UNL     1     -10.096   5.335  66.885  1.00  0.00    -0.250 A  
HETATM   17  C   UNL     1      -9.056   6.226  67.173  1.00  0.00    -0.119 A  
HETATM   18  C   UNL     1      -9.547   4.066  68.853  1.00  0.00    -0.213 A  
ENDBRANCH   1  13
BRANCH   3  19
HETATM   19  C   UNL     1      -8.470   9.096  68.152  1.00  0.00    -0.125 A  
HETATM   20  C   UNL     1      -9.052   9.033  69.422  1.00  0.00    -0.146 A  
HETATM   21  C   UNL     1     -10.305   9.556  69.670  1.00  0.00    -0.236 A  
HETATM   22  C   UNL     1     -11.017  10.218  68.670  1.00  0.00    -0.244 A  
HETATM   23  C   UNL     1      -9.177   9.765  67.141  1.00  0.00    -0.159 A  
HETATM   24  C   UNL     1     -10.443  10.328  67.402  1.00  0.00    -0.303 A  
BRANCH  22  25
HETATM   25  O   UNL     1     -12.265  10.777  68.869  1.00  0.00    -0.447 OA 
BRANCH  25  26
HETATM   26  C   UNL     1     -12.253  11.738  69.935  1.00  0.00    -0.223 C  
BRANCH  26  27
HETATM   27  C   UNL     1     -11.938  13.167  69.502  1.00  0.00    -0.294 C  
BRANCH  27  28
HETATM   28  N   UNL     1     -11.915  14.057  70.678  1.00  0.00    -0.321 NA 
HETATM   29  C   UNL     1     -12.398  15.416  70.416  1.00  0.00    -0.402 C  
HETATM   30  C   UNL     1     -12.652  15.954  71.808  1.00  0.00    -0.489 C  
HETATM   31  C   UNL     1     -13.213  14.755  72.551  1.00  0.00    -0.507 C  
HETATM   32  C   UNL     1     -12.689  13.533  71.801  1.00  0.00    -0.244 C  
ENDBRANCH  27  28
ENDBRANCH  26  27
ENDBRANCH  25  26
ENDBRANCH  22  25
ENDBRANCH   3  19
TORSDOF 6
ENDMDL
MODEL      150
REMARK 921   NORMALIZED FREE ENERGY PREDICTED BY IDOCK:   -2.90 KCAL/MOL
REMARK 922        TOTAL FREE ENERGY PREDICTED BY IDOCK:   -5.85 KCAL/MOL
REMARK 923 INTER-LIGAND FREE ENERGY PREDICTED BY IDOCK:   -5.12 KCAL/MOL
REMARK 924 INTRA-LIGAND FREE ENERGY PREDICTED BY IDOCK:   -0.73 KCAL/MOL
REMARK 927      BINDING AFFINITY PREDICTED BY RF-SCORE:    0.00 PKD
ROOT
HETATM    1  C   UNL     1      -6.835   5.371  68.501  1.00  0.00    -0.056 C  
HETATM    2  C   UNL     1      -6.440   3.920  68.187  1.00  0.00    -0.038 C  
HETATM    3  C   UNL     1      -7.142   6.122  67.156  1.00  0.00    -0.070 C  
HETATM    4  C   UNL     1      -7.571   3.153  67.506  1.00  0.00    -0.065 C  
HETATM    5  C   UNL     1      -7.944   5.278  66.146  1.00  0.00    -0.104 A  
HETATM    6  C   UNL     1      -8.202   3.912  66.366  1.00  0.00    -0.104 A  
HETATM    7  H   UNL     1     -11.064   3.743  62.958  1.00  0.00     0.000 HD 
HETATM    8  C   UNL     1      -8.472   5.882  64.983  1.00  0.00    -0.111 A  
HETATM    9  C   UNL     1      -9.112   3.237  65.532  1.00  0.00    -0.150 A  
HETATM   10  C   UNL     1      -9.715   3.899  64.468  1.00  0.00    -0.183 A  
HETATM   11  O   UNL     1     -10.652   3.290  63.684  1.00  0.00    -0.224 OA 
HETATM   12  C   UNL     1      -9.380   5.208  64.170  1.00  0.00     0.322 A  
ENDROOT
BRANCH   1  13
HETATM   13  C   UNL     1      -7.851   5.434  69.648  1.00  0.00    -0.078 A  
HETATM   14  C   UNL     1      -7.538   5.130  70.979  1.00  0.00    -0.087 A  
HETATM   15  C   UNL     1      -9.842   5.413  71.657  1.00  0.00    -0.223 A  
HETATM   16  C   UNL     1     -10.165   5.792  70.356  1.00  0.00    -0.288 A  
HETATM   17  C   UNL     1      -9.179   5.806  69.364  1.00  0.00    -0.144 A  
HETATM   18  C   UNL     1      -8.523   5.093  71.971  1.00  0.00    -0.126 A  
ENDBRANCH   1  13
BRANCH   3  19
HETATM   19  C   UNL     1      -7.713   7.526  67.404  1.00  0.00    -0.117 A  
HETATM   20  C   UNL     1      -6.940   8.477  68.077  1.00  0.00    -0.074 A  
HETATM   21  C   UNL     1      -7.430   9.733  68.371  1.00  0.00    -0.083 A  
HETATM   22  C   UNL     1      -8.705  10.120  67.959  1.00  0.00    -0.122 A  
HETATM   23  C   UNL     1      -8.996   7.909  66.980  1.00  0.00    -0.145 A  
HETATM   24  C   UNL     1      -9.486   9.203  67.252  1.00  0.00    -0.187 A  
BRANCH  22  25
HETATM   25  O   UNL     1      -9.237  11.370  68.209  1.00  0.00    -0.170 OA 
BRANCH  25  26
HETATM   26  C   UNL     1     -10.377  11.638  67.381  1.00  0.00    -0.205 C  
BRANCH  26  27
HETATM   27  C   UNL     1     -10.795  13.105  67.324  1.00  0.00    -0.257 C  
BRANCH  27  28
HETATM   28  N   UNL     1     -11.690  13.331  66.174  1.00  0.00    -0.356 NA 
HETATM   29  C   UNL     1     -11.568  14.660  65.567  1.00  0.00    -0.335 C  
HETATM   30  C   UNL     1     -12.250  14.479  64.228  1.00  0.00    -0.441 C  
HETATM   31  C   UNL     1     -11.834  13.080  63.809  1.00  0.00    -0.566 C  
HETATM   32  C   UNL     1     -11.502  12.351  65.108  1.00  0.00    -0.334 C  
ENDBRANCH  27  28
ENDBRANCH  26  27
ENDBRANCH  25  26
ENDBRANCH  22  25
ENDBRANCH   3  19
TORSDOF 6
ENDMDL
MODEL      151
REMARK 921   NORMALIZED FREE ENERGY PREDICTED BY IDOCK:   -2.77 KCAL/MOL
REMARK 922        TOTAL FREE ENERGY PREDICTED BY IDOCK:   -5.66 KCAL/MOL
REMARK 923 INTER-LIGAND FREE ENERGY PREDICTED BY IDOCK:   -4.84 KCAL/MOL
REMARK 924 INTRA-LIGAND FREE ENERGY PREDICTED BY IDOCK:   -0.82 KCAL/MOL
REMARK 927      BINDING AFFINITY PREDICTED BY RF-SCORE:    0.00 PKD
ROOT
HETATM    1  C   UNL     1     -10.309  10.038  67.509  1.00  0.00    -0.282 C  
HETATM    2  C   UNL     1     -10.820   8.591  67.433  1.00  0.00    -0.082 C  
HETATM    3  C   UNL     1      -9.013  10.079  68.394  1.00  0.00    -0.121 C  
HETATM    4  C   UNL     1      -9.807   7.660  66.771  1.00  0.00    -0.307 C  
HETATM    5  C   UNL     1      -8.048   8.905  68.134  1.00  0.00    -0.106 A  
HETATM    6  C   UNL     1      -8.408   7.824  67.308  1.00  0.00    -0.118 A  
HETATM    7  H   UNL     1      -4.251   6.227  67.322  1.00  0.00     0.000 HD 
HETATM    8  C   UNL     1      -6.754   8.917  68.700  1.00  0.00    -0.059 A  
HETATM    9  C   UNL     1      -7.429   6.888  66.928  1.00  0.00    -0.083 A  
HETATM   10  C   UNL     1      -6.126   7.001  67.403  1.00  0.00    -0.040 A  
HETATM   11  O   UNL     1      -5.140   6.150  66.998  1.00  0.00    -0.004 OA 
HETATM   12  C   UNL     1      -5.789   7.992  68.308  1.00  0.00    -0.037 A  
ENDROOT
BRANCH   1  13
HETATM   13  C   UNL     1     -10.296  10.694  66.124  1.00  0.00    -0.291 A  
HETATM   14  C   UNL     1     -11.202  11.687  65.726  1.00  0.00    -0.290 A  
HETATM   15  C   UNL     1     -10.294  11.714  63.485  1.00  0.00    -0.488 A  
HETATM   16  C   UNL     1      -9.334  10.784  63.876  1.00  0.00    -0.284 A  
HETATM   17  C   UNL     1      -9.334  10.283  65.182  1.00  0.00    -0.279 A  
HETATM   18  C   UNL     1     -11.222  12.175  64.416  1.00  0.00    -0.400 A  
ENDBRANCH   1  13
BRANCH   3  19
HETATM   19  C   UNL     1      -8.348  11.464  68.370  1.00  0.00    -0.153 A  
HETATM   20  C   UNL     1      -7.044  11.594  67.883  1.00  0.00    -0.081 A  
HETATM   21  C   UNL     1      -6.385  12.807  67.892  1.00  0.00    -0.118 A  
HETATM   22  C   UNL     1      -7.020  13.964  68.342  1.00  0.00    -0.102 A  
HETATM   23  C   UNL     1      -8.997  12.625  68.819  1.00  0.00     0.170 A  
HETATM   24  C   UNL     1      -8.336  13.870  68.799  1.00  0.00    -0.019 A  
BRANCH  22  25
HETATM   25  O   UNL     1      -6.416  15.206  68.355  1.00  0.00    -0.096 OA 
BRANCH  25  26
HETATM   26  C   UNL     1      -6.003  15.611  67.042  1.00  0.00     0.450 C  
BRANCH  26  27
HETATM   27  C   UNL     1      -6.268  17.077  66.713  1.00  0.00    -0.210 C  
BRANCH  27  28
HETATM   28  N   UNL     1      -6.672  17.804  67.930  1.00  0.00    -0.188 NA 
HETATM   29  C   UNL     1      -6.045  19.120  68.084  1.00  0.00    -0.217 C  
HETATM   30  C   UNL     1      -6.912  19.783  69.132  1.00  0.00    -0.364 C  
HETATM   31  C   UNL     1      -8.311  19.311  68.781  1.00  0.00    -0.386 C  
HETATM   32  C   UNL     1      -8.117  18.001  68.020  1.00  0.00    -0.257 C  
ENDBRANCH  27  28
ENDBRANCH  26  27
ENDBRANCH  25  26
ENDBRANCH  22  25
ENDBRANCH   3  19
TORSDOF 6
ENDMDL
MODEL      152
REMARK 921   NORMALIZED FREE ENERGY PREDICTED BY IDOCK:   -2.76 KCAL/MOL
REMARK 922        TOTAL FREE ENERGY PREDICTED BY IDOCK:   -5.66 KCAL/MOL
REMARK 923 INTER-LIGAND FREE ENERGY PREDICTED BY IDOCK:   -5.44 KCAL/MOL
REMARK 924 INTRA-LIGAND FREE ENERGY PREDICTED BY IDOCK:   -0.22 KCAL/MOL
REMARK 927      BINDING AFFINITY PREDICTED BY RF-SCORE:    0.00 PKD
ROOT
HETATM    1  C   UNL     1     -10.969   6.455  69.533  1.00  0.00    -0.421 C  
HETATM    2  C   UNL     1     -11.015   5.906  70.967  1.00  0.00    -0.335 C  
HETATM    3  C   UNL     1     -10.310   7.880  69.550  1.00  0.00    -0.217 C  
HETATM    4  C   UNL     1      -9.619   5.736  71.561  1.00  0.00    -0.181 C  
HETATM    5  C   UNL     1      -9.089   7.987  70.485  1.00  0.00    -0.153 A  
HETATM    6  C   UNL     1      -8.736   6.942  71.359  1.00  0.00    -0.126 A  
HETATM    7  H   UNL     1      -4.851   8.878  72.355  1.00  0.00     0.000 HD 
HETATM    8  C   UNL     1      -8.272   9.139  70.449  1.00  0.00    -0.188 A  
HETATM    9  C   UNL     1      -7.502   6.991  72.033  1.00  0.00    -0.090 A  
HETATM   10  C   UNL     1      -6.658   8.086  71.876  1.00  0.00    -0.055 A  
HETATM   11  O   UNL     1      -5.428   8.131  72.462  1.00  0.00    -0.036 OA 
HETATM   12  C   UNL     1      -7.047   9.172  71.112  1.00  0.00    -0.088 A  
ENDROOT
BRANCH   1  13
HETATM   13  C   UNL     1     -10.451   5.398  68.551  1.00  0.00    -0.192 A  
HETATM   14  C   UNL     1     -10.731   5.410  67.178  1.00  0.00    -0.206 A  
HETATM   15  C   UNL     1      -9.590   3.301  66.858  1.00  0.00    -0.063 A  
HETATM   16  C   UNL     1      -9.234   3.304  68.204  1.00  0.00    -0.243 A  
HETATM   17  C   UNL     1      -9.657   4.343  69.040  1.00  0.00    -0.244 A  
HETATM   18  C   UNL     1     -10.329   4.363  66.342  1.00  0.00    -0.094 A  
ENDBRANCH   1  13
BRANCH   3  19
HETATM   19  C   UNL     1     -10.071   8.416  68.130  1.00  0.00    -0.239 A  
HETATM   20  C   UNL     1     -11.003   9.286  67.555  1.00  0.00    -0.047 A  
HETATM   21  C   UNL     1     -10.860   9.749  66.263  1.00  0.00     0.193 A  
HETATM   22  C   UNL     1      -9.745   9.406  65.497  1.00  0.00    -0.230 A  
HETATM   23  C   UNL     1      -8.944   8.070  67.369  1.00  0.00    -0.141 A  
HETATM   24  C   UNL     1      -8.780   8.568  66.060  1.00  0.00    -0.188 A  
BRANCH  22  25
HETATM   25  O   UNL     1      -9.542   9.856  64.208  1.00  0.00    -0.282 OA 
BRANCH  25  26
HETATM   26  C   UNL     1      -8.959  11.167  64.188  1.00  0.00     0.038 C  
BRANCH  26  27
HETATM   27  C   UNL     1      -9.661  12.193  65.073  1.00  0.00    -0.091 C  
BRANCH  27  28
HETATM   28  N   UNL     1     -10.414  13.148  64.239  1.00  0.00    -0.424 NA 
HETATM   29  C   UNL     1     -11.693  12.636  63.740  1.00  0.00    -0.491 C  
HETATM   30  C   UNL     1     -12.408  13.895  63.299  1.00  0.00     0.225 C  
HETATM   31  C   UNL     1     -12.013  14.911  64.355  1.00  0.00    -0.408 C  
HETATM   32  C   UNL     1     -10.692  14.405  64.929  1.00  0.00    -0.426 C  
ENDBRANCH  27  28
ENDBRANCH  26  27
ENDBRANCH  25  26
ENDBRANCH  22  25
ENDBRANCH   3  19
TORSDOF 6
ENDMDL
MODEL      153
REMARK 921   NORMALIZED FREE ENERGY PREDICTED BY IDOCK:   -2.75 KCAL/MOL
REMARK 922        TOTAL FREE ENERGY PREDICTED BY IDOCK:   -5.64 KCAL/MOL
REMARK 923 INTER-LIGAND FREE ENERGY PREDICTED BY IDOCK:   -4.75 KCAL/MOL
REMARK 924 INTRA-LIGAND FREE ENERGY PREDICTED BY IDOCK:   -0.89 KCAL/MOL
REMARK 927      BINDING AFFINITY PREDICTED BY RF-SCORE:    0.00 PKD
ROOT
HETATM    1  C   UNL     1      -7.703   9.372  68.475  1.00  0.00    -0.085 C  
HETATM    2  C   UNL     1      -7.894  10.825  68.937  1.00  0.00    -0.136 C  
HETATM    3  C   UNL     1      -8.308   8.407  69.555  1.00  0.00    -0.120 C  
HETATM    4  C   UNL     1      -9.369  11.193  69.076  1.00  0.00    -0.065 C  
HETATM    5  C   UNL     1      -9.653   8.890  70.134  1.00  0.00    -0.199 A  
HETATM    6  C   UNL     1     -10.169  10.164  69.833  1.00  0.00    -0.284 A  
HETATM    7  H   UNL     1     -14.093   9.184  71.699  1.00  0.00     0.000 HD 
HETATM    8  C   UNL     1     -10.415   8.032  70.957  1.00  0.00    -0.229 A  
HETATM    9  C   UNL     1     -11.489  10.480  70.205  1.00  0.00    -0.405 A  
HETATM   10  C   UNL     1     -12.262   9.561  70.906  1.00  0.00    -0.254 A  
HETATM   11  O   UNL     1     -13.565   9.812  71.220  1.00  0.00    -0.344 OA 
HETATM   12  C   UNL     1     -11.725   8.350  71.310  1.00  0.00    -0.325 A  
ENDROOT
BRANCH   1  13
HETATM   13  C   UNL     1      -8.101   9.201  67.004  1.00  0.00    -0.109 A  
HETATM   14  C   UNL     1      -7.202   8.833  65.994  1.00  0.00    -0.088 A  
HETATM   15  C   UNL     1      -8.904   9.083  64.295  1.00  0.00    -0.089 A  
HETATM   16  C   UNL     1      -9.835   9.377  65.287  1.00  0.00    -0.072 A  
HETATM   17  C   UNL     1      -9.438   9.432  66.628  1.00  0.00    -0.230 A  
HETATM   18  C   UNL     1      -7.588   8.798  64.651  1.00  0.00    -0.109 A  
ENDBRANCH   1  13
BRANCH   3  19
HETATM   19  C   UNL     1      -8.310   6.946  69.079  1.00  0.00    -0.125 A  
HETATM   20  C   UNL     1      -9.522   6.327  68.758  1.00  0.00    -0.124 A  
HETATM   21  C   UNL     1      -9.580   5.001  68.379  1.00  0.00    -0.195 A  
HETATM   22  C   UNL     1      -8.418   4.240  68.252  1.00  0.00    -0.093 A  
HETATM   23  C   UNL     1      -7.135   6.189  68.948  1.00  0.00    -0.081 A  
HETATM   24  C   UNL     1      -7.190   4.844  68.530  1.00  0.00    -0.062 A  
BRANCH  22  25
HETATM   25  O   UNL     1      -8.417   2.916  67.857  1.00  0.00    -0.078 OA 
BRANCH  25  26
HETATM   26  C   UNL     1      -7.784   2.742  66.582  1.00  0.00    -0.076 C  
BRANCH  26  27
HETATM   27  C   UNL     1      -8.214   3.742  65.513  1.00  0.00    -0.101 C  
BRANCH  27  28
HETATM   28  N   UNL     1      -8.845   3.035  64.383  1.00  0.00    -0.106 NA 
HETATM   29  C   UNL     1      -9.503   1.778  64.751  1.00  0.00    -0.055 C  
HETATM   30  C   UNL     1     -10.380   1.497  63.550  1.00  0.00    -0.126 C  
HETATM   31  C   UNL     1     -10.875   2.874  63.147  1.00  0.00    -0.215 C  
HETATM   32  C   UNL     1      -9.834   3.852  63.684  1.00  0.00    -0.165 C  
ENDBRANCH  27  28
ENDBRANCH  26  27
ENDBRANCH  25  26
ENDBRANCH  22  25
ENDBRANCH   3  19
TORSDOF 6
ENDMDL
MODEL      154
REMARK 921   NORMALIZED FREE ENERGY PREDICTED BY IDOCK:   -2.51 KCAL/MOL
REMARK 922        TOTAL FREE ENERGY PREDICTED BY IDOCK:   -5.31 KCAL/MOL
REMARK 923 INTER-LIGAND FREE ENERGY PREDICTED BY IDOCK:   -5.10 KCAL/MOL
REMARK 924 INTRA-LIGAND FREE ENERGY PREDICTED BY IDOCK:   -0.22 KCAL/MOL
REMARK 927      BINDING AFFINITY PREDICTED BY RF-SCORE:    0.00 PKD
ROOT
HETATM    1  C   UNL     1     -12.277  11.018  69.206  1.00  0.00    -0.280 C  
HETATM    2  C   UNL     1     -13.197  10.319  70.220  1.00  0.00     0.127 C  
HETATM    3  C   UNL     1     -12.585  12.558  69.210  1.00  0.00     0.546 C  
HETATM    4  C   UNL     1     -12.956  10.811  71.645  1.00  0.00    -0.581 C  
HETATM    5  C   UNL     1     -12.807  13.141  70.619  1.00  0.00    -0.100 A  
HETATM    6  C   UNL     1     -12.898  12.313  71.754  1.00  0.00    -0.359 A  
HETATM    7  H   UNL     1     -12.718  15.808  74.509  1.00  0.00     0.000 HD 
HETATM    8  C   UNL     1     -12.888  14.540  70.799  1.00  0.00    -0.423 A  
HETATM    9  C   UNL     1     -12.886  12.894  73.036  1.00  0.00     1.582 A  
HETATM   10  C   UNL     1     -12.835  14.276  73.182  1.00  0.00    -0.296 A  
HETATM   11  O   UNL     1     -12.753  14.864  74.409  1.00  0.00    -0.372 OA 
HETATM   12  C   UNL     1     -12.864  15.104  72.073  1.00  0.00    -0.424 A  
ENDROOT
BRANCH   1  13
HETATM   13  C   UNL     1     -10.828  10.539  69.351  1.00  0.00    -0.291 A  
HETATM   14  C   UNL     1     -10.354   9.819  70.456  1.00  0.00    -0.348 A  
HETATM   15  C   UNL     1      -8.094   9.856  69.597  1.00  0.00    -0.171 A  
HETATM   16  C   UNL     1      -8.552  10.506  68.453  1.00  0.00    -0.132 A  
HETATM   17  C   UNL     1      -9.905  10.840  68.331  1.00  0.00    -0.177 A  
HETATM   18  C   UNL     1      -8.999   9.502  70.594  1.00  0.00    -0.226 A  
ENDBRANCH   1  13
BRANCH   3  19
HETATM   19  C   UNL     1     -11.583  13.342  68.349  1.00  0.00    -0.368 A  
HETATM   20  C   UNL     1     -10.686  14.221  68.964  1.00  0.00    -0.259 A  
HETATM   21  C   UNL     1      -9.806  14.989  68.229  1.00  0.00    -0.219 A  
HETATM   22  C   UNL     1      -9.743  14.876  66.840  1.00  0.00    -0.240 A  
HETATM   23  C   UNL     1     -11.523  13.219  66.952  1.00  0.00    -0.376 A  
HETATM   24  C   UNL     1     -10.602  13.978  66.202  1.00  0.00    -0.290 A  
BRANCH  22  25
HETATM   25  O   UNL     1      -8.868  15.605  66.057  1.00  0.00    -0.318 OA 
BRANCH  25  26
HETATM   26  C   UNL     1      -9.558  16.366  65.056  1.00  0.00     1.221 C  
BRANCH  26  27
HETATM   27  C   UNL     1     -10.594  17.347  65.599  1.00  0.00    -0.153 C  
BRANCH  27  28
HETATM   28  N   UNL     1      -9.920  18.518  66.189  1.00  0.00    -0.498 NA 
HETATM   29  C   UNL     1     -10.596  19.793  65.937  1.00  0.00    -0.453 C  
HETATM   30  C   UNL     1      -9.961  20.715  66.957  1.00  0.00    -0.387 C  
HETATM   31  C   UNL     1      -9.794  19.827  68.176  1.00  0.00    -0.536 C  
HETATM   32  C   UNL     1      -9.744  18.400  67.635  1.00  0.00    -0.293 C  
ENDBRANCH  27  28
ENDBRANCH  26  27
ENDBRANCH  25  26
ENDBRANCH  22  25
ENDBRANCH   3  19
TORSDOF 6
ENDMDL
MODEL      155
REMARK 921   NORMALIZED FREE ENERGY PREDICTED BY IDOCK:   -2.48 KCAL/MOL
REMARK 922        TOTAL FREE ENERGY PREDICTED BY IDOCK:   -5.28 KCAL/MOL
REMARK 923 INTER-LIGAND FREE ENERGY PREDICTED BY IDOCK:   -4.48 KCAL/MOL
REMARK 924 INTRA-LIGAND FREE ENERGY PREDICTED BY IDOCK:   -0.80 KCAL/MOL
REMARK 927      BINDING AFFINITY PREDICTED BY RF-SCORE:    0.00 PKD
ROOT
HETATM    1  C   UNL     1      -9.905   9.006  65.998  1.00  0.00    -0.312 C  
HETATM    2  C   UNL     1      -9.609   7.705  66.760  1.00  0.00    -0.269 C  
HETATM    3  C   UNL     1      -9.984  10.194  67.021  1.00  0.00    -0.249 C  
HETATM    4  C   UNL     1      -8.262   7.756  67.477  1.00  0.00    -0.124 C  
HETATM    5  C   UNL     1      -8.901  10.140  68.116  1.00  0.00    -0.126 A  
HETATM    6  C   UNL     1      -8.054   9.026  68.262  1.00  0.00    -0.109 A  
HETATM    7  H   UNL     1      -5.462  11.180  71.174  1.00  0.00     0.000 HD 
HETATM    8  C   UNL     1      -8.716  11.243  68.980  1.00  0.00     0.026 A  
HETATM    9  C   UNL     1      -6.947   9.107  69.127  1.00  0.00    -0.058 A  
HETATM   10  C   UNL     1      -6.719  10.260  69.871  1.00  0.00    -0.125 A  
HETATM   11  O   UNL     1      -5.618  10.393  70.666  1.00  0.00    -0.070 OA 
HETATM   12  C   UNL     1      -7.611  11.317  69.825  1.00  0.00     0.407 A  
ENDROOT
BRANCH   1  13
HETATM   13  C   UNL     1      -9.013   9.137  64.758  1.00  0.00    -0.177 A  
HETATM   14  C   UNL     1      -9.434   9.724  63.557  1.00  0.00    -0.008 A  
HETATM   15  C   UNL     1      -7.342   9.172  62.475  1.00  0.00    -0.096 A  
HETATM   16  C   UNL     1      -6.872   8.651  63.678  1.00  0.00    -0.088 A  
HETATM   17  C   UNL     1      -7.697   8.638  64.808  1.00  0.00    -0.108 A  
HETATM   18  C   UNL     1      -8.621   9.720  62.419  1.00  0.00    -0.204 A  
ENDBRANCH   1  13
BRANCH   3  19
HETATM   19  C   UNL     1     -10.103  11.551  66.312  1.00  0.00    -0.261 A  
HETATM   20  C   UNL     1      -9.099  12.509  66.482  1.00  0.00    -0.177 A  
HETATM   21  C   UNL     1      -9.188  13.762  65.911  1.00  0.00     0.159 A  
HETATM   22  C   UNL     1     -10.267  14.103  65.095  1.00  0.00    -0.384 A  
HETATM   23  C   UNL     1     -11.190  11.884  65.487  1.00  0.00    -0.353 A  
HETATM   24  C   UNL     1     -11.267  13.153  64.877  1.00  0.00    -0.333 A  
BRANCH  22  25
HETATM   25  O   UNL     1     -10.397  15.334  64.483  1.00  0.00    -0.120 OA 
BRANCH  25  26
HETATM   26  C   UNL     1     -11.051  16.285  65.335  1.00  0.00    -0.087 C  
BRANCH  26  27
HETATM   27  C   UNL     1     -10.313  17.611  65.498  1.00  0.00     0.012 C  
BRANCH  27  28
HETATM   28  N   UNL     1      -9.699  17.687  66.837  1.00  0.00    -0.280 NA 
HETATM   29  C   UNL     1     -10.175  16.667  67.776  1.00  0.00    -0.292 C  
HETATM   30  C   UNL     1      -9.130  16.708  68.870  1.00  0.00    -0.238 C  
HETATM   31  C   UNL     1      -7.834  16.927  68.110  1.00  0.00    -0.189 C  
HETATM   32  C   UNL     1      -8.242  17.593  66.798  1.00  0.00    -0.243 C  
ENDBRANCH  27  28
ENDBRANCH  26  27
ENDBRANCH  25  26
ENDBRANCH  22  25
ENDBRANCH   3  19
TORSDOF 6
ENDMDL
MODEL      156
REMARK 921   NORMALIZED FREE ENERGY PREDICTED BY IDOCK:   -2.33 KCAL/MOL
REMARK 922        TOTAL FREE ENERGY PREDICTED BY IDOCK:   -5.08 KCAL/MOL
REMARK 923 INTER-LIGAND FREE ENERGY PREDICTED BY IDOCK:   -4.00 KCAL/MOL
REMARK 924 INTRA-LIGAND FREE ENERGY PREDICTED BY IDOCK:   -1.08 KCAL/MOL
REMARK 927      BINDING AFFINITY PREDICTED BY RF-SCORE:    0.00 PKD
ROOT
HETATM    1  C   UNL     1      -9.844  13.795  69.315  1.00  0.00     0.349 C  
HETATM    2  C   UNL     1     -10.271  15.103  69.999  1.00  0.00    -0.149 C  
HETATM    3  C   UNL     1     -10.726  13.573  68.035  1.00  0.00    -0.263 C  
HETATM    4  C   UNL     1     -10.052  16.317  69.099  1.00  0.00    -0.264 C  
HETATM    5  C   UNL     1     -10.966  14.858  67.218  1.00  0.00    -0.323 A  
HETATM    6  C   UNL     1     -10.572  16.121  67.698  1.00  0.00    -0.315 A  
HETATM    7  H   UNL     1     -11.402  18.045  63.768  1.00  0.00     0.000 HD 
HETATM    8  C   UNL     1     -11.562  14.780  65.940  1.00  0.00    -0.286 A  
HETATM    9  C   UNL     1     -10.614  17.232  66.836  1.00  0.00    -0.213 A  
HETATM   10  C   UNL     1     -11.089  17.095  65.535  1.00  0.00     0.216 A  
HETATM   11  O   UNL     1     -11.078  18.138  64.656  1.00  0.00    -0.512 OA 
HETATM   12  C   UNL     1     -11.589  15.884  65.091  1.00  0.00     0.126 A  
ENDROOT
BRANCH   1  13
HETATM   13  C   UNL     1      -8.318  13.700  69.204  1.00  0.00     0.412 A  
HETATM   14  C   UNL     1      -7.465  14.811  69.255  1.00  0.00    -0.162 A  
HETATM   15  C   UNL     1      -5.529  13.430  68.815  1.00  0.00    -0.074 A  
HETATM   16  C   UNL     1      -6.345  12.301  68.835  1.00  0.00    -0.084 A  
HETATM   17  C   UNL     1      -7.723  12.436  69.031  1.00  0.00     0.170 A  
HETATM   18  C   UNL     1      -6.089  14.685  69.038  1.00  0.00    -0.090 A  
ENDBRANCH   1  13
BRANCH   3  19
HETATM   19  C   UNL     1     -10.237  12.376  67.206  1.00  0.00    -0.224 A  
HETATM   20  C   UNL     1     -10.492  11.076  67.653  1.00  0.00    -0.239 A  
HETATM   21  C   UNL     1     -10.025   9.971  66.972  1.00  0.00    -0.257 A  
HETATM   22  C   UNL     1      -9.322  10.110  65.775  1.00  0.00    -0.188 A  
HETATM   23  C   UNL     1      -9.535  12.525  65.999  1.00  0.00    -0.154 A  
HETATM   24  C   UNL     1      -9.085  11.396  65.285  1.00  0.00    -0.087 A  
BRANCH  22  25
HETATM   25  O   UNL     1      -8.849   9.039  65.043  1.00  0.00    -0.195 OA 
BRANCH  25  26
HETATM   26  C   UNL     1      -8.108   8.121  65.859  1.00  0.00    -0.115 C  
BRANCH  26  27
HETATM   27  C   UNL     1      -8.358   6.647  65.553  1.00  0.00    -0.144 C  
BRANCH  27  28
HETATM   28  N   UNL     1      -8.867   5.960  66.754  1.00  0.00    -0.117 NA 
HETATM   29  C   UNL     1      -8.352   6.495  68.018  1.00  0.00    -0.116 C  
HETATM   30  C   UNL     1      -9.311   5.921  69.039  1.00  0.00    -0.138 C  
HETATM   31  C   UNL     1     -10.653   5.979  68.332  1.00  0.00    -0.322 C  
HETATM   32  C   UNL     1     -10.325   5.976  66.841  1.00  0.00    -0.244 C  
ENDBRANCH  27  28
ENDBRANCH  26  27
ENDBRANCH  25  26
ENDBRANCH  22  25
ENDBRANCH   3  19
TORSDOF 6
ENDMDL
MODEL      157
REMARK 921   NORMALIZED FREE ENERGY PREDICTED BY IDOCK:   -2.22 KCAL/MOL
REMARK 922        TOTAL FREE ENERGY PREDICTED BY IDOCK:   -4.93 KCAL/MOL
REMARK 923 INTER-LIGAND FREE ENERGY PREDICTED BY IDOCK:   -3.79 KCAL/MOL
REMARK 924 INTRA-LIGAND FREE ENERGY PREDICTED BY IDOCK:   -1.14 KCAL/MOL
REMARK 927      BINDING AFFINITY PREDICTED BY RF-SCORE:    0.00 PKD
ROOT
HETATM    1  C   UNL     1      -8.342  10.965  67.792  1.00  0.00    -0.117 C  
HETATM    2  C   UNL     1      -8.815  11.395  69.189  1.00  0.00     0.193 C  
HETATM    3  C   UNL     1      -7.945   9.446  67.829  1.00  0.00    -0.096 C  
HETATM    4  C   UNL     1     -10.058  10.629  69.634  1.00  0.00    -0.120 C  
HETATM    5  C   UNL     1      -8.918   8.572  68.646  1.00  0.00    -0.139 A  
HETATM    6  C   UNL     1      -9.948   9.141  69.419  1.00  0.00    -0.192 A  
HETATM    7  H   UNL     1     -11.809   5.160  70.147  1.00  0.00     0.000 HD 
HETATM    8  C   UNL     1      -8.810   7.165  68.600  1.00  0.00    -0.126 A  
HETATM    9  C   UNL     1     -10.937   8.307  69.972  1.00  0.00    -0.197 A  
HETATM   10  C   UNL     1     -10.873   6.928  69.799  1.00  0.00    -0.259 A  
HETATM   11  O   UNL     1     -11.853   6.102  70.265  1.00  0.00    -0.244 OA 
HETATM   12  C   UNL     1      -9.802   6.350  69.141  1.00  0.00    -0.158 A  
ENDROOT
BRANCH   1  13
HETATM   13  C   UNL     1      -9.297  11.468  66.704  1.00  0.00    -0.201 A  
HETATM   14  C   UNL     1      -9.330  12.794  66.251  1.00  0.00    -0.156 A  
HETATM   15  C   UNL     1     -11.220  12.328  64.815  1.00  0.00    -0.364 A  
HETATM   16  C   UNL     1     -11.160  10.988  65.191  1.00  0.00    -0.011 A  
HETATM   17  C   UNL     1     -10.207  10.563  66.123  1.00  0.00    -0.299 A  
HETATM   18  C   UNL     1     -10.295  13.229  65.337  1.00  0.00    -0.316 A  
ENDBRANCH   1  13
BRANCH   3  19
HETATM   19  C   UNL     1      -7.630   8.904  66.427  1.00  0.00    -0.092 A  
HETATM   20  C   UNL     1      -6.350   9.079  65.891  1.00  0.00    -0.056 A  
HETATM   21  C   UNL     1      -6.036   8.659  64.615  1.00  0.00    -0.064 A  
HETATM   22  C   UNL     1      -6.974   7.992  63.828  1.00  0.00    -0.075 A  
HETATM   23  C   UNL     1      -8.579   8.229  65.643  1.00  0.00    -0.189 A  
HETATM   24  C   UNL     1      -8.250   7.770  64.352  1.00  0.00    -0.041 A  
BRANCH  22  25
HETATM   25  O   UNL     1      -6.707   7.532  62.552  1.00  0.00    -0.069 OA 
BRANCH  25  26
HETATM   26  C   UNL     1      -7.087   6.158  62.392  1.00  0.00    -0.042 C  
BRANCH  26  27
HETATM   27  C   UNL     1      -6.013   5.148  62.785  1.00  0.00    -0.014 C  
BRANCH  27  28
HETATM   28  N   UNL     1      -6.593   4.104  63.649  1.00  0.00    -0.040 NA 
HETATM   29  C   UNL     1      -6.300   4.271  65.076  1.00  0.00    -0.034 C  
HETATM   30  C   UNL     1      -7.313   3.358  65.733  1.00  0.00    -0.072 C  
HETATM   31  C   UNL     1      -8.554   3.537  64.878  1.00  0.00    -0.109 C  
HETATM   32  C   UNL     1      -8.044   3.999  63.515  1.00  0.00    -0.089 C  
ENDBRANCH  27  28
ENDBRANCH  26  27
ENDBRANCH  25  26
ENDBRANCH  22  25
ENDBRANCH   3  19
TORSDOF 6
ENDMDL
MODEL      158
REMARK 921   NORMALIZED FREE ENERGY PREDICTED BY IDOCK:   -2.14 KCAL/MOL
REMARK 922        TOTAL FREE ENERGY PREDICTED BY IDOCK:   -4.82 KCAL/MOL
REMARK 923 INTER-LIGAND FREE ENERGY PREDICTED BY IDOCK:   -3.71 KCAL/MOL
REMARK 924 INTRA-LIGAND FREE ENERGY PREDICTED BY IDOCK:   -1.11 KCAL/MOL
REMARK 927      BINDING AFFINITY PREDICTED BY RF-SCORE:    0.00 PKD
ROOT
HETATM    1  C   UNL     1      -8.427  10.287  68.312  1.00  0.00    -0.121 C  
HETATM    2  C   UNL     1      -9.054  11.236  69.346  1.00  0.00     0.406 C  
HETATM    3  C   UNL     1      -8.298   8.855  68.942  1.00  0.00    -0.122 C  
HETATM    4  C   UNL     1     -10.463  10.802  69.741  1.00  0.00    -0.130 C  
HETATM    5  C   UNL     1      -9.525   8.431  69.773  1.00  0.00    -0.162 A  
HETATM    6  C   UNL     1     -10.564   9.334  70.067  1.00  0.00    -0.256 A  
HETATM    7  H   UNL     1     -13.149   6.079  71.667  1.00  0.00     0.000 HD 
HETATM    8  C   UNL     1      -9.644   7.098  70.226  1.00  0.00    -0.169 A  
HETATM    9  C   UNL     1     -11.756   8.853  70.639  1.00  0.00    -0.212 A  
HETATM   10  C   UNL     1     -11.891   7.506  70.958  1.00  0.00    -0.293 A  
HETATM   11  O   UNL     1     -13.057   6.999  71.449  1.00  0.00    -0.376 OA 
HETATM   12  C   UNL     1     -10.833   6.631  70.781  1.00  0.00    -0.299 A  
ENDROOT
BRANCH   1  13
HETATM   13  C   UNL     1      -9.089  10.449  66.939  1.00  0.00    -0.159 A  
HETATM   14  C   UNL     1      -9.539   9.374  66.162  1.00  0.00    -0.311 A  
HETATM   15  C   UNL     1     -10.136  10.850  64.342  1.00  0.00    -0.402 A  
HETATM   16  C   UNL     1      -9.766  11.942  65.122  1.00  0.00    -0.197 A  
HETATM   17  C   UNL     1      -9.252  11.744  66.408  1.00  0.00    -0.223 A  
HETATM   18  C   UNL     1     -10.033   9.565  64.867  1.00  0.00     0.256 A  
ENDBRANCH   1  13
BRANCH   3  19
HETATM   19  C   UNL     1      -7.842   7.815  67.907  1.00  0.00    -0.127 A  
HETATM   20  C   UNL     1      -6.508   7.797  67.489  1.00  0.00    -0.055 A  
HETATM   21  C   UNL     1      -6.065   6.918  66.521  1.00  0.00    -0.034 A  
HETATM   22  C   UNL     1      -6.925   5.975  65.960  1.00  0.00    -0.062 A  
HETATM   23  C   UNL     1      -8.714   6.865  67.351  1.00  0.00    -0.119 A  
HETATM   24  C   UNL     1      -8.255   5.946  66.386  1.00  0.00    -0.112 A  
BRANCH  22  25
HETATM   25  O   UNL     1      -6.530   5.060  65.003  1.00  0.00    -0.034 OA 
BRANCH  25  26
HETATM   26  C   UNL     1      -7.066   3.755  65.262  1.00  0.00    -0.066 C  
BRANCH  26  27
HETATM   27  C   UNL     1      -6.140   2.828  66.045  1.00  0.00    -0.024 C  
BRANCH  27  28
HETATM   28  N   UNL     1      -6.661   2.627  67.409  1.00  0.00    -0.040 NA 
HETATM   29  C   UNL     1      -6.404   3.743  68.324  1.00  0.00    -0.036 C  
HETATM   30  C   UNL     1      -7.362   3.469  69.463  1.00  0.00    -0.048 C  
HETATM   31  C   UNL     1      -8.599   2.938  68.760  1.00  0.00    -0.112 C  
HETATM   32  C   UNL     1      -8.099   2.371  67.434  1.00  0.00    -0.070 C  
ENDBRANCH  27  28
ENDBRANCH  26  27
ENDBRANCH  25  26
ENDBRANCH  22  25
ENDBRANCH   3  19
TORSDOF 6
ENDMDL
MODEL      159
REMARK 921   NORMALIZED FREE ENERGY PREDICTED BY IDOCK:   -2.05 KCAL/MOL
REMARK 922        TOTAL FREE ENERGY PREDICTED BY IDOCK:   -4.69 KCAL/MOL
REMARK 923 INTER-LIGAND FREE ENERGY PREDICTED BY IDOCK:   -5.52 KCAL/MOL
REMARK 924 INTRA-LIGAND FREE ENERGY PREDICTED BY IDOCK:    0.83 KCAL/MOL
REMARK 927      BINDING AFFINITY PREDICTED BY RF-SCORE:    0.00 PKD
ROOT
HETATM    1  C   UNL     1     -11.529   8.299  71.451  1.00  0.00    -0.314 C  
HETATM    2  C   UNL     1     -12.887   7.728  71.887  1.00  0.00    -0.317 C  
HETATM    3  C   UNL     1     -10.461   7.987  72.558  1.00  0.00    -0.383 C  
HETATM    4  C   UNL     1     -12.847   6.210  72.041  1.00  0.00     0.268 C  
HETATM    5  C   UNL     1     -10.577   6.567  73.147  1.00  0.00    -0.290 A  
HETATM    6  C   UNL     1     -11.658   5.723  72.830  1.00  0.00    -0.266 A  
HETATM    7  H   UNL     1      -9.700   2.226  74.772  1.00  0.00     0.000 HD 
HETATM    8  C   UNL     1      -9.564   6.071  73.998  1.00  0.00    -0.171 A  
HETATM    9  C   UNL     1     -11.615   4.370  73.214  1.00  0.00    -0.218 A  
HETATM   10  C   UNL     1     -10.538   3.880  73.945  1.00  0.00    -0.217 A  
HETATM   11  O   UNL     1     -10.436   2.561  74.273  1.00  0.00    -0.135 OA 
HETATM   12  C   UNL     1      -9.526   4.727  74.363  1.00  0.00    -0.139 A  
ENDROOT
BRANCH   1  13
HETATM   13  C   UNL     1     -11.224   7.949  69.990  1.00  0.00    -0.105 A  
HETATM   14  C   UNL     1     -11.246   6.642  69.483  1.00  0.00    -0.383 A  
HETATM   15  C   UNL     1     -10.475   7.396  67.318  1.00  0.00    -0.385 A  
HETATM   16  C   UNL     1     -10.517   8.711  67.775  1.00  0.00    -0.287 A  
HETATM   17  C   UNL     1     -10.892   8.984  69.095  1.00  0.00    -0.110 A  
HETATM   18  C   UNL     1     -10.852   6.361  68.171  1.00  0.00    -0.386 A  
ENDBRANCH   1  13
BRANCH   3  19
HETATM   19  C   UNL     1      -9.043   8.374  72.110  1.00  0.00    -0.309 A  
HETATM   20  C   UNL     1      -8.804   8.679  70.767  1.00  0.00    -0.206 A  
HETATM   21  C   UNL     1      -7.537   8.978  70.307  1.00  0.00    -0.087 A  
HETATM   22  C   UNL     1      -6.452   9.038  71.181  1.00  0.00    -0.079 A  
HETATM   23  C   UNL     1      -7.958   8.437  72.998  1.00  0.00    -0.149 A  
HETATM   24  C   UNL     1      -6.670   8.774  72.535  1.00  0.00     0.017 A  
BRANCH  22  25
HETATM   25  O   UNL     1      -5.169   9.351  70.778  1.00  0.00    -0.027 OA 
BRANCH  25  26
HETATM   26  C   UNL     1      -5.132  10.564  70.013  1.00  0.00    -0.039 C  
BRANCH  26  27
HETATM   27  C   UNL     1      -5.134  11.844  70.845  1.00  0.00    -0.133 C  
BRANCH  27  28
HETATM   28  N   UNL     1      -5.477  12.999  69.994  1.00  0.00    -0.102 NA 
HETATM   29  C   UNL     1      -6.600  12.763  69.082  1.00  0.00    -0.101 C  
HETATM   30  C   UNL     1      -6.988  14.164  68.661  1.00  0.00    -0.107 C  
HETATM   31  C   UNL     1      -6.807  14.975  69.931  1.00  0.00    -0.162 C  
HETATM   32  C   UNL     1      -5.793  14.198  70.767  1.00  0.00    -0.203 C  
ENDBRANCH  27  28
ENDBRANCH  26  27
ENDBRANCH  25  26
ENDBRANCH  22  25
ENDBRANCH   3  19
TORSDOF 6
ENDMDL
MODEL      160
REMARK 921   NORMALIZED FREE ENERGY PREDICTED BY IDOCK:   -1.94 KCAL/MOL
REMARK 922        TOTAL FREE ENERGY PREDICTED BY IDOCK:   -4.55 KCAL/MOL
REMARK 923 INTER-LIGAND FREE ENERGY PREDICTED BY IDOCK:   -3.62 KCAL/MOL
REMARK 924 INTRA-LIGAND FREE ENERGY PREDICTED BY IDOCK:   -0.93 KCAL/MOL
REMARK 927      BINDING AFFINITY PREDICTED BY RF-SCORE:    0.00 PKD
ROOT
HETATM    1  C   UNL     1      -8.902  10.575  67.091  1.00  0.00    -0.140 C  
HETATM    2  C   UNL     1      -8.730  11.137  65.671  1.00  0.00    -0.126 C  
HETATM    3  C   UNL     1      -9.481   9.119  66.999  1.00  0.00    -0.201 C  
HETATM    4  C   UNL     1      -7.735  10.321  64.849  1.00  0.00    -0.124 C  
HETATM    5  C   UNL     1      -8.850   8.271  65.877  1.00  0.00    -0.197 A  
HETATM    6  C   UNL     1      -7.975   8.835  64.930  1.00  0.00    -0.135 A  
HETATM    7  H   UNL     1      -6.854   4.825  63.348  1.00  0.00     0.000 HD 
HETATM    8  C   UNL     1      -9.118   6.886  65.804  1.00  0.00     0.023 A  
HETATM    9  C   UNL     1      -7.259   7.991  64.061  1.00  0.00    -0.087 A  
HETATM   10  C   UNL     1      -7.451   6.614  64.102  1.00  0.00    -0.097 A  
HETATM   11  O   UNL     1      -6.723   5.766  63.320  1.00  0.00    -0.032 OA 
HETATM   12  C   UNL     1      -8.396   6.058  64.947  1.00  0.00    -0.104 A  
ENDROOT
BRANCH   1  13
HETATM   13  C   UNL     1      -7.657  10.838  67.946  1.00  0.00    -0.091 A  
HETATM   14  C   UNL     1      -7.528  11.931  68.814  1.00  0.00    -0.100 A  
HETATM   15  C   UNL     1      -5.248  11.325  69.347  1.00  0.00    -0.044 A  
HETATM   16  C   UNL     1      -5.376  10.190  68.550  1.00  0.00    -0.038 A  
HETATM   17  C   UNL     1      -6.569   9.948  67.860  1.00  0.00    -0.064 A  
HETATM   18  C   UNL     1      -6.331  12.190  69.489  1.00  0.00    -0.122 A  
ENDBRANCH   1  13
BRANCH   3  19
HETATM   19  C   UNL     1      -9.515   8.430  68.372  1.00  0.00    -0.145 A  
HETATM   20  C   UNL     1     -10.643   8.567  69.186  1.00  0.00    -0.188 A  
HETATM   21  C   UNL     1     -10.697   8.014  70.449  1.00  0.00    -0.233 A  
HETATM   22  C   UNL     1      -9.641   7.247  70.942  1.00  0.00    -0.170 A  
HETATM   23  C   UNL     1      -8.449   7.656  68.858  1.00  0.00    -0.129 A  
HETATM   24  C   UNL     1      -8.516   7.062  70.136  1.00  0.00    -0.139 A  
BRANCH  22  25
HETATM   25  O   UNL     1      -9.651   6.654  72.189  1.00  0.00    -0.149 OA 
BRANCH  25  26
HETATM   26  C   UNL     1      -9.960   7.598  73.225  1.00  0.00    -0.320 C  
BRANCH  26  27
HETATM   27  C   UNL     1      -8.747   8.281  73.851  1.00  0.00    -0.098 C  
BRANCH  27  28
HETATM   28  N   UNL     1      -7.510   7.597  73.431  1.00  0.00    -0.100 NA 
HETATM   29  C   UNL     1      -6.672   8.375  72.513  1.00  0.00    -0.092 C  
HETATM   30  C   UNL     1      -5.344   7.653  72.581  1.00  0.00    -0.036 C  
HETATM   31  C   UNL     1      -5.232   7.260  74.043  1.00  0.00    -0.046 C  
HETATM   32  C   UNL     1      -6.668   7.207  74.559  1.00  0.00    -0.090 C  
ENDBRANCH  27  28
ENDBRANCH  26  27
ENDBRANCH  25  26
ENDBRANCH  22  25
ENDBRANCH   3  19
TORSDOF 6
ENDMDL
MODEL      161
REMARK 921   NORMALIZED FREE ENERGY PREDICTED BY IDOCK:   -1.80 KCAL/MOL
REMARK 922        TOTAL FREE ENERGY PREDICTED BY IDOCK:   -4.36 KCAL/MOL
REMARK 923 INTER-LIGAND FREE ENERGY PREDICTED BY IDOCK:   -4.77 KCAL/MOL
REMARK 924 INTRA-LIGAND FREE ENERGY PREDICTED BY IDOCK:    0.40 KCAL/MOL
REMARK 927      BINDING AFFINITY PREDICTED BY RF-SCORE:    0.00 PKD
ROOT
HETATM    1  C   UNL     1     -11.768   8.884  71.190  1.00  0.00    -0.356 C  
HETATM    2  C   UNL     1     -13.201   8.424  71.500  1.00  0.00    -0.311 C  
HETATM    3  C   UNL     1     -10.815   8.404  72.342  1.00  0.00    -0.416 C  
HETATM    4  C   UNL     1     -13.315   6.903  71.557  1.00  0.00    -0.303 C  
HETATM    5  C   UNL     1     -11.105   6.970  72.828  1.00  0.00    -0.320 A  
HETATM    6  C   UNL     1     -12.236   6.257  72.388  1.00  0.00    -0.128 A  
HETATM    7  H   UNL     1     -10.757   2.476  74.221  1.00  0.00     0.000 HD 
HETATM    8  C   UNL     1     -10.206   6.328  73.709  1.00  0.00    -0.285 A  
HETATM    9  C   UNL     1     -12.348   4.886  72.685  1.00  0.00     0.586 A  
HETATM   10  C   UNL     1     -11.375   4.251  73.451  1.00  0.00    -0.230 A  
HETATM   11  O   UNL     1     -11.421   2.910  73.698  1.00  0.00    -0.224 OA 
HETATM   12  C   UNL     1     -10.321   4.968  73.988  1.00  0.00    -0.299 A  
ENDROOT
BRANCH   1  13
HETATM   13  C   UNL     1     -11.395   8.591  69.732  1.00  0.00     0.122 A  
HETATM   14  C   UNL     1     -11.167   7.302  69.233  1.00  0.00     0.026 A  
HETATM   15  C   UNL     1     -10.541   8.179  67.067  1.00  0.00    -0.346 A  
HETATM   16  C   UNL     1     -10.834   9.464  67.516  1.00  0.00    -0.208 A  
HETATM   17  C   UNL     1     -11.260   9.666  68.833  1.00  0.00    -0.020 A  
HETATM   18  C   UNL     1     -10.720   7.095  67.924  1.00  0.00    -0.258 A  
ENDBRANCH   1  13
BRANCH   3  19
HETATM   19  C   UNL     1      -9.339   8.675  72.012  1.00  0.00    -0.362 A  
HETATM   20  C   UNL     1      -9.008   9.335  70.825  1.00  0.00    -0.292 A  
HETATM   21  C   UNL     1      -7.695   9.552  70.459  1.00  0.00    -0.177 A  
HETATM   22  C   UNL     1      -6.645   9.165  71.292  1.00  0.00    -0.080 A  
HETATM   23  C   UNL     1      -8.289   8.287  72.859  1.00  0.00    -0.245 A  
HETATM   24  C   UNL     1      -6.948   8.537  72.502  1.00  0.00    -0.071 A  
BRANCH  22  25
HETATM   25  O   UNL     1      -5.315   9.375  70.985  1.00  0.00    -0.034 OA 
BRANCH  25  26
HETATM   26  C   UNL     1      -5.150   9.882  69.654  1.00  0.00    -0.034 C  
BRANCH  26  27
HETATM   27  C   UNL     1      -5.557   8.914  68.546  1.00  0.00    -0.038 C  
BRANCH  27  28
HETATM   28  N   UNL     1      -5.980   9.665  67.349  1.00  0.00    -0.048 NA 
HETATM   29  C   UNL     1      -6.916   8.942  66.483  1.00  0.00    -0.080 C  
HETATM   30  C   UNL     1      -7.482  10.042  65.611  1.00  0.00    -0.137 C  
HETATM   31  C   UNL     1      -7.612  11.215  66.566  1.00  0.00    -0.135 C  
HETATM   32  C   UNL     1      -6.597  10.949  67.675  1.00  0.00    -0.065 C  
ENDBRANCH  27  28
ENDBRANCH  26  27
ENDBRANCH  25  26
ENDBRANCH  22  25
ENDBRANCH   3  19
TORSDOF 6
ENDMDL
MODEL      162
REMARK 921   NORMALIZED FREE ENERGY PREDICTED BY IDOCK:   -1.67 KCAL/MOL
REMARK 922        TOTAL FREE ENERGY PREDICTED BY IDOCK:   -4.18 KCAL/MOL
REMARK 923 INTER-LIGAND FREE ENERGY PREDICTED BY IDOCK:   -3.43 KCAL/MOL
REMARK 924 INTRA-LIGAND FREE ENERGY PREDICTED BY IDOCK:   -0.76 KCAL/MOL
REMARK 927      BINDING AFFINITY PREDICTED BY RF-SCORE:    0.00 PKD
ROOT
HETATM    1  C   UNL     1     -10.072  14.158  69.109  1.00  0.00    -0.023 C  
HETATM    2  C   UNL     1     -10.360  15.378  69.997  1.00  0.00    -0.288 C  
HETATM    3  C   UNL     1     -10.912  14.274  67.788  1.00  0.00    -0.275 C  
HETATM    4  C   UNL     1      -9.943  16.685  69.326  1.00  0.00    -0.222 C  
HETATM    5  C   UNL     1     -10.946  15.699  67.199  1.00  0.00    -0.270 A  
HETATM    6  C   UNL     1     -10.416  16.799  67.900  1.00  0.00    -0.335 A  
HETATM    7  H   UNL     1     -10.805  19.449  64.341  1.00  0.00     0.000 HD 
HETATM    8  C   UNL     1     -11.486  15.918  65.912  1.00  0.00     0.338 A  
HETATM    9  C   UNL     1     -10.275  18.034  67.241  1.00  0.00    -0.371 A  
HETATM   10  C   UNL     1     -10.700  18.183  65.925  1.00  0.00    -0.124 A  
HETATM   11  O   UNL     1     -10.514  19.347  65.240  1.00  0.00    -0.340 OA 
HETATM   12  C   UNL     1     -11.330  17.142  65.266  1.00  0.00     0.619 A  
ENDROOT
BRANCH   1  13
HETATM   13  C   UNL     1      -8.567  13.878  69.021  1.00  0.00     0.215 A  
HETATM   14  C   UNL     1      -7.582  14.849  69.251  1.00  0.00    -0.170 A  
HETATM   15  C   UNL     1      -5.821  13.298  68.663  1.00  0.00    -0.083 A  
HETATM   16  C   UNL     1      -6.774  12.296  68.502  1.00  0.00    -0.076 A  
HETATM   17  C   UNL     1      -8.132  12.583  68.683  1.00  0.00    -0.013 A  
HETATM   18  C   UNL     1      -6.225  14.574  69.050  1.00  0.00    -0.092 A  
ENDBRANCH   1  13
BRANCH   3  19
HETATM   19  C   UNL     1     -10.542  13.179  66.776  1.00  0.00    -0.267 A  
HETATM   20  C   UNL     1     -10.861  11.846  67.055  1.00  0.00    -0.303 A  
HETATM   21  C   UNL     1     -10.499  10.822  66.204  1.00  0.00    -0.278 A  
HETATM   22  C   UNL     1      -9.845  11.086  65.001  1.00  0.00    -0.269 A  
HETATM   23  C   UNL     1      -9.889  13.455  65.565  1.00  0.00    -0.157 A  
HETATM   24  C   UNL     1      -9.548  12.412  64.679  1.00  0.00     0.132 A  
BRANCH  22  25
HETATM   25  O   UNL     1      -9.478  10.102  64.103  1.00  0.00    -0.272 OA 
BRANCH  25  26
HETATM   26  C   UNL     1      -8.868   8.983  64.761  1.00  0.00    -0.122 C  
BRANCH  26  27
HETATM   27  C   UNL     1      -7.376   9.142  65.040  1.00  0.00    -0.100 C  
BRANCH  27  28
HETATM   28  N   UNL     1      -6.630   8.007  64.465  1.00  0.00    -0.059 NA 
HETATM   29  C   UNL     1      -7.185   6.691  64.797  1.00  0.00    -0.071 C  
HETATM   30  C   UNL     1      -6.518   5.783  63.786  1.00  0.00    -0.029 C  
HETATM   31  C   UNL     1      -6.477   6.630  62.527  1.00  0.00    -0.039 C  
HETATM   32  C   UNL     1      -6.525   8.077  63.010  1.00  0.00    -0.081 C  
ENDBRANCH  27  28
ENDBRANCH  26  27
ENDBRANCH  25  26
ENDBRANCH  22  25
ENDBRANCH   3  19
TORSDOF 6
ENDMDL
MODEL      163
REMARK 921   NORMALIZED FREE ENERGY PREDICTED BY IDOCK:   -1.24 KCAL/MOL
REMARK 922        TOTAL FREE ENERGY PREDICTED BY IDOCK:   -3.60 KCAL/MOL
REMARK 923 INTER-LIGAND FREE ENERGY PREDICTED BY IDOCK:   -3.46 KCAL/MOL
REMARK 924 INTRA-LIGAND FREE ENERGY PREDICTED BY IDOCK:   -0.14 KCAL/MOL
REMARK 927      BINDING AFFINITY PREDICTED BY RF-SCORE:    0.00 PKD
ROOT
HETATM    1  C   UNL     1     -12.027  10.296  69.195  1.00  0.00     0.051 C  
HETATM    2  C   UNL     1     -13.305   9.933  69.966  1.00  0.00     0.809 C  
HETATM    3  C   UNL     1     -11.935  11.858  69.059  1.00  0.00    -0.321 C  
HETATM    4  C   UNL     1     -13.297  10.496  71.385  1.00  0.00    -0.339 C  
HETATM    5  C   UNL     1     -12.336  12.615  70.341  1.00  0.00    -0.315 A  
HETATM    6  C   UNL     1     -12.897  11.948  71.446  1.00  0.00    -0.411 A  
HETATM    7  H   UNL     1     -12.520  15.566  74.016  1.00  0.00     0.000 HD 
HETATM    8  C   UNL     1     -12.108  14.006  70.439  1.00  0.00    -0.426 A  
HETATM    9  C   UNL     1     -13.047  12.636  72.664  1.00  0.00     0.296 A  
HETATM   10  C   UNL     1     -12.692  13.977  72.764  1.00  0.00    -0.210 A  
HETATM   11  O   UNL     1     -12.763  14.650  73.948  1.00  0.00    -0.469 OA 
HETATM   12  C   UNL     1     -12.250  14.674  71.653  1.00  0.00    -0.411 A  
ENDROOT
BRANCH   1  13
HETATM   13  C   UNL     1     -10.819   9.514  69.724  1.00  0.00    -0.264 A  
HETATM   14  C   UNL     1     -10.609   8.150  69.479  1.00  0.00    -0.215 A  
HETATM   15  C   UNL     1      -8.647   8.129  70.894  1.00  0.00    -0.144 A  
HETATM   16  C   UNL     1      -8.790   9.500  71.091  1.00  0.00     0.218 A  
HETATM   17  C   UNL     1      -9.862  10.185  70.510  1.00  0.00     0.191 A  
HETATM   18  C   UNL     1      -9.552   7.456  70.076  1.00  0.00    -0.168 A  
ENDBRANCH   1  13
BRANCH   3  19
HETATM   19  C   UNL     1     -10.595  12.301  68.453  1.00  0.00    -0.250 A  
HETATM   20  C   UNL     1     -10.016  11.545  67.429  1.00  0.00    -0.209 A  
HETATM   21  C   UNL     1      -8.788  11.871  66.892  1.00  0.00    -0.197 A  
HETATM   22  C   UNL     1      -8.098  13.006  67.318  1.00  0.00    -0.161 A  
HETATM   23  C   UNL     1      -9.910  13.448  68.884  1.00  0.00     0.074 A  
HETATM   24  C   UNL     1      -8.670  13.802  68.314  1.00  0.00    -0.179 A  
BRANCH  22  25
HETATM   25  O   UNL     1      -6.876  13.391  66.802  1.00  0.00     0.328 OA 
BRANCH  25  26
HETATM   26  C   UNL     1      -6.365  14.559  67.459  1.00  0.00    -0.008 C  
BRANCH  26  27
HETATM   27  C   UNL     1      -6.844  15.884  66.872  1.00  0.00     0.022 C  
BRANCH  27  28
HETATM   28  N   UNL     1      -6.352  17.007  67.691  1.00  0.00    -0.139 NA 
HETATM   29  C   UNL     1      -7.012  18.287  67.417  1.00  0.00    -0.198 C  
HETATM   30  C   UNL     1      -6.637  19.121  68.624  1.00  0.00    -0.296 C  
HETATM   31  C   UNL     1      -6.689  18.125  69.768  1.00  0.00     0.092 C  
HETATM   32  C   UNL     1      -6.473  16.758  69.126  1.00  0.00    -0.208 C  
ENDBRANCH  27  28
ENDBRANCH  26  27
ENDBRANCH  25  26
ENDBRANCH  22  25
ENDBRANCH   3  19
TORSDOF 6
ENDMDL
MODEL      164
REMARK 921   NORMALIZED FREE ENERGY PREDICTED BY IDOCK:   -1.24 KCAL/MOL
REMARK 922        TOTAL FREE ENERGY PREDICTED BY IDOCK:   -3.60 KCAL/MOL
REMARK 923 INTER-LIGAND FREE ENERGY PREDICTED BY IDOCK:   -3.85 KCAL/MOL
REMARK 924 INTRA-LIGAND FREE ENERGY PREDICTED BY IDOCK:    0.25 KCAL/MOL
REMARK 927      BINDING AFFINITY PREDICTED BY RF-SCORE:    0.00 PKD
ROOT
HETATM    1  C   UNL     1      -6.684  17.790  66.919  1.00  0.00    -0.211 C  
HETATM    2  C   UNL     1      -5.737  18.919  67.354  1.00  0.00    -0.160 C  
HETATM    3  C   UNL     1      -6.215  16.444  67.578  1.00  0.00    -0.186 C  
HETATM    4  C   UNL     1      -5.766  19.138  68.865  1.00  0.00    -0.223 C  
HETATM    5  C   UNL     1      -5.778  16.595  69.049  1.00  0.00    -0.141 A  
HETATM    6  C   UNL     1      -5.651  17.859  69.654  1.00  0.00    -0.217 A  
HETATM    7  H   UNL     1      -5.154  16.047  73.692  1.00  0.00     0.000 HD 
HETATM    8  C   UNL     1      -5.530  15.446  69.832  1.00  0.00    -0.114 A  
HETATM    9  C   UNL     1      -5.460  17.943  71.046  1.00  0.00    -0.067 A  
HETATM   10  C   UNL     1      -5.348  16.787  71.811  1.00  0.00     0.483 A  
HETATM   11  O   UNL     1      -5.231  16.836  73.169  1.00  0.00     1.426 OA 
HETATM   12  C   UNL     1      -5.353  15.540  71.211  1.00  0.00    -0.007 A  
ENDROOT
BRANCH   1  13
HETATM   13  C   UNL     1      -8.151  18.218  67.040  1.00  0.00    -0.241 A  
HETATM   14  C   UNL     1      -8.808  18.397  68.264  1.00  0.00    -0.323 A  
HETATM   15  C   UNL     1     -10.908  18.840  67.149  1.00  0.00    -0.375 A  
HETATM   16  C   UNL     1     -10.262  18.741  65.919  1.00  0.00    -0.305 A  
HETATM   17  C   UNL     1      -8.897  18.437  65.866  1.00  0.00     0.204 A  
HETATM   18  C   UNL     1     -10.177  18.679  68.323  1.00  0.00    -0.423 A  
ENDBRANCH   1  13
BRANCH   3  19
HETATM   19  C   UNL     1      -7.217  15.306  67.328  1.00  0.00    -0.213 A  
HETATM   20  C   UNL     1      -6.909  14.010  67.752  1.00  0.00    -0.187 A  
HETATM   21  C   UNL     1      -7.751  12.946  67.501  1.00  0.00    -0.174 A  
HETATM   22  C   UNL     1      -8.973  13.136  66.856  1.00  0.00    -0.209 A  
HETATM   23  C   UNL     1      -8.447  15.507  66.682  1.00  0.00    -0.314 A  
HETATM   24  C   UNL     1      -9.324  14.426  66.454  1.00  0.00    -0.284 A  
BRANCH  22  25
HETATM   25  O   UNL     1      -9.862  12.111  66.597  1.00  0.00    -0.203 OA 
BRANCH  25  26
HETATM   26  C   UNL     1     -10.367  11.526  67.806  1.00  0.00    -0.182 C  
BRANCH  26  27
HETATM   27  C   UNL     1     -11.855  11.188  67.779  1.00  0.00    -0.015 C  
BRANCH  27  28
HETATM   28  N   UNL     1     -12.253  10.558  69.051  1.00  0.00    -0.228 NA 
HETATM   29  C   UNL     1     -11.251   9.647  69.612  1.00  0.00    -0.141 C  
HETATM   30  C   UNL     1     -11.714   9.484  71.044  1.00  0.00    -0.419 C  
HETATM   31  C   UNL     1     -12.211  10.870  71.413  1.00  0.00    -0.332 C  
HETATM   32  C   UNL     1     -12.581  11.533  70.088  1.00  0.00    -0.071 C  
ENDBRANCH  27  28
ENDBRANCH  26  27
ENDBRANCH  25  26
ENDBRANCH  22  25
ENDBRANCH   3  19
TORSDOF 6
ENDMDL
MODEL      165
REMARK 921   NORMALIZED FREE ENERGY PREDICTED BY IDOCK:   -1.15 KCAL/MOL
REMARK 922        TOTAL FREE ENERGY PREDICTED BY IDOCK:   -3.48 KCAL/MOL
REMARK 923 INTER-LIGAND FREE ENERGY PREDICTED BY IDOCK:   -4.01 KCAL/MOL
REMARK 924 INTRA-LIGAND FREE ENERGY PREDICTED BY IDOCK:    0.53 KCAL/MOL
REMARK 927      BINDING AFFINITY PREDICTED BY RF-SCORE:    0.00 PKD
ROOT
HETATM    1  C   UNL     1      -7.615  13.984  68.767  1.00  0.00    -0.113 C  
HETATM    2  C   UNL     1      -6.730  15.094  68.179  1.00  0.00    -0.139 C  
HETATM    3  C   UNL     1      -9.074  14.533  68.951  1.00  0.00    -0.111 C  
HETATM    4  C   UNL     1      -7.209  15.536  66.799  1.00  0.00     0.196 C  
HETATM    5  C   UNL     1      -9.561  15.402  67.775  1.00  0.00    -0.210 A  
HETATM    6  C   UNL     1      -8.693  15.793  66.738  1.00  0.00    -0.305 A  
HETATM    7  H   UNL     1     -12.070  17.354  64.289  1.00  0.00     0.000 HD 
HETATM    8  C   UNL     1     -10.917  15.793  67.700  1.00  0.00    -0.302 A  
HETATM    9  C   UNL     1      -9.223  16.399  65.584  1.00  0.00     0.060 A  
HETATM   10  C   UNL     1     -10.587  16.655  65.487  1.00  0.00    -0.258 A  
HETATM   11  O   UNL     1     -11.138  17.179  64.355  1.00  0.00    -1.100 OA 
HETATM   12  C   UNL     1     -11.433  16.382  66.548  1.00  0.00     0.695 A  
ENDROOT
BRANCH   1  13
HETATM   13  C   UNL     1      -7.397  12.655  68.034  1.00  0.00    -0.114 A  
HETATM   14  C   UNL     1      -6.714  11.564  68.590  1.00  0.00    -0.072 A  
HETATM   15  C   UNL     1      -6.901  10.311  66.529  1.00  0.00    -0.101 A  
HETATM   16  C   UNL     1      -7.648  11.350  65.980  1.00  0.00     0.187 A  
HETATM   17  C   UNL     1      -7.896  12.507  66.726  1.00  0.00     0.119 A  
HETATM   18  C   UNL     1      -6.444  10.414  67.841  1.00  0.00    -0.060 A  
ENDBRANCH   1  13
BRANCH   3  19
HETATM   19  C   UNL     1     -10.053  13.426  69.370  1.00  0.00     0.543 A  
HETATM   20  C   UNL     1      -9.645  12.089  69.321  1.00  0.00     0.590 A  
HETATM   21  C   UNL     1     -10.506  11.057  69.634  1.00  0.00    -0.069 A  
HETATM   22  C   UNL     1     -11.807  11.314  70.064  1.00  0.00    -0.367 A  
HETATM   23  C   UNL     1     -11.360  13.694  69.807  1.00  0.00    -0.181 A  
HETATM   24  C   UNL     1     -12.230  12.642  70.158  1.00  0.00    -0.310 A  
BRANCH  22  25
HETATM   25  O   UNL     1     -12.703  10.321  70.408  1.00  0.00    -0.273 OA 
BRANCH  25  26
HETATM   26  C   UNL     1     -12.781  10.144  71.830  1.00  0.00    -0.434 C  
BRANCH  26  27
HETATM   27  C   UNL     1     -12.875   8.691  72.289  1.00  0.00    -0.383 C  
BRANCH  27  28
HETATM   28  N   UNL     1     -11.647   7.964  71.919  1.00  0.00    -0.277 NA 
HETATM   29  C   UNL     1     -10.958   7.331  73.048  1.00  0.00    -0.344 C  
HETATM   30  C   UNL     1     -10.025   6.355  72.365  1.00  0.00    -0.183 C  
HETATM   31  C   UNL     1     -10.849   5.837  71.201  1.00  0.00    -0.316 C  
HETATM   32  C   UNL     1     -11.882   6.925  70.920  1.00  0.00    -0.376 C  
ENDBRANCH  27  28
ENDBRANCH  26  27
ENDBRANCH  25  26
ENDBRANCH  22  25
ENDBRANCH   3  19
TORSDOF 6
ENDMDL
MODEL      166
REMARK 921   NORMALIZED FREE ENERGY PREDICTED BY IDOCK:   -0.81 KCAL/MOL
REMARK 922        TOTAL FREE ENERGY PREDICTED BY IDOCK:   -3.02 KCAL/MOL
REMARK 923 INTER-LIGAND FREE ENERGY PREDICTED BY IDOCK:   -2.81 KCAL/MOL
REMARK 924 INTRA-LIGAND FREE ENERGY PREDICTED BY IDOCK:   -0.21 KCAL/MOL
REMARK 927      BINDING AFFINITY PREDICTED BY RF-SCORE:    0.00 PKD
ROOT
HETATM    1  C   UNL     1     -12.177  10.281  69.080  1.00  0.00     0.313 C  
HETATM    2  C   UNL     1     -13.503  10.315  69.855  1.00  0.00     1.026 C  
HETATM    3  C   UNL     1     -11.734  11.752  68.756  1.00  0.00    -0.389 C  
HETATM    4  C   UNL     1     -13.367  11.037  71.193  1.00  0.00     0.001 C  
HETATM    5  C   UNL     1     -11.951  12.736  69.923  1.00  0.00    -0.368 A  
HETATM    6  C   UNL     1     -12.647  12.357  71.086  1.00  0.00    -0.349 A  
HETATM    7  H   UNL     1     -11.457  16.092  73.201  1.00  0.00     0.000 HD 
HETATM    8  C   UNL     1     -11.413  14.040  69.856  1.00  0.00    -0.272 A  
HETATM    9  C   UNL     1     -12.637  13.209  72.206  1.00  0.00     0.075 A  
HETATM   10  C   UNL     1     -11.986  14.437  72.150  1.00  0.00     0.029 A  
HETATM   11  O   UNL     1     -11.901  15.253  73.239  1.00  0.00    -0.435 OA 
HETATM   12  C   UNL     1     -11.399  14.871  70.974  1.00  0.00    -0.259 A  
ENDROOT
BRANCH   1  13
HETATM   13  C   UNL     1     -11.177   9.320  69.735  1.00  0.00    -0.104 A  
HETATM   14  C   UNL     1     -11.313   7.926  69.714  1.00  0.00     0.101 A  
HETATM   15  C   UNL     1      -9.367   7.648  71.124  1.00  0.00    -0.161 A  
HETATM   16  C   UNL     1      -9.166   9.025  71.097  1.00  0.00    -0.326 A  
HETATM   17  C   UNL     1     -10.060   9.852  70.407  1.00  0.00    -0.258 A  
HETATM   18  C   UNL     1     -10.436   7.097  70.420  1.00  0.00    -0.234 A  
ENDBRANCH   1  13
BRANCH   3  19
HETATM   19  C   UNL     1     -10.328  11.802  68.137  1.00  0.00    -0.213 A  
HETATM   20  C   UNL     1      -9.462  12.846  68.477  1.00  0.00    -0.098 A  
HETATM   21  C   UNL     1      -8.212  12.964  67.905  1.00  0.00    -0.165 A  
HETATM   22  C   UNL     1      -7.743  12.011  67.002  1.00  0.00    -0.129 A  
HETATM   23  C   UNL     1      -9.863  10.835  67.233  1.00  0.00    -0.208 A  
HETATM   24  C   UNL     1      -8.573  10.937  66.673  1.00  0.00    -0.148 A  
BRANCH  22  25
HETATM   25  O   UNL     1      -6.494  12.070  66.416  1.00  0.00     0.051 OA 
BRANCH  25  26
HETATM   26  C   UNL     1      -6.221  10.903  65.626  1.00  0.00    -0.019 C  
BRANCH  26  27
HETATM   27  C   UNL     1      -5.581   9.748  66.391  1.00  0.00    -0.052 C  
BRANCH  27  28
HETATM   28  N   UNL     1      -5.521   8.548  65.537  1.00  0.00    -0.035 NA 
HETATM   29  C   UNL     1      -5.864   7.300  66.225  1.00  0.00    -0.036 C  
HETATM   30  C   UNL     1      -6.121   6.346  65.078  1.00  0.00    -0.030 C  
HETATM   31  C   UNL     1      -6.820   7.216  64.048  1.00  0.00    -0.051 C  
HETATM   32  C   UNL     1      -6.383   8.645  64.362  1.00  0.00    -0.067 C  
ENDBRANCH  27  28
ENDBRANCH  26  27
ENDBRANCH  25  26
ENDBRANCH  22  25
ENDBRANCH   3  19
TORSDOF 6
ENDMDL
MODEL      167
REMARK 921   NORMALIZED FREE ENERGY PREDICTED BY IDOCK:   -0.70 KCAL/MOL
REMARK 922        TOTAL FREE ENERGY PREDICTED BY IDOCK:   -2.88 KCAL/MOL
REMARK 923 INTER-LIGAND FREE ENERGY PREDICTED BY IDOCK:   -1.76 KCAL/MOL
REMARK 924 INTRA-LIGAND FREE ENERGY PREDICTED BY IDOCK:   -1.12 KCAL/MOL
REMARK 927      BINDING AFFINITY PREDICTED BY RF-SCORE:    0.00 PKD
ROOT
HETATM    1  C   UNL     1      -7.779  11.844  66.477  1.00  0.00     0.105 C  
HETATM    2  C   UNL     1      -8.675  13.090  66.405  1.00  0.00     0.167 C  
HETATM    3  C   UNL     1      -7.965  11.157  67.876  1.00  0.00    -0.114 C  
HETATM    4  C   UNL     1     -10.155  12.738  66.527  1.00  0.00    -0.264 C  
HETATM    5  C   UNL     1      -9.430  11.115  68.354  1.00  0.00    -0.189 A  
HETATM    6  C   UNL     1     -10.451  11.795  67.664  1.00  0.00    -0.223 A  
HETATM    7  H   UNL     1     -13.621   9.803  70.076  1.00  0.00     0.000 HD 
HETATM    8  C   UNL     1      -9.780  10.350  69.490  1.00  0.00    -0.196 A  
HETATM    9  C   UNL     1     -11.795  11.557  68.007  1.00  0.00    -0.287 A  
HETATM   10  C   UNL     1     -12.112  10.695  69.052  1.00  0.00    -0.012 A  
HETATM   11  O   UNL     1     -13.405  10.392  69.363  1.00  0.00     0.515 OA 
HETATM   12  C   UNL     1     -11.114  10.112  69.813  1.00  0.00    -0.328 A  
ENDROOT
BRANCH   1  13
HETATM   13  C   UNL     1      -7.899  11.001  65.202  1.00  0.00     0.294 A  
HETATM   14  C   UNL     1      -6.825  10.735  64.342  1.00  0.00     0.363 A  
HETATM   15  C   UNL     1      -8.269   9.579  62.784  1.00  0.00    -0.155 A  
HETATM   16  C   UNL     1      -9.338   9.763  63.657  1.00  0.00    -0.154 A  
HETATM   17  C   UNL     1      -9.153  10.463  64.854  1.00  0.00    -0.242 A  
HETATM   18  C   UNL     1      -7.008  10.056  63.133  1.00  0.00    -0.132 A  
ENDBRANCH   1  13
BRANCH   3  19
HETATM   19  C   UNL     1      -7.234   9.808  67.953  1.00  0.00    -0.084 A  
HETATM   20  C   UNL     1      -5.837   9.777  67.901  1.00  0.00    -0.040 A  
HETATM   21  C   UNL     1      -5.138   8.587  67.910  1.00  0.00    -0.034 A  
HETATM   22  C   UNL     1      -5.803   7.366  68.025  1.00  0.00    -0.031 A  
HETATM   23  C   UNL     1      -7.910   8.584  68.074  1.00  0.00    -0.103 A  
HETATM   24  C   UNL     1      -7.196   7.369  68.116  1.00  0.00    -0.090 A  
BRANCH  22  25
HETATM   25  O   UNL     1      -5.152   6.148  68.059  1.00  0.00    -0.003 OA 
BRANCH  25  26
HETATM   26  C   UNL     1      -5.648   5.252  67.055  1.00  0.00    -0.013 C  
BRANCH  26  27
HETATM   27  C   UNL     1      -6.097   3.890  67.578  1.00  0.00    -0.028 C  
BRANCH  27  28
HETATM   28  N   UNL     1      -6.984   3.239  66.597  1.00  0.00    -0.053 NA 
HETATM   29  C   UNL     1      -7.843   2.193  67.161  1.00  0.00    -0.066 C  
HETATM   30  C   UNL     1      -8.889   2.004  66.084  1.00  0.00    -0.117 C  
HETATM   31  C   UNL     1      -9.130   3.414  65.576  1.00  0.00    -0.149 C  
HETATM   32  C   UNL     1      -7.855   4.186  65.904  1.00  0.00    -0.094 C  
ENDBRANCH  27  28
ENDBRANCH  26  27
ENDBRANCH  25  26
ENDBRANCH  22  25
ENDBRANCH   3  19
TORSDOF 6
ENDMDL
MODEL      168
REMARK 921   NORMALIZED FREE ENERGY PREDICTED BY IDOCK:   -0.29 KCAL/MOL
REMARK 922        TOTAL FREE ENERGY PREDICTED BY IDOCK:   -2.32 KCAL/MOL
REMARK 923 INTER-LIGAND FREE ENERGY PREDICTED BY IDOCK:   -1.09 KCAL/MOL
REMARK 924 INTRA-LIGAND FREE ENERGY PREDICTED BY IDOCK:   -1.23 KCAL/MOL
REMARK 927      BINDING AFFINITY PREDICTED BY RF-SCORE:    0.00 PKD
ROOT
HETATM    1  C   UNL     1      -7.778  11.840  66.480  1.00  0.00     0.046 C  
HETATM    2  C   UNL     1      -8.666  13.092  66.404  1.00  0.00     0.186 C  
HETATM    3  C   UNL     1      -7.946  11.177  67.893  1.00  0.00    -0.114 C  
HETATM    4  C   UNL     1     -10.147  12.754  66.557  1.00  0.00    -0.264 C  
HETATM    5  C   UNL     1      -9.403  11.153  68.397  1.00  0.00    -0.185 A  
HETATM    6  C   UNL     1     -10.430  11.831  67.714  1.00  0.00    -0.219 A  
HETATM    7  H   UNL     1     -13.574   9.902  70.210  1.00  0.00     0.000 HD 
HETATM    8  C   UNL     1      -9.739  10.409  69.550  1.00  0.00    -0.196 A  
HETATM    9  C   UNL     1     -11.770  11.608  68.083  1.00  0.00    -0.365 A  
HETATM   10  C   UNL     1     -12.076  10.765  69.146  1.00  0.00    -0.156 A  
HETATM   11  O   UNL     1     -13.365  10.478  69.483  1.00  0.00     0.278 OA 
HETATM   12  C   UNL     1     -11.069  10.187  69.899  1.00  0.00    -0.346 A  
ENDROOT
BRANCH   1  13
HETATM   13  C   UNL     1      -7.926  10.978  65.221  1.00  0.00     0.200 A  
HETATM   14  C   UNL     1      -8.869   9.949  65.090  1.00  0.00    -0.209 A  
HETATM   15  C   UNL     1      -7.998   9.335  62.919  1.00  0.00    -0.140 A  
HETATM   16  C   UNL     1      -7.102  10.399  62.991  1.00  0.00    -0.079 A  
HETATM   17  C   UNL     1      -7.070  11.213  64.129  1.00  0.00     1.138 A  
HETATM   18  C   UNL     1      -8.891   9.118  63.966  1.00  0.00    -0.112 A  
ENDBRANCH   1  13
BRANCH   3  19
HETATM   19  C   UNL     1      -7.224   9.823  67.979  1.00  0.00    -0.080 A  
HETATM   20  C   UNL     1      -5.828   9.780  67.904  1.00  0.00    -0.040 A  
HETATM   21  C   UNL     1      -5.138   8.585  67.920  1.00  0.00    -0.034 A  
HETATM   22  C   UNL     1      -5.810   7.372  68.066  1.00  0.00    -0.031 A  
HETATM   23  C   UNL     1      -7.908   8.607  68.131  1.00  0.00    -0.103 A  
HETATM   24  C   UNL     1      -7.202   7.387  68.180  1.00  0.00    -0.090 A  
BRANCH  22  25
HETATM   25  O   UNL     1      -5.169   6.149  68.108  1.00  0.00    -0.004 OA 
BRANCH  25  26
HETATM   26  C   UNL     1      -5.924   5.177  68.845  1.00  0.00    -0.021 C  
BRANCH  26  27
HETATM   27  C   UNL     1      -5.155   4.486  69.967  1.00  0.00     0.000 C  
BRANCH  27  28
HETATM   28  N   UNL     1      -6.096   3.877  70.925  1.00  0.00    -0.014 NA 
HETATM   29  C   UNL     1      -5.484   2.908  71.839  1.00  0.00    -0.008 C  
HETATM   30  C   UNL     1      -6.528   2.768  72.925  1.00  0.00    -0.014 C  
HETATM   31  C   UNL     1      -7.065   4.179  73.080  1.00  0.00    -0.067 C  
HETATM   32  C   UNL     1      -6.790   4.866  71.745  1.00  0.00    -0.052 C  
ENDBRANCH  27  28
ENDBRANCH  26  27
ENDBRANCH  25  26
ENDBRANCH  22  25
ENDBRANCH   3  19
TORSDOF 6
ENDMDL
MODEL      169
REMARK 921   NORMALIZED FREE ENERGY PREDICTED BY IDOCK:    0.29 KCAL/MOL
REMARK 922        TOTAL FREE ENERGY PREDICTED BY IDOCK:   -1.54 KCAL/MOL
REMARK 923 INTER-LIGAND FREE ENERGY PREDICTED BY IDOCK:   -0.64 KCAL/MOL
REMARK 924 INTRA-LIGAND FREE ENERGY PREDICTED BY IDOCK:   -0.90 KCAL/MOL
REMARK 927      BINDING AFFINITY PREDICTED BY RF-SCORE:    0.00 PKD
ROOT
HETATM    1  C   UNL     1      -6.184  17.559  67.668  1.00  0.00    -0.166 C  
HETATM    2  C   UNL     1      -5.599  18.584  68.652  1.00  0.00    -0.186 C  
HETATM    3  C   UNL     1      -7.584  17.082  68.195  1.00  0.00    -0.194 C  
HETATM    4  C   UNL     1      -6.472  19.831  68.764  1.00  0.00    -0.327 C  
HETATM    5  C   UNL     1      -8.450  18.222  68.767  1.00  0.00    -0.241 A  
HETATM    6  C   UNL     1      -7.935  19.519  68.950  1.00  0.00    -0.329 A  
HETATM    7  H   UNL     1     -11.978  21.170  69.821  1.00  0.00     0.000 HD 
HETATM    8  C   UNL     1      -9.806  17.986  69.087  1.00  0.00    -0.159 A  
HETATM    9  C   UNL     1      -8.811  20.572  69.270  1.00  0.00     1.107 A  
HETATM   10  C   UNL     1     -10.168  20.327  69.453  1.00  0.00     0.147 A  
HETATM   11  O   UNL     1     -11.051  21.337  69.696  1.00  0.00     0.881 OA 
HETATM   12  C   UNL     1     -10.667  19.038  69.391  1.00  0.00     1.050 A  
ENDROOT
BRANCH   1  13
HETATM   13  C   UNL     1      -6.048  18.040  66.219  1.00  0.00    -0.235 A  
HETATM   14  C   UNL     1      -5.317  17.356  65.238  1.00  0.00     0.745 A  
HETATM   15  C   UNL     1      -5.718  19.108  63.620  1.00  0.00    -0.196 A  
HETATM   16  C   UNL     1      -6.512  19.771  64.553  1.00  0.00    -0.100 A  
HETATM   17  C   UNL     1      -6.677  19.240  65.837  1.00  0.00    -0.273 A  
HETATM   18  C   UNL     1      -5.130  17.892  63.960  1.00  0.00     0.608 A  
ENDBRANCH   1  13
BRANCH   3  19
HETATM   19  C   UNL     1      -8.305  16.189  67.174  1.00  0.00    -0.225 A  
HETATM   20  C   UNL     1      -7.990  14.828  67.104  1.00  0.00    -0.205 A  
HETATM   21  C   UNL     1      -8.570  13.998  66.166  1.00  0.00     0.710 A  
HETATM   22  C   UNL     1      -9.537  14.479  65.284  1.00  0.00     0.123 A  
HETATM   23  C   UNL     1      -9.281  16.680  66.293  1.00  0.00    -0.328 A  
HETATM   24  C   UNL     1      -9.899  15.826  65.356  1.00  0.00    -0.212 A  
BRANCH  22  25
HETATM   25  O   UNL     1     -10.164  13.688  64.340  1.00  0.00    -0.393 OA 
BRANCH  25  26
HETATM   26  C   UNL     1     -11.365  13.096  64.855  1.00  0.00    -0.309 C  
BRANCH  26  27
HETATM   27  C   UNL     1     -11.156  11.797  65.627  1.00  0.00    -0.285 C  
BRANCH  27  28
HETATM   28  N   UNL     1     -11.025  12.082  67.068  1.00  0.00    -0.259 NA 
HETATM   29  C   UNL     1     -11.733  13.286  67.512  1.00  0.00    -0.366 C  
HETATM   30  C   UNL     1     -11.780  13.110  69.015  1.00  0.00    -0.367 C  
HETATM   31  C   UNL     1     -12.011  11.620  69.187  1.00  0.00    -0.378 C  
HETATM   32  C   UNL     1     -11.481  10.977  67.908  1.00  0.00    -0.282 C  
ENDBRANCH  27  28
ENDBRANCH  26  27
ENDBRANCH  25  26
ENDBRANCH  22  25
ENDBRANCH   3  19
TORSDOF 6
ENDMDL
MODEL      170
REMARK 921   NORMALIZED FREE ENERGY PREDICTED BY IDOCK:    0.35 KCAL/MOL
REMARK 922        TOTAL FREE ENERGY PREDICTED BY IDOCK:   -1.45 KCAL/MOL
REMARK 923 INTER-LIGAND FREE ENERGY PREDICTED BY IDOCK:   -0.37 KCAL/MOL
REMARK 924 INTRA-LIGAND FREE ENERGY PREDICTED BY IDOCK:   -1.07 KCAL/MOL
REMARK 927      BINDING AFFINITY PREDICTED BY RF-SCORE:    0.00 PKD
ROOT
HETATM    1  C   UNL     1      -6.218  17.500  66.926  1.00  0.00    -0.206 C  
HETATM    2  C   UNL     1      -5.152  17.867  67.969  1.00  0.00    -0.146 C  
HETATM    3  C   UNL     1      -7.568  17.179  67.661  1.00  0.00    -0.180 C  
HETATM    4  C   UNL     1      -5.529  19.118  68.758  1.00  0.00    -0.206 C  
HETATM    5  C   UNL     1      -7.885  18.144  68.821  1.00  0.00    -0.268 A  
HETATM    6  C   UNL     1      -6.949  19.096  69.265  1.00  0.00    -0.331 A  
HETATM    7  H   UNL     1      -9.980  21.108  71.834  1.00  0.00     0.000 HD 
HETATM    8  C   UNL     1      -9.155  18.110  69.440  1.00  0.00     0.400 A  
HETATM    9  C   UNL     1      -7.353  20.092  70.174  1.00  0.00     0.393 A  
HETATM   10  C   UNL     1      -8.653  20.107  70.668  1.00  0.00     1.777 A  
HETATM   11  O   UNL     1      -9.092  21.097  71.496  1.00  0.00     1.671 OA 
HETATM   12  C   UNL     1      -9.548  19.107  70.330  1.00  0.00     1.218 A  
ENDROOT
BRANCH   1  13
HETATM   13  C   UNL     1      -6.215  18.493  65.757  1.00  0.00    -0.281 A  
HETATM   14  C   UNL     1      -6.980  19.667  65.734  1.00  0.00    -0.313 A  
HETATM   15  C   UNL     1      -6.268  20.165  63.476  1.00  0.00    -0.033 A  
HETATM   16  C   UNL     1      -5.442  19.045  63.502  1.00  0.00    -0.250 A  
HETATM   17  C   UNL     1      -5.413  18.220  64.632  1.00  0.00    -0.018 A  
HETATM   18  C   UNL     1      -7.029  20.483  64.599  1.00  0.00     0.004 A  
ENDBRANCH   1  13
BRANCH   3  19
HETATM   19  C   UNL     1      -8.724  16.975  66.671  1.00  0.00    -0.282 A  
HETATM   20  C   UNL     1      -8.917  15.721  66.084  1.00  0.00    -0.372 A  
HETATM   21  C   UNL     1      -9.907  15.504  65.147  1.00  0.00    -0.086 A  
HETATM   22  C   UNL     1     -10.791  16.522  64.789  1.00  0.00    -0.127 A  
HETATM   23  C   UNL     1      -9.613  18.004  66.321  1.00  0.00    -0.246 A  
HETATM   24  C   UNL     1     -10.645  17.775  65.388  1.00  0.00     0.074 A  
BRANCH  22  25
HETATM   25  O   UNL     1     -11.811  16.354  63.873  1.00  0.00    -1.034 OA 
BRANCH  25  26
HETATM   26  C   UNL     1     -12.642  15.232  64.202  1.00  0.00     0.267 C  
BRANCH  26  27
HETATM   27  C   UNL     1     -12.336  13.959  63.417  1.00  0.00     0.114 C  
BRANCH  27  28
HETATM   28  N   UNL     1     -12.042  12.852  64.345  1.00  0.00    -0.385 NA 
HETATM   29  C   UNL     1     -10.619  12.519  64.455  1.00  0.00    -0.336 C  
HETATM   30  C   UNL     1     -10.568  11.687  65.719  1.00  0.00    -0.320 C  
HETATM   31  C   UNL     1     -11.571  12.371  66.630  1.00  0.00    -0.447 C  
HETATM   32  C   UNL     1     -12.534  13.100  65.698  1.00  0.00    -0.425 C  
ENDBRANCH  27  28
ENDBRANCH  26  27
ENDBRANCH  25  26
ENDBRANCH  22  25
ENDBRANCH   3  19
TORSDOF 6
ENDMDL
MODEL      171
REMARK 921   NORMALIZED FREE ENERGY PREDICTED BY IDOCK:    0.75 KCAL/MOL
REMARK 922        TOTAL FREE ENERGY PREDICTED BY IDOCK:   -0.91 KCAL/MOL
REMARK 923 INTER-LIGAND FREE ENERGY PREDICTED BY IDOCK:   -1.32 KCAL/MOL
REMARK 924 INTRA-LIGAND FREE ENERGY PREDICTED BY IDOCK:    0.41 KCAL/MOL
REMARK 927      BINDING AFFINITY PREDICTED BY RF-SCORE:    0.00 PKD
ROOT
HETATM    1  C   UNL     1     -12.227  14.573  68.415  1.00  0.00    -0.154 C  
HETATM    2  C   UNL     1     -12.049  16.080  68.179  1.00  0.00     0.464 C  
HETATM    3  C   UNL     1     -11.036  13.803  67.741  1.00  0.00    -0.272 C  
HETATM    4  C   UNL     1     -10.768  16.612  68.816  1.00  0.00    -0.342 C  
HETATM    5  C   UNL     1      -9.667  14.485  67.939  1.00  0.00    -0.218 A  
HETATM    6  C   UNL     1      -9.558  15.764  68.516  1.00  0.00    -0.204 A  
HETATM    7  H   UNL     1      -5.129  15.414  68.829  1.00  0.00     0.000 HD 
HETATM    8  C   UNL     1      -8.482  13.810  67.571  1.00  0.00    -0.199 A  
HETATM    9  C   UNL     1      -8.289  16.255  68.873  1.00  0.00    -0.231 A  
HETATM   10  C   UNL     1      -7.146  15.506  68.612  1.00  0.00    -0.118 A  
HETATM   11  O   UNL     1      -5.910  15.925  69.007  1.00  0.00    -0.107 OA 
HETATM   12  C   UNL     1      -7.231  14.300  67.939  1.00  0.00    -0.166 A  
ENDROOT
BRANCH   1  13
HETATM   13  C   UNL     1     -12.583  14.278  69.877  1.00  0.00    -0.214 A  
HETATM   14  C   UNL     1     -12.650  15.262  70.873  1.00  0.00    -0.471 A  
HETATM   15  C   UNL     1     -13.077  13.602  72.579  1.00  0.00    -0.487 A  
HETATM   16  C   UNL     1     -13.091  12.614  71.597  1.00  0.00    -0.421 A  
HETATM   17  C   UNL     1     -12.850  12.950  70.260  1.00  0.00     0.209 A  
HETATM   18  C   UNL     1     -12.869  14.930  72.213  1.00  0.00    -0.414 A  
ENDBRANCH   1  13
BRANCH   3  19
HETATM   19  C   UNL     1     -11.054  12.306  68.086  1.00  0.00    -0.285 A  
HETATM   20  C   UNL     1      -9.938  11.725  68.697  1.00  0.00    -0.181 A  
HETATM   21  C   UNL     1      -9.886  10.375  68.975  1.00  0.00    -0.222 A  
HETATM   22  C   UNL     1     -10.973   9.544  68.704  1.00  0.00    -0.072 A  
HETATM   23  C   UNL     1     -12.155  11.479  67.815  1.00  0.00     0.113 A  
HETATM   24  C   UNL     1     -12.116  10.105  68.129  1.00  0.00     1.582 A  
BRANCH  22  25
HETATM   25  O   UNL     1     -10.982   8.191  68.981  1.00  0.00    -0.057 OA 
BRANCH  25  26
HETATM   26  C   UNL     1     -10.104   7.464  68.110  1.00  0.00    -0.179 C  
BRANCH  26  27
HETATM   27  C   UNL     1     -10.288   5.949  68.136  1.00  0.00    -0.210 C  
BRANCH  27  28
HETATM   28  N   UNL     1     -10.312   5.419  66.760  1.00  0.00    -0.244 NA 
HETATM   29  C   UNL     1      -9.016   5.462  66.075  1.00  0.00    -0.147 C  
HETATM   30  C   UNL     1      -9.225   4.520  64.908  1.00  0.00    -0.156 C  
HETATM   31  C   UNL     1     -10.075   3.411  65.500  1.00  0.00     0.245 C  
HETATM   32  C   UNL     1     -10.792   4.041  66.691  1.00  0.00     1.835 C  
ENDBRANCH  27  28
ENDBRANCH  26  27
ENDBRANCH  25  26
ENDBRANCH  22  25
ENDBRANCH   3  19
TORSDOF 6
ENDMDL
MODEL      172
REMARK 921   NORMALIZED FREE ENERGY PREDICTED BY IDOCK:    1.01 KCAL/MOL
REMARK 922        TOTAL FREE ENERGY PREDICTED BY IDOCK:   -0.56 KCAL/MOL
REMARK 923 INTER-LIGAND FREE ENERGY PREDICTED BY IDOCK:    0.23 KCAL/MOL
REMARK 924 INTRA-LIGAND FREE ENERGY PREDICTED BY IDOCK:   -0.79 KCAL/MOL
REMARK 927      BINDING AFFINITY PREDICTED BY RF-SCORE:    0.00 PKD
ROOT
HETATM    1  C   UNL     1     -10.920  10.764  66.299  1.00  0.00    -0.073 C  
HETATM    2  C   UNL     1     -10.873  11.405  64.904  1.00  0.00    -0.323 C  
HETATM    3  C   UNL     1     -10.645   9.224  66.167  1.00  0.00     0.233 C  
HETATM    4  C   UNL     1      -9.499  11.260  64.253  1.00  0.00    -0.203 C  
HETATM    5  C   UNL     1      -9.521   8.880  65.169  1.00  0.00     0.098 A  
HETATM    6  C   UNL     1      -8.944   9.861  64.341  1.00  0.00    -0.275 A  
HETATM    7  H   UNL     1      -5.710   7.087  63.044  1.00  0.00     0.000 HD 
HETATM    8  C   UNL     1      -9.022   7.561  65.097  1.00  0.00     0.317 A  
HETATM    9  C   UNL     1      -7.785   9.551  63.606  1.00  0.00    -0.125 A  
HETATM   10  C   UNL     1      -7.241   8.272  63.656  1.00  0.00    -0.093 A  
HETATM   11  O   UNL     1      -6.082   7.961  63.009  1.00  0.00    -0.066 OA 
HETATM   12  C   UNL     1      -7.867   7.267  64.374  1.00  0.00    -0.126 A  
ENDROOT
BRANCH   1  13
HETATM   13  C   UNL     1     -10.120  11.588  67.315  1.00  0.00    -0.223 A  
HETATM   14  C   UNL     1     -10.577  11.885  68.606  1.00  0.00    -0.259 A  
HETATM   15  C   UNL     1      -8.639  13.263  69.048  1.00  0.00     0.421 A  
HETATM   16  C   UNL     1      -8.126  12.921  67.799  1.00  0.00    -0.166 A  
HETATM   17  C   UNL     1      -8.858  12.090  66.944  1.00  0.00    -0.197 A  
HETATM   18  C   UNL     1      -9.861  12.734  69.456  1.00  0.00     1.179 A  
ENDBRANCH   1  13
BRANCH   3  19
HETATM   19  C   UNL     1     -10.503   8.549  67.539  1.00  0.00    -0.328 A  
HETATM   20  C   UNL     1     -11.577   7.826  68.067  1.00  0.00     1.400 A  
HETATM   21  C   UNL     1     -11.517   7.249  69.319  1.00  0.00     0.222 A  
HETATM   22  C   UNL     1     -10.355   7.322  70.087  1.00  0.00    -0.212 A  
HETATM   23  C   UNL     1      -9.327   8.623  68.303  1.00  0.00    -0.143 A  
HETATM   24  C   UNL     1      -9.253   8.006  69.569  1.00  0.00    -0.152 A  
BRANCH  22  25
HETATM   25  O   UNL     1     -10.233   6.747  71.337  1.00  0.00    -0.197 OA 
BRANCH  25  26
HETATM   26  C   UNL     1      -9.369   5.602  71.313  1.00  0.00    -0.147 C  
BRANCH  26  27
HETATM   27  C   UNL     1      -9.358   4.837  69.992  1.00  0.00    -0.146 C  
BRANCH  27  28
HETATM   28  N   UNL     1      -7.984   4.413  69.666  1.00  0.00    -0.057 NA 
HETATM   29  C   UNL     1      -6.966   4.890  70.607  1.00  0.00    -0.041 C  
HETATM   30  C   UNL     1      -5.779   4.005  70.292  1.00  0.00    -0.013 C  
HETATM   31  C   UNL     1      -6.413   2.655  70.011  1.00  0.00    -0.029 C  
HETATM   32  C   UNL     1      -7.844   2.961  69.579  1.00  0.00    -0.042 C  
ENDBRANCH  27  28
ENDBRANCH  26  27
ENDBRANCH  25  26
ENDBRANCH  22  25
ENDBRANCH   3  19
TORSDOF 6
ENDMDL
MODEL      173
REMARK 921   NORMALIZED FREE ENERGY PREDICTED BY IDOCK:    1.08 KCAL/MOL
REMARK 922        TOTAL FREE ENERGY PREDICTED BY IDOCK:   -0.47 KCAL/MOL
REMARK 923 INTER-LIGAND FREE ENERGY PREDICTED BY IDOCK:    0.69 KCAL/MOL
REMARK 924 INTRA-LIGAND FREE ENERGY PREDICTED BY IDOCK:   -1.16 KCAL/MOL
REMARK 927      BINDING AFFINITY PREDICTED BY RF-SCORE:    0.00 PKD
ROOT
HETATM    1  C   UNL     1      -6.210  17.535  67.637  1.00  0.00    -0.166 C  
HETATM    2  C   UNL     1      -5.624  18.545  68.635  1.00  0.00    -0.186 C  
HETATM    3  C   UNL     1      -7.615  17.060  68.151  1.00  0.00    -0.194 C  
HETATM    4  C   UNL     1      -6.490  19.796  68.759  1.00  0.00    -0.327 C  
HETATM    5  C   UNL     1      -8.477  18.197  68.733  1.00  0.00    -0.224 A  
HETATM    6  C   UNL     1      -7.956  19.489  68.935  1.00  0.00    -0.329 A  
HETATM    7  H   UNL     1     -11.994  21.152  69.807  1.00  0.00     0.000 HD 
HETATM    8  C   UNL     1      -9.836  17.965  69.044  1.00  0.00    -0.236 A  
HETATM    9  C   UNL     1      -8.828  20.543  69.263  1.00  0.00     1.107 A  
HETATM   10  C   UNL     1     -10.187  20.304  69.437  1.00  0.00     0.147 A  
HETATM   11  O   UNL     1     -11.066  21.316  69.688  1.00  0.00     0.881 OA 
HETATM   12  C   UNL     1     -10.692  19.018  69.357  1.00  0.00     1.050 A  
ENDROOT
BRANCH   1  13
HETATM   13  C   UNL     1      -6.064  18.033  66.194  1.00  0.00    -0.250 A  
HETATM   14  C   UNL     1      -5.341  17.351  65.206  1.00  0.00     0.745 A  
HETATM   15  C   UNL     1      -5.715  19.130  63.610  1.00  0.00    -0.196 A  
HETATM   16  C   UNL     1      -6.502  19.791  64.549  1.00  0.00    -0.100 A  
HETATM   17  C   UNL     1      -6.678  19.246  65.826  1.00  0.00    -0.284 A  
HETATM   18  C   UNL     1      -5.144  17.902  63.936  1.00  0.00     0.676 A  
ENDBRANCH   1  13
BRANCH   3  19
HETATM   19  C   UNL     1      -8.336  16.183  67.116  1.00  0.00    -0.225 A  
HETATM   20  C   UNL     1      -7.987  14.835  66.991  1.00  0.00    -0.139 A  
HETATM   21  C   UNL     1      -8.567  14.022  66.038  1.00  0.00     0.946 A  
HETATM   22  C   UNL     1      -9.567  14.506  65.196  1.00  0.00     0.257 A  
HETATM   23  C   UNL     1      -9.346  16.677  66.276  1.00  0.00    -0.323 A  
HETATM   24  C   UNL     1      -9.963  15.839  65.324  1.00  0.00    -0.176 A  
BRANCH  22  25
HETATM   25  O   UNL     1     -10.195  13.732  64.239  1.00  0.00    -0.322 OA 
BRANCH  25  26
HETATM   26  C   UNL     1     -10.676  12.496  64.787  1.00  0.00    -0.302 C  
BRANCH  26  27
HETATM   27  C   UNL     1     -10.094  11.242  64.141  1.00  0.00    -0.320 C  
BRANCH  27  28
HETATM   28  N   UNL     1      -9.090  10.633  65.034  1.00  0.00    -0.195 NA 
HETATM   29  C   UNL     1      -9.581   9.482  65.798  1.00  0.00    -0.270 C  
HETATM   30  C   UNL     1      -8.302   8.831  66.278  1.00  0.00    -0.120 C  
HETATM   31  C   UNL     1      -7.359   8.997  65.101  1.00  0.00    -0.096 C  
HETATM   32  C   UNL     1      -7.889  10.200  64.325  1.00  0.00    -0.140 C  
ENDBRANCH  27  28
ENDBRANCH  26  27
ENDBRANCH  25  26
ENDBRANCH  22  25
ENDBRANCH   3  19
TORSDOF 6
ENDMDL
MODEL      174
REMARK 921   NORMALIZED FREE ENERGY PREDICTED BY IDOCK:    2.28 KCAL/MOL
REMARK 922        TOTAL FREE ENERGY PREDICTED BY IDOCK:    1.15 KCAL/MOL
REMARK 923 INTER-LIGAND FREE ENERGY PREDICTED BY IDOCK:    1.16 KCAL/MOL
REMARK 924 INTRA-LIGAND FREE ENERGY PREDICTED BY IDOCK:   -0.01 KCAL/MOL
REMARK 927      BINDING AFFINITY PREDICTED BY RF-SCORE:    0.00 PKD
ROOT
HETATM    1  C   UNL     1     -10.599  10.275  68.490  1.00  0.00    -0.240 C  
HETATM    2  C   UNL     1     -11.380  11.361  67.735  1.00  0.00    -0.354 C  
HETATM    3  C   UNL     1     -10.432   9.021  67.560  1.00  0.00    -0.338 C  
HETATM    4  C   UNL     1     -10.637  11.837  66.488  1.00  0.00    -0.289 C  
HETATM    5  C   UNL     1     -10.093   9.376  66.099  1.00  0.00    -0.324 A  
HETATM    6  C   UNL     1     -10.117  10.706  65.638  1.00  0.00    -0.335 A  
HETATM    7  H   UNL     1      -8.203   9.568  61.781  1.00  0.00     0.000 HD 
HETATM    8  C   UNL     1      -9.712   8.358  65.196  1.00  0.00     0.985 A  
HETATM    9  C   UNL     1      -9.597  11.006  64.366  1.00  0.00    -0.301 A  
HETATM   10  C   UNL     1      -9.108   9.992  63.548  1.00  0.00    -0.272 A  
HETATM   11  O   UNL     1      -8.537  10.260  62.339  1.00  0.00    -0.157 OA 
HETATM   12  C   UNL     1      -9.188   8.668  63.943  1.00  0.00     0.882 A  
ENDROOT
BRANCH   1  13
HETATM   13  C   UNL     1      -9.368  10.862  69.191  1.00  0.00    -0.096 A  
HETATM   14  C   UNL     1      -8.970  12.200  69.070  1.00  0.00     0.390 A  
HETATM   15  C   UNL     1      -6.982  11.799  70.387  1.00  0.00     1.280 A  
HETATM   16  C   UNL     1      -7.394  10.484  70.586  1.00  0.00     0.815 A  
HETATM   17  C   UNL     1      -8.576  10.022  69.997  1.00  0.00    -0.122 A  
HETATM   18  C   UNL     1      -7.779  12.662  69.638  1.00  0.00     1.094 A  
ENDBRANCH   1  13
BRANCH   3  19
HETATM   19  C   UNL     1      -9.511   7.963  68.186  1.00  0.00    -0.154 A  
HETATM   20  C   UNL     1     -10.070   6.871  68.856  1.00  0.00    -0.174 A  
HETATM   21  C   UNL     1      -9.284   5.925  69.482  1.00  0.00    -0.149 A  
HETATM   22  C   UNL     1      -7.892   5.997  69.424  1.00  0.00    -0.099 A  
HETATM   23  C   UNL     1      -8.111   8.041  68.117  1.00  0.00    -0.129 A  
HETATM   24  C   UNL     1      -7.306   7.058  68.729  1.00  0.00    -0.093 A  
BRANCH  22  25
HETATM   25  O   UNL     1      -7.058   5.068  70.014  1.00  0.00    -0.051 OA 
BRANCH  25  26
HETATM   26  C   UNL     1      -5.903   5.686  70.599  1.00  0.00    -0.024 C  
BRANCH  26  27
HETATM   27  C   UNL     1      -5.937   5.793  72.122  1.00  0.00    -0.035 C  
BRANCH  27  28
HETATM   28  N   UNL     1      -7.333   5.866  72.591  1.00  0.00    -0.090 NA 
HETATM   29  C   UNL     1      -7.794   4.668  73.301  1.00  0.00    -0.096 C  
HETATM   30  C   UNL     1      -9.043   5.156  74.002  1.00  0.00    -0.118 C  
HETATM   31  C   UNL     1      -8.678   6.566  74.429  1.00  0.00    -0.166 C  
HETATM   32  C   UNL     1      -7.577   7.008  73.469  1.00  0.00    -0.082 C  
ENDBRANCH  27  28
ENDBRANCH  26  27
ENDBRANCH  25  26
ENDBRANCH  22  25
ENDBRANCH   3  19
TORSDOF 6
ENDMDL
MODEL      175
REMARK 921   NORMALIZED FREE ENERGY PREDICTED BY IDOCK:    2.33 KCAL/MOL
REMARK 922        TOTAL FREE ENERGY PREDICTED BY IDOCK:    1.23 KCAL/MOL
REMARK 923 INTER-LIGAND FREE ENERGY PREDICTED BY IDOCK:    1.54 KCAL/MOL
REMARK 924 INTRA-LIGAND FREE ENERGY PREDICTED BY IDOCK:   -0.31 KCAL/MOL
REMARK 927      BINDING AFFINITY PREDICTED BY RF-SCORE:    0.00 PKD
ROOT
HETATM    1  C   UNL     1     -10.599  10.275  68.490  1.00  0.00    -0.240 C  
HETATM    2  C   UNL     1     -11.382  11.363  67.739  1.00  0.00    -0.354 C  
HETATM    3  C   UNL     1     -10.429   9.026  67.555  1.00  0.00    -0.338 C  
HETATM    4  C   UNL     1     -10.640  11.845  66.495  1.00  0.00    -0.278 C  
HETATM    5  C   UNL     1     -10.090   9.387  66.095  1.00  0.00    -0.324 A  
HETATM    6  C   UNL     1     -10.117  10.719  65.640  1.00  0.00    -0.327 A  
HETATM    7  H   UNL     1      -8.199   9.602  61.779  1.00  0.00     0.000 HD 
HETATM    8  C   UNL     1      -9.706   8.375  65.188  1.00  0.00     0.985 A  
HETATM    9  C   UNL     1      -9.597  11.026  64.369  1.00  0.00    -0.301 A  
HETATM   10  C   UNL     1      -9.106  10.017  63.548  1.00  0.00    -0.272 A  
HETATM   11  O   UNL     1      -8.534  10.292  62.340  1.00  0.00    -0.148 OA 
HETATM   12  C   UNL     1      -9.183   8.691  63.936  1.00  0.00     0.882 A  
ENDROOT
BRANCH   1  13
HETATM   13  C   UNL     1      -9.370  10.862  69.194  1.00  0.00    -0.096 A  
HETATM   14  C   UNL     1      -8.975  12.201  69.079  1.00  0.00     0.390 A  
HETATM   15  C   UNL     1      -6.986  11.799  70.396  1.00  0.00     1.280 A  
HETATM   16  C   UNL     1      -7.396  10.482  70.589  1.00  0.00     0.815 A  
HETATM   17  C   UNL     1      -8.577  10.020  69.997  1.00  0.00    -0.122 A  
HETATM   18  C   UNL     1      -7.784  12.663  69.649  1.00  0.00     1.094 A  
ENDBRANCH   1  13
BRANCH   3  19
HETATM   19  C   UNL     1      -9.506   7.967  68.177  1.00  0.00    -0.152 A  
HETATM   20  C   UNL     1      -8.155   7.934  67.819  1.00  0.00    -0.128 A  
HETATM   21  C   UNL     1      -7.299   6.968  68.308  1.00  0.00    -0.097 A  
HETATM   22  C   UNL     1      -7.742   6.015  69.224  1.00  0.00    -0.095 A  
HETATM   23  C   UNL     1      -9.959   7.015  69.103  1.00  0.00    -0.165 A  
HETATM   24  C   UNL     1      -9.079   6.048  69.629  1.00  0.00    -0.139 A  
BRANCH  22  25
HETATM   25  O   UNL     1      -6.925   5.039  69.761  1.00  0.00    -0.050 OA 
BRANCH  25  26
HETATM   26  C   UNL     1      -7.609   3.785  69.890  1.00  0.00    -0.048 C  
BRANCH  26  27
HETATM   27  C   UNL     1      -7.228   2.739  68.845  1.00  0.00    -0.048 C  
BRANCH  27  28
HETATM   28  N   UNL     1      -6.789   3.402  67.603  1.00  0.00    -0.049 NA 
HETATM   29  C   UNL     1      -5.355   3.275  67.326  1.00  0.00    -0.016 C  
HETATM   30  C   UNL     1      -5.263   3.657  65.864  1.00  0.00    -0.009 C  
HETATM   31  C   UNL     1      -6.516   3.049  65.263  1.00  0.00    -0.035 C  
HETATM   32  C   UNL     1      -7.501   2.922  66.422  1.00  0.00    -0.075 C  
ENDBRANCH  27  28
ENDBRANCH  26  27
ENDBRANCH  25  26
ENDBRANCH  22  25
ENDBRANCH   3  19
TORSDOF 6
ENDMDL
MODEL      176
REMARK 921   NORMALIZED FREE ENERGY PREDICTED BY IDOCK:    2.96 KCAL/MOL
REMARK 922        TOTAL FREE ENERGY PREDICTED BY IDOCK:    2.07 KCAL/MOL
REMARK 923 INTER-LIGAND FREE ENERGY PREDICTED BY IDOCK:    1.37 KCAL/MOL
REMARK 924 INTRA-LIGAND FREE ENERGY PREDICTED BY IDOCK:    0.70 KCAL/MOL
REMARK 927      BINDING AFFINITY PREDICTED BY RF-SCORE:    0.00 PKD
ROOT
HETATM    1  C   UNL     1      -9.207  16.420  66.405  1.00  0.00    -0.335 C  
HETATM    2  C   UNL     1      -8.815  17.824  66.890  1.00  0.00    -0.260 C  
HETATM    3  C   UNL     1      -7.947  15.485  66.466  1.00  0.00    -0.009 C  
HETATM    4  C   UNL     1      -8.345  17.818  68.342  1.00  0.00    -0.295 C  
HETATM    5  C   UNL     1      -7.092  15.681  67.734  1.00  0.00    -0.174 A  
HETATM    6  C   UNL     1      -7.345  16.730  68.639  1.00  0.00    -0.218 A  
HETATM    7  H   UNL     1      -4.513  15.038  71.631  1.00  0.00     0.000 HD 
HETATM    8  C   UNL     1      -6.050  14.775  68.030  1.00  0.00    -0.164 A  
HETATM    9  C   UNL     1      -6.685  16.745  69.882  1.00  0.00     0.182 A  
HETATM   10  C   UNL     1      -5.753  15.761  70.195  1.00  0.00    -0.159 A  
HETATM   11  O   UNL     1      -5.149  15.710  71.417  1.00  0.00    -0.175 OA 
HETATM   12  C   UNL     1      -5.411  14.793  69.268  1.00  0.00    -0.089 A  
ENDROOT
BRANCH   1  13
HETATM   13  C   UNL     1     -10.520  15.958  67.047  1.00  0.00    -0.306 A  
HETATM   14  C   UNL     1     -11.408  15.060  66.440  1.00  0.00    -0.275 A  
HETATM   15  C   UNL     1     -12.999  15.308  68.245  1.00  0.00     2.037 A  
HETATM   16  C   UNL     1     -12.102  16.143  68.905  1.00  0.00     0.133 A  
HETATM   17  C   UNL     1     -10.874  16.462  68.314  1.00  0.00    -0.347 A  
HETATM   18  C   UNL     1     -12.646  14.756  67.016  1.00  0.00     0.653 A  
ENDBRANCH   1  13
BRANCH   3  19
HETATM   19  C   UNL     1      -8.305  14.023  66.163  1.00  0.00     1.144 A  
HETATM   20  C   UNL     1      -9.232  13.734  65.157  1.00  0.00     1.050 A  
HETATM   21  C   UNL     1      -9.627  12.439  64.886  1.00  0.00     0.090 A  
HETATM   22  C   UNL     1      -9.073  11.361  65.576  1.00  0.00    -0.137 A  
HETATM   23  C   UNL     1      -7.738  12.943  66.859  1.00  0.00     0.156 A  
HETATM   24  C   UNL     1      -8.117  11.618  66.561  1.00  0.00    -0.075 A  
BRANCH  22  25
HETATM   25  O   UNL     1      -9.417  10.046  65.332  1.00  0.00    -0.209 OA 
BRANCH  25  26
HETATM   26  C   UNL     1      -9.272   9.232  66.504  1.00  0.00    -0.161 C  
BRANCH  26  27
HETATM   27  C   UNL     1      -9.400   7.731  66.259  1.00  0.00    -0.151 C  
BRANCH  27  28
HETATM   28  N   UNL     1      -9.121   6.990  67.503  1.00  0.00    -0.123 NA 
HETATM   29  C   UNL     1      -8.486   5.685  67.299  1.00  0.00    -0.106 C  
HETATM   30  C   UNL     1      -7.955   5.352  68.677  1.00  0.00    -0.087 C  
HETATM   31  C   UNL     1      -7.475   6.693  69.201  1.00  0.00    -0.095 C  
HETATM   32  C   UNL     1      -8.278   7.739  68.432  1.00  0.00    -0.124 C  
ENDBRANCH  27  28
ENDBRANCH  26  27
ENDBRANCH  25  26
ENDBRANCH  22  25
ENDBRANCH   3  19
TORSDOF 6
ENDMDL
MODEL      177
REMARK 921   NORMALIZED FREE ENERGY PREDICTED BY IDOCK:    3.97 KCAL/MOL
REMARK 922        TOTAL FREE ENERGY PREDICTED BY IDOCK:    3.43 KCAL/MOL
REMARK 923 INTER-LIGAND FREE ENERGY PREDICTED BY IDOCK:    4.30 KCAL/MOL
REMARK 924 INTRA-LIGAND FREE ENERGY PREDICTED BY IDOCK:   -0.87 KCAL/MOL
REMARK 927      BINDING AFFINITY PREDICTED BY RF-SCORE:    0.00 PKD
ROOT
HETATM    1  C   UNL     1      -8.703  17.252  68.774  1.00  0.00    -0.232 C  
HETATM    2  C   UNL     1      -9.865  18.235  68.987  1.00  0.00    -0.270 C  
HETATM    3  C   UNL     1      -9.276  15.794  68.677  1.00  0.00    -0.207 C  
HETATM    4  C   UNL     1     -10.844  18.227  67.815  1.00  0.00    -0.257 C  
HETATM    5  C   UNL     1     -10.570  15.691  67.845  1.00  0.00    -0.278 A  
HETATM    6  C   UNL     1     -11.243  16.838  67.384  1.00  0.00     0.142 A  
HETATM    7  H   UNL     1     -13.931  14.410  64.794  1.00  0.00     0.000 HD 
HETATM    8  C   UNL     1     -11.086  14.423  67.496  1.00  0.00    -0.312 A  
HETATM    9  C   UNL     1     -12.290  16.699  66.455  1.00  0.00     3.356 A  
HETATM   10  C   UNL     1     -12.692  15.436  66.032  1.00  0.00     1.458 A  
HETATM   11  O   UNL     1     -13.657  15.273  65.083  1.00  0.00     0.774 OA 
HETATM   12  C   UNL     1     -12.116  14.297  66.567  1.00  0.00    -0.454 A  
ENDROOT
BRANCH   1  13
HETATM   13  C   UNL     1      -7.740  17.757  67.693  1.00  0.00    -0.212 A  
HETATM   14  C   UNL     1      -8.150  18.164  66.417  1.00  0.00    -0.291 A  
HETATM   15  C   UNL     1      -5.860  18.506  65.717  1.00  0.00    -0.230 A  
HETATM   16  C   UNL     1      -5.432  18.179  67.001  1.00  0.00    -0.153 A  
HETATM   17  C   UNL     1      -6.363  17.812  67.979  1.00  0.00    -0.176 A  
HETATM   18  C   UNL     1      -7.223  18.510  65.428  1.00  0.00     0.118 A  
ENDBRANCH   1  13
BRANCH   3  19
HETATM   19  C   UNL     1      -8.191  14.778  68.289  1.00  0.00    -0.142 A  
HETATM   20  C   UNL     1      -7.860  14.602  66.942  1.00  0.00     0.090 A  
HETATM   21  C   UNL     1      -6.932  13.663  66.541  1.00  0.00     2.315 A  
HETATM   22  C   UNL     1      -6.247  12.887  67.476  1.00  0.00    -0.152 A  
HETATM   23  C   UNL     1      -7.502  14.005  69.238  1.00  0.00     0.059 A  
HETATM   24  C   UNL     1      -6.530  13.068  68.831  1.00  0.00    -0.094 A  
BRANCH  22  25
HETATM   25  O   UNL     1      -5.295  11.947  67.131  1.00  0.00    -0.096 OA 
BRANCH  25  26
HETATM   26  C   UNL     1      -5.701  11.171  65.995  1.00  0.00    -0.100 C  
BRANCH  26  27
HETATM   27  C   UNL     1      -5.250   9.713  66.024  1.00  0.00    -0.035 C  
BRANCH  27  28
HETATM   28  N   UNL     1      -6.238   8.892  66.748  1.00  0.00    -0.058 NA 
HETATM   29  C   UNL     1      -5.660   7.771  67.495  1.00  0.00    -0.036 C  
HETATM   30  C   UNL     1      -6.782   7.380  68.432  1.00  0.00    -0.054 C  
HETATM   31  C   UNL     1      -7.392   8.713  68.825  1.00  0.00    -0.083 C  
HETATM   32  C   UNL     1      -7.039   9.670  67.690  1.00  0.00    -0.088 C  
ENDBRANCH  27  28
ENDBRANCH  26  27
ENDBRANCH  25  26
ENDBRANCH  22  25
ENDBRANCH   3  19
TORSDOF 6
ENDMDL
MODEL      178
REMARK 921   NORMALIZED FREE ENERGY PREDICTED BY IDOCK:    6.36 KCAL/MOL
REMARK 922        TOTAL FREE ENERGY PREDICTED BY IDOCK:    6.67 KCAL/MOL
REMARK 923 INTER-LIGAND FREE ENERGY PREDICTED BY IDOCK:    6.78 KCAL/MOL
REMARK 924 INTRA-LIGAND FREE ENERGY PREDICTED BY IDOCK:   -0.11 KCAL/MOL
REMARK 927      BINDING AFFINITY PREDICTED BY RF-SCORE:    0.00 PKD
ROOT
HETATM    1  C   UNL     1      -7.536   4.981  67.443  1.00  0.00    -0.091 C  
HETATM    2  C   UNL     1      -8.414   3.738  67.656  1.00  0.00    -0.104 C  
HETATM    3  C   UNL     1      -8.407   6.122  66.808  1.00  0.00    -0.110 C  
HETATM    4  C   UNL     1      -9.561   4.007  68.628  1.00  0.00    -0.190 C  
HETATM    5  C   UNL     1      -9.817   6.238  67.420  1.00  0.00    -0.154 A  
HETATM    6  C   UNL     1     -10.307   5.282  68.329  1.00  0.00    -0.181 A  
HETATM    7  H   UNL     1     -13.845   7.803  69.311  1.00  0.00     0.000 HD 
HETATM    8  C   UNL     1     -10.637   7.343  67.099  1.00  0.00    -0.413 A  
HETATM    9  C   UNL     1     -11.504   5.538  69.022  1.00  0.00     1.268 A  
HETATM   10  C   UNL     1     -12.226   6.701  68.776  1.00  0.00     2.368 A  
HETATM   11  O   UNL     1     -13.353   7.008  69.480  1.00  0.00     3.148 OA 
HETATM   12  C   UNL     1     -11.815   7.592  67.799  1.00  0.00     2.140 A  
ENDROOT
BRANCH   1  13
HETATM   13  C   UNL     1      -6.690   5.281  68.686  1.00  0.00    -0.050 A  
HETATM   14  C   UNL     1      -6.047   4.294  69.445  1.00  0.00    -0.027 A  
HETATM   15  C   UNL     1      -5.298   5.930  71.062  1.00  0.00    -0.013 A  
HETATM   16  C   UNL     1      -5.863   6.938  70.285  1.00  0.00    -0.024 A  
HETATM   17  C   UNL     1      -6.549   6.617  69.109  1.00  0.00    -0.041 A  
HETATM   18  C   UNL     1      -5.380   4.607  70.634  1.00  0.00     0.000 A  
ENDBRANCH   1  13
BRANCH   3  19
HETATM   19  C   UNL     1      -7.638   7.450  66.730  1.00  0.00    -0.101 A  
HETATM   20  C   UNL     1      -6.481   7.533  65.950  1.00  0.00    -0.045 A  
HETATM   21  C   UNL     1      -5.726   8.687  65.893  1.00  0.00    -0.046 A  
HETATM   22  C   UNL     1      -6.124   9.838  66.573  1.00  0.00    -0.060 A  
HETATM   23  C   UNL     1      -8.049   8.606  67.414  1.00  0.00    -0.102 A  
HETATM   24  C   UNL     1      -7.297   9.795  67.330  1.00  0.00    -0.087 A  
BRANCH  22  25
HETATM   25  O   UNL     1      -5.418  11.025  66.535  1.00  0.00    -0.076 OA 
BRANCH  25  26
HETATM   26  C   UNL     1      -5.928  11.977  67.479  1.00  0.00    -0.110 C  
BRANCH  26  27
HETATM   27  C   UNL     1      -5.425  13.404  67.282  1.00  0.00     0.346 C  
BRANCH  27  28
HETATM   28  N   UNL     1      -5.450  14.131  68.564  1.00  0.00    -0.091 NA 
HETATM   29  C   UNL     1      -6.698  14.856  68.823  1.00  0.00    -0.092 C  
HETATM   30  C   UNL     1      -6.617  15.140  70.307  1.00  0.00    -0.038 C  
HETATM   31  C   UNL     1      -5.986  13.880  70.872  1.00  0.00    -0.162 C  
HETATM   32  C   UNL     1      -5.209  13.262  69.713  1.00  0.00    -0.085 C  
ENDBRANCH  27  28
ENDBRANCH  26  27
ENDBRANCH  25  26
ENDBRANCH  22  25
ENDBRANCH   3  19
TORSDOF 6
ENDMDL
MODEL      179
REMARK 921   NORMALIZED FREE ENERGY PREDICTED BY IDOCK:    8.80 KCAL/MOL
REMARK 922        TOTAL FREE ENERGY PREDICTED BY IDOCK:    9.96 KCAL/MOL
REMARK 923 INTER-LIGAND FREE ENERGY PREDICTED BY IDOCK:    8.77 KCAL/MOL
REMARK 924 INTRA-LIGAND FREE ENERGY PREDICTED BY IDOCK:    1.19 KCAL/MOL
REMARK 927      BINDING AFFINITY PREDICTED BY RF-SCORE:    0.00 PKD
ROOT
HETATM    1  C   UNL     1     -11.578  11.414  67.173  1.00  0.00    -0.182 C  
HETATM    2  C   UNL     1     -12.377  10.106  67.277  1.00  0.00     4.798 C  
HETATM    3  C   UNL     1     -11.330  11.980  68.617  1.00  0.00    -0.329 C  
HETATM    4  C   UNL     1     -11.614   9.029  68.045  1.00  0.00     1.425 C  
HETATM    5  C   UNL     1     -10.957  10.898  69.650  1.00  0.00    -0.311 A  
HETATM    6  C   UNL     1     -11.021   9.527  69.337  1.00  0.00    -0.192 A  
HETATM    7  H   UNL     1      -8.936   8.412  73.111  1.00  0.00     0.000 HD 
HETATM    8  C   UNL     1     -10.505  11.275  70.934  1.00  0.00     2.937 A  
HETATM    9  C   UNL     1     -10.472   8.589  70.230  1.00  0.00    -0.233 A  
HETATM   10  C   UNL     1      -9.915   9.005  71.435  1.00  0.00    -0.318 A  
HETATM   11  O   UNL     1      -9.316   8.127  72.289  1.00  0.00    -0.177 OA 
HETATM   12  C   UNL     1      -9.953  10.338  71.806  1.00  0.00     3.650 A  
ENDROOT
BRANCH   1  13
HETATM   13  C   UNL     1     -10.396  11.267  66.208  1.00  0.00    -0.294 A  
HETATM   14  C   UNL     1     -10.197  12.092  65.093  1.00  0.00    -0.308 A  
HETATM   15  C   UNL     1      -8.277  10.798  64.394  1.00  0.00     0.100 A  
HETATM   16  C   UNL     1      -8.407  10.011  65.535  1.00  0.00    -0.151 A  
HETATM   17  C   UNL     1      -9.454  10.246  66.434  1.00  0.00    -0.218 A  
HETATM   18  C   UNL     1      -9.167  11.848  64.179  1.00  0.00     0.308 A  
ENDBRANCH   1  13
BRANCH   3  19
HETATM   19  C   UNL     1     -10.387  13.193  68.601  1.00  0.00    -0.207 A  
HETATM   20  C   UNL     1      -9.177  13.136  69.300  1.00  0.00     0.868 A  
HETATM   21  C   UNL     1      -8.323  14.218  69.361  1.00  0.00     0.329 A  
HETATM   22  C   UNL     1      -8.614  15.399  68.678  1.00  0.00    -0.179 A  
HETATM   23  C   UNL     1     -10.684  14.376  67.906  1.00  0.00    -0.246 A  
HETATM   24  C   UNL     1      -9.798  15.472  67.941  1.00  0.00    -0.216 A  
BRANCH  22  25
HETATM   25  O   UNL     1      -7.787  16.506  68.688  1.00  0.00    -0.201 OA 
BRANCH  25  26
HETATM   26  C   UNL     1      -6.698  16.364  67.765  1.00  0.00    -0.136 C  
BRANCH  26  27
HETATM   27  C   UNL     1      -6.391  17.613  66.942  1.00  0.00    -0.171 C  
BRANCH  27  28
HETATM   28  N   UNL     1      -7.453  18.617  67.134  1.00  0.00    -0.220 NA 
HETATM   29  C   UNL     1      -8.609  18.449  66.248  1.00  0.00    -0.194 C  
HETATM   30  C   UNL     1      -9.667  19.303  66.914  1.00  0.00    -0.406 C  
HETATM   31  C   UNL     1      -9.424  19.073  68.394  1.00  0.00    -0.417 C  
HETATM   32  C   UNL     1      -7.960  18.652  68.503  1.00  0.00    -0.337 C  
ENDBRANCH  27  28
ENDBRANCH  26  27
ENDBRANCH  25  26
ENDBRANCH  22  25
ENDBRANCH   3  19
TORSDOF 6
ENDMDL
MODEL      180
REMARK 921   NORMALIZED FREE ENERGY PREDICTED BY IDOCK:   12.56 KCAL/MOL
REMARK 922        TOTAL FREE ENERGY PREDICTED BY IDOCK:   15.04 KCAL/MOL
REMARK 923 INTER-LIGAND FREE ENERGY PREDICTED BY IDOCK:    8.40 KCAL/MOL
REMARK 924 INTRA-LIGAND FREE ENERGY PREDICTED BY IDOCK:    6.64 KCAL/MOL
REMARK 927      BINDING AFFINITY PREDICTED BY RF-SCORE:    0.00 PKD
ROOT
HETATM    1  C   UNL     1     -10.839  16.204  67.966  1.00  0.00    -0.333 C  
HETATM    2  C   UNL     1     -11.948  15.145  67.874  1.00  0.00    -0.082 C  
HETATM    3  C   UNL     1     -11.053  17.060  69.265  1.00  0.00     0.114 C  
HETATM    4  C   UNL     1     -11.910  14.173  69.050  1.00  0.00    -0.384 C  
HETATM    5  C   UNL     1     -11.463  16.226  70.495  1.00  0.00    -0.282 A  
HETATM    6  C   UNL     1     -11.782  14.859  70.386  1.00  0.00    -0.347 A  
HETATM    7  H   UNL     1     -11.842  14.360  74.811  1.00  0.00     0.000 HD 
HETATM    8  C   UNL     1     -11.490  16.822  71.775  1.00  0.00     0.237 A  
HETATM    9  C   UNL     1     -11.941  14.091  71.554  1.00  0.00    -0.038 A  
HETATM   10  C   UNL     1     -11.834  14.685  72.807  1.00  0.00     0.042 A  
HETATM   11  O   UNL     1     -11.915  13.954  73.955  1.00  0.00     0.815 OA 
HETATM   12  C   UNL     1     -11.637  16.050  72.925  1.00  0.00    -0.264 A  
ENDROOT
BRANCH   1  13
HETATM   13  C   UNL     1      -9.462  15.591  67.686  1.00  0.00    -0.208 A  
HETATM   14  C   UNL     1      -8.379  16.317  67.171  1.00  0.00    -0.219 A  
HETATM   15  C   UNL     1      -7.016  14.322  67.043  1.00  0.00     0.634 A  
HETATM   16  C   UNL     1      -8.051  13.593  67.625  1.00  0.00    -0.179 A  
HETATM   17  C   UNL     1      -9.258  14.223  67.946  1.00  0.00    -0.194 A  
HETATM   18  C   UNL     1      -7.177  15.689  66.828  1.00  0.00     0.094 A  
ENDBRANCH   1  13
BRANCH   3  19
HETATM   19  C   UNL     1      -9.882  18.023  69.514  1.00  0.00     0.237 A  
HETATM   20  C   UNL     1      -9.484  18.301  70.826  1.00  0.00     4.031 A  
HETATM   21  C   UNL     1      -8.476  19.202  71.101  1.00  0.00     4.436 A  
HETATM   22  C   UNL     1      -7.776  19.832  70.072  1.00  0.00     0.607 A  
HETATM   23  C   UNL     1      -9.180  18.649  68.472  1.00  0.00    -0.377 A  
HETATM   24  C   UNL     1      -8.128  19.545  68.751  1.00  0.00    -0.357 A  
BRANCH  22  25
HETATM   25  O   UNL     1      -6.746  20.726  70.290  1.00  0.00     0.035 OA 
BRANCH  25  26
HETATM   26  C   UNL     1      -5.466  20.138  70.018  1.00  0.00    -0.263 C  
BRANCH  26  27
HETATM   27  C   UNL     1      -5.452  19.143  68.861  1.00  0.00    -0.196 C  
BRANCH  27  28
HETATM   28  N   UNL     1      -6.053  17.865  69.287  1.00  0.00    -0.229 NA 
HETATM   29  C   UNL     1      -5.410  16.677  68.718  1.00  0.00    -0.122 C  
HETATM   30  C   UNL     1      -5.922  15.563  69.605  1.00  0.00    -0.133 C  
HETATM   31  C   UNL     1      -5.946  16.196  70.984  1.00  0.00     0.589 C  
HETATM   32  C   UNL     1      -6.059  17.698  70.739  1.00  0.00     0.742 C  
ENDBRANCH  27  28
ENDBRANCH  26  27
ENDBRANCH  25  26
ENDBRANCH  22  25
ENDBRANCH   3  19
TORSDOF 6
ENDMDL
MODEL      181
REMARK 921   NORMALIZED FREE ENERGY PREDICTED BY IDOCK:   16.87 KCAL/MOL
REMARK 922        TOTAL FREE ENERGY PREDICTED BY IDOCK:   20.86 KCAL/MOL
REMARK 923 INTER-LIGAND FREE ENERGY PREDICTED BY IDOCK:   19.19 KCAL/MOL
REMARK 924 INTRA-LIGAND FREE ENERGY PREDICTED BY IDOCK:    1.67 KCAL/MOL
REMARK 927      BINDING AFFINITY PREDICTED BY RF-SCORE:    0.00 PKD
ROOT
HETATM    1  C   UNL     1      -9.051  17.216  65.428  1.00  0.00     1.092 C  
HETATM    2  C   UNL     1      -8.196  18.465  65.694  1.00  0.00     0.488 C  
HETATM    3  C   UNL     1      -8.167  15.935  65.634  1.00  0.00     1.436 C  
HETATM    4  C   UNL     1      -7.684  18.513  67.131  1.00  0.00    -0.232 C  
HETATM    5  C   UNL     1      -7.234  16.017  66.859  1.00  0.00    -0.212 A  
HETATM    6  C   UNL     1      -7.084  17.209  67.592  1.00  0.00    -0.169 A  
HETATM    7  H   UNL     1      -4.821  15.123  70.812  1.00  0.00     0.000 HD 
HETATM    8  C   UNL     1      -6.534  14.869  67.290  1.00  0.00     0.183 A  
HETATM    9  C   UNL     1      -6.395  17.183  68.819  1.00  0.00    -0.175 A  
HETATM   10  C   UNL     1      -5.825  16.001  69.281  1.00  0.00    -0.123 A  
HETATM   11  O   UNL     1      -5.211  15.930  70.497  1.00  0.00    -0.152 OA 
HETATM   12  C   UNL     1      -5.865  14.851  68.512  1.00  0.00    -0.097 A  
ENDROOT
BRANCH   1  13
HETATM   13  C   UNL     1     -10.410  17.315  66.131  1.00  0.00    -0.320 A  
HETATM   14  C   UNL     1     -10.559  17.592  67.497  1.00  0.00    -0.333 A  
HETATM   15  C   UNL     1     -12.957  17.301  67.363  1.00  0.00     6.239 A  
HETATM   16  C   UNL     1     -12.843  17.098  65.990  1.00  0.00     7.646 A  
HETATM   17  C   UNL     1     -11.583  17.109  65.381  1.00  0.00     1.392 A  
HETATM   18  C   UNL     1     -11.813  17.560  68.115  1.00  0.00     1.627 A  
ENDBRANCH   1  13
BRANCH   3  19
HETATM   19  C   UNL     1      -9.000  14.647  65.556  1.00  0.00     1.004 A  
HETATM   20  C   UNL     1      -9.992  14.525  64.578  1.00  0.00     0.624 A  
HETATM   21  C   UNL     1     -10.803  13.411  64.505  1.00  0.00    -0.419 A  
HETATM   22  C   UNL     1     -10.627  12.337  65.376  1.00  0.00    -0.274 A  
HETATM   23  C   UNL     1      -8.812  13.568  66.435  1.00  0.00     0.108 A  
HETATM   24  C   UNL     1      -9.619  12.416  66.340  1.00  0.00    -0.249 A  
BRANCH  22  25
HETATM   25  O   UNL     1     -11.396  11.190  65.334  1.00  0.00    -0.011 OA 
BRANCH  25  26
HETATM   26  C   UNL     1     -11.546  10.602  66.634  1.00  0.00     0.886 C  
BRANCH  26  27
HETATM   27  C   UNL     1     -10.276  10.595  67.482  1.00  0.00    -0.199 C  
BRANCH  27  28
HETATM   28  N   UNL     1     -10.482   9.778  68.692  1.00  0.00    -0.201 NA 
HETATM   29  C   UNL     1      -9.662  10.181  69.839  1.00  0.00    -0.150 C  
HETATM   30  C   UNL     1     -10.346   9.489  70.998  1.00  0.00    -0.353 C  
HETATM   31  C   UNL     1     -11.820   9.606  70.656  1.00  0.00    -0.331 C  
HETATM   32  C   UNL     1     -11.873   9.766  69.139  1.00  0.00     0.464 C  
ENDBRANCH  27  28
ENDBRANCH  26  27
ENDBRANCH  25  26
ENDBRANCH  22  25
ENDBRANCH   3  19
TORSDOF 6
ENDMDL
MODEL      182
REMARK 921   NORMALIZED FREE ENERGY PREDICTED BY IDOCK:   18.31 KCAL/MOL
REMARK 922        TOTAL FREE ENERGY PREDICTED BY IDOCK:   22.81 KCAL/MOL
REMARK 923 INTER-LIGAND FREE ENERGY PREDICTED BY IDOCK:   20.34 KCAL/MOL
REMARK 924 INTRA-LIGAND FREE ENERGY PREDICTED BY IDOCK:    2.46 KCAL/MOL
REMARK 927      BINDING AFFINITY PREDICTED BY RF-SCORE:    0.00 PKD
ROOT
HETATM    1  C   UNL     1      -9.074  17.238  65.411  1.00  0.00     1.155 C  
HETATM    2  C   UNL     1      -8.200  18.497  65.513  1.00  0.00     0.784 C  
HETATM    3  C   UNL     1      -8.207  15.980  65.772  1.00  0.00     0.837 C  
HETATM    4  C   UNL     1      -7.677  18.718  66.930  1.00  0.00    -0.246 C  
HETATM    5  C   UNL     1      -7.265  16.202  66.973  1.00  0.00    -0.256 A  
HETATM    6  C   UNL     1      -7.093  17.474  67.549  1.00  0.00    -0.184 A  
HETATM    7  H   UNL     1      -4.839  15.778  70.996  1.00  0.00     0.000 HD 
HETATM    8  C   UNL     1      -6.578  15.106  67.543  1.00  0.00    -0.167 A  
HETATM    9  C   UNL     1      -6.397  17.593  68.766  1.00  0.00    -0.200 A  
HETATM   10  C   UNL     1      -5.840  16.471  69.371  1.00  0.00    -0.167 A  
HETATM   11  O   UNL     1      -5.220  16.544  70.583  1.00  0.00    -0.194 OA 
HETATM   12  C   UNL     1      -5.902  15.233  68.754  1.00  0.00    -0.088 A  
ENDROOT
BRANCH   1  13
HETATM   13  C   UNL     1     -10.427  17.444  66.102  1.00  0.00    -0.284 A  
HETATM   14  C   UNL     1     -10.563  17.881  67.427  1.00  0.00    -0.370 A  
HETATM   15  C   UNL     1     -12.966  17.624  67.335  1.00  0.00     6.856 A  
HETATM   16  C   UNL     1     -12.864  17.260  65.995  1.00  0.00     8.125 A  
HETATM   17  C   UNL     1     -11.608  17.175  65.385  1.00  0.00     1.392 A  
HETATM   18  C   UNL     1     -11.814  17.947  68.048  1.00  0.00     2.024 A  
ENDBRANCH   1  13
BRANCH   3  19
HETATM   19  C   UNL     1      -9.059  14.705  65.862  1.00  0.00     0.117 A  
HETATM   20  C   UNL     1     -10.045  14.465  64.900  1.00  0.00    -0.253 A  
HETATM   21  C   UNL     1     -10.872  13.362  64.970  1.00  0.00    -0.337 A  
HETATM   22  C   UNL     1     -10.718  12.414  65.981  1.00  0.00    -0.261 A  
HETATM   23  C   UNL     1      -8.894  13.752  66.880  1.00  0.00    -0.203 A  
HETATM   24  C   UNL     1      -9.717  12.609  66.934  1.00  0.00    -0.234 A  
BRANCH  22  25
HETATM   25  O   UNL     1     -11.505  11.283  66.087  1.00  0.00    -0.217 OA 
BRANCH  25  26
HETATM   26  C   UNL     1     -10.783  10.186  66.666  1.00  0.00    -0.086 C  
BRANCH  26  27
HETATM   27  C   UNL     1      -9.339  10.050  66.192  1.00  0.00    -0.173 C  
BRANCH  27  28
HETATM   28  N   UNL     1      -9.256  10.308  64.743  1.00  0.00    -0.218 NA 
HETATM   29  C   UNL     1      -8.151   9.619  64.070  1.00  0.00    -0.152 C  
HETATM   30  C   UNL     1      -8.539   9.714  62.609  1.00  0.00    -0.206 C  
HETATM   31  C   UNL     1     -10.045   9.531  62.633  1.00  0.00     1.872 C  
HETATM   32  C   UNL     1     -10.483   9.954  64.033  1.00  0.00     1.674 C  
ENDBRANCH  27  28
ENDBRANCH  26  27
ENDBRANCH  25  26
ENDBRANCH  22  25
ENDBRANCH   3  19
TORSDOF 6
ENDMDL
MODEL      183
REMARK 921   NORMALIZED FREE ENERGY PREDICTED BY IDOCK:   21.68 KCAL/MOL
REMARK 922        TOTAL FREE ENERGY PREDICTED BY IDOCK:   27.36 KCAL/MOL
REMARK 923 INTER-LIGAND FREE ENERGY PREDICTED BY IDOCK:   21.54 KCAL/MOL
REMARK 924 INTRA-LIGAND FREE ENERGY PREDICTED BY IDOCK:    5.82 KCAL/MOL
REMARK 927      BINDING AFFINITY PREDICTED BY RF-SCORE:    0.00 PKD
ROOT
HETATM    1  C   UNL     1     -12.427  12.059  67.379  1.00  0.00     1.256 C  
HETATM    2  C   UNL     1     -13.823  12.336  67.957  1.00  0.00    10.447 C  
HETATM    3  C   UNL     1     -11.568  13.371  67.459  1.00  0.00    -0.382 C  
HETATM    4  C   UNL     1     -13.764  12.731  69.431  1.00  0.00     4.892 C  
HETATM    5  C   UNL     1     -11.744  14.146  68.780  1.00  0.00    -0.380 A  
HETATM    6  C   UNL     1     -12.723  13.781  69.724  1.00  0.00     0.089 A  
HETATM    7  H   UNL     1     -11.041  16.559  72.772  1.00  0.00     0.000 HD 
HETATM    8  C   UNL     1     -10.888  15.227  69.083  1.00  0.00    -0.250 A  
HETATM    9  C   UNL     1     -12.708  14.375  70.999  1.00  0.00    -0.416 A  
HETATM   10  C   UNL     1     -11.766  15.350  71.311  1.00  0.00    -0.380 A  
HETATM   11  O   UNL     1     -11.684  15.894  72.559  1.00  0.00    -0.450 OA 
HETATM   12  C   UNL     1     -10.874  15.800  70.353  1.00  0.00    -0.345 A  
ENDROOT
BRANCH   1  13
HETATM   13  C   UNL     1     -11.851  10.747  67.924  1.00  0.00     0.139 A  
HETATM   14  C   UNL     1     -11.105   9.846  67.152  1.00  0.00    -0.006 A  
HETATM   15  C   UNL     1     -10.984   8.271  68.984  1.00  0.00     0.095 A  
HETATM   16  C   UNL     1     -11.658   9.181  69.794  1.00  0.00     0.208 A  
HETATM   17  C   UNL     1     -12.084  10.407  69.270  1.00  0.00    -0.022 A  
HETATM   18  C   UNL     1     -10.697   8.610  67.664  1.00  0.00    -0.194 A  
ENDBRANCH   1  13
BRANCH   3  19
HETATM   19  C   UNL     1     -10.106  13.122  67.060  1.00  0.00    -0.241 A  
HETATM   20  C   UNL     1      -9.224  14.202  66.962  1.00  0.00    -0.249 A  
HETATM   21  C   UNL     1      -7.916  14.035  66.554  1.00  0.00     0.871 A  
HETATM   22  C   UNL     1      -7.409  12.766  66.273  1.00  0.00     1.718 A  
HETATM   23  C   UNL     1      -9.602  11.840  66.785  1.00  0.00    -0.212 A  
HETATM   24  C   UNL     1      -8.258  11.664  66.399  1.00  0.00    -0.052 A  
BRANCH  22  25
HETATM   25  O   UNL     1      -6.105  12.539  65.880  1.00  0.00     1.724 OA 
BRANCH  25  26
HETATM   26  C   UNL     1      -5.166  13.174  66.760  1.00  0.00     1.266 C  
BRANCH  26  27
HETATM   27  C   UNL     1      -5.746  14.306  67.603  1.00  0.00     0.030 C  
BRANCH  27  28
HETATM   28  N   UNL     1      -6.272  13.772  68.873  1.00  0.00    -0.086 NA 
HETATM   29  C   UNL     1      -5.410  14.017  70.033  1.00  0.00    -0.099 C  
HETATM   30  C   UNL     1      -6.339  13.756  71.200  1.00  0.00     0.401 C  
HETATM   31  C   UNL     1      -7.665  14.323  70.726  1.00  0.00     2.202 C  
HETATM   32  C   UNL     1      -7.596  14.294  69.201  1.00  0.00    -0.038 C  
ENDBRANCH  27  28
ENDBRANCH  26  27
ENDBRANCH  25  26
ENDBRANCH  22  25
ENDBRANCH   3  19
TORSDOF 6
ENDMDL
MODEL      184
REMARK 921   NORMALIZED FREE ENERGY PREDICTED BY IDOCK:   22.45 KCAL/MOL
REMARK 922        TOTAL FREE ENERGY PREDICTED BY IDOCK:   28.40 KCAL/MOL
REMARK 923 INTER-LIGAND FREE ENERGY PREDICTED BY IDOCK:   29.10 KCAL/MOL
REMARK 924 INTRA-LIGAND FREE ENERGY PREDICTED BY IDOCK:   -0.70 KCAL/MOL
REMARK 927      BINDING AFFINITY PREDICTED BY RF-SCORE:    0.00 PKD
ROOT
HETATM    1  C   UNL     1     -10.570   5.946  66.085  1.00  0.00     0.057 C  
HETATM    2  C   UNL     1     -11.975   5.336  65.964  1.00  0.00     2.701 C  
HETATM    3  C   UNL     1     -10.677   7.351  66.777  1.00  0.00    -0.202 C  
HETATM    4  C   UNL     1     -12.617   5.104  67.329  1.00  0.00    10.810 C  
HETATM    5  C   UNL     1     -11.665   7.384  67.960  1.00  0.00     1.393 A  
HETATM    6  C   UNL     1     -12.506   6.293  68.249  1.00  0.00     5.514 A  
HETATM    7  H   UNL     1     -13.746   8.080  72.136  1.00  0.00     0.000 HD 
HETATM    8  C   UNL     1     -11.715   8.514  68.806  1.00  0.00     1.550 A  
HETATM    9  C   UNL     1     -13.231   6.279  69.455  1.00  0.00     7.026 A  
HETATM   10  C   UNL     1     -13.159   7.357  70.331  1.00  0.00     0.776 A  
HETATM   11  O   UNL     1     -13.796   7.344  71.537  1.00  0.00    -0.390 OA 
HETATM   12  C   UNL     1     -12.428   8.486  70.002  1.00  0.00     1.234 A  
ENDROOT
BRANCH   1  13
HETATM   13  C   UNL     1      -9.564   4.919  66.617  1.00  0.00    -0.171 A  
HETATM   14  C   UNL     1      -9.548   4.461  67.941  1.00  0.00    -0.205 A  
HETATM   15  C   UNL     1      -7.554   3.154  67.537  1.00  0.00    -0.065 A  
HETATM   16  C   UNL     1      -7.591   3.533  66.198  1.00  0.00    -0.081 A  
HETATM   17  C   UNL     1      -8.587   4.403  65.743  1.00  0.00    -0.115 A  
HETATM   18  C   UNL     1      -8.542   3.609  68.407  1.00  0.00    -0.120 A  
ENDBRANCH   1  13
BRANCH   3  19
HETATM   19  C   UNL     1      -9.294   7.941  67.089  1.00  0.00    -0.190 A  
HETATM   20  C   UNL     1      -8.538   7.411  68.139  1.00  0.00    -0.123 A  
HETATM   21  C   UNL     1      -7.315   7.944  68.493  1.00  0.00    -0.097 A  
HETATM   22  C   UNL     1      -6.761   9.004  67.776  1.00  0.00    -0.065 A  
HETATM   23  C   UNL     1      -8.741   9.006  66.359  1.00  0.00    -0.149 A  
HETATM   24  C   UNL     1      -7.477   9.530  66.698  1.00  0.00    -0.093 A  
BRANCH  22  25
HETATM   25  O   UNL     1      -5.533   9.563  68.074  1.00  0.00    -0.040 OA 
BRANCH  25  26
HETATM   26  C   UNL     1      -5.614  10.461  69.190  1.00  0.00    -0.037 C  
BRANCH  26  27
HETATM   27  C   UNL     1      -6.983  11.103  69.396  1.00  0.00    -0.124 C  
BRANCH  27  28
HETATM   28  N   UNL     1      -7.031  12.416  68.726  1.00  0.00    -0.092 NA 
HETATM   29  C   UNL     1      -7.939  13.380  69.353  1.00  0.00     0.689 C  
HETATM   30  C   UNL     1      -7.494  14.697  68.753  1.00  0.00    -0.135 C  
HETATM   31  C   UNL     1      -5.985  14.556  68.678  1.00  0.00    -0.089 C  
HETATM   32  C   UNL     1      -5.720  13.054  68.635  1.00  0.00    -0.069 C  
ENDBRANCH  27  28
ENDBRANCH  26  27
ENDBRANCH  25  26
ENDBRANCH  22  25
ENDBRANCH   3  19
TORSDOF 6
ENDMDL
MODEL      185
REMARK 921   NORMALIZED FREE ENERGY PREDICTED BY IDOCK:   48.23 KCAL/MOL
REMARK 922        TOTAL FREE ENERGY PREDICTED BY IDOCK:   63.21 KCAL/MOL
REMARK 923 INTER-LIGAND FREE ENERGY PREDICTED BY IDOCK:   59.94 KCAL/MOL
REMARK 924 INTRA-LIGAND FREE ENERGY PREDICTED BY IDOCK:    3.28 KCAL/MOL
REMARK 927      BINDING AFFINITY PREDICTED BY RF-SCORE:    0.00 PKD
ROOT
HETATM    1  C   UNL     1      -9.842  16.853  66.366  1.00  0.00    -0.319 C  
HETATM    2  C   UNL     1      -8.881  18.044  66.229  1.00  0.00    -0.194 C  
HETATM    3  C   UNL     1      -9.071  15.641  66.998  1.00  0.00    -0.239 C  
HETATM    4  C   UNL     1      -8.357  18.516  67.583  1.00  0.00    -0.268 C  
HETATM    5  C   UNL     1      -8.127  16.040  68.150  1.00  0.00    -0.147 A  
HETATM    6  C   UNL     1      -7.870  17.389  68.457  1.00  0.00    -0.268 A  
HETATM    7  H   UNL     1      -5.776  16.290  72.232  1.00  0.00     0.000 HD 
HETATM    8  C   UNL     1      -7.526  15.042  68.948  1.00  0.00    -0.143 A  
HETATM    9  C   UNL     1      -7.178  17.709  69.641  1.00  0.00     0.338 A  
HETATM   10  C   UNL     1      -6.709  16.700  70.476  1.00  0.00     1.286 A  
HETATM   11  O   UNL     1      -6.097  16.979  71.661  1.00  0.00     1.474 OA 
HETATM   12  C   UNL     1      -6.854  15.369  70.124  1.00  0.00     0.035 A  
ENDROOT
BRANCH   1  13
HETATM   13  C   UNL     1     -11.183  17.290  66.968  1.00  0.00     0.448 A  
HETATM   14  C   UNL     1     -11.302  17.973  68.185  1.00  0.00     0.741 A  
HETATM   15  C   UNL     1     -13.717  17.894  68.072  1.00  0.00     9.684 A  
HETATM   16  C   UNL     1     -13.626  17.282  66.824  1.00  0.00    11.189 A  
HETATM   17  C   UNL     1     -12.372  16.987  66.277  1.00  0.00     4.325 A  
HETATM   18  C   UNL     1     -12.552  18.251  68.747  1.00  0.00     8.083 A  
ENDBRANCH   1  13
BRANCH   3  19
HETATM   19  C   UNL     1     -10.014  14.473  67.327  1.00  0.00    -0.236 A  
HETATM   20  C   UNL     1      -9.765  13.210  66.780  1.00  0.00    -0.246 A  
HETATM   21  C   UNL     1     -10.614  12.145  67.001  1.00  0.00    -0.256 A  
HETATM   22  C   UNL     1     -11.729  12.277  67.828  1.00  0.00    -0.337 A  
HETATM   23  C   UNL     1     -11.131  14.613  68.165  1.00  0.00    -0.285 A  
HETATM   24  C   UNL     1     -11.981  13.517  68.418  1.00  0.00    -0.378 A  
BRANCH  22  25
HETATM   25  O   UNL     1     -12.600  11.239  68.099  1.00  0.00     0.115 OA 
BRANCH  25  26
HETATM   26  C   UNL     1     -13.638  11.639  69.006  1.00  0.00     5.177 C  
BRANCH  26  27
HETATM   27  C   UNL     1     -13.185  12.579  70.120  1.00  0.00     1.199 C  
BRANCH  27  28
HETATM   28  N   UNL     1     -11.887  12.135  70.660  1.00  0.00    -0.131 NA 
HETATM   29  C   UNL     1     -11.649  12.523  72.053  1.00  0.00     3.837 C  
HETATM   30  C   UNL     1     -10.501  11.624  72.459  1.00  0.00    14.101 C  
HETATM   31  C   UNL     1     -10.820  10.313  71.764  1.00  0.00     1.708 C  
HETATM   32  C   UNL     1     -11.705  10.688  70.578  1.00  0.00    -0.356 C  
ENDBRANCH  27  28
ENDBRANCH  26  27
ENDBRANCH  25  26
ENDBRANCH  22  25
ENDBRANCH   3  19
TORSDOF 6
ENDMDL
MODEL      186
REMARK 921   NORMALIZED FREE ENERGY PREDICTED BY IDOCK:   51.49 KCAL/MOL
REMARK 922        TOTAL FREE ENERGY PREDICTED BY IDOCK:   67.62 KCAL/MOL
REMARK 923 INTER-LIGAND FREE ENERGY PREDICTED BY IDOCK:   65.75 KCAL/MOL
REMARK 924 INTRA-LIGAND FREE ENERGY PREDICTED BY IDOCK:    1.88 KCAL/MOL
REMARK 927      BINDING AFFINITY PREDICTED BY RF-SCORE:    0.00 PKD
ROOT
HETATM    1  C   UNL     1      -6.478  18.284  67.588  1.00  0.00    -0.192 C  
HETATM    2  C   UNL     1      -6.475  19.810  67.773  1.00  0.00    -0.257 C  
HETATM    3  C   UNL     1      -6.920  17.605  68.933  1.00  0.00    -0.251 C  
HETATM    4  C   UNL     1      -7.865  20.349  68.099  1.00  0.00    -0.062 C  
HETATM    5  C   UNL     1      -8.089  18.326  69.635  1.00  0.00     0.794 A  
HETATM    6  C   UNL     1      -8.567  19.569  69.181  1.00  0.00    -0.113 A  
HETATM    7  H   UNL     1     -12.102  19.370  71.884  1.00  0.00     0.000 HD 
HETATM    8  C   UNL     1      -8.730  17.721  70.739  1.00  0.00     5.626 A  
HETATM    9  C   UNL     1      -9.763  20.085  69.712  1.00  0.00     0.287 A  
HETATM   10  C   UNL     1     -10.442  19.399  70.714  1.00  0.00     2.100 A  
HETATM   11  O   UNL     1     -11.638  19.839  71.200  1.00  0.00     6.205 OA 
HETATM   12  C   UNL     1      -9.919  18.235  71.250  1.00  0.00     4.323 A  
ENDROOT
BRANCH   1  13
HETATM   13  C   UNL     1      -7.169  17.885  66.280  1.00  0.00    -0.324 A  
HETATM   14  C   UNL     1      -8.233  18.600  65.714  1.00  0.00     0.239 A  
HETATM   15  C   UNL     1      -8.486  16.962  63.953  1.00  0.00    13.452 A  
HETATM   16  C   UNL     1      -7.383  16.274  64.451  1.00  0.00    11.798 A  
HETATM   17  C   UNL     1      -6.730  16.733  65.600  1.00  0.00     1.551 A  
HETATM   18  C   UNL     1      -8.904  18.134  64.579  1.00  0.00     6.798 A  
ENDBRANCH   1  13
BRANCH   3  19
HETATM   19  C   UNL     1      -7.115  16.090  68.771  1.00  0.00    -0.146 A  
HETATM   20  C   UNL     1      -6.772  15.234  69.822  1.00  0.00    -0.176 A  
HETATM   21  C   UNL     1      -6.877  13.863  69.704  1.00  0.00     0.011 A  
HETATM   22  C   UNL     1      -7.382  13.281  68.542  1.00  0.00    -0.115 A  
HETATM   23  C   UNL     1      -7.630  15.512  67.600  1.00  0.00    -0.182 A  
HETATM   24  C   UNL     1      -7.768  14.114  67.489  1.00  0.00    -0.201 A  
BRANCH  22  25
HETATM   25  O   UNL     1      -7.527  11.917  68.377  1.00  0.00    -0.090 OA 
BRANCH  25  26
HETATM   26  C   UNL     1      -8.873  11.491  68.629  1.00  0.00    -0.106 C  
BRANCH  26  27
HETATM   27  C   UNL     1      -9.178  11.163  70.088  1.00  0.00     1.932 C  
BRANCH  27  28
HETATM   28  N   UNL     1     -10.040  12.208  70.671  1.00  0.00     4.265 NA 
HETATM   29  C   UNL     1      -9.369  13.494  70.885  1.00  0.00     7.072 C  
HETATM   30  C   UNL     1     -10.529  14.447  71.079  1.00  0.00     1.597 C  
HETATM   31  C   UNL     1     -11.567  13.943  70.092  1.00  0.00    -0.249 C  
HETATM   32  C   UNL     1     -11.232  12.471  69.869  1.00  0.00     0.164 C  
ENDBRANCH  27  28
ENDBRANCH  26  27
ENDBRANCH  25  26
ENDBRANCH  22  25
ENDBRANCH   3  19
TORSDOF 6
ENDMDL
