MODEL        1
REMARK 921   NORMALIZED FREE ENERGY PREDICTED BY IDOCK:   -5.90 KCAL/MOL
REMARK 922        TOTAL FREE ENERGY PREDICTED BY IDOCK:  -16.89 KCAL/MOL
REMARK 923 INTER-LIGAND FREE ENERGY PREDICTED BY IDOCK:  -12.11 KCAL/MOL
REMARK 924 INTRA-LIGAND FREE ENERGY PREDICTED BY IDOCK:   -4.78 KCAL/MOL
REMARK 927      BINDING AFFINITY PREDICTED BY RF-SCORE:    0.00 PKD
ROOT
HETATM    1  O   UNL     1     -12.138  11.444  67.208  1.00  0.00    -0.464 OA 
HETATM    2  C   UNL     1     -11.984  12.713  67.839  1.00  0.00    -0.249 C  
HETATM    3  H   UNL     1     -12.715  10.891  67.721  1.00  0.00     0.000 HD 
ENDROOT
BRANCH   2   4
HETATM    4  C   UNL     1     -11.048  13.611  67.006  1.00  0.00    -0.313 C  
BRANCH   4   5
HETATM    5  C   UNL     1     -11.545  15.044  66.789  1.00  0.00    -0.209 C  
BRANCH   5   6
HETATM    6  C   UNL     1     -10.455  16.133  66.660  1.00  0.00    -0.300 C  
HETATM    7  H   UNL     1      -8.289  18.817  68.730  1.00  0.00     0.000 HD 
HETATM    8  C   UNL     1      -9.914  16.819  67.986  1.00  0.00    -0.272 C  
HETATM    9  C   UNL     1     -11.030  17.307  65.857  1.00  0.00     0.168 C  
HETATM   10  C   UNL     1     -10.063  18.425  66.115  1.00  0.00    -0.376 C  
HETATM   11  O   UNL     1     -11.093  17.039  64.469  1.00  0.00    -1.098 OA 
HETATM   12  O   UNL     1      -8.478  18.881  67.801  1.00  0.00    -0.276 OA 
HETATM   13  H   UNL     1     -11.450  17.766  63.972  1.00  0.00     0.000 HD 
HETATM   14  C   UNL     1      -9.762  18.324  67.596  1.00  0.00    -0.300 C  
BRANCH   8  15
HETATM   15  C   UNL     1      -8.638  16.167  68.608  1.00  0.00    -0.210 C  
BRANCH  15  16
HETATM   16  C   UNL     1      -7.707  15.481  67.625  1.00  0.00    -0.178 C  
HETATM   17  C   UNL     1      -7.247  14.215  67.563  1.00  0.00    -0.188 C  
BRANCH  17  18
HETATM   18  C   UNL     1      -7.517  13.066  68.491  1.00  0.00    -0.123 C  
BRANCH  18  19
HETATM   19  C   UNL     1      -7.991  11.810  67.742  1.00  0.00    -0.141 C  
BRANCH  19  20
HETATM   20  C   UNL     1      -8.107  10.566  68.613  1.00  0.00    -0.127 C  
BRANCH  20  21
HETATM   21  C   UNL     1      -9.172   9.647  68.100  1.00  0.00    -0.125 C  
HETATM   22  O   UNL     1      -9.449   8.538  68.540  1.00  0.00    -0.142 OA 
BRANCH  21  23
HETATM   23  O   UNL     1      -9.688  10.192  66.965  1.00  0.00    -0.169 OA 
BRANCH  23  24
HETATM   24  C   UNL     1      -9.780   9.211  65.953  1.00  0.00    -0.266 C  
BRANCH  24  25
HETATM   25  C   UNL     1      -9.096   9.628  64.668  1.00  0.00    -0.286 C  
BRANCH  25  26
HETATM   26  C   UNL     1      -9.398  11.072  64.276  1.00  0.00    -0.232 C  
BRANCH  26  27
HETATM   27  C   UNL     1     -10.810  11.313  63.722  1.00  0.00    -0.350 C  
BRANCH  27  28
HETATM   28  O   UNL     1     -11.006  12.700  63.553  1.00  0.00    -0.441 OA 
HETATM   29  N   UNL     1     -12.342  13.091  63.811  1.00  0.00    -0.415 N  
HETATM   30  O   UNL     1     -12.531  14.292  63.602  1.00  0.00    -0.816 OA 
HETATM   31  O   UNL     1     -13.121  12.226  64.189  1.00  0.00    -0.749 OA 
ENDBRANCH  27  28
ENDBRANCH  26  27
ENDBRANCH  25  26
ENDBRANCH  24  25
ENDBRANCH  23  24
ENDBRANCH  21  23
ENDBRANCH  20  21
ENDBRANCH  19  20
ENDBRANCH  18  19
ENDBRANCH  17  18
ENDBRANCH  15  16
ENDBRANCH   8  15
ENDBRANCH   5   6
ENDBRANCH   4   5
ENDBRANCH   2   4
BRANCH   2  32
HETATM   32  C   UNL     1     -11.413  12.446  69.225  1.00  0.00    -0.349 C  
BRANCH  32  33
HETATM   33  C   UNL     1     -12.504  12.419  70.289  1.00  0.00    -0.152 C  
BRANCH  33  34
HETATM   34  C   UNL     1     -12.519  13.724  71.015  1.00  0.00    -0.458 A  
HETATM   35  C   UNL     1     -11.542  15.902  71.397  1.00  0.00    -0.529 A  
HETATM   36  C   UNL     1     -13.346  15.108  72.801  1.00  0.00    -0.596 A  
HETATM   37  C   UNL     1     -11.587  14.715  70.672  1.00  0.00    -0.305 A  
HETATM   38  C   UNL     1     -13.396  13.921  72.081  1.00  0.00    -0.555 A  
HETATM   39  C   UNL     1     -12.421  16.098  72.460  1.00  0.00    -0.518 A  
ENDBRANCH  33  34
ENDBRANCH  32  33
ENDBRANCH   2  32
TORSDOF 18
ENDMDL
MODEL        2
REMARK 921   NORMALIZED FREE ENERGY PREDICTED BY IDOCK:   -5.78 KCAL/MOL
REMARK 922        TOTAL FREE ENERGY PREDICTED BY IDOCK:  -16.64 KCAL/MOL
REMARK 923 INTER-LIGAND FREE ENERGY PREDICTED BY IDOCK:  -13.57 KCAL/MOL
REMARK 924 INTRA-LIGAND FREE ENERGY PREDICTED BY IDOCK:   -3.07 KCAL/MOL
REMARK 927      BINDING AFFINITY PREDICTED BY RF-SCORE:    0.00 PKD
ROOT
HETATM    1  O   UNL     1     -11.517   9.983  67.499  1.00  0.00    -0.495 OA 
HETATM    2  C   UNL     1     -11.432  11.117  68.359  1.00  0.00    -0.306 C  
HETATM    3  H   UNL     1     -12.027   9.295  67.912  1.00  0.00     0.000 HD 
ENDROOT
BRANCH   2   4
HETATM    4  C   UNL     1     -10.606  12.232  67.688  1.00  0.00    -0.238 C  
BRANCH   4   5
HETATM    5  C   UNL     1     -10.094  11.906  66.281  1.00  0.00    -0.249 C  
BRANCH   5   6
HETATM    6  C   UNL     1     -10.523  12.876  65.156  1.00  0.00    -0.326 C  
HETATM    7  H   UNL     1     -12.170  16.472  64.425  1.00  0.00     0.000 HD 
HETATM    8  C   UNL     1     -11.066  14.311  65.564  1.00  0.00    -0.323 C  
HETATM    9  C   UNL     1     -11.699  12.250  64.395  1.00  0.00    -0.365 C  
HETATM   10  C   UNL     1     -12.267  13.396  63.609  1.00  0.00    -0.480 C  
HETATM   11  O   UNL     1     -11.292  11.220  63.514  1.00  0.00    -0.647 OA 
HETATM   12  O   UNL     1     -12.178  15.743  63.815  1.00  0.00    -0.699 OA 
HETATM   13  H   UNL     1     -12.020  10.833  63.043  1.00  0.00     0.000 HD 
HETATM   14  C   UNL     1     -12.255  14.557  64.581  1.00  0.00    -0.460 C  
BRANCH   8  15
HETATM   15  C   UNL     1      -9.996  15.449  65.603  1.00  0.00    -0.396 C  
BRANCH  15  16
HETATM   16  C   UNL     1      -8.795  15.189  66.494  1.00  0.00    -0.312 C  
HETATM   17  C   UNL     1      -7.763  15.976  66.858  1.00  0.00    -0.279 C  
BRANCH  17  18
HETATM   18  C   UNL     1      -7.475  17.397  66.463  1.00  0.00    -0.315 C  
BRANCH  18  19
HETATM   19  C   UNL     1      -7.387  18.333  67.678  1.00  0.00    -0.211 C  
BRANCH  19  20
HETATM   20  C   UNL     1      -8.688  18.474  68.458  1.00  0.00    -0.352 C  
BRANCH  20  21
HETATM   21  C   UNL     1      -9.814  18.876  67.558  1.00  0.00    -0.327 C  
HETATM   22  O   UNL     1      -9.952  19.961  67.006  1.00  0.00    -0.371 OA 
BRANCH  21  23
HETATM   23  O   UNL     1     -10.740  17.878  67.569  1.00  0.00    -0.389 OA 
BRANCH  23  24
HETATM   24  C   UNL     1     -10.722  17.212  68.815  1.00  0.00    -0.289 C  
BRANCH  24  25
HETATM   25  C   UNL     1     -11.629  16.001  68.845  1.00  0.00    -0.354 C  
BRANCH  25  26
HETATM   26  C   UNL     1     -11.155  14.928  69.823  1.00  0.00    -0.300 C  
BRANCH  26  27
HETATM   27  C   UNL     1     -12.275  14.184  70.564  1.00  0.00    -0.361 C  
BRANCH  27  28
HETATM   28  O   UNL     1     -12.304  14.615  71.906  1.00  0.00    -0.333 OA 
HETATM   29  N   UNL     1     -13.462  15.372  72.205  1.00  0.00    -0.429 N  
HETATM   30  O   UNL     1     -13.458  15.805  73.360  1.00  0.00    -0.523 OA 
HETATM   31  O   UNL     1     -14.293  15.509  71.317  1.00  0.00    -0.536 OA 
ENDBRANCH  27  28
ENDBRANCH  26  27
ENDBRANCH  25  26
ENDBRANCH  24  25
ENDBRANCH  23  24
ENDBRANCH  21  23
ENDBRANCH  20  21
ENDBRANCH  19  20
ENDBRANCH  18  19
ENDBRANCH  17  18
ENDBRANCH  15  16
ENDBRANCH   8  15
ENDBRANCH   5   6
ENDBRANCH   4   5
ENDBRANCH   2   4
BRANCH   2  32
HETATM   32  C   UNL     1     -10.780  10.639  69.649  1.00  0.00    -0.290 C  
BRANCH  32  33
HETATM   33  C   UNL     1     -11.722  10.769  70.840  1.00  0.00    -0.334 C  
BRANCH  33  34
HETATM   34  C   UNL     1     -12.374   9.451  71.101  1.00  0.00    -0.386 A  
HETATM   35  C   UNL     1     -12.266   7.036  71.071  1.00  0.00    -0.419 A  
HETATM   36  C   UNL     1     -14.339   8.160  71.613  1.00  0.00    -0.570 A  
HETATM   37  C   UNL     1     -11.643   8.270  70.907  1.00  0.00    -0.282 A  
HETATM   38  C   UNL     1     -13.722   9.394  71.451  1.00  0.00    -0.309 A  
HETATM   39  C   UNL     1     -13.613   6.982  71.423  1.00  0.00    -0.312 A  
ENDBRANCH  33  34
ENDBRANCH  32  33
ENDBRANCH   2  32
TORSDOF 18
ENDMDL
MODEL        3
REMARK 921   NORMALIZED FREE ENERGY PREDICTED BY IDOCK:   -5.77 KCAL/MOL
REMARK 922        TOTAL FREE ENERGY PREDICTED BY IDOCK:  -16.62 KCAL/MOL
REMARK 923 INTER-LIGAND FREE ENERGY PREDICTED BY IDOCK:  -12.90 KCAL/MOL
REMARK 924 INTRA-LIGAND FREE ENERGY PREDICTED BY IDOCK:   -3.72 KCAL/MOL
REMARK 927      BINDING AFFINITY PREDICTED BY RF-SCORE:    0.00 PKD
ROOT
HETATM    1  O   UNL     1     -11.588  16.470  63.797  1.00  0.00    -1.617 OA 
HETATM    2  C   UNL     1     -11.179  15.362  64.597  1.00  0.00    -0.364 C  
HETATM    3  H   UNL     1     -10.884  17.106  63.734  1.00  0.00     0.000 HD 
ENDROOT
BRANCH   2   4
HETATM    4  C   UNL     1     -12.320  14.331  64.698  1.00  0.00    -0.433 C  
BRANCH   4   5
HETATM    5  C   UNL     1     -12.165  13.298  65.820  1.00  0.00    -0.510 C  
BRANCH   5   6
HETATM    6  C   UNL     1     -11.404  12.003  65.454  1.00  0.00    -0.375 C  
HETATM    7  H   UNL     1      -7.823  10.182  65.641  1.00  0.00     0.000 HD 
HETATM    8  C   UNL     1      -9.898  11.851  65.936  1.00  0.00    -0.261 C  
HETATM    9  C   UNL     1     -11.302  11.911  63.926  1.00  0.00    -0.428 C  
HETATM   10  C   UNL     1     -10.251  10.864  63.699  1.00  0.00    -0.395 C  
HETATM   11  O   UNL     1     -12.518  11.508  63.323  1.00  0.00    -0.846 OA 
HETATM   12  O   UNL     1      -8.495   9.980  65.001  1.00  0.00    -0.143 OA 
HETATM   13  H   UNL     1     -12.455  11.451  62.377  1.00  0.00     0.000 HD 
HETATM   14  C   UNL     1      -9.179  11.185  64.719  1.00  0.00    -0.138 C  
BRANCH   8  15
HETATM   15  C   UNL     1      -9.700  11.119  67.301  1.00  0.00    -0.186 C  
BRANCH  15  16
HETATM   16  C   UNL     1     -10.859  10.249  67.753  1.00  0.00    -0.346 C  
HETATM   17  C   UNL     1     -11.619  10.279  68.866  1.00  0.00    -0.132 C  
BRANCH  17  18
HETATM   18  C   UNL     1     -11.534  11.208  70.043  1.00  0.00    -0.376 C  
BRANCH  18  19
HETATM   19  C   UNL     1     -12.151  12.584  69.746  1.00  0.00    -0.293 C  
BRANCH  19  20
HETATM   20  C   UNL     1     -12.484  13.404  70.986  1.00  0.00    -0.437 C  
BRANCH  20  21
HETATM   21  C   UNL     1     -12.793  14.824  70.626  1.00  0.00    -0.343 C  
HETATM   22  O   UNL     1     -13.567  15.570  71.212  1.00  0.00    -0.505 OA 
BRANCH  21  23
HETATM   23  O   UNL     1     -12.177  15.103  69.445  1.00  0.00    -0.275 OA 
BRANCH  23  24
HETATM   24  C   UNL     1     -11.219  16.125  69.626  1.00  0.00    -0.331 C  
BRANCH  24  25
HETATM   25  C   UNL     1      -9.818  15.588  69.824  1.00  0.00    -0.268 C  
BRANCH  25  26
HETATM   26  C   UNL     1      -9.393  14.617  68.725  1.00  0.00    -0.191 C  
BRANCH  26  27
HETATM   27  C   UNL     1      -7.890  14.308  68.677  1.00  0.00    -0.140 C  
BRANCH  27  28
HETATM   28  O   UNL     1      -7.222  15.130  69.610  1.00  0.00    -0.187 OA 
HETATM   29  N   UNL     1      -6.142  15.837  69.030  1.00  0.00    -0.113 N  
HETATM   30  O   UNL     1      -5.517  16.505  69.857  1.00  0.00    -0.161 OA 
HETATM   31  O   UNL     1      -5.958  15.701  67.828  1.00  0.00    -0.134 OA 
ENDBRANCH  27  28
ENDBRANCH  26  27
ENDBRANCH  25  26
ENDBRANCH  24  25
ENDBRANCH  23  24
ENDBRANCH  21  23
ENDBRANCH  20  21
ENDBRANCH  19  20
ENDBRANCH  18  19
ENDBRANCH  17  18
ENDBRANCH  15  16
ENDBRANCH   8  15
ENDBRANCH   5   6
ENDBRANCH   4   5
ENDBRANCH   2   4
BRANCH   2  32
HETATM   32  C   UNL     1     -10.810  15.922  65.963  1.00  0.00    -0.226 C  
BRANCH  32  33
HETATM   33  C   UNL     1      -9.407  16.517  65.969  1.00  0.00    -0.302 C  
BRANCH  33  34
HETATM   34  C   UNL     1      -9.461  17.906  66.516  1.00  0.00    -0.307 A  
HETATM   35  C   UNL     1     -10.378  20.142  66.427  1.00  0.00    -0.510 A  
HETATM   36  C   UNL     1      -8.557  19.626  67.936  1.00  0.00    -0.360 A  
HETATM   37  C   UNL     1     -10.376  18.824  65.978  1.00  0.00    -0.467 A  
HETATM   38  C   UNL     1      -8.551  18.310  67.492  1.00  0.00    -0.253 A  
HETATM   39  C   UNL     1      -9.469  20.542  67.404  1.00  0.00    -0.551 A  
ENDBRANCH  33  34
ENDBRANCH  32  33
ENDBRANCH   2  32
TORSDOF 18
ENDMDL
MODEL        4
REMARK 921   NORMALIZED FREE ENERGY PREDICTED BY IDOCK:   -5.75 KCAL/MOL
REMARK 922        TOTAL FREE ENERGY PREDICTED BY IDOCK:  -16.58 KCAL/MOL
REMARK 923 INTER-LIGAND FREE ENERGY PREDICTED BY IDOCK:  -12.13 KCAL/MOL
REMARK 924 INTRA-LIGAND FREE ENERGY PREDICTED BY IDOCK:   -4.45 KCAL/MOL
REMARK 927      BINDING AFFINITY PREDICTED BY RF-SCORE:    0.00 PKD
ROOT
HETATM    1  O   UNL     1     -12.045  11.684  67.199  1.00  0.00    -0.575 OA 
HETATM    2  C   UNL     1     -11.865  12.931  67.868  1.00  0.00    -0.339 C  
HETATM    3  H   UNL     1     -12.586  11.106  67.724  1.00  0.00     0.000 HD 
ENDROOT
BRANCH   2   4
HETATM    4  C   UNL     1     -10.988  13.869  67.016  1.00  0.00    -0.301 C  
BRANCH   4   5
HETATM    5  C   UNL     1     -11.348  15.356  67.104  1.00  0.00    -0.203 C  
BRANCH   5   6
HETATM    6  C   UNL     1     -10.199  16.354  66.836  1.00  0.00    -0.290 C  
HETATM    7  H   UNL     1      -7.696  18.969  68.590  1.00  0.00     0.000 HD 
HETATM    8  C   UNL     1      -9.509  17.062  68.078  1.00  0.00    -0.256 C  
HETATM    9  C   UNL     1     -10.753  17.527  66.017  1.00  0.00    -0.116 C  
HETATM   10  C   UNL     1      -9.692  18.582  66.140  1.00  0.00    -0.241 C  
HETATM   11  O   UNL     1     -10.943  17.197  64.653  1.00  0.00    -1.005 OA 
HETATM   12  O   UNL     1      -7.952  19.001  67.675  1.00  0.00    -0.254 OA 
HETATM   13  H   UNL     1     -11.286  17.924  64.146  1.00  0.00     0.000 HD 
HETATM   14  C   UNL     1      -9.284  18.531  67.597  1.00  0.00    -0.281 C  
BRANCH   8  15
HETATM   15  C   UNL     1      -8.237  16.349  68.638  1.00  0.00    -0.223 C  
BRANCH  15  16
HETATM   16  C   UNL     1      -7.392  15.616  67.612  1.00  0.00    -0.190 C  
HETATM   17  C   UNL     1      -7.025  14.322  67.515  1.00  0.00    -0.177 C  
BRANCH  17  18
HETATM   18  C   UNL     1      -7.341  13.179  68.437  1.00  0.00    -0.116 C  
BRANCH  18  19
HETATM   19  C   UNL     1      -7.952  11.982  67.692  1.00  0.00    -0.150 C  
BRANCH  19  20
HETATM   20  C   UNL     1      -7.719  10.637  68.369  1.00  0.00    -0.106 C  
BRANCH  20  21
HETATM   21  C   UNL     1      -8.737   9.631  67.932  1.00  0.00    -0.119 C  
HETATM   22  O   UNL     1      -8.784   8.453  68.264  1.00  0.00    -0.141 OA 
BRANCH  21  23
HETATM   23  O   UNL     1      -9.523  10.210  66.983  1.00  0.00    -0.161 OA 
BRANCH  23  24
HETATM   24  C   UNL     1      -9.723   9.319  65.906  1.00  0.00    -0.285 C  
BRANCH  24  25
HETATM   25  C   UNL     1      -9.271   9.891  64.580  1.00  0.00    -0.315 C  
BRANCH  25  26
HETATM   26  C   UNL     1      -9.692  11.345  64.385  1.00  0.00    -0.266 C  
BRANCH  26  27
HETATM   27  C   UNL     1     -11.025  11.542  63.649  1.00  0.00    -0.404 C  
BRANCH  27  28
HETATM   28  O   UNL     1     -11.257  12.924  63.481  1.00  0.00    -0.424 OA 
HETATM   29  N   UNL     1     -12.515  13.325  63.991  1.00  0.00    -0.303 N  
HETATM   30  O   UNL     1     -12.748  14.519  63.788  1.00  0.00    -0.780 OA 
HETATM   31  O   UNL     1     -13.199  12.474  64.545  1.00  0.00    -0.832 OA 
ENDBRANCH  27  28
ENDBRANCH  26  27
ENDBRANCH  25  26
ENDBRANCH  24  25
ENDBRANCH  23  24
ENDBRANCH  21  23
ENDBRANCH  20  21
ENDBRANCH  19  20
ENDBRANCH  18  19
ENDBRANCH  17  18
ENDBRANCH  15  16
ENDBRANCH   8  15
ENDBRANCH   5   6
ENDBRANCH   4   5
ENDBRANCH   2   4
BRANCH   2  32
HETATM   32  C   UNL     1     -11.212  12.619  69.207  1.00  0.00    -0.255 C  
BRANCH  32  33
HETATM   33  C   UNL     1     -12.246  12.474  70.318  1.00  0.00    -0.345 C  
BRANCH  33  34
HETATM   34  C   UNL     1     -12.251  11.063  70.807  1.00  0.00    -0.480 A  
HETATM   35  C   UNL     1     -13.180   9.369  72.260  1.00  0.00    -0.528 A  
HETATM   36  C   UNL     1     -11.217   8.893  70.928  1.00  0.00    -0.334 A  
HETATM   37  C   UNL     1     -13.217  10.659  71.740  1.00  0.00    -0.526 A  
HETATM   38  C   UNL     1     -11.250  10.180  70.405  1.00  0.00    -0.402 A  
HETATM   39  C   UNL     1     -12.180   8.488  71.855  1.00  0.00    -0.411 A  
ENDBRANCH  33  34
ENDBRANCH  32  33
ENDBRANCH   2  32
TORSDOF 18
ENDMDL
MODEL        5
REMARK 921   NORMALIZED FREE ENERGY PREDICTED BY IDOCK:   -5.56 KCAL/MOL
REMARK 922        TOTAL FREE ENERGY PREDICTED BY IDOCK:  -16.19 KCAL/MOL
REMARK 923 INTER-LIGAND FREE ENERGY PREDICTED BY IDOCK:  -13.30 KCAL/MOL
REMARK 924 INTRA-LIGAND FREE ENERGY PREDICTED BY IDOCK:   -2.89 KCAL/MOL
REMARK 927      BINDING AFFINITY PREDICTED BY RF-SCORE:    0.00 PKD
ROOT
HETATM    1  O   UNL     1     -10.095   8.211  65.970  1.00  0.00    -0.449 OA 
HETATM    2  C   UNL     1      -8.934   8.888  66.446  1.00  0.00    -0.158 C  
HETATM    3  H   UNL     1     -10.108   8.212  65.020  1.00  0.00     0.000 HD 
ENDROOT
BRANCH   2   4
HETATM    4  C   UNL     1      -8.912   8.886  67.988  1.00  0.00    -0.140 C  
BRANCH   4   5
HETATM    5  C   UNL     1     -10.239   9.259  68.657  1.00  0.00    -0.220 C  
BRANCH   5   6
HETATM    6  C   UNL     1     -10.858   8.190  69.587  1.00  0.00    -0.162 C  
HETATM    7  H   UNL     1     -10.439   6.337  73.133  1.00  0.00     0.000 HD 
HETATM    8  C   UNL     1     -10.217   7.977  71.024  1.00  0.00    -0.217 C  
HETATM    9  C   UNL     1     -10.707   6.816  68.920  1.00  0.00    -0.240 C  
HETATM   10  C   UNL     1     -10.977   5.846  70.034  1.00  0.00    -0.430 C  
HETATM   11  O   UNL     1     -11.637   6.614  67.873  1.00  0.00    -0.608 OA 
HETATM   12  O   UNL     1     -10.901   5.972  72.387  1.00  0.00    -0.222 OA 
HETATM   13  H   UNL     1     -11.543   5.763  67.460  1.00  0.00     0.000 HD 
HETATM   14  C   UNL     1     -10.241   6.428  71.222  1.00  0.00    -0.200 C  
BRANCH   8  15
HETATM   15  C   UNL     1     -10.871   8.800  72.180  1.00  0.00    -0.400 C  
BRANCH  15  16
HETATM   16  C   UNL     1     -12.318   9.204  71.960  1.00  0.00    -0.448 C  
HETATM   17  C   UNL     1     -12.865  10.284  71.368  1.00  0.00    -0.544 C  
BRANCH  17  18
HETATM   18  C   UNL     1     -12.182  11.463  70.738  1.00  0.00    -0.475 C  
BRANCH  18  19
HETATM   19  C   UNL     1     -12.747  12.802  71.238  1.00  0.00    -0.364 C  
BRANCH  19  20
HETATM   20  C   UNL     1     -12.446  13.988  70.332  1.00  0.00    -0.418 C  
BRANCH  20  21
HETATM   21  C   UNL     1     -12.819  15.279  70.993  1.00  0.00    -0.440 C  
HETATM   22  O   UNL     1     -13.949  15.640  71.297  1.00  0.00    -0.570 OA 
BRANCH  21  23
HETATM   23  O   UNL     1     -11.701  16.052  71.070  1.00  0.00    -0.391 OA 
BRANCH  23  24
HETATM   24  C   UNL     1     -10.791  15.694  70.051  1.00  0.00    -0.330 C  
BRANCH  24  25
HETATM   25  C   UNL     1     -10.737  16.710  68.931  1.00  0.00    -0.337 C  
BRANCH  25  26
HETATM   26  C   UNL     1      -9.335  17.270  68.703  1.00  0.00    -0.267 C  
BRANCH  26  27
HETATM   27  C   UNL     1      -9.011  17.637  67.247  1.00  0.00    -0.240 C  
BRANCH  27  28
HETATM   28  O   UNL     1      -9.738  18.793  66.893  1.00  0.00    -0.294 OA 
HETATM   29  N   UNL     1     -10.566  18.585  65.765  1.00  0.00    -0.378 N  
HETATM   30  O   UNL     1     -11.154  19.611  65.414  1.00  0.00    -0.412 OA 
HETATM   31  O   UNL     1     -10.596  17.459  65.285  1.00  0.00    -0.667 OA 
ENDBRANCH  27  28
ENDBRANCH  26  27
ENDBRANCH  25  26
ENDBRANCH  24  25
ENDBRANCH  23  24
ENDBRANCH  21  23
ENDBRANCH  20  21
ENDBRANCH  19  20
ENDBRANCH  18  19
ENDBRANCH  17  18
ENDBRANCH  15  16
ENDBRANCH   8  15
ENDBRANCH   5   6
ENDBRANCH   4   5
ENDBRANCH   2   4
BRANCH   2  32
HETATM   32  C   UNL     1      -8.994  10.303  65.891  1.00  0.00    -0.181 C  
BRANCH  32  33
HETATM   33  C   UNL     1      -9.996  10.419  64.748  1.00  0.00    -0.409 C  
BRANCH  33  34
HETATM   34  C   UNL     1     -10.873  11.606  64.978  1.00  0.00    -0.346 A  
HETATM   35  C   UNL     1     -12.081  13.502  64.089  1.00  0.00    -0.488 A  
HETATM   36  C   UNL     1     -11.913  13.171  66.481  1.00  0.00    -0.459 A  
HETATM   37  C   UNL     1     -11.330  12.349  63.880  1.00  0.00    -0.502 A  
HETATM   38  C   UNL     1     -11.163  12.020  66.277  1.00  0.00    -0.394 A  
HETATM   39  C   UNL     1     -12.371  13.913  65.389  1.00  0.00    -0.494 A  
ENDBRANCH  33  34
ENDBRANCH  32  33
ENDBRANCH   2  32
TORSDOF 18
ENDMDL
MODEL        6
REMARK 921   NORMALIZED FREE ENERGY PREDICTED BY IDOCK:   -5.54 KCAL/MOL
REMARK 922        TOTAL FREE ENERGY PREDICTED BY IDOCK:  -16.16 KCAL/MOL
REMARK 923 INTER-LIGAND FREE ENERGY PREDICTED BY IDOCK:  -12.09 KCAL/MOL
REMARK 924 INTRA-LIGAND FREE ENERGY PREDICTED BY IDOCK:   -4.08 KCAL/MOL
REMARK 927      BINDING AFFINITY PREDICTED BY RF-SCORE:    0.00 PKD
ROOT
HETATM    1  O   UNL     1     -12.572  10.516  69.063  1.00  0.00    -0.722 OA 
HETATM    2  C   UNL     1     -11.516  11.108  69.817  1.00  0.00    -0.312 C  
HETATM    3  H   UNL     1     -13.408  10.688  69.479  1.00  0.00     0.000 HD 
ENDROOT
BRANCH   2   4
HETATM    4  C   UNL     1     -10.159  10.828  69.142  1.00  0.00    -0.224 C  
BRANCH   4   5
HETATM    5  C   UNL     1      -9.301   9.758  69.825  1.00  0.00    -0.249 C  
BRANCH   5   6
HETATM    6  C   UNL     1      -9.184   8.404  69.087  1.00  0.00    -0.150 C  
HETATM    7  H   UNL     1     -11.293   5.529  67.227  1.00  0.00     0.000 HD 
HETATM    8  C   UNL     1     -10.494   7.779  68.445  1.00  0.00    -0.207 C  
HETATM    9  C   UNL     1      -8.734   7.337  70.095  1.00  0.00    -0.140 C  
HETATM   10  C   UNL     1      -9.017   6.041  69.393  1.00  0.00    -0.126 C  
HETATM   11  O   UNL     1      -7.355   7.425  70.401  1.00  0.00    -0.074 OA 
HETATM   12  O   UNL     1     -10.442   5.396  67.629  1.00  0.00    -0.196 OA 
HETATM   13  H   UNL     1      -7.076   6.765  71.025  1.00  0.00     0.000 HD 
HETATM   14  C   UNL     1     -10.372   6.252  68.752  1.00  0.00    -0.205 C  
BRANCH   8  15
HETATM   15  C   UNL     1     -10.741   8.131  66.943  1.00  0.00    -0.186 C  
BRANCH  15  16
HETATM   16  C   UNL     1      -9.510   8.544  66.156  1.00  0.00    -0.286 C  
HETATM   17  C   UNL     1      -9.236   9.652  65.439  1.00  0.00    -0.295 C  
BRANCH  17  18
HETATM   18  C   UNL     1     -10.105  10.849  65.182  1.00  0.00    -0.352 C  
BRANCH  18  19
HETATM   19  C   UNL     1     -10.225  11.173  63.685  1.00  0.00    -0.444 C  
BRANCH  19  20
HETATM   20  C   UNL     1     -10.700  12.589  63.385  1.00  0.00    -0.321 C  
BRANCH  20  21
HETATM   21  C   UNL     1     -12.195  12.662  63.363  1.00  0.00    -0.517 C  
HETATM   22  O   UNL     1     -12.967  11.721  63.226  1.00  0.00    -0.633 OA 
BRANCH  21  23
HETATM   23  O   UNL     1     -12.554  13.975  63.377  1.00  0.00    -0.845 OA 
BRANCH  23  24
HETATM   24  C   UNL     1     -12.081  14.597  64.553  1.00  0.00    -0.475 C  
BRANCH  24  25
HETATM   25  C   UNL     1     -12.668  13.996  65.812  1.00  0.00    -0.487 C  
BRANCH  25  26
HETATM   26  C   UNL     1     -11.637  13.822  66.925  1.00  0.00    -0.394 C  
BRANCH  26  27
HETATM   27  C   UNL     1     -10.453  14.798  66.871  1.00  0.00    -0.277 C  
BRANCH  27  28
HETATM   28  O   UNL     1     -10.745  15.921  67.674  1.00  0.00    -0.301 OA 
HETATM   29  N   UNL     1     -10.551  17.142  66.985  1.00  0.00    -0.274 N  
HETATM   30  O   UNL     1     -10.744  18.125  67.704  1.00  0.00    -0.416 OA 
HETATM   31  O   UNL     1     -10.221  17.081  65.808  1.00  0.00    -0.506 OA 
ENDBRANCH  27  28
ENDBRANCH  26  27
ENDBRANCH  25  26
ENDBRANCH  24  25
ENDBRANCH  23  24
ENDBRANCH  21  23
ENDBRANCH  20  21
ENDBRANCH  19  20
ENDBRANCH  18  19
ENDBRANCH  17  18
ENDBRANCH  15  16
ENDBRANCH   8  15
ENDBRANCH   5   6
ENDBRANCH   4   5
ENDBRANCH   2   4
BRANCH   2  32
HETATM   32  C   UNL     1     -11.581  10.502  71.211  1.00  0.00    -0.121 C  
BRANCH  32  33
HETATM   33  C   UNL     1     -12.561   9.336  71.274  1.00  0.00    -0.377 C  
BRANCH  33  34
HETATM   34  C   UNL     1     -11.874   8.145  71.858  1.00  0.00    -0.366 A  
HETATM   35  C   UNL     1     -11.756   5.747  72.149  1.00  0.00    -0.226 A  
HETATM   36  C   UNL     1     -10.255   7.202  73.369  1.00  0.00    -0.367 A  
HETATM   37  C   UNL     1     -12.340   6.859  71.547  1.00  0.00    -0.420 A  
HETATM   38  C   UNL     1     -10.834   8.314  72.770  1.00  0.00    -0.308 A  
HETATM   39  C   UNL     1     -10.715   5.920  73.059  1.00  0.00    -0.286 A  
ENDBRANCH  33  34
ENDBRANCH  32  33
ENDBRANCH   2  32
TORSDOF 18
ENDMDL
MODEL        7
REMARK 921   NORMALIZED FREE ENERGY PREDICTED BY IDOCK:   -5.50 KCAL/MOL
REMARK 922        TOTAL FREE ENERGY PREDICTED BY IDOCK:  -16.08 KCAL/MOL
REMARK 923 INTER-LIGAND FREE ENERGY PREDICTED BY IDOCK:  -11.58 KCAL/MOL
REMARK 924 INTRA-LIGAND FREE ENERGY PREDICTED BY IDOCK:   -4.50 KCAL/MOL
REMARK 927      BINDING AFFINITY PREDICTED BY RF-SCORE:    0.00 PKD
ROOT
HETATM    1  O   UNL     1      -9.017  10.929  67.055  1.00  0.00    -0.141 OA 
HETATM    2  C   UNL     1     -10.169  10.106  66.880  1.00  0.00    -0.236 C  
HETATM    3  H   UNL     1      -8.503  10.947  66.256  1.00  0.00     0.000 HD 
ENDROOT
BRANCH   2   4
HETATM    4  C   UNL     1     -11.004  10.077  68.175  1.00  0.00    -0.289 C  
BRANCH   4   5
HETATM    5  C   UNL     1     -10.227  10.395  69.457  1.00  0.00    -0.258 C  
BRANCH   5   6
HETATM    6  C   UNL     1      -9.571   9.193  70.174  1.00  0.00    -0.235 C  
HETATM    7  H   UNL     1      -9.478   7.131  73.626  1.00  0.00     0.000 HD 
HETATM    8  C   UNL     1     -10.086   8.809  71.626  1.00  0.00    -0.390 C  
HETATM    9  C   UNL     1      -8.085   9.506  70.391  1.00  0.00    -0.183 C  
HETATM   10  C   UNL     1      -7.648   8.483  71.400  1.00  0.00    -0.124 C  
HETATM   11  O   UNL     1      -7.321   9.368  69.208  1.00  0.00    -0.067 OA 
HETATM   12  O   UNL     1      -8.766   7.157  72.997  1.00  0.00    -0.122 OA 
HETATM   13  H   UNL     1      -6.401   9.562  69.343  1.00  0.00     0.000 HD 
HETATM   14  C   UNL     1      -8.781   8.440  72.403  1.00  0.00    -0.210 C  
BRANCH   8  15
HETATM   15  C   UNL     1     -11.211   7.725  71.676  1.00  0.00    -0.286 C  
BRANCH  15  16
HETATM   16  C   UNL     1     -12.473   8.125  72.418  1.00  0.00    -0.309 C  
HETATM   17  C   UNL     1     -13.337   9.143  72.231  1.00  0.00    -0.540 C  
BRANCH  17  18
HETATM   18  C   UNL     1     -13.300  10.235  71.200  1.00  0.00    -0.339 C  
BRANCH  18  19
HETATM   19  C   UNL     1     -13.133  11.627  71.831  1.00  0.00    -0.490 C  
BRANCH  19  20
HETATM   20  C   UNL     1     -12.445  12.646  70.932  1.00  0.00    -0.368 C  
BRANCH  20  21
HETATM   21  C   UNL     1     -12.781  14.044  71.347  1.00  0.00    -0.364 C  
HETATM   22  O   UNL     1     -13.156  14.402  72.457  1.00  0.00    -0.387 OA 
BRANCH  21  23
HETATM   23  O   UNL     1     -12.739  14.835  70.240  1.00  0.00    -0.334 OA 
BRANCH  23  24
HETATM   24  C   UNL     1     -11.478  14.727  69.613  1.00  0.00    -0.292 C  
BRANCH  24  25
HETATM   25  C   UNL     1     -11.542  14.974  68.121  1.00  0.00    -0.360 C  
BRANCH  25  26
HETATM   26  C   UNL     1     -11.836  13.708  67.321  1.00  0.00    -0.429 C  
BRANCH  26  27
HETATM   27  C   UNL     1     -11.453  13.774  65.836  1.00  0.00    -0.322 C  
BRANCH  27  28
HETATM   28  O   UNL     1     -11.015  15.081  65.532  1.00  0.00    -0.328 OA 
HETATM   29  N   UNL     1     -11.691  15.631  64.418  1.00  0.00    -0.318 N  
HETATM   30  O   UNL     1     -11.265  16.747  64.110  1.00  0.00    -1.155 OA 
HETATM   31  O   UNL     1     -12.577  14.960  63.905  1.00  0.00    -0.831 OA 
ENDBRANCH  27  28
ENDBRANCH  26  27
ENDBRANCH  25  26
ENDBRANCH  24  25
ENDBRANCH  23  24
ENDBRANCH  21  23
ENDBRANCH  20  21
ENDBRANCH  19  20
ENDBRANCH  18  19
ENDBRANCH  17  18
ENDBRANCH  15  16
ENDBRANCH   8  15
ENDBRANCH   5   6
ENDBRANCH   4   5
ENDBRANCH   2   4
BRANCH   2  32
HETATM   32  C   UNL     1      -9.663   8.719  66.510  1.00  0.00    -0.328 C  
BRANCH  32  33
HETATM   33  C   UNL     1     -10.660   7.633  66.899  1.00  0.00    -0.359 C  
BRANCH  33  34
HETATM   34  C   UNL     1     -10.007   6.679  67.845  1.00  0.00    -0.152 A  
HETATM   35  C   UNL     1     -10.194   5.103  69.669  1.00  0.00    -0.337 A  
HETATM   36  C   UNL     1      -8.017   5.765  68.844  1.00  0.00    -0.098 A  
HETATM   37  C   UNL     1     -10.799   5.934  68.730  1.00  0.00    -0.353 A  
HETATM   38  C   UNL     1      -8.616   6.596  67.905  1.00  0.00    -0.118 A  
HETATM   39  C   UNL     1      -8.804   5.020  69.725  1.00  0.00    -0.125 A  
ENDBRANCH  33  34
ENDBRANCH  32  33
ENDBRANCH   2  32
TORSDOF 18
ENDMDL
MODEL        8
REMARK 921   NORMALIZED FREE ENERGY PREDICTED BY IDOCK:   -5.47 KCAL/MOL
REMARK 922        TOTAL FREE ENERGY PREDICTED BY IDOCK:  -16.01 KCAL/MOL
REMARK 923 INTER-LIGAND FREE ENERGY PREDICTED BY IDOCK:  -13.05 KCAL/MOL
REMARK 924 INTRA-LIGAND FREE ENERGY PREDICTED BY IDOCK:   -2.96 KCAL/MOL
REMARK 927      BINDING AFFINITY PREDICTED BY RF-SCORE:    0.00 PKD
ROOT
HETATM    1  O   UNL     1     -11.651  16.595  63.853  1.00  0.00    -1.582 OA 
HETATM    2  C   UNL     1     -11.270  15.363  64.462  1.00  0.00    -0.299 C  
HETATM    3  H   UNL     1     -10.932  17.215  63.890  1.00  0.00     0.000 HD 
ENDROOT
BRANCH   2   4
HETATM    4  C   UNL     1     -12.436  14.357  64.401  1.00  0.00    -0.339 C  
BRANCH   4   5
HETATM    5  C   UNL     1     -12.430  13.288  65.499  1.00  0.00    -0.531 C  
BRANCH   5   6
HETATM    6  C   UNL     1     -11.519  12.063  65.253  1.00  0.00    -0.358 C  
HETATM    7  H   UNL     1      -7.790  10.641  65.753  1.00  0.00     0.000 HD 
HETATM    8  C   UNL     1     -10.040  12.096  65.830  1.00  0.00    -0.272 C  
HETATM    9  C   UNL     1     -11.311  11.905  63.741  1.00  0.00    -0.448 C  
HETATM   10  C   UNL     1     -10.146  10.965  63.637  1.00  0.00    -0.414 C  
HETATM   11  O   UNL     1     -12.437  11.346  63.092  1.00  0.00    -0.881 OA 
HETATM   12  O   UNL     1      -8.396  10.338  65.087  1.00  0.00    -0.151 OA 
HETATM   13  H   UNL     1     -12.308  11.248  62.156  1.00  0.00     0.000 HD 
HETATM   14  C   UNL     1      -9.180  11.448  64.698  1.00  0.00    -0.015 C  
BRANCH   8  15
HETATM   15  C   UNL     1      -9.855  11.458  67.244  1.00  0.00    -0.209 C  
BRANCH  15  16
HETATM   16  C   UNL     1     -10.738  10.260  67.543  1.00  0.00    -0.348 C  
HETATM   17  C   UNL     1     -10.443   8.961  67.751  1.00  0.00    -0.300 C  
BRANCH  17  18
HETATM   18  C   UNL     1      -9.103   8.283  67.736  1.00  0.00    -0.138 C  
BRANCH  18  19
HETATM   19  C   UNL     1      -8.711   7.732  69.116  1.00  0.00    -0.139 C  
BRANCH  19  20
HETATM   20  C   UNL     1      -8.154   8.777  70.074  1.00  0.00    -0.111 C  
BRANCH  20  21
HETATM   21  C   UNL     1      -8.919   8.789  71.361  1.00  0.00    -0.238 C  
HETATM   22  O   UNL     1      -8.754   8.035  72.312  1.00  0.00    -0.132 OA 
BRANCH  21  23
HETATM   23  O   UNL     1      -9.932   9.690  71.241  1.00  0.00    -0.186 OA 
BRANCH  23  24
HETATM   24  C   UNL     1     -11.130   9.146  71.755  1.00  0.00    -0.367 C  
BRANCH  24  25
HETATM   25  C   UNL     1     -12.356   9.607  70.997  1.00  0.00    -0.396 C  
BRANCH  25  26
HETATM   26  C   UNL     1     -13.230  10.563  71.806  1.00  0.00    -0.522 C  
BRANCH  26  27
HETATM   27  C   UNL     1     -12.937  12.054  71.586  1.00  0.00    -0.334 C  
BRANCH  27  28
HETATM   28  O   UNL     1     -12.293  12.217  70.342  1.00  0.00    -0.302 OA 
HETATM   29  N   UNL     1     -12.043  13.576  70.038  1.00  0.00    -0.339 N  
HETATM   30  O   UNL     1     -11.539  13.727  68.922  1.00  0.00    -0.272 OA 
HETATM   31  O   UNL     1     -12.350  14.410  70.880  1.00  0.00    -0.303 OA 
ENDBRANCH  27  28
ENDBRANCH  26  27
ENDBRANCH  25  26
ENDBRANCH  24  25
ENDBRANCH  23  24
ENDBRANCH  21  23
ENDBRANCH  20  21
ENDBRANCH  19  20
ENDBRANCH  18  19
ENDBRANCH  17  18
ENDBRANCH  15  16
ENDBRANCH   8  15
ENDBRANCH   5   6
ENDBRANCH   4   5
ENDBRANCH   2   4
BRANCH   2  32
HETATM   32  C   UNL     1     -10.885  15.686  65.898  1.00  0.00    -0.297 C  
BRANCH  32  33
HETATM   33  C   UNL     1      -9.554  16.425  65.973  1.00  0.00    -0.352 C  
BRANCH  33  34
HETATM   34  C   UNL     1      -9.717  17.654  66.807  1.00  0.00    -0.300 A  
HETATM   35  C   UNL     1      -9.641  18.721  68.975  1.00  0.00    -0.294 A  
HETATM   36  C   UNL     1     -10.471  19.926  67.048  1.00  0.00    -0.570 A  
HETATM   37  C   UNL     1      -9.415  17.604  68.176  1.00  0.00    -0.286 A  
HETATM   38  C   UNL     1     -10.247  18.814  66.246  1.00  0.00    -0.466 A  
HETATM   39  C   UNL     1     -10.168  19.881  68.411  1.00  0.00    -0.557 A  
ENDBRANCH  33  34
ENDBRANCH  32  33
ENDBRANCH   2  32
TORSDOF 18
ENDMDL
MODEL        9
REMARK 921   NORMALIZED FREE ENERGY PREDICTED BY IDOCK:   -5.46 KCAL/MOL
REMARK 922        TOTAL FREE ENERGY PREDICTED BY IDOCK:  -15.99 KCAL/MOL
REMARK 923 INTER-LIGAND FREE ENERGY PREDICTED BY IDOCK:  -11.76 KCAL/MOL
REMARK 924 INTRA-LIGAND FREE ENERGY PREDICTED BY IDOCK:   -4.23 KCAL/MOL
REMARK 927      BINDING AFFINITY PREDICTED BY RF-SCORE:    0.00 PKD
ROOT
HETATM    1  O   UNL     1     -12.730  10.514  68.846  1.00  0.00    -0.526 OA 
HETATM    2  C   UNL     1     -11.697  11.099  69.636  1.00  0.00    -0.339 C  
HETATM    3  H   UNL     1     -13.579  10.692  69.233  1.00  0.00     0.000 HD 
ENDROOT
BRANCH   2   4
HETATM    4  C   UNL     1     -10.319  10.809  69.007  1.00  0.00    -0.235 C  
BRANCH   4   5
HETATM    5  C   UNL     1      -9.427   9.855  69.808  1.00  0.00    -0.254 C  
BRANCH   5   6
HETATM    6  C   UNL     1      -9.140   8.482  69.156  1.00  0.00    -0.146 C  
HETATM    7  H   UNL     1     -10.869   5.247  67.506  1.00  0.00     0.000 HD 
HETATM    8  C   UNL     1     -10.361   7.654  68.570  1.00  0.00    -0.225 C  
HETATM    9  C   UNL     1      -8.553   7.549  70.224  1.00  0.00    -0.144 C  
HETATM   10  C   UNL     1      -8.670   6.184  69.609  1.00  0.00    -0.135 C  
HETATM   11  O   UNL     1      -7.196   7.831  70.508  1.00  0.00    -0.056 OA 
HETATM   12  O   UNL     1     -10.007   5.251  67.906  1.00  0.00    -0.148 OA 
HETATM   13  H   UNL     1      -6.833   7.253  71.169  1.00  0.00     0.000 HD 
HETATM   14  C   UNL     1     -10.044   6.179  68.972  1.00  0.00    -0.173 C  
BRANCH   8  15
HETATM   15  C   UNL     1     -10.656   7.875  67.052  1.00  0.00    -0.381 C  
BRANCH  15  16
HETATM   16  C   UNL     1      -9.508   8.445  66.238  1.00  0.00    -0.292 C  
HETATM   17  C   UNL     1      -9.377   9.607  65.567  1.00  0.00    -0.309 C  
BRANCH  17  18
HETATM   18  C   UNL     1     -10.372  10.722  65.406  1.00  0.00    -0.315 C  
BRANCH  18  19
HETATM   19  C   UNL     1     -10.605  11.087  63.932  1.00  0.00    -0.382 C  
BRANCH  19  20
HETATM   20  C   UNL     1     -11.067  12.521  63.706  1.00  0.00    -0.503 C  
BRANCH  20  21
HETATM   21  C   UNL     1     -12.465  12.720  64.203  1.00  0.00    -0.369 C  
HETATM   22  O   UNL     1     -13.393  11.927  64.099  1.00  0.00    -0.652 OA 
BRANCH  21  23
HETATM   23  O   UNL     1     -12.571  13.996  64.666  1.00  0.00    -0.618 OA 
BRANCH  23  24
HETATM   24  C   UNL     1     -11.550  14.259  65.605  1.00  0.00    -0.346 C  
BRANCH  24  25
HETATM   25  C   UNL     1     -11.987  14.012  67.032  1.00  0.00    -0.472 C  
BRANCH  25  26
HETATM   26  C   UNL     1     -11.491  15.084  68.000  1.00  0.00    -0.357 C  
BRANCH  26  27
HETATM   27  C   UNL     1     -11.110  14.572  69.396  1.00  0.00    -0.268 C  
BRANCH  27  28
HETATM   28  O   UNL     1     -11.141  15.650  70.306  1.00  0.00    -0.287 OA 
HETATM   29  N   UNL     1     -11.855  15.339  71.487  1.00  0.00    -0.344 N  
HETATM   30  O   UNL     1     -11.939  16.301  72.256  1.00  0.00    -0.511 OA 
HETATM   31  O   UNL     1     -12.293  14.202  71.600  1.00  0.00    -0.325 OA 
ENDBRANCH  27  28
ENDBRANCH  26  27
ENDBRANCH  25  26
ENDBRANCH  24  25
ENDBRANCH  23  24
ENDBRANCH  21  23
ENDBRANCH  20  21
ENDBRANCH  19  20
ENDBRANCH  18  19
ENDBRANCH  17  18
ENDBRANCH  15  16
ENDBRANCH   8  15
ENDBRANCH   5   6
ENDBRANCH   4   5
ENDBRANCH   2   4
BRANCH   2  32
HETATM   32  C   UNL     1     -11.814  10.493  71.027  1.00  0.00    -0.438 C  
BRANCH  32  33
HETATM   33  C   UNL     1     -12.772   9.308  71.048  1.00  0.00    -0.226 C  
BRANCH  33  34
HETATM   34  C   UNL     1     -12.136   8.170  71.778  1.00  0.00    -0.357 A  
HETATM   35  C   UNL     1     -10.441   7.366  73.302  1.00  0.00    -0.424 A  
HETATM   36  C   UNL     1     -11.867   5.804  72.126  1.00  0.00    -0.172 A  
HETATM   37  C   UNL     1     -11.092   8.427  72.678  1.00  0.00    -0.325 A  
HETATM   38  C   UNL     1     -12.520   6.859  71.501  1.00  0.00    -0.420 A  
HETATM   39  C   UNL     1     -10.828   6.057  73.025  1.00  0.00    -0.290 A  
ENDBRANCH  33  34
ENDBRANCH  32  33
ENDBRANCH   2  32
TORSDOF 18
ENDMDL
MODEL       10
REMARK 921   NORMALIZED FREE ENERGY PREDICTED BY IDOCK:   -5.45 KCAL/MOL
REMARK 922        TOTAL FREE ENERGY PREDICTED BY IDOCK:  -15.96 KCAL/MOL
REMARK 923 INTER-LIGAND FREE ENERGY PREDICTED BY IDOCK:  -12.31 KCAL/MOL
REMARK 924 INTRA-LIGAND FREE ENERGY PREDICTED BY IDOCK:   -3.65 KCAL/MOL
REMARK 927      BINDING AFFINITY PREDICTED BY RF-SCORE:    0.00 PKD
ROOT
HETATM    1  O   UNL     1     -13.450  15.794  70.362  1.00  0.00    -0.755 OA 
HETATM    2  C   UNL     1     -12.212  15.895  71.062  1.00  0.00    -0.375 C  
HETATM    3  H   UNL     1     -14.174  15.775  70.978  1.00  0.00     0.000 HD 
ENDROOT
BRANCH   2   4
HETATM    4  C   UNL     1     -11.038  15.926  70.063  1.00  0.00    -0.356 C  
BRANCH   4   5
HETATM    5  C   UNL     1     -11.285  16.748  68.794  1.00  0.00    -0.148 C  
BRANCH   5   6
HETATM    6  C   UNL     1     -10.044  17.424  68.166  1.00  0.00    -0.328 C  
HETATM    7  H   UNL     1      -6.064  17.100  67.691  1.00  0.00     0.000 HD 
HETATM    8  C   UNL     1      -8.649  16.673  68.258  1.00  0.00    -0.212 C  
HETATM    9  C   UNL     1      -9.788  18.748  68.899  1.00  0.00    -0.365 C  
HETATM   10  C   UNL     1      -8.392  19.119  68.489  1.00  0.00    -0.399 C  
HETATM   11  O   UNL     1     -10.688  19.769  68.510  1.00  0.00    -0.439 OA 
HETATM   12  O   UNL     1      -6.545  17.918  67.649  1.00  0.00    -0.178 OA 
HETATM   13  H   UNL     1     -10.529  20.588  68.963  1.00  0.00     0.000 HD 
HETATM   14  C   UNL     1      -7.625  17.815  68.556  1.00  0.00    -0.276 C  
BRANCH   8  15
HETATM   15  C   UNL     1      -8.290  15.770  67.034  1.00  0.00    -0.259 C  
BRANCH  15  16
HETATM   16  C   UNL     1      -8.805  14.343  67.101  1.00  0.00    -0.244 C  
HETATM   17  C   UNL     1     -10.010  13.812  66.813  1.00  0.00    -0.270 C  
BRANCH  17  18
HETATM   18  C   UNL     1     -11.256  14.501  66.335  1.00  0.00    -0.341 C  
BRANCH  18  19
HETATM   19  C   UNL     1     -12.434  13.529  66.172  1.00  0.00    -0.424 C  
BRANCH  19  20
HETATM   20  C   UNL     1     -12.189  12.407  65.171  1.00  0.00    -0.449 C  
BRANCH  20  21
HETATM   21  C   UNL     1     -11.938  12.954  63.800  1.00  0.00    -0.512 C  
HETATM   22  O   UNL     1     -12.700  13.658  63.148  1.00  0.00    -0.737 OA 
BRANCH  21  23
HETATM   23  O   UNL     1     -10.776  12.418  63.337  1.00  0.00    -0.446 OA 
BRANCH  23  24
HETATM   24  C   UNL     1     -10.620  11.101  63.824  1.00  0.00    -0.356 C  
BRANCH  24  25
HETATM   25  C   UNL     1      -9.169  10.684  63.933  1.00  0.00    -0.271 C  
BRANCH  25  26
HETATM   26  C   UNL     1      -8.653  10.702  65.370  1.00  0.00    -0.185 C  
BRANCH  26  27
HETATM   27  C   UNL     1      -9.580  10.045  66.402  1.00  0.00    -0.196 C  
BRANCH  27  28
HETATM   28  O   UNL     1      -8.923  10.002  67.649  1.00  0.00    -0.131 OA 
HETATM   29  N   UNL     1      -8.846   8.690  68.174  1.00  0.00    -0.141 N  
HETATM   30  O   UNL     1      -8.330   8.658  69.294  1.00  0.00    -0.115 OA 
HETATM   31  O   UNL     1      -9.290   7.779  67.487  1.00  0.00    -0.137 OA 
ENDBRANCH  27  28
ENDBRANCH  26  27
ENDBRANCH  25  26
ENDBRANCH  24  25
ENDBRANCH  23  24
ENDBRANCH  21  23
ENDBRANCH  20  21
ENDBRANCH  19  20
ENDBRANCH  18  19
ENDBRANCH  17  18
ENDBRANCH  15  16
ENDBRANCH   8  15
ENDBRANCH   5   6
ENDBRANCH   4   5
ENDBRANCH   2   4
BRANCH   2  32
HETATM   32  C   UNL     1     -12.130  14.686  71.983  1.00  0.00    -0.346 C  
BRANCH  32  33
HETATM   33  C   UNL     1     -13.283  13.718  71.747  1.00  0.00    -0.467 C  
BRANCH  33  34
HETATM   34  C   UNL     1     -12.756  12.462  71.134  1.00  0.00    -0.336 A  
HETATM   35  C   UNL     1     -12.404  10.074  71.264  1.00  0.00    -0.496 A  
HETATM   36  C   UNL     1     -11.442  11.355  69.450  1.00  0.00    -0.378 A  
HETATM   37  C   UNL     1     -12.960  11.237  71.787  1.00  0.00    -0.519 A  
HETATM   38  C   UNL     1     -11.995  12.519  69.968  1.00  0.00    -0.372 A  
HETATM   39  C   UNL     1     -11.645  10.133  70.096  1.00  0.00    -0.350 A  
ENDBRANCH  33  34
ENDBRANCH  32  33
ENDBRANCH   2  32
TORSDOF 18
ENDMDL
MODEL       11
REMARK 921   NORMALIZED FREE ENERGY PREDICTED BY IDOCK:   -5.45 KCAL/MOL
REMARK 922        TOTAL FREE ENERGY PREDICTED BY IDOCK:  -15.96 KCAL/MOL
REMARK 923 INTER-LIGAND FREE ENERGY PREDICTED BY IDOCK:  -12.76 KCAL/MOL
REMARK 924 INTRA-LIGAND FREE ENERGY PREDICTED BY IDOCK:   -3.20 KCAL/MOL
REMARK 927      BINDING AFFINITY PREDICTED BY RF-SCORE:    0.00 PKD
ROOT
HETATM    1  O   UNL     1     -11.318   6.052  66.474  1.00  0.00    -0.737 OA 
HETATM    2  C   UNL     1     -10.448   6.732  67.376  1.00  0.00    -0.262 C  
HETATM    3  H   UNL     1     -10.917   5.993  65.614  1.00  0.00     0.000 HD 
ENDROOT
BRANCH   2   4
HETATM    4  C   UNL     1     -11.098   6.828  68.771  1.00  0.00    -0.234 C  
BRANCH   4   5
HETATM    5  C   UNL     1     -10.578   5.820  69.801  1.00  0.00    -0.388 C  
BRANCH   5   6
HETATM    6  C   UNL     1     -10.051   6.412  71.129  1.00  0.00    -0.213 C  
HETATM    7  H   UNL     1      -7.739   9.302  72.703  1.00  0.00     0.000 HD 
HETATM    8  C   UNL     1      -9.177   7.736  71.071  1.00  0.00    -0.158 C  
HETATM    9  C   UNL     1      -9.110   5.389  71.780  1.00  0.00    -0.138 C  
HETATM   10  C   UNL     1      -8.381   6.187  72.822  1.00  0.00    -0.117 C  
HETATM   11  O   UNL     1      -9.807   4.322  72.394  1.00  0.00    -0.145 OA 
HETATM   12  O   UNL     1      -7.943   8.482  73.137  1.00  0.00    -0.354 OA 
HETATM   13  H   UNL     1      -9.225   3.689  72.797  1.00  0.00     0.000 HD 
HETATM   14  C   UNL     1      -8.056   7.494  72.131  1.00  0.00    -0.102 C  
BRANCH   8  15
HETATM   15  C   UNL     1      -9.969   9.072  71.242  1.00  0.00    -0.381 C  
BRANCH  15  16
HETATM   16  C   UNL     1     -11.333   8.947  71.896  1.00  0.00    -0.446 C  
HETATM   17  C   UNL     1     -12.509   9.551  71.635  1.00  0.00    -0.476 C  
BRANCH  17  18
HETATM   18  C   UNL     1     -12.831  10.579  70.589  1.00  0.00    -0.407 C  
BRANCH  18  19
HETATM   19  C   UNL     1     -12.500  12.006  71.052  1.00  0.00    -0.376 C  
BRANCH  19  20
HETATM   20  C   UNL     1     -13.413  12.538  72.150  1.00  0.00    -0.523 C  
BRANCH  20  21
HETATM   21  C   UNL     1     -13.370  14.033  72.208  1.00  0.00    -0.478 C  
HETATM   22  O   UNL     1     -13.447  14.723  73.218  1.00  0.00    -0.561 OA 
BRANCH  21  23
HETATM   23  O   UNL     1     -13.376  14.506  70.932  1.00  0.00    -0.363 OA 
BRANCH  23  24
HETATM   24  C   UNL     1     -12.585  15.673  70.842  1.00  0.00    -0.449 C  
BRANCH  24  25
HETATM   25  C   UNL     1     -11.384  15.499  69.938  1.00  0.00    -0.323 C  
BRANCH  25  26
HETATM   26  C   UNL     1     -11.677  15.863  68.484  1.00  0.00    -0.297 C  
BRANCH  26  27
HETATM   27  C   UNL     1     -10.452  16.286  67.661  1.00  0.00    -0.295 C  
BRANCH  27  28
HETATM   28  O   UNL     1     -10.619  17.623  67.242  1.00  0.00    -0.347 OA 
HETATM   29  N   UNL     1     -10.614  17.752  65.833  1.00  0.00    -0.300 N  
HETATM   30  O   UNL     1     -10.694  18.926  65.466  1.00  0.00    -0.556 OA 
HETATM   31  O   UNL     1     -10.526  16.725  65.171  1.00  0.00    -0.658 OA 
ENDBRANCH  27  28
ENDBRANCH  26  27
ENDBRANCH  25  26
ENDBRANCH  24  25
ENDBRANCH  23  24
ENDBRANCH  21  23
ENDBRANCH  20  21
ENDBRANCH  19  20
ENDBRANCH  18  19
ENDBRANCH  17  18
ENDBRANCH  15  16
ENDBRANCH   8  15
ENDBRANCH   5   6
ENDBRANCH   4   5
ENDBRANCH   2   4
BRANCH   2  32
HETATM   32  C   UNL     1     -10.193   8.111  66.783  1.00  0.00    -0.372 C  
BRANCH  32  33
HETATM   33  C   UNL     1     -10.583   9.222  67.751  1.00  0.00    -0.307 C  
BRANCH  33  34
HETATM   34  C   UNL     1     -10.743  10.501  66.996  1.00  0.00    -0.310 A  
HETATM   35  C   UNL     1     -10.103  11.915  65.143  1.00  0.00    -0.293 A  
HETATM   36  C   UNL     1     -11.612  12.740  66.845  1.00  0.00    -0.428 A  
HETATM   37  C   UNL     1     -10.022  10.696  65.809  1.00  0.00    -0.315 A  
HETATM   38  C   UNL     1     -11.535  11.525  67.514  1.00  0.00    -0.355 A  
HETATM   39  C   UNL     1     -10.898  12.936  65.661  1.00  0.00    -0.296 A  
ENDBRANCH  33  34
ENDBRANCH  32  33
ENDBRANCH   2  32
TORSDOF 18
ENDMDL
MODEL       12
REMARK 921   NORMALIZED FREE ENERGY PREDICTED BY IDOCK:   -5.44 KCAL/MOL
REMARK 922        TOTAL FREE ENERGY PREDICTED BY IDOCK:  -15.95 KCAL/MOL
REMARK 923 INTER-LIGAND FREE ENERGY PREDICTED BY IDOCK:  -12.48 KCAL/MOL
REMARK 924 INTRA-LIGAND FREE ENERGY PREDICTED BY IDOCK:   -3.47 KCAL/MOL
REMARK 927      BINDING AFFINITY PREDICTED BY RF-SCORE:    0.00 PKD
ROOT
HETATM    1  O   UNL     1     -12.660  10.690  68.903  1.00  0.00    -0.742 OA 
HETATM    2  C   UNL     1     -11.307  11.142  68.931  1.00  0.00    -0.278 C  
HETATM    3  H   UNL     1     -13.057  10.793  69.760  1.00  0.00     0.000 HD 
ENDROOT
BRANCH   2   4
HETATM    4  C   UNL     1     -10.663  10.975  67.541  1.00  0.00    -0.289 C  
BRANCH   4   5
HETATM    5  C   UNL     1      -9.394  11.803  67.308  1.00  0.00    -0.171 C  
BRANCH   5   6
HETATM    6  C   UNL     1      -8.472  11.331  66.160  1.00  0.00    -0.135 C  
HETATM    7  H   UNL     1      -7.602   8.217  63.768  1.00  0.00     0.000 HD 
HETATM    8  C   UNL     1      -8.722   9.894  65.533  1.00  0.00    -0.170 C  
HETATM    9  C   UNL     1      -7.036  11.246  66.692  1.00  0.00    -0.129 C  
HETATM   10  C   UNL     1      -6.316  10.439  65.651  1.00  0.00    -0.126 C  
HETATM   11  O   UNL     1      -6.425  12.516  66.819  1.00  0.00    -0.468 OA 
HETATM   12  O   UNL     1      -6.994   8.915  63.984  1.00  0.00    -0.086 OA 
HETATM   13  H   UNL     1      -5.536  12.463  67.148  1.00  0.00     0.000 HD 
HETATM   14  C   UNL     1      -7.285   9.327  65.305  1.00  0.00    -0.090 C  
BRANCH   8  15
HETATM   15  C   UNL     1      -9.651   9.860  64.278  1.00  0.00    -0.220 C  
BRANCH  15  16
HETATM   16  C   UNL     1      -9.676  11.130  63.447  1.00  0.00    -0.382 C  
HETATM   17  C   UNL     1     -10.596  12.109  63.336  1.00  0.00    -0.454 C  
BRANCH  17  18
HETATM   18  C   UNL     1     -11.929  12.234  64.018  1.00  0.00    -0.551 C  
BRANCH  18  19
HETATM   19  C   UNL     1     -12.084  13.572  64.757  1.00  0.00    -0.442 C  
BRANCH  19  20
HETATM   20  C   UNL     1     -10.799  14.384  64.862  1.00  0.00    -0.430 C  
BRANCH  20  21
HETATM   21  C   UNL     1     -11.060  15.838  64.621  1.00  0.00    -0.361 C  
HETATM   22  O   UNL     1     -11.794  16.312  63.763  1.00  0.00    -0.955 OA 
BRANCH  21  23
HETATM   23  O   UNL     1     -10.228  16.555  65.425  1.00  0.00    -0.566 OA 
BRANCH  23  24
HETATM   24  C   UNL     1      -9.500  15.687  66.269  1.00  0.00    -0.319 C  
BRANCH  24  25
HETATM   25  C   UNL     1      -9.356  16.222  67.677  1.00  0.00    -0.218 C  
BRANCH  25  26
HETATM   26  C   UNL     1      -9.923  15.277  68.733  1.00  0.00    -0.215 C  
BRANCH  26  27
HETATM   27  C   UNL     1     -11.425  14.983  68.602  1.00  0.00    -0.311 C  
BRANCH  27  28
HETATM   28  O   UNL     1     -12.136  15.821  69.486  1.00  0.00    -0.353 OA 
HETATM   29  N   UNL     1     -12.816  15.093  70.491  1.00  0.00    -0.366 N  
HETATM   30  O   UNL     1     -13.490  15.818  71.226  1.00  0.00    -0.555 OA 
HETATM   31  O   UNL     1     -12.667  13.878  70.507  1.00  0.00    -0.312 OA 
ENDBRANCH  27  28
ENDBRANCH  26  27
ENDBRANCH  25  26
ENDBRANCH  24  25
ENDBRANCH  23  24
ENDBRANCH  21  23
ENDBRANCH  20  21
ENDBRANCH  19  20
ENDBRANCH  18  19
ENDBRANCH  17  18
ENDBRANCH  15  16
ENDBRANCH   8  15
ENDBRANCH   5   6
ENDBRANCH   4   5
ENDBRANCH   2   4
BRANCH   2  32
HETATM   32  C   UNL     1     -10.589  10.309  69.983  1.00  0.00    -0.321 C  
BRANCH  32  33
HETATM   33  C   UNL     1     -11.540   9.842  71.079  1.00  0.00    -0.470 C  
BRANCH  33  34
HETATM   34  C   UNL     1     -11.361   8.376  71.297  1.00  0.00    -0.314 A  
HETATM   35  C   UNL     1     -10.928   6.535  72.803  1.00  0.00    -0.286 A  
HETATM   36  C   UNL     1     -11.046   6.158  70.416  1.00  0.00    -0.420 A  
HETATM   37  C   UNL     1     -11.175   7.889  72.599  1.00  0.00    -0.459 A  
HETATM   38  C   UNL     1     -11.294   7.510  70.206  1.00  0.00    -0.219 A  
HETATM   39  C   UNL     1     -10.863   5.671  71.712  1.00  0.00    -0.301 A  
ENDBRANCH  33  34
ENDBRANCH  32  33
ENDBRANCH   2  32
TORSDOF 18
ENDMDL
MODEL       13
REMARK 921   NORMALIZED FREE ENERGY PREDICTED BY IDOCK:   -5.43 KCAL/MOL
REMARK 922        TOTAL FREE ENERGY PREDICTED BY IDOCK:  -15.92 KCAL/MOL
REMARK 923 INTER-LIGAND FREE ENERGY PREDICTED BY IDOCK:  -12.44 KCAL/MOL
REMARK 924 INTRA-LIGAND FREE ENERGY PREDICTED BY IDOCK:   -3.48 KCAL/MOL
REMARK 927      BINDING AFFINITY PREDICTED BY RF-SCORE:    0.00 PKD
ROOT
HETATM    1  O   UNL     1     -10.241  10.552  70.095  1.00  0.00    -0.433 OA 
HETATM    2  C   UNL     1     -11.561  10.838  69.637  1.00  0.00    -0.316 C  
HETATM    3  H   UNL     1     -10.275  10.015  70.879  1.00  0.00     0.000 HD 
ENDROOT
BRANCH   2   4
HETATM    4  C   UNL     1     -11.506  11.709  68.367  1.00  0.00    -0.360 C  
BRANCH   4   5
HETATM    5  C   UNL     1     -10.177  12.435  68.133  1.00  0.00    -0.225 C  
BRANCH   5   6
HETATM    6  C   UNL     1     -10.273  13.936  67.773  1.00  0.00    -0.237 C  
HETATM    7  H   UNL     1     -10.674  16.522  64.720  1.00  0.00     0.000 HD 
HETATM    8  C   UNL     1     -10.550  14.333  66.262  1.00  0.00    -0.291 C  
HETATM    9  C   UNL     1      -8.922  14.597  68.076  1.00  0.00    -0.174 C  
HETATM   10  C   UNL     1      -8.998  15.912  67.357  1.00  0.00    -0.203 C  
HETATM   11  O   UNL     1      -8.722  14.820  69.460  1.00  0.00    -0.408 OA 
HETATM   12  O   UNL     1     -10.279  16.736  65.557  1.00  0.00    -0.567 OA 
HETATM   13  H   UNL     1      -7.886  15.230  69.647  1.00  0.00     0.000 HD 
HETATM   14  C   UNL     1      -9.628  15.571  66.022  1.00  0.00    -0.345 C  
BRANCH   8  15
HETATM   15  C   UNL     1     -12.052  14.548  65.887  1.00  0.00    -0.288 C  
BRANCH  15  16
HETATM   16  C   UNL     1     -12.766  13.333  65.323  1.00  0.00    -0.474 C  
HETATM   17  C   UNL     1     -12.435  12.479  64.335  1.00  0.00    -0.530 C  
BRANCH  17  18
HETATM   18  C   UNL     1     -11.219  12.482  63.453  1.00  0.00    -0.460 C  
BRANCH  18  19
HETATM   19  C   UNL     1     -10.324  11.254  63.688  1.00  0.00    -0.464 C  
BRANCH  19  20
HETATM   20  C   UNL     1      -9.820  11.110  65.118  1.00  0.00    -0.307 C  
BRANCH  20  21
HETATM   21  C   UNL     1      -9.472   9.687  65.426  1.00  0.00    -0.278 C  
HETATM   22  O   UNL     1      -8.592   9.023  64.892  1.00  0.00    -0.169 OA 
BRANCH  21  23
HETATM   23  O   UNL     1     -10.397   9.206  66.300  1.00  0.00    -0.244 OA 
BRANCH  23  24
HETATM   24  C   UNL     1      -9.921   8.026  66.912  1.00  0.00    -0.268 C  
BRANCH  24  25
HETATM   25  C   UNL     1     -11.014   7.007  67.153  1.00  0.00    -0.393 C  
BRANCH  25  26
HETATM   26  C   UNL     1     -10.670   6.017  68.264  1.00  0.00    -0.352 C  
BRANCH  26  27
HETATM   27  C   UNL     1     -11.287   6.337  69.633  1.00  0.00    -0.422 C  
BRANCH  27  28
HETATM   28  O   UNL     1     -10.666   7.490  70.158  1.00  0.00    -0.231 OA 
HETATM   29  N   UNL     1     -10.832   7.601  71.559  1.00  0.00    -0.226 N  
HETATM   30  O   UNL     1     -10.347   8.640  72.012  1.00  0.00    -0.301 OA 
HETATM   31  O   UNL     1     -11.421   6.693  72.133  1.00  0.00    -0.263 OA 
ENDBRANCH  27  28
ENDBRANCH  26  27
ENDBRANCH  25  26
ENDBRANCH  24  25
ENDBRANCH  23  24
ENDBRANCH  21  23
ENDBRANCH  20  21
ENDBRANCH  19  20
ENDBRANCH  18  19
ENDBRANCH  17  18
ENDBRANCH  15  16
ENDBRANCH   8  15
ENDBRANCH   5   6
ENDBRANCH   4   5
ENDBRANCH   2   4
BRANCH   2  32
HETATM   32  C   UNL     1     -12.272  11.556  70.775  1.00  0.00    -0.463 C  
BRANCH  32  33
HETATM   33  C   UNL     1     -13.035  12.780  70.281  1.00  0.00     0.424 C  
BRANCH  33  34
HETATM   34  C   UNL     1     -12.705  13.951  71.148  1.00  0.00    -0.441 A  
HETATM   35  C   UNL     1     -12.994  15.143  73.231  1.00  0.00    -0.645 A  
HETATM   36  C   UNL     1     -11.717  16.128  71.427  1.00  0.00    -0.506 A  
HETATM   37  C   UNL     1     -13.231  14.019  72.446  1.00  0.00    -0.585 A  
HETATM   38  C   UNL     1     -11.950  15.007  70.639  1.00  0.00    -0.370 A  
HETATM   39  C   UNL     1     -12.238  16.197  72.721  1.00  0.00    -0.628 A  
ENDBRANCH  33  34
ENDBRANCH  32  33
ENDBRANCH   2  32
TORSDOF 18
ENDMDL
MODEL       14
REMARK 921   NORMALIZED FREE ENERGY PREDICTED BY IDOCK:   -5.43 KCAL/MOL
REMARK 922        TOTAL FREE ENERGY PREDICTED BY IDOCK:  -15.92 KCAL/MOL
REMARK 923 INTER-LIGAND FREE ENERGY PREDICTED BY IDOCK:  -11.59 KCAL/MOL
REMARK 924 INTRA-LIGAND FREE ENERGY PREDICTED BY IDOCK:   -4.33 KCAL/MOL
REMARK 927      BINDING AFFINITY PREDICTED BY RF-SCORE:    0.00 PKD
ROOT
HETATM    1  O   UNL     1     -12.223  13.578  62.889  1.00  0.00    -0.890 OA 
HETATM    2  C   UNL     1     -11.972  12.364  63.594  1.00  0.00    -0.539 C  
HETATM    3  H   UNL     1     -11.962  13.489  61.980  1.00  0.00     0.000 HD 
ENDROOT
BRANCH   2   4
HETATM    4  C   UNL     1     -12.397  12.508  65.068  1.00  0.00    -0.522 C  
BRANCH   4   5
HETATM    5  C   UNL     1     -12.622  13.947  65.543  1.00  0.00    -0.560 C  
BRANCH   5   6
HETATM    6  C   UNL     1     -11.369  14.709  66.032  1.00  0.00    -0.344 C  
HETATM    7  H   UNL     1      -9.669  16.441  69.239  1.00  0.00     0.000 HD 
HETATM    8  C   UNL     1     -11.253  15.060  67.576  1.00  0.00    -0.333 C  
HETATM    9  C   UNL     1     -11.336  16.083  65.348  1.00  0.00     0.072 C  
HETATM   10  C   UNL     1     -10.335  16.859  66.154  1.00  0.00    -0.327 C  
HETATM   11  O   UNL     1     -10.912  16.010  64.000  1.00  0.00    -0.926 OA 
HETATM   12  O   UNL     1      -9.467  16.664  68.338  1.00  0.00    -0.217 OA 
HETATM   13  H   UNL     1     -10.891  16.861  63.577  1.00  0.00     0.000 HD 
HETATM   14  C   UNL     1     -10.656  16.503  67.591  1.00  0.00    -0.321 C  
BRANCH   8  15
HETATM   15  C   UNL     1     -10.479  14.018  68.446  1.00  0.00    -0.254 C  
BRANCH  15  16
HETATM   16  C   UNL     1      -9.713  12.960  67.673  1.00  0.00    -0.212 C  
HETATM   17  C   UNL     1      -9.842  11.619  67.623  1.00  0.00    -0.195 C  
BRANCH  17  18
HETATM   18  C   UNL     1     -10.811  10.736  68.356  1.00  0.00    -0.276 C  
BRANCH  18  19
HETATM   19  C   UNL     1     -10.111   9.821  69.374  1.00  0.00    -0.221 C  
BRANCH  19  20
HETATM   20  C   UNL     1     -10.459   8.345  69.235  1.00  0.00    -0.223 C  
BRANCH  20  21
HETATM   21  C   UNL     1     -11.130   7.831  70.471  1.00  0.00    -0.257 C  
HETATM   22  O   UNL     1     -11.700   6.753  70.593  1.00  0.00    -0.349 OA 
BRANCH  21  23
HETATM   23  O   UNL     1     -11.127   8.827  71.398  1.00  0.00    -0.249 OA 
BRANCH  23  24
HETATM   24  C   UNL     1     -12.306   8.773  72.174  1.00  0.00    -0.389 C  
BRANCH  24  25
HETATM   25  C   UNL     1     -13.247   9.924  71.891  1.00  0.00    -0.558 C  
BRANCH  25  26
HETATM   26  C   UNL     1     -12.520  11.253  71.698  1.00  0.00    -0.251 C  
BRANCH  26  27
HETATM   27  C   UNL     1     -13.364  12.503  71.985  1.00  0.00    -0.426 C  
BRANCH  27  28
HETATM   28  O   UNL     1     -12.981  13.530  71.097  1.00  0.00    -0.318 OA 
HETATM   29  N   UNL     1     -13.459  14.799  71.501  1.00  0.00    -0.368 N  
HETATM   30  O   UNL     1     -13.181  15.688  70.693  1.00  0.00    -0.487 OA 
HETATM   31  O   UNL     1     -14.075  14.861  72.557  1.00  0.00    -0.459 OA 
ENDBRANCH  27  28
ENDBRANCH  26  27
ENDBRANCH  25  26
ENDBRANCH  24  25
ENDBRANCH  23  24
ENDBRANCH  21  23
ENDBRANCH  20  21
ENDBRANCH  19  20
ENDBRANCH  18  19
ENDBRANCH  17  18
ENDBRANCH  15  16
ENDBRANCH   8  15
ENDBRANCH   5   6
ENDBRANCH   4   5
ENDBRANCH   2   4
BRANCH   2  32
HETATM   32  C   UNL     1     -10.481  12.085  63.467  1.00  0.00    -0.505 C  
BRANCH  32  33
HETATM   33  C   UNL     1     -10.199  10.599  63.277  1.00  0.00    -0.139 C  
BRANCH  33  34
HETATM   34  C   UNL     1      -9.138  10.171  64.238  1.00  0.00    -0.288 A  
HETATM   35  C   UNL     1      -6.848  10.303  65.000  1.00  0.00    -0.111 A  
HETATM   36  C   UNL     1      -8.370   8.695  65.976  1.00  0.00    -0.135 A  
HETATM   37  C   UNL     1      -7.864  10.753  64.163  1.00  0.00     0.254 A  
HETATM   38  C   UNL     1      -9.389   9.141  65.143  1.00  0.00    -0.180 A  
HETATM   39  C   UNL     1      -7.101   9.275  65.906  1.00  0.00    -0.090 A  
ENDBRANCH  33  34
ENDBRANCH  32  33
ENDBRANCH   2  32
TORSDOF 18
ENDMDL
MODEL       15
REMARK 921   NORMALIZED FREE ENERGY PREDICTED BY IDOCK:   -5.42 KCAL/MOL
REMARK 922        TOTAL FREE ENERGY PREDICTED BY IDOCK:  -15.92 KCAL/MOL
REMARK 923 INTER-LIGAND FREE ENERGY PREDICTED BY IDOCK:  -13.05 KCAL/MOL
REMARK 924 INTRA-LIGAND FREE ENERGY PREDICTED BY IDOCK:   -2.87 KCAL/MOL
REMARK 927      BINDING AFFINITY PREDICTED BY RF-SCORE:    0.00 PKD
ROOT
HETATM    1  O   UNL     1      -8.959  18.550  68.734  1.00  0.00    -0.310 OA 
HETATM    2  C   UNL     1      -9.403  17.229  68.433  1.00  0.00    -0.275 C  
HETATM    3  H   UNL     1      -8.871  18.660  69.674  1.00  0.00     0.000 HD 
ENDROOT
BRANCH   2   4
HETATM    4  C   UNL     1      -9.545  17.051  66.908  1.00  0.00    -0.263 C  
BRANCH   4   5
HETATM    5  C   UNL     1      -9.534  15.599  66.419  1.00  0.00    -0.321 C  
BRANCH   5   6
HETATM    6  C   UNL     1     -10.889  15.030  65.938  1.00  0.00    -0.339 C  
HETATM    7  H   UNL     1     -12.918  11.627  65.248  1.00  0.00     0.000 HD 
HETATM    8  C   UNL     1     -11.111  13.459  65.997  1.00  0.00    -0.294 C  
HETATM    9  C   UNL     1     -11.055  15.360  64.449  1.00  0.00    -0.132 C  
HETATM   10  C   UNL     1     -12.175  14.462  64.007  1.00  0.00    -0.300 C  
HETATM   11  O   UNL     1     -11.410  16.712  64.227  1.00  0.00    -1.304 OA 
HETATM   12  O   UNL     1     -13.106  12.459  64.829  1.00  0.00    -0.806 OA 
HETATM   13  H   UNL     1     -11.513  16.916  63.305  1.00  0.00     0.000 HD 
HETATM   14  C   UNL     1     -11.875  13.136  64.674  1.00  0.00    -0.370 C  
BRANCH   8  15
HETATM   15  C   UNL     1     -11.792  12.925  67.298  1.00  0.00    -0.416 C  
BRANCH  15  16
HETATM   16  C   UNL     1     -10.900  12.110  68.218  1.00  0.00    -0.256 C  
HETATM   17  C   UNL     1     -11.066  11.697  69.490  1.00  0.00    -0.230 C  
BRANCH  17  18
HETATM   18  C   UNL     1     -12.222  11.940  70.419  1.00  0.00    -0.399 C  
BRANCH  18  19
HETATM   19  C   UNL     1     -13.031  10.662  70.691  1.00  0.00    -0.343 C  
BRANCH  19  20
HETATM   20  C   UNL     1     -12.796  10.052  72.067  1.00  0.00    -0.484 C  
BRANCH  20  21
HETATM   21  C   UNL     1     -12.647   8.565  71.977  1.00  0.00    -0.364 C  
HETATM   22  O   UNL     1     -13.317   7.808  71.286  1.00  0.00    -0.280 OA 
BRANCH  21  23
HETATM   23  O   UNL     1     -11.733   8.176  72.907  1.00  0.00    -0.373 OA 
BRANCH  23  24
HETATM   24  C   UNL     1     -10.607   7.605  72.274  1.00  0.00    -0.246 C  
BRANCH  24  25
HETATM   25  C   UNL     1      -9.708   8.638  71.631  1.00  0.00    -0.348 C  
BRANCH  25  26
HETATM   26  C   UNL     1      -8.489   8.024  70.948  1.00  0.00    -0.126 C  
BRANCH  26  27
HETATM   27  C   UNL     1      -8.768   7.367  69.588  1.00  0.00    -0.137 C  
BRANCH  27  28
HETATM   28  O   UNL     1      -9.734   8.131  68.899  1.00  0.00    -0.152 OA 
HETATM   29  N   UNL     1      -9.523   8.131  67.500  1.00  0.00    -0.149 N  
HETATM   30  O   UNL     1     -10.327   8.850  66.901  1.00  0.00    -0.262 OA 
HETATM   31  O   UNL     1      -8.602   7.452  67.066  1.00  0.00    -0.116 OA 
ENDBRANCH  27  28
ENDBRANCH  26  27
ENDBRANCH  25  26
ENDBRANCH  24  25
ENDBRANCH  23  24
ENDBRANCH  21  23
ENDBRANCH  20  21
ENDBRANCH  19  20
ENDBRANCH  18  19
ENDBRANCH  17  18
ENDBRANCH  15  16
ENDBRANCH   8  15
ENDBRANCH   5   6
ENDBRANCH   4   5
ENDBRANCH   2   4
BRANCH   2  32
HETATM   32  C   UNL     1     -10.736  17.042  69.143  1.00  0.00    -0.253 C  
BRANCH  32  33
HETATM   33  C   UNL     1     -10.856  15.653  69.761  1.00  0.00    -0.310 C  
BRANCH  33  34
HETATM   34  C   UNL     1     -11.934  15.664  70.795  1.00  0.00    -0.438 A  
HETATM   35  C   UNL     1     -12.601  15.965  73.099  1.00  0.00    -0.622 A  
HETATM   36  C   UNL     1     -14.193  15.169  71.459  1.00  0.00    -0.647 A  
HETATM   37  C   UNL     1     -11.621  16.029  72.113  1.00  0.00    -0.499 A  
HETATM   38  C   UNL     1     -13.219  15.231  70.470  1.00  0.00    -0.278 A  
HETATM   39  C   UNL     1     -13.886  15.535  72.772  1.00  0.00    -0.606 A  
ENDBRANCH  33  34
ENDBRANCH  32  33
ENDBRANCH   2  32
TORSDOF 18
ENDMDL
MODEL       16
REMARK 921   NORMALIZED FREE ENERGY PREDICTED BY IDOCK:   -5.40 KCAL/MOL
REMARK 922        TOTAL FREE ENERGY PREDICTED BY IDOCK:  -15.88 KCAL/MOL
REMARK 923 INTER-LIGAND FREE ENERGY PREDICTED BY IDOCK:  -13.07 KCAL/MOL
REMARK 924 INTRA-LIGAND FREE ENERGY PREDICTED BY IDOCK:   -2.80 KCAL/MOL
REMARK 927      BINDING AFFINITY PREDICTED BY RF-SCORE:    0.00 PKD
ROOT
HETATM    1  O   UNL     1     -13.389   8.725  73.003  1.00  0.00    -0.846 OA 
HETATM    2  C   UNL     1     -13.226   9.333  71.723  1.00  0.00    -0.403 C  
HETATM    3  H   UNL     1     -14.248   8.926  73.354  1.00  0.00     0.000 HD 
ENDROOT
BRANCH   2   4
HETATM    4  C   UNL     1     -11.831   9.006  71.153  1.00  0.00    -0.362 C  
BRANCH   4   5
HETATM    5  C   UNL     1     -10.729   8.818  72.200  1.00  0.00    -0.383 C  
BRANCH   5   6
HETATM    6  C   UNL     1     -10.230   7.369  72.413  1.00  0.00    -0.240 C  
HETATM    7  H   UNL     1     -11.188   3.498  71.895  1.00  0.00     0.000 HD 
HETATM    8  C   UNL     1     -11.113   6.177  71.849  1.00  0.00    -0.324 C  
HETATM    9  C   UNL     1     -10.170   7.090  73.920  1.00  0.00    -0.350 C  
HETATM   10  C   UNL     1     -10.053   5.596  74.003  1.00  0.00    -0.242 C  
HETATM   11  O   UNL     1      -9.051   7.693  74.542  1.00  0.00    -0.434 OA 
HETATM   12  O   UNL     1     -10.574   3.817  72.546  1.00  0.00    -0.136 OA 
HETATM   13  H   UNL     1      -9.014   7.520  75.475  1.00  0.00     0.000 HD 
HETATM   14  C   UNL     1     -11.032   5.087  72.965  1.00  0.00    -0.295 C  
BRANCH   8  15
HETATM   15  C   UNL     1     -10.737   5.681  70.416  1.00  0.00    -0.352 C  
BRANCH  15  16
HETATM   16  C   UNL     1      -9.495   6.309  69.809  1.00  0.00    -0.163 C  
HETATM   17  C   UNL     1      -9.343   7.256  68.862  1.00  0.00    -0.144 C  
BRANCH  17  18
HETATM   18  C   UNL     1     -10.396   7.989  68.082  1.00  0.00    -0.250 C  
BRANCH  18  19
HETATM   19  C   UNL     1      -9.865   9.294  67.468  1.00  0.00    -0.224 C  
BRANCH  19  20
HETATM   20  C   UNL     1     -10.663  10.536  67.845  1.00  0.00    -0.305 C  
BRANCH  20  21
HETATM   21  C   UNL     1     -10.908  11.402  66.649  1.00  0.00    -0.289 C  
HETATM   22  O   UNL     1     -10.089  11.700  65.788  1.00  0.00    -0.223 OA 
BRANCH  21  23
HETATM   23  O   UNL     1     -12.161  11.924  66.755  1.00  0.00    -0.593 OA 
BRANCH  23  24
HETATM   24  C   UNL     1     -12.241  13.142  66.046  1.00  0.00    -0.414 C  
BRANCH  24  25
HETATM   25  C   UNL     1     -11.858  14.339  66.890  1.00  0.00    -0.458 C  
BRANCH  25  26
HETATM   26  C   UNL     1     -10.729  15.162  66.275  1.00  0.00    -0.320 C  
BRANCH  26  27
HETATM   27  C   UNL     1     -10.777  16.665  66.587  1.00  0.00    -0.124 C  
BRANCH  27  28
HETATM   28  O   UNL     1      -9.752  17.316  65.870  1.00  0.00    -0.498 OA 
HETATM   29  N   UNL     1      -9.568  18.656  66.287  1.00  0.00    -0.312 N  
HETATM   30  O   UNL     1      -8.717  19.247  65.618  1.00  0.00    -0.311 OA 
HETATM   31  O   UNL     1     -10.253  19.057  67.219  1.00  0.00    -0.351 OA 
ENDBRANCH  27  28
ENDBRANCH  26  27
ENDBRANCH  25  26
ENDBRANCH  24  25
ENDBRANCH  23  24
ENDBRANCH  21  23
ENDBRANCH  20  21
ENDBRANCH  19  20
ENDBRANCH  18  19
ENDBRANCH  17  18
ENDBRANCH  15  16
ENDBRANCH   8  15
ENDBRANCH   5   6
ENDBRANCH   4   5
ENDBRANCH   2   4
BRANCH   2  32
HETATM   32  C   UNL     1     -13.410  10.830  71.923  1.00  0.00    -0.445 C  
BRANCH  32  33
HETATM   33  C   UNL     1     -12.749  11.634  70.809  1.00  0.00    -0.291 C  
BRANCH  33  34
HETATM   34  C   UNL     1     -12.781  13.085  71.162  1.00  0.00    -0.372 A  
HETATM   35  C   UNL     1     -13.694  14.881  72.498  1.00  0.00    -0.568 A  
HETATM   36  C   UNL     1     -12.169  15.362  70.681  1.00  0.00    -0.431 A  
HETATM   37  C   UNL     1     -13.598  13.522  72.215  1.00  0.00    -0.690 A  
HETATM   38  C   UNL     1     -12.069  14.006  70.395  1.00  0.00    -0.426 A  
HETATM   39  C   UNL     1     -12.981  15.800  71.731  1.00  0.00    -0.505 A  
ENDBRANCH  33  34
ENDBRANCH  32  33
ENDBRANCH   2  32
TORSDOF 18
ENDMDL
MODEL       17
REMARK 921   NORMALIZED FREE ENERGY PREDICTED BY IDOCK:   -5.40 KCAL/MOL
REMARK 922        TOTAL FREE ENERGY PREDICTED BY IDOCK:  -15.87 KCAL/MOL
REMARK 923 INTER-LIGAND FREE ENERGY PREDICTED BY IDOCK:  -12.82 KCAL/MOL
REMARK 924 INTRA-LIGAND FREE ENERGY PREDICTED BY IDOCK:   -3.05 KCAL/MOL
REMARK 927      BINDING AFFINITY PREDICTED BY RF-SCORE:    0.00 PKD
ROOT
HETATM    1  O   UNL     1      -8.579  10.740  69.555  1.00  0.00    -0.373 OA 
HETATM    2  C   UNL     1      -9.038   9.993  68.430  1.00  0.00    -0.121 C  
HETATM    3  H   UNL     1      -7.941  10.235  70.045  1.00  0.00     0.000 HD 
ENDROOT
BRANCH   2   4
HETATM    4  C   UNL     1     -10.073  10.813  67.634  1.00  0.00    -0.205 C  
BRANCH   4   5
HETATM    5  C   UNL     1      -9.507  12.024  66.885  1.00  0.00    -0.206 C  
BRANCH   5   6
HETATM    6  C   UNL     1     -10.187  12.375  65.542  1.00  0.00    -0.297 C  
HETATM    7  H   UNL     1     -13.748  12.915  63.752  1.00  0.00     0.000 HD 
HETATM    8  C   UNL     1     -11.766  12.542  65.517  1.00  0.00    -0.457 C  
HETATM    9  C   UNL     1      -9.932  11.231  64.552  1.00  0.00    -0.284 C  
HETATM   10  C   UNL     1     -10.921  11.482  63.452  1.00  0.00    -0.397 C  
HETATM   11  O   UNL     1      -8.617  11.249  64.027  1.00  0.00    -0.370 OA 
HETATM   12  O   UNL     1     -12.949  12.675  63.297  1.00  0.00    -0.595 OA 
HETATM   13  H   UNL     1      -8.459  10.541  63.414  1.00  0.00     0.000 HD 
HETATM   14  C   UNL     1     -12.195  11.864  64.176  1.00  0.00    -0.281 C  
BRANCH   8  15
HETATM   15  C   UNL     1     -12.292  13.999  65.717  1.00  0.00    -0.506 C  
BRANCH  15  16
HETATM   16  C   UNL     1     -11.622  15.060  64.861  1.00  0.00    -0.374 C  
HETATM   17  C   UNL     1     -10.512  15.799  65.057  1.00  0.00    -0.331 C  
BRANCH  17  18
HETATM   18  C   UNL     1      -9.577  15.803  66.233  1.00  0.00    -0.343 C  
BRANCH  18  19
HETATM   19  C   UNL     1      -8.718  17.077  66.290  1.00  0.00    -0.285 C  
BRANCH  19  20
HETATM   20  C   UNL     1      -8.712  17.770  67.646  1.00  0.00    -0.244 C  
BRANCH  20  21
HETATM   21  C   UNL     1     -10.104  18.096  68.090  1.00  0.00    -0.378 C  
HETATM   22  O   UNL     1     -10.876  18.877  67.546  1.00  0.00    -0.450 OA 
BRANCH  21  23
HETATM   23  O   UNL     1     -10.320  17.486  69.287  1.00  0.00    -0.327 OA 
BRANCH  23  24
HETATM   24  C   UNL     1     -11.256  16.439  69.139  1.00  0.00    -0.275 C  
BRANCH  24  25
HETATM   25  C   UNL     1     -10.759  15.124  69.699  1.00  0.00    -0.289 C  
BRANCH  25  26
HETATM   26  C   UNL     1     -11.731  13.971  69.461  1.00  0.00    -0.367 C  
BRANCH  26  27
HETATM   27  C   UNL     1     -12.542  13.542  70.692  1.00  0.00    -0.275 C  
BRANCH  27  28
HETATM   28  O   UNL     1     -12.139  14.315  71.801  1.00  0.00    -0.292 OA 
HETATM   29  N   UNL     1     -13.117  14.345  72.822  1.00  0.00    -0.487 N  
HETATM   30  O   UNL     1     -12.795  15.073  73.765  1.00  0.00    -0.509 OA 
HETATM   31  O   UNL     1     -14.131  13.680  72.654  1.00  0.00    -0.746 OA 
ENDBRANCH  27  28
ENDBRANCH  26  27
ENDBRANCH  25  26
ENDBRANCH  24  25
ENDBRANCH  23  24
ENDBRANCH  21  23
ENDBRANCH  20  21
ENDBRANCH  19  20
ENDBRANCH  18  19
ENDBRANCH  17  18
ENDBRANCH  15  16
ENDBRANCH   8  15
ENDBRANCH   5   6
ENDBRANCH   4   5
ENDBRANCH   2   4
BRANCH   2  32
HETATM   32  C   UNL     1      -9.644   8.708  68.976  1.00  0.00    -0.163 C  
BRANCH  32  33
HETATM   33  C   UNL     1      -9.696   8.711  70.499  1.00  0.00    -0.210 C  
BRANCH  33  34
HETATM   34  C   UNL     1     -11.121   8.701  70.945  1.00  0.00    -0.310 A  
HETATM   35  C   UNL     1     -13.075   7.455  71.635  1.00  0.00    -0.412 A  
HETATM   36  C   UNL     1     -13.214   9.843  71.270  1.00  0.00    -0.465 A  
HETATM   37  C   UNL     1     -11.726   7.484  71.295  1.00  0.00    -0.312 A  
HETATM   38  C   UNL     1     -11.867   9.878  70.930  1.00  0.00    -0.443 A  
HETATM   39  C   UNL     1     -13.818   8.634  71.622  1.00  0.00    -0.440 A  
ENDBRANCH  33  34
ENDBRANCH  32  33
ENDBRANCH   2  32
TORSDOF 18
ENDMDL
MODEL       18
REMARK 921   NORMALIZED FREE ENERGY PREDICTED BY IDOCK:   -5.40 KCAL/MOL
REMARK 922        TOTAL FREE ENERGY PREDICTED BY IDOCK:  -15.86 KCAL/MOL
REMARK 923 INTER-LIGAND FREE ENERGY PREDICTED BY IDOCK:  -13.24 KCAL/MOL
REMARK 924 INTRA-LIGAND FREE ENERGY PREDICTED BY IDOCK:   -2.62 KCAL/MOL
REMARK 927      BINDING AFFINITY PREDICTED BY RF-SCORE:    0.00 PKD
ROOT
HETATM    1  O   UNL     1     -14.039   8.975  73.207  1.00  0.00    -1.218 OA 
HETATM    2  C   UNL     1     -13.695   8.667  71.858  1.00  0.00    -0.421 C  
HETATM    3  H   UNL     1     -14.888   9.401  73.240  1.00  0.00     0.000 HD 
ENDROOT
BRANCH   2   4
HETATM    4  C   UNL     1     -12.319   7.976  71.804  1.00  0.00    -0.352 C  
BRANCH   4   5
HETATM    5  C   UNL     1     -12.258   6.713  70.939  1.00  0.00    -0.324 C  
BRANCH   5   6
HETATM    6  C   UNL     1     -10.925   6.455  70.200  1.00  0.00    -0.395 C  
HETATM    7  H   UNL     1      -9.313   5.604  66.615  1.00  0.00     0.000 HD 
HETATM    8  C   UNL     1     -10.960   6.259  68.625  1.00  0.00    -0.423 C  
HETATM    9  C   UNL     1     -10.331   5.136  70.712  1.00  0.00    -0.224 C  
HETATM   10  C   UNL     1      -9.281   4.797  69.694  1.00  0.00    -0.180 C  
HETATM   11  O   UNL     1      -9.735   5.266  71.989  1.00  0.00    -0.154 OA 
HETATM   12  O   UNL     1      -8.902   5.408  67.449  1.00  0.00    -0.108 OA 
HETATM   13  H   UNL     1      -9.367   4.450  72.306  1.00  0.00     0.000 HD 
HETATM   14  C   UNL     1      -9.936   5.109  68.365  1.00  0.00    -0.149 C  
BRANCH   8  15
HETATM   15  C   UNL     1     -10.726   7.553  67.781  1.00  0.00    -0.233 C  
BRANCH  15  16
HETATM   16  C   UNL     1     -10.118   8.724  68.532  1.00  0.00    -0.210 C  
HETATM   17  C   UNL     1     -10.417  10.038  68.535  1.00  0.00    -0.229 C  
BRANCH  17  18
HETATM   18  C   UNL     1     -11.474  10.767  67.755  1.00  0.00    -0.283 C  
BRANCH  18  19
HETATM   19  C   UNL     1     -10.919  11.399  66.469  1.00  0.00    -0.328 C  
BRANCH  19  20
HETATM   20  C   UNL     1     -11.765  12.537  65.912  1.00  0.00    -0.480 C  
BRANCH  20  21
HETATM   21  C   UNL     1     -11.134  13.128  64.690  1.00  0.00    -0.345 C  
HETATM   22  O   UNL     1     -10.523  12.518  63.821  1.00  0.00    -0.416 OA 
BRANCH  21  23
HETATM   23  O   UNL     1     -11.230  14.483  64.779  1.00  0.00    -0.374 OA 
BRANCH  23  24
HETATM   24  C   UNL     1     -10.960  14.904  66.100  1.00  0.00    -0.334 C  
BRANCH  24  25
HETATM   25  C   UNL     1      -9.486  14.863  66.439  1.00  0.00    -0.327 C  
BRANCH  25  26
HETATM   26  C   UNL     1      -8.749  16.139  66.042  1.00  0.00    -0.282 C  
BRANCH  26  27
HETATM   27  C   UNL     1      -9.063  17.368  66.907  1.00  0.00    -0.245 C  
BRANCH  27  28
HETATM   28  O   UNL     1      -9.221  18.492  66.070  1.00  0.00    -0.499 OA 
HETATM   29  N   UNL     1     -10.357  19.264  66.412  1.00  0.00    -0.434 N  
HETATM   30  O   UNL     1     -10.534  20.211  65.641  1.00  0.00    -0.416 OA 
HETATM   31  O   UNL     1     -11.008  18.912  67.386  1.00  0.00    -0.437 OA 
ENDBRANCH  27  28
ENDBRANCH  26  27
ENDBRANCH  25  26
ENDBRANCH  24  25
ENDBRANCH  23  24
ENDBRANCH  21  23
ENDBRANCH  20  21
ENDBRANCH  19  20
ENDBRANCH  18  19
ENDBRANCH  17  18
ENDBRANCH  15  16
ENDBRANCH   8  15
ENDBRANCH   5   6
ENDBRANCH   4   5
ENDBRANCH   2   4
BRANCH   2  32
HETATM   32  C   UNL     1     -13.689   9.985  71.097  1.00  0.00    -0.071 C  
BRANCH  32  33
HETATM   33  C   UNL     1     -12.384  10.748  71.300  1.00  0.00    -0.470 C  
BRANCH  33  34
HETATM   34  C   UNL     1     -12.667  12.214  71.318  1.00  0.00    -0.363 A  
HETATM   35  C   UNL     1     -13.908  14.082  72.221  1.00  0.00    -0.655 A  
HETATM   36  C   UNL     1     -12.426  14.397  70.334  1.00  0.00    -0.420 A  
HETATM   37  C   UNL     1     -13.579  12.730  72.250  1.00  0.00    -0.563 A  
HETATM   38  C   UNL     1     -12.094  13.048  70.359  1.00  0.00    -0.391 A  
HETATM   39  C   UNL     1     -13.332  14.914  71.263  1.00  0.00    -0.490 A  
ENDBRANCH  33  34
ENDBRANCH  32  33
ENDBRANCH   2  32
TORSDOF 18
ENDMDL
MODEL       19
REMARK 921   NORMALIZED FREE ENERGY PREDICTED BY IDOCK:   -5.39 KCAL/MOL
REMARK 922        TOTAL FREE ENERGY PREDICTED BY IDOCK:  -15.85 KCAL/MOL
REMARK 923 INTER-LIGAND FREE ENERGY PREDICTED BY IDOCK:  -12.88 KCAL/MOL
REMARK 924 INTRA-LIGAND FREE ENERGY PREDICTED BY IDOCK:   -2.97 KCAL/MOL
REMARK 927      BINDING AFFINITY PREDICTED BY RF-SCORE:    0.00 PKD
ROOT
HETATM    1  O   UNL     1     -13.063   8.143  72.538  1.00  0.00    -0.550 OA 
HETATM    2  C   UNL     1     -12.352   8.960  71.610  1.00  0.00    -0.343 C  
HETATM    3  H   UNL     1     -13.996   8.190  72.367  1.00  0.00     0.000 HD 
ENDROOT
BRANCH   2   4
HETATM    4  C   UNL     1     -10.837   8.883  71.886  1.00  0.00    -0.433 C  
BRANCH   4   5
HETATM    5  C   UNL     1      -9.941   9.144  70.671  1.00  0.00    -0.307 C  
BRANCH   5   6
HETATM    6  C   UNL     1      -9.704   7.942  69.727  1.00  0.00    -0.176 C  
HETATM    7  H   UNL     1     -11.318   5.803  66.728  1.00  0.00     0.000 HD 
HETATM    8  C   UNL     1     -10.776   7.650  68.594  1.00  0.00    -0.095 C  
HETATM    9  C   UNL     1      -9.707   6.657  70.565  1.00  0.00    -0.176 C  
HETATM   10  C   UNL     1      -9.853   5.566  69.544  1.00  0.00    -0.253 C  
HETATM   11  O   UNL     1      -8.505   6.476  71.290  1.00  0.00    -0.125 OA 
HETATM   12  O   UNL     1     -10.663   5.473  67.332  1.00  0.00    -0.228 OA 
HETATM   13  H   UNL     1      -8.507   5.680  71.808  1.00  0.00     0.000 HD 
HETATM   14  C   UNL     1     -10.896   6.092  68.581  1.00  0.00    -0.332 C  
BRANCH   8  15
HETATM   15  C   UNL     1     -10.480   8.299  67.204  1.00  0.00    -0.386 C  
BRANCH  15  16
HETATM   16  C   UNL     1      -9.114   8.945  67.060  1.00  0.00    -0.161 C  
HETATM   17  C   UNL     1      -8.714  10.227  67.170  1.00  0.00    -0.131 C  
BRANCH  17  18
HETATM   18  C   UNL     1      -9.535  11.451  67.464  1.00  0.00    -0.173 C  
BRANCH  18  19
HETATM   19  C   UNL     1     -10.428  11.852  66.280  1.00  0.00    -0.274 C  
BRANCH  19  20
HETATM   20  C   UNL     1     -11.821  12.326  66.676  1.00  0.00    -0.362 C  
BRANCH  20  21
HETATM   21  C   UNL     1     -12.513  12.985  65.524  1.00  0.00    -0.438 C  
HETATM   22  O   UNL     1     -12.939  12.429  64.519  1.00  0.00    -0.770 OA 
BRANCH  21  23
HETATM   23  O   UNL     1     -12.461  14.331  65.714  1.00  0.00    -0.441 OA 
BRANCH  23  24
HETATM   24  C   UNL     1     -11.706  14.939  64.687  1.00  0.00    -0.404 C  
BRANCH  24  25
HETATM   25  C   UNL     1     -10.755  15.996  65.206  1.00  0.00    -0.417 C  
BRANCH  25  26
HETATM   26  C   UNL     1     -10.094  15.605  66.526  1.00  0.00    -0.293 C  
BRANCH  26  27
HETATM   27  C   UNL     1     -10.615  16.355  67.760  1.00  0.00    -0.321 C  
BRANCH  27  28
HETATM   28  O   UNL     1      -9.549  17.067  68.348  1.00  0.00    -0.257 OA 
HETATM   29  N   UNL     1      -9.718  18.469  68.252  1.00  0.00    -0.337 N  
HETATM   30  O   UNL     1      -8.757  19.093  68.708  1.00  0.00    -0.354 OA 
HETATM   31  O   UNL     1     -10.752  18.880  67.741  1.00  0.00    -0.413 OA 
ENDBRANCH  27  28
ENDBRANCH  26  27
ENDBRANCH  25  26
ENDBRANCH  24  25
ENDBRANCH  23  24
ENDBRANCH  21  23
ENDBRANCH  20  21
ENDBRANCH  19  20
ENDBRANCH  18  19
ENDBRANCH  17  18
ENDBRANCH  15  16
ENDBRANCH   8  15
ENDBRANCH   5   6
ENDBRANCH   4   5
ENDBRANCH   2   4
BRANCH   2  32
HETATM   32  C   UNL     1     -12.879  10.377  71.782  1.00  0.00    -0.561 C  
BRANCH  32  33
HETATM   33  C   UNL     1     -12.419  11.291  70.652  1.00  0.00    -0.439 C  
BRANCH  33  34
HETATM   34  C   UNL     1     -12.700  12.711  71.020  1.00  0.00    -0.316 A  
HETATM   35  C   UNL     1     -12.341  15.070  70.631  1.00  0.00    -0.404 A  
HETATM   36  C   UNL     1     -13.618  14.328  72.548  1.00  0.00    -0.620 A  
HETATM   37  C   UNL     1     -12.150  13.746  70.248  1.00  0.00    -0.425 A  
HETATM   38  C   UNL     1     -13.431  13.004  72.170  1.00  0.00    -0.638 A  
HETATM   39  C   UNL     1     -13.074  15.361  71.780  1.00  0.00    -0.529 A  
ENDBRANCH  33  34
ENDBRANCH  32  33
ENDBRANCH   2  32
TORSDOF 18
ENDMDL
MODEL       20
REMARK 921   NORMALIZED FREE ENERGY PREDICTED BY IDOCK:   -5.36 KCAL/MOL
REMARK 922        TOTAL FREE ENERGY PREDICTED BY IDOCK:  -15.78 KCAL/MOL
REMARK 923 INTER-LIGAND FREE ENERGY PREDICTED BY IDOCK:  -12.47 KCAL/MOL
REMARK 924 INTRA-LIGAND FREE ENERGY PREDICTED BY IDOCK:   -3.31 KCAL/MOL
REMARK 927      BINDING AFFINITY PREDICTED BY RF-SCORE:    0.00 PKD
ROOT
HETATM    1  O   UNL     1     -14.043  13.332  72.529  1.00  0.00    -0.709 OA 
HETATM    2  C   UNL     1     -12.790  13.012  71.927  1.00  0.00    -0.211 C  
HETATM    3  H   UNL     1     -14.355  12.599  73.047  1.00  0.00     0.000 HD 
ENDROOT
BRANCH   2   4
HETATM    4  C   UNL     1     -12.285  14.202  71.087  1.00  0.00    -0.435 C  
BRANCH   4   5
HETATM    5  C   UNL     1     -12.162  13.931  69.584  1.00  0.00    -0.374 C  
BRANCH   5   6
HETATM    6  C   UNL     1     -10.912  14.514  68.885  1.00  0.00    -0.268 C  
HETATM    7  H   UNL     1      -7.111  13.718  67.838  1.00  0.00     0.000 HD 
HETATM    8  C   UNL     1      -9.648  13.573  68.690  1.00  0.00    -0.077 C  
HETATM    9  C   UNL     1     -10.371  15.669  69.738  1.00  0.00    -0.305 C  
HETATM   10  C   UNL     1      -8.991  15.900  69.193  1.00  0.00    -0.256 C  
HETATM   11  O   UNL     1     -11.141  16.850  69.607  1.00  0.00    -0.354 OA 
HETATM   12  O   UNL     1      -7.461  14.592  67.966  1.00  0.00    -0.112 OA 
HETATM   13  H   UNL     1     -10.806  17.565  70.135  1.00  0.00     0.000 HD 
HETATM   14  C   UNL     1      -8.433  14.507  68.990  1.00  0.00    -0.048 C  
BRANCH   8  15
HETATM   15  C   UNL     1      -9.577  12.816  67.325  1.00  0.00    -0.208 C  
BRANCH  15  16
HETATM   16  C   UNL     1      -9.035  11.400  67.389  1.00  0.00    -0.154 C  
HETATM   17  C   UNL     1      -8.701  10.525  66.419  1.00  0.00    -0.152 C  
BRANCH  17  18
HETATM   18  C   UNL     1      -8.785  10.691  64.928  1.00  0.00    -0.178 C  
BRANCH  18  19
HETATM   19  C   UNL     1     -10.209  10.469  64.395  1.00  0.00    -0.337 C  
BRANCH  19  20
HETATM   20  C   UNL     1     -10.721  11.582  63.490  1.00  0.00    -0.483 C  
BRANCH  20  21
HETATM   21  C   UNL     1     -12.069  12.058  63.933  1.00  0.00    -0.457 C  
HETATM   22  O   UNL     1     -13.101  12.033  63.273  1.00  0.00    -0.701 OA 
BRANCH  21  23
HETATM   23  O   UNL     1     -11.928  12.660  65.145  1.00  0.00    -0.380 OA 
BRANCH  23  24
HETATM   24  C   UNL     1     -12.730  13.821  65.208  1.00  0.00    -0.439 C  
BRANCH  24  25
HETATM   25  C   UNL     1     -12.105  15.005  64.501  1.00  0.00    -0.373 C  
BRANCH  25  26
HETATM   26  C   UNL     1     -10.675  15.283  64.959  1.00  0.00    -0.461 C  
BRANCH  26  27
HETATM   27  C   UNL     1     -10.529  16.430  65.969  1.00  0.00    -0.323 C  
BRANCH  27  28
HETATM   28  O   UNL     1     -10.558  17.659  65.277  1.00  0.00    -0.663 OA 
HETATM   29  N   UNL     1     -10.615  18.770  66.152  1.00  0.00    -0.425 N  
HETATM   30  O   UNL     1     -10.706  19.842  65.549  1.00  0.00    -0.461 OA 
HETATM   31  O   UNL     1     -10.577  18.545  67.355  1.00  0.00    -0.408 OA 
ENDBRANCH  27  28
ENDBRANCH  26  27
ENDBRANCH  25  26
ENDBRANCH  24  25
ENDBRANCH  23  24
ENDBRANCH  21  23
ENDBRANCH  20  21
ENDBRANCH  19  20
ENDBRANCH  18  19
ENDBRANCH  17  18
ENDBRANCH  15  16
ENDBRANCH   8  15
ENDBRANCH   5   6
ENDBRANCH   4   5
ENDBRANCH   2   4
BRANCH   2  32
HETATM   32  C   UNL     1     -13.021  11.779  71.065  1.00  0.00    -0.200 C  
BRANCH  32  33
HETATM   33  C   UNL     1     -13.067  10.506  71.903  1.00  0.00    -0.567 C  
BRANCH  33  34
HETATM   34  C   UNL     1     -12.302   9.429  71.206  1.00  0.00    -0.422 A  
HETATM   35  C   UNL     1     -11.771   7.083  70.958  1.00  0.00    -0.375 A  
HETATM   36  C   UNL     1     -10.545   8.753  69.707  1.00  0.00    -0.227 A  
HETATM   37  C   UNL     1     -12.535   8.088  71.545  1.00  0.00    -0.334 A  
HETATM   38  C   UNL     1     -11.305   9.759  70.289  1.00  0.00    -0.333 A  
HETATM   39  C   UNL     1     -10.777   7.416  70.041  1.00  0.00    -0.258 A  
ENDBRANCH  33  34
ENDBRANCH  32  33
ENDBRANCH   2  32
TORSDOF 18
ENDMDL
MODEL       21
REMARK 921   NORMALIZED FREE ENERGY PREDICTED BY IDOCK:   -5.35 KCAL/MOL
REMARK 922        TOTAL FREE ENERGY PREDICTED BY IDOCK:  -15.76 KCAL/MOL
REMARK 923 INTER-LIGAND FREE ENERGY PREDICTED BY IDOCK:  -12.99 KCAL/MOL
REMARK 924 INTRA-LIGAND FREE ENERGY PREDICTED BY IDOCK:   -2.78 KCAL/MOL
REMARK 927      BINDING AFFINITY PREDICTED BY RF-SCORE:    0.00 PKD
ROOT
HETATM    1  O   UNL     1     -13.206  13.787  65.063  1.00  0.00    -0.733 OA 
HETATM    2  C   UNL     1     -12.195  14.185  64.139  1.00  0.00    -0.390 C  
HETATM    3  H   UNL     1     -13.726  14.539  65.324  1.00  0.00     0.000 HD 
ENDROOT
BRANCH   2   4
HETATM    4  C   UNL     1     -11.353  12.966  63.716  1.00  0.00    -0.490 C  
BRANCH   4   5
HETATM    5  C   UNL     1     -11.700  11.656  64.430  1.00  0.00    -0.226 C  
BRANCH   5   6
HETATM    6  C   UNL     1     -10.516  10.706  64.728  1.00  0.00    -0.280 C  
HETATM    7  H   UNL     1      -7.440  10.039  67.232  1.00  0.00     0.000 HD 
HETATM    8  C   UNL     1      -9.660  10.956  66.041  1.00  0.00    -0.248 C  
HETATM    9  C   UNL     1      -9.487  10.840  63.597  1.00  0.00    -0.291 C  
HETATM   10  C   UNL     1      -8.253  10.196  64.158  1.00  0.00    -0.165 C  
HETATM   11  O   UNL     1      -9.884  10.168  62.417  1.00  0.00    -0.677 OA 
HETATM   12  O   UNL     1      -7.481   9.726  66.336  1.00  0.00    -0.096 OA 
HETATM   13  H   UNL     1      -9.247  10.252  61.717  1.00  0.00     0.000 HD 
HETATM   14  C   UNL     1      -8.188  10.694  65.586  1.00  0.00    -0.154 C  
BRANCH   8  15
HETATM   15  C   UNL     1     -10.113  10.153  67.302  1.00  0.00    -0.254 C  
BRANCH  15  16
HETATM   16  C   UNL     1     -10.475   8.699  67.058  1.00  0.00    -0.354 C  
HETATM   17  C   UNL     1     -10.511   7.635  67.885  1.00  0.00    -0.270 C  
BRANCH  17  18
HETATM   18  C   UNL     1     -10.176   7.564  69.347  1.00  0.00    -0.204 C  
BRANCH  18  19
HETATM   19  C   UNL     1     -10.930   6.433  70.064  1.00  0.00    -0.397 C  
BRANCH  19  20
HETATM   20  C   UNL     1     -12.113   6.900  70.902  1.00  0.00    -0.424 C  
BRANCH  20  21
HETATM   21  C   UNL     1     -11.780   8.153  71.651  1.00  0.00    -0.287 C  
HETATM   22  O   UNL     1     -11.037   8.245  72.620  1.00  0.00    -0.367 OA 
BRANCH  21  23
HETATM   23  O   UNL     1     -12.558   9.157  71.161  1.00  0.00    -0.301 OA 
BRANCH  23  24
HETATM   24  C   UNL     1     -11.764  10.284  70.855  1.00  0.00    -0.379 C  
BRANCH  24  25
HETATM   25  C   UNL     1     -12.571  11.559  70.747  1.00  0.00    -0.390 C  
BRANCH  25  26
HETATM   26  C   UNL     1     -13.201  11.978  72.074  1.00  0.00    -0.481 C  
BRANCH  26  27
HETATM   27  C   UNL     1     -13.747  13.412  72.110  1.00  0.00    -0.552 C  
BRANCH  27  28
HETATM   28  O   UNL     1     -13.091  14.129  73.132  1.00  0.00    -0.547 OA 
HETATM   29  N   UNL     1     -13.412  15.507  73.117  1.00  0.00    -0.514 N  
HETATM   30  O   UNL     1     -12.790  16.146  73.968  1.00  0.00    -0.653 OA 
HETATM   31  O   UNL     1     -14.230  15.888  72.290  1.00  0.00    -0.402 OA 
ENDBRANCH  27  28
ENDBRANCH  26  27
ENDBRANCH  25  26
ENDBRANCH  24  25
ENDBRANCH  23  24
ENDBRANCH  21  23
ENDBRANCH  20  21
ENDBRANCH  19  20
ENDBRANCH  18  19
ENDBRANCH  17  18
ENDBRANCH  15  16
ENDBRANCH   8  15
ENDBRANCH   5   6
ENDBRANCH   4   5
ENDBRANCH   2   4
BRANCH   2  32
HETATM   32  C   UNL     1     -11.346  15.233  64.844  1.00  0.00    -0.387 C  
BRANCH  32  33
HETATM   33  C   UNL     1     -10.302  14.594  65.753  1.00  0.00    -0.349 C  
BRANCH  33  34
HETATM   34  C   UNL     1     -10.618  14.922  67.176  1.00  0.00    -0.285 A  
HETATM   35  C   UNL     1     -10.865  16.575  68.923  1.00  0.00    -0.336 A  
HETATM   36  C   UNL     1     -11.006  14.216  69.443  1.00  0.00    -0.216 A  
HETATM   37  C   UNL     1     -10.651  16.264  67.583  1.00  0.00    -0.311 A  
HETATM   38  C   UNL     1     -10.793  13.900  68.107  1.00  0.00    -0.262 A  
HETATM   39  C   UNL     1     -11.042  15.552  69.851  1.00  0.00    -0.318 A  
ENDBRANCH  33  34
ENDBRANCH  32  33
ENDBRANCH   2  32
TORSDOF 18
ENDMDL
MODEL       22
REMARK 921   NORMALIZED FREE ENERGY PREDICTED BY IDOCK:   -5.34 KCAL/MOL
REMARK 922        TOTAL FREE ENERGY PREDICTED BY IDOCK:  -15.75 KCAL/MOL
REMARK 923 INTER-LIGAND FREE ENERGY PREDICTED BY IDOCK:  -13.46 KCAL/MOL
REMARK 924 INTRA-LIGAND FREE ENERGY PREDICTED BY IDOCK:   -2.28 KCAL/MOL
REMARK 927      BINDING AFFINITY PREDICTED BY RF-SCORE:    0.00 PKD
ROOT
HETATM    1  O   UNL     1     -11.601  16.589  63.829  1.00  0.00    -1.617 OA 
HETATM    2  C   UNL     1     -11.163  15.371  64.428  1.00  0.00    -0.202 C  
HETATM    3  H   UNL     1     -10.948  17.269  63.954  1.00  0.00     0.000 HD 
ENDROOT
BRANCH   2   4
HETATM    4  C   UNL     1     -12.221  14.269  64.225  1.00  0.00    -0.451 C  
BRANCH   4   5
HETATM    5  C   UNL     1     -12.417  13.328  65.419  1.00  0.00    -0.543 C  
BRANCH   5   6
HETATM    6  C   UNL     1     -11.620  12.004  65.383  1.00  0.00    -0.343 C  
HETATM    7  H   UNL     1      -8.319  10.166  66.761  1.00  0.00     0.000 HD 
HETATM    8  C   UNL     1     -10.336  11.872  66.307  1.00  0.00    -0.259 C  
HETATM    9  C   UNL     1     -11.064  11.808  63.966  1.00  0.00    -0.390 C  
HETATM   10  C   UNL     1     -10.025  10.738  64.135  1.00  0.00    -0.405 C  
HETATM   11  O   UNL     1     -12.051  11.376  63.049  1.00  0.00    -0.934 OA 
HETATM   12  O   UNL     1      -8.772   9.928  65.961  1.00  0.00    -0.133 OA 
HETATM   13  H   UNL     1     -11.707  11.255  62.172  1.00  0.00     0.000 HD 
HETATM   14  C   UNL     1      -9.303  11.117  65.411  1.00  0.00    -0.219 C  
BRANCH   8  15
HETATM   15  C   UNL     1     -10.581  11.232  67.711  1.00  0.00    -0.239 C  
BRANCH  15  16
HETATM   16  C   UNL     1     -11.326  12.103  68.707  1.00  0.00    -0.339 C  
HETATM   17  C   UNL     1     -12.021  11.795  69.820  1.00  0.00    -0.392 C  
BRANCH  17  18
HETATM   18  C   UNL     1     -12.290  10.446  70.423  1.00  0.00    -0.370 C  
BRANCH  18  19
HETATM   19  C   UNL     1     -12.911  10.547  71.825  1.00  0.00    -0.582 C  
BRANCH  19  20
HETATM   20  C   UNL     1     -13.687   9.309  72.258  1.00  0.00    -0.527 C  
BRANCH  20  21
HETATM   21  C   UNL     1     -12.876   8.068  72.057  1.00  0.00    -0.287 C  
HETATM   22  O   UNL     1     -13.220   7.067  71.440  1.00  0.00    -0.365 OA 
BRANCH  21  23
HETATM   23  O   UNL     1     -11.742   8.179  72.801  1.00  0.00    -0.403 OA 
BRANCH  23  24
HETATM   24  C   UNL     1     -10.655   7.583  72.123  1.00  0.00    -0.221 C  
BRANCH  24  25
HETATM   25  C   UNL     1      -9.414   8.448  72.129  1.00  0.00    -0.360 C  
BRANCH  25  26
HETATM   26  C   UNL     1      -9.052   8.977  70.743  1.00  0.00    -0.297 C  
BRANCH  26  27
HETATM   27  C   UNL     1      -9.615   8.163  69.570  1.00  0.00    -0.168 C  
BRANCH  27  28
HETATM   28  O   UNL     1      -8.542   7.612  68.837  1.00  0.00    -0.128 OA 
HETATM   29  N   UNL     1      -8.499   6.200  68.922  1.00  0.00    -0.118 N  
HETATM   30  O   UNL     1      -7.526   5.721  68.335  1.00  0.00    -0.078 OA 
HETATM   31  O   UNL     1      -9.392   5.644  69.548  1.00  0.00    -0.129 OA 
ENDBRANCH  27  28
ENDBRANCH  26  27
ENDBRANCH  25  26
ENDBRANCH  24  25
ENDBRANCH  23  24
ENDBRANCH  21  23
ENDBRANCH  20  21
ENDBRANCH  19  20
ENDBRANCH  18  19
ENDBRANCH  17  18
ENDBRANCH  15  16
ENDBRANCH   8  15
ENDBRANCH   5   6
ENDBRANCH   4   5
ENDBRANCH   2   4
BRANCH   2  32
HETATM   32  C   UNL     1     -10.938  15.665  65.904  1.00  0.00    -0.231 C  
BRANCH  32  33
HETATM   33  C   UNL     1      -9.493  16.058  66.188  1.00  0.00    -0.371 C  
BRANCH  33  34
HETATM   34  C   UNL     1      -9.442  17.496  66.587  1.00  0.00    -0.285 A  
HETATM   35  C   UNL     1      -8.316  19.293  67.748  1.00  0.00    -0.335 A  
HETATM   36  C   UNL     1     -10.500  19.650  66.770  1.00  0.00    -0.605 A  
HETATM   37  C   UNL     1      -8.335  17.974  67.303  1.00  0.00    -0.234 A  
HETATM   38  C   UNL     1     -10.524  18.334  66.323  1.00  0.00    -0.397 A  
HETATM   39  C   UNL     1      -9.398  20.129  67.482  1.00  0.00    -0.507 A  
ENDBRANCH  33  34
ENDBRANCH  32  33
ENDBRANCH   2  32
TORSDOF 18
ENDMDL
MODEL       23
REMARK 921   NORMALIZED FREE ENERGY PREDICTED BY IDOCK:   -5.33 KCAL/MOL
REMARK 922        TOTAL FREE ENERGY PREDICTED BY IDOCK:  -15.71 KCAL/MOL
REMARK 923 INTER-LIGAND FREE ENERGY PREDICTED BY IDOCK:  -11.95 KCAL/MOL
REMARK 924 INTRA-LIGAND FREE ENERGY PREDICTED BY IDOCK:   -3.76 KCAL/MOL
REMARK 927      BINDING AFFINITY PREDICTED BY RF-SCORE:    0.00 PKD
ROOT
HETATM    1  O   UNL     1      -9.132  11.026  69.427  1.00  0.00    -0.395 OA 
HETATM    2  C   UNL     1      -9.650   9.812  68.887  1.00  0.00    -0.167 C  
HETATM    3  H   UNL     1      -9.825  11.517  69.853  1.00  0.00     0.000 HD 
ENDROOT
BRANCH   2   4
HETATM    4  C   UNL     1      -8.526   9.015  68.196  1.00  0.00    -0.129 C  
BRANCH   4   5
HETATM    5  C   UNL     1      -8.757   7.503  68.112  1.00  0.00    -0.122 C  
BRANCH   5   6
HETATM    6  C   UNL     1      -9.148   6.798  69.432  1.00  0.00    -0.144 C  
HETATM    7  H   UNL     1      -7.867   4.207  72.229  1.00  0.00     0.000 HD 
HETATM    8  C   UNL     1      -8.063   5.889  70.151  1.00  0.00    -0.110 C  
HETATM    9  C   UNL     1     -10.298   5.824  69.143  1.00  0.00    -0.248 C  
HETATM   10  C   UNL     1     -10.336   4.945  70.359  1.00  0.00    -0.248 C  
HETATM   11  O   UNL     1     -11.542   6.481  68.987  1.00  0.00    -0.619 OA 
HETATM   12  O   UNL     1      -8.781   4.388  72.042  1.00  0.00    -0.110 OA 
HETATM   13  H   UNL     1     -12.254   5.878  68.809  1.00  0.00     0.000 HD 
HETATM   14  C   UNL     1      -8.880   4.657  70.657  1.00  0.00    -0.104 C  
BRANCH   8  15
HETATM   15  C   UNL     1      -7.204   6.604  71.242  1.00  0.00    -0.078 C  
BRANCH  15  16
HETATM   16  C   UNL     1      -7.703   7.969  71.679  1.00  0.00    -0.100 C  
HETATM   17  C   UNL     1      -8.629   8.334  72.588  1.00  0.00    -0.264 C  
BRANCH  17  18
HETATM   18  C   UNL     1      -9.488   7.466  73.463  1.00  0.00    -0.305 C  
BRANCH  18  19
HETATM   19  C   UNL     1     -10.936   7.380  72.957  1.00  0.00    -0.422 C  
BRANCH  19  20
HETATM   20  C   UNL     1     -11.396   8.593  72.158  1.00  0.00    -0.434 C  
BRANCH  20  21
HETATM   21  C   UNL     1     -12.802   8.417  71.674  1.00  0.00    -0.334 C  
HETATM   22  O   UNL     1     -13.333   7.360  71.355  1.00  0.00    -0.370 OA 
BRANCH  21  23
HETATM   23  O   UNL     1     -13.349   9.652  71.508  1.00  0.00    -0.371 OA 
BRANCH  23  24
HETATM   24  C   UNL     1     -12.342  10.592  71.198  1.00  0.00    -0.400 C  
BRANCH  24  25
HETATM   25  C   UNL     1     -12.880  11.998  71.042  1.00  0.00    -0.279 C  
BRANCH  25  26
HETATM   26  C   UNL     1     -13.542  12.526  72.313  1.00  0.00    -0.443 C  
BRANCH  26  27
HETATM   27  C   UNL     1     -14.093  13.955  72.213  1.00  0.00    -0.535 C  
BRANCH  27  28
HETATM   28  O   UNL     1     -13.469  14.758  73.191  1.00  0.00    -0.544 OA 
HETATM   29  N   UNL     1     -12.712  15.810  72.624  1.00  0.00    -0.415 N  
HETATM   30  O   UNL     1     -12.114  16.473  73.474  1.00  0.00    -0.488 OA 
HETATM   31  O   UNL     1     -12.732  15.929  71.406  1.00  0.00    -0.464 OA 
ENDBRANCH  27  28
ENDBRANCH  26  27
ENDBRANCH  25  26
ENDBRANCH  24  25
ENDBRANCH  23  24
ENDBRANCH  21  23
ENDBRANCH  20  21
ENDBRANCH  19  20
ENDBRANCH  18  19
ENDBRANCH  17  18
ENDBRANCH  15  16
ENDBRANCH   8  15
ENDBRANCH   5   6
ENDBRANCH   4   5
ENDBRANCH   2   4
BRANCH   2  32
HETATM   32  C   UNL     1     -10.744  10.202  67.903  1.00  0.00    -0.317 C  
BRANCH  32  33
HETATM   33  C   UNL     1     -10.799  11.711  67.690  1.00  0.00    -0.273 C  
BRANCH  33  34
HETATM   34  C   UNL     1     -11.101  11.996  66.255  1.00  0.00    -0.363 A  
HETATM   35  C   UNL     1     -12.428  13.157  64.601  1.00  0.00    -0.433 A  
HETATM   36  C   UNL     1     -10.820  11.481  63.921  1.00  0.00    -0.469 A  
HETATM   37  C   UNL     1     -12.084  12.944  65.932  1.00  0.00    -0.503 A  
HETATM   38  C   UNL     1     -10.473  11.264  65.249  1.00  0.00    -0.341 A  
HETATM   39  C   UNL     1     -11.797  12.426  63.597  1.00  0.00    -0.610 A  
ENDBRANCH  33  34
ENDBRANCH  32  33
ENDBRANCH   2  32
TORSDOF 18
ENDMDL
MODEL       24
REMARK 921   NORMALIZED FREE ENERGY PREDICTED BY IDOCK:   -5.32 KCAL/MOL
REMARK 922        TOTAL FREE ENERGY PREDICTED BY IDOCK:  -15.71 KCAL/MOL
REMARK 923 INTER-LIGAND FREE ENERGY PREDICTED BY IDOCK:  -11.36 KCAL/MOL
REMARK 924 INTRA-LIGAND FREE ENERGY PREDICTED BY IDOCK:   -4.35 KCAL/MOL
REMARK 927      BINDING AFFINITY PREDICTED BY RF-SCORE:    0.00 PKD
ROOT
HETATM    1  O   UNL     1     -11.021  13.017  69.846  1.00  0.00    -0.430 OA 
HETATM    2  C   UNL     1     -12.150  12.562  69.103  1.00  0.00    -0.138 C  
HETATM    3  H   UNL     1     -10.753  13.876  69.542  1.00  0.00     0.000 HD 
ENDROOT
BRANCH   2   4
HETATM    4  C   UNL     1     -12.585  11.168  69.596  1.00  0.00    -0.072 C  
BRANCH   4   5
HETATM    5  C   UNL     1     -12.452  10.941  71.105  1.00  0.00    -0.511 C  
BRANCH   5   6
HETATM    6  C   UNL     1     -11.724   9.648  71.539  1.00  0.00    -0.472 C  
HETATM    7  H   UNL     1      -9.421   6.624  70.226  1.00  0.00     0.000 HD 
HETATM    8  C   UNL     1     -10.821   8.896  70.471  1.00  0.00    -0.276 C  
HETATM    9  C   UNL     1     -12.777   8.600  71.921  1.00  0.00    -0.366 C  
HETATM   10  C   UNL     1     -12.005   7.313  71.952  1.00  0.00    -0.342 C  
HETATM   11  O   UNL     1     -13.352   8.844  73.191  1.00  0.00    -0.926 OA 
HETATM   12  O   UNL     1      -9.981   6.579  70.992  1.00  0.00    -0.183 OA 
HETATM   13  H   UNL     1     -14.004   8.195  73.428  1.00  0.00     0.000 HD 
HETATM   14  C   UNL     1     -11.114   7.383  70.730  1.00  0.00    -0.265 C  
BRANCH   8  15
HETATM   15  C   UNL     1      -9.308   9.285  70.476  1.00  0.00    -0.316 C  
BRANCH  15  16
HETATM   16  C   UNL     1      -8.616   9.241  69.125  1.00  0.00    -0.134 C  
HETATM   17  C   UNL     1      -8.054  10.211  68.376  1.00  0.00    -0.104 C  
BRANCH  17  18
HETATM   18  C   UNL     1      -7.954  11.683  68.657  1.00  0.00    -0.127 C  
BRANCH  18  19
HETATM   19  C   UNL     1      -7.592  12.493  67.402  1.00  0.00    -0.156 C  
BRANCH  19  20
HETATM   20  C   UNL     1      -8.533  13.655  67.113  1.00  0.00    -0.186 C  
BRANCH  20  21
HETATM   21  C   UNL     1      -7.836  14.968  67.286  1.00  0.00    -0.211 C  
HETATM   22  O   UNL     1      -7.177  15.318  68.258  1.00  0.00    -0.109 OA 
BRANCH  21  23
HETATM   23  O   UNL     1      -8.177  15.770  66.241  1.00  0.00    -0.243 OA 
BRANCH  23  24
HETATM   24  C   UNL     1      -9.556  16.072  66.290  1.00  0.00    -0.307 C  
BRANCH  24  25
HETATM   25  C   UNL     1      -9.830  17.489  66.746  1.00  0.00    -0.306 C  
BRANCH  25  26
HETATM   26  C   UNL     1     -10.753  17.555  67.960  1.00  0.00    -0.342 C  
BRANCH  26  27
HETATM   27  C   UNL     1     -10.812  16.271  68.801  1.00  0.00    -0.317 C  
BRANCH  27  28
HETATM   28  O   UNL     1     -12.155  16.007  69.143  1.00  0.00    -0.293 OA 
HETATM   29  N   UNL     1     -12.327  15.795  70.531  1.00  0.00    -0.393 N  
HETATM   30  O   UNL     1     -13.488  15.500  70.824  1.00  0.00    -0.475 OA 
HETATM   31  O   UNL     1     -11.342  15.915  71.248  1.00  0.00    -0.379 OA 
ENDBRANCH  27  28
ENDBRANCH  26  27
ENDBRANCH  25  26
ENDBRANCH  24  25
ENDBRANCH  23  24
ENDBRANCH  21  23
ENDBRANCH  20  21
ENDBRANCH  19  20
ENDBRANCH  18  19
ENDBRANCH  17  18
ENDBRANCH  15  16
ENDBRANCH   8  15
ENDBRANCH   5   6
ENDBRANCH   4   5
ENDBRANCH   2   4
BRANCH   2  32
HETATM   32  C   UNL     1     -11.728  12.531  67.641  1.00  0.00    -0.423 C  
BRANCH  32  33
HETATM   33  C   UNL     1     -11.300  11.134  67.207  1.00  0.00    -0.302 C  
BRANCH  33  34
HETATM   34  C   UNL     1     -10.884  11.167  65.773  1.00  0.00    -0.218 A  
HETATM   35  C   UNL     1      -9.501  10.304  63.988  1.00  0.00    -0.356 A  
HETATM   36  C   UNL     1     -10.897  12.246  63.622  1.00  0.00    -0.522 A  
HETATM   37  C   UNL     1      -9.954  10.229  65.302  1.00  0.00    -0.387 A  
HETATM   38  C   UNL     1     -11.353  12.176  64.932  1.00  0.00    -0.378 A  
HETATM   39  C   UNL     1      -9.973  11.312  63.149  1.00  0.00    -0.398 A  
ENDBRANCH  33  34
ENDBRANCH  32  33
ENDBRANCH   2  32
TORSDOF 18
ENDMDL
MODEL       25
REMARK 921   NORMALIZED FREE ENERGY PREDICTED BY IDOCK:   -5.31 KCAL/MOL
REMARK 922        TOTAL FREE ENERGY PREDICTED BY IDOCK:  -15.68 KCAL/MOL
REMARK 923 INTER-LIGAND FREE ENERGY PREDICTED BY IDOCK:  -12.19 KCAL/MOL
REMARK 924 INTRA-LIGAND FREE ENERGY PREDICTED BY IDOCK:   -3.49 KCAL/MOL
REMARK 927      BINDING AFFINITY PREDICTED BY RF-SCORE:    0.00 PKD
ROOT
HETATM    1  O   UNL     1     -13.578  14.024  65.580  1.00  0.00    -0.659 OA 
HETATM    2  C   UNL     1     -12.432  13.183  65.465  1.00  0.00    -0.458 C  
HETATM    3  H   UNL     1     -14.288  13.686  65.046  1.00  0.00     0.000 HD 
ENDROOT
BRANCH   2   4
HETATM    4  C   UNL     1     -11.281  13.731  66.331  1.00  0.00    -0.321 C  
BRANCH   4   5
HETATM    5  C   UNL     1     -10.092  14.300  65.549  1.00  0.00    -0.370 C  
BRANCH   5   6
HETATM    6  C   UNL     1      -9.787  15.800  65.766  1.00  0.00    -0.383 C  
HETATM    7  H   UNL     1      -9.052  18.591  68.567  1.00  0.00     0.000 HD 
HETATM    8  C   UNL     1      -9.471  16.301  67.239  1.00  0.00    -0.231 C  
HETATM    9  C   UNL     1     -11.028  16.612  65.370  1.00  0.00    -0.091 C  
HETATM   10  C   UNL     1     -10.773  17.967  65.962  1.00  0.00    -0.143 C  
HETATM   11  O   UNL     1     -11.181  16.724  63.967  1.00  0.00    -1.438 OA 
HETATM   12  O   UNL     1      -9.405  18.776  67.704  1.00  0.00    -0.287 OA 
HETATM   13  H   UNL     1     -11.949  17.226  63.722  1.00  0.00     0.000 HD 
HETATM   14  C   UNL     1     -10.210  17.673  67.337  1.00  0.00    -0.345 C  
BRANCH   8  15
HETATM   15  C   UNL     1      -7.958  16.339  67.625  1.00  0.00    -0.160 C  
BRANCH  15  16
HETATM   16  C   UNL     1      -7.144  15.127  67.207  1.00  0.00    -0.161 C  
HETATM   17  C   UNL     1      -7.223  13.830  67.564  1.00  0.00    -0.173 C  
BRANCH  17  18
HETATM   18  C   UNL     1      -8.166  13.172  68.531  1.00  0.00    -0.076 C  
BRANCH  18  19
HETATM   19  C   UNL     1      -8.647  11.800  68.034  1.00  0.00    -0.158 C  
BRANCH  19  20
HETATM   20  C   UNL     1      -8.663  10.715  69.103  1.00  0.00    -0.135 C  
BRANCH  20  21
HETATM   21  C   UNL     1     -10.013  10.076  69.202  1.00  0.00    -0.204 C  
HETATM   22  O   UNL     1     -10.317   8.956  68.810  1.00  0.00    -0.206 OA 
BRANCH  21  23
HETATM   23  O   UNL     1     -10.887  11.007  69.673  1.00  0.00    -0.240 OA 
BRANCH  23  24
HETATM   24  C   UNL     1     -11.910  10.380  70.419  1.00  0.00    -0.328 C  
BRANCH  24  25
HETATM   25  C   UNL     1     -12.648  11.342  71.324  1.00  0.00    -0.480 C  
BRANCH  25  26
HETATM   26  C   UNL     1     -12.633  12.778  70.805  1.00  0.00    -0.308 C  
BRANCH  26  27
HETATM   27  C   UNL     1     -13.517  13.761  71.586  1.00  0.00    -0.333 C  
BRANCH  27  28
HETATM   28  O   UNL     1     -13.059  13.832  72.918  1.00  0.00    -0.450 OA 
HETATM   29  N   UNL     1     -12.672  15.143  73.286  1.00  0.00    -0.467 N  
HETATM   30  O   UNL     1     -12.210  15.196  74.429  1.00  0.00    -0.634 OA 
HETATM   31  O   UNL     1     -12.827  16.032  72.459  1.00  0.00    -0.442 OA 
ENDBRANCH  27  28
ENDBRANCH  26  27
ENDBRANCH  25  26
ENDBRANCH  24  25
ENDBRANCH  23  24
ENDBRANCH  21  23
ENDBRANCH  20  21
ENDBRANCH  19  20
ENDBRANCH  18  19
ENDBRANCH  17  18
ENDBRANCH  15  16
ENDBRANCH   8  15
ENDBRANCH   5   6
ENDBRANCH   4   5
ENDBRANCH   2   4
BRANCH   2  32
HETATM   32  C   UNL     1     -12.056  13.156  63.990  1.00  0.00    -0.511 C  
BRANCH  32  33
HETATM   33  C   UNL     1     -11.954  11.731  63.460  1.00  0.00    -0.484 C  
BRANCH  33  34
HETATM   34  C   UNL     1     -10.637  11.149  63.858  1.00  0.00    -0.431 A  
HETATM   35  C   UNL     1      -8.326  10.677  63.325  1.00  0.00    -0.087 A  
HETATM   36  C   UNL     1      -9.317   9.801  65.352  1.00  0.00    -0.311 A  
HETATM   37  C   UNL     1      -9.535  11.284  62.999  1.00  0.00    -0.385 A  
HETATM   38  C   UNL     1     -10.526  10.406  65.032  1.00  0.00    -0.139 A  
HETATM   39  C   UNL     1      -8.218   9.936  64.500  1.00  0.00    -0.162 A  
ENDBRANCH  33  34
ENDBRANCH  32  33
ENDBRANCH   2  32
TORSDOF 18
ENDMDL
MODEL       26
REMARK 921   NORMALIZED FREE ENERGY PREDICTED BY IDOCK:   -5.31 KCAL/MOL
REMARK 922        TOTAL FREE ENERGY PREDICTED BY IDOCK:  -15.68 KCAL/MOL
REMARK 923 INTER-LIGAND FREE ENERGY PREDICTED BY IDOCK:  -12.14 KCAL/MOL
REMARK 924 INTRA-LIGAND FREE ENERGY PREDICTED BY IDOCK:   -3.55 KCAL/MOL
REMARK 927      BINDING AFFINITY PREDICTED BY RF-SCORE:    0.00 PKD
ROOT
HETATM    1  O   UNL     1      -8.527  14.369  66.473  1.00  0.00    -0.423 OA 
HETATM    2  C   UNL     1      -9.089  14.252  67.778  1.00  0.00    -0.195 C  
HETATM    3  H   UNL     1      -8.118  15.221  66.367  1.00  0.00     0.000 HD 
ENDROOT
BRANCH   2   4
HETATM    4  C   UNL     1      -9.752  12.871  67.950  1.00  0.00    -0.218 C  
BRANCH   4   5
HETATM    5  C   UNL     1     -11.118  12.717  67.273  1.00  0.00    -0.314 C  
BRANCH   5   6
HETATM    6  C   UNL     1     -11.144  11.892  65.966  1.00  0.00    -0.369 C  
HETATM    7  H   UNL     1      -8.822  10.145  63.185  1.00  0.00     0.000 HD 
HETATM    8  C   UNL     1      -9.764  11.384  65.367  1.00  0.00    -0.265 C  
HETATM    9  C   UNL     1     -11.720  12.769  64.846  1.00  0.00    -0.352 C  
HETATM   10  C   UNL     1     -11.353  12.033  63.591  1.00  0.00    -0.536 C  
HETATM   11  O   UNL     1     -13.126  12.903  64.929  1.00  0.00    -0.799 OA 
HETATM   12  O   UNL     1      -9.717  10.428  63.037  1.00  0.00    -0.318 OA 
HETATM   13  H   UNL     1     -13.483  13.446  64.236  1.00  0.00     0.000 HD 
HETATM   14  C   UNL     1      -9.926  11.582  63.826  1.00  0.00    -0.349 C  
BRANCH   8  15
HETATM   15  C   UNL     1      -9.328   9.949  65.805  1.00  0.00    -0.259 C  
BRANCH  15  16
HETATM   16  C   UNL     1     -10.367   9.155  66.574  1.00  0.00    -0.269 C  
HETATM   17  C   UNL     1     -10.432   8.784  67.869  1.00  0.00    -0.275 C  
BRANCH  17  18
HETATM   18  C   UNL     1      -9.451   9.043  68.976  1.00  0.00    -0.155 C  
BRANCH  18  19
HETATM   19  C   UNL     1     -10.006  10.010  70.033  1.00  0.00    -0.273 C  
BRANCH  19  20
HETATM   20  C   UNL     1     -11.492  10.313  69.888  1.00  0.00    -0.340 C  
BRANCH  20  21
HETATM   21  C   UNL     1     -12.173  10.317  71.221  1.00  0.00    -0.395 C  
HETATM   22  O   UNL     1     -12.794  11.249  71.717  1.00  0.00    -0.416 OA 
BRANCH  21  23
HETATM   23  O   UNL     1     -11.862   9.155  71.858  1.00  0.00    -0.354 OA 
BRANCH  23  24
HETATM   24  C   UNL     1     -12.887   8.203  71.660  1.00  0.00    -0.326 C  
BRANCH  24  25
HETATM   25  C   UNL     1     -12.364   6.871  71.169  1.00  0.00    -0.419 C  
BRANCH  25  26
HETATM   26  C   UNL     1     -10.897   6.641  71.524  1.00  0.00    -0.277 C  
BRANCH  26  27
HETATM   27  C   UNL     1     -10.137   5.707  70.572  1.00  0.00    -0.217 C  
BRANCH  27  28
HETATM   28  O   UNL     1     -10.871   5.574  69.375  1.00  0.00    -0.298 OA 
HETATM   29  N   UNL     1     -10.035   5.439  68.241  1.00  0.00    -0.150 N  
HETATM   30  O   UNL     1     -10.673   5.388  67.187  1.00  0.00    -0.235 OA 
HETATM   31  O   UNL     1      -8.826   5.398  68.431  1.00  0.00    -0.102 OA 
ENDBRANCH  27  28
ENDBRANCH  26  27
ENDBRANCH  25  26
ENDBRANCH  24  25
ENDBRANCH  23  24
ENDBRANCH  21  23
ENDBRANCH  20  21
ENDBRANCH  19  20
ENDBRANCH  18  19
ENDBRANCH  17  18
ENDBRANCH  15  16
ENDBRANCH   8  15
ENDBRANCH   5   6
ENDBRANCH   4   5
ENDBRANCH   2   4
BRANCH   2  32
HETATM   32  C   UNL     1     -10.101  15.379  67.922  1.00  0.00    -0.226 C  
BRANCH  32  33
HETATM   33  C   UNL     1     -10.184  16.228  66.659  1.00  0.00    -0.287 C  
BRANCH  33  34
HETATM   34  C   UNL     1     -10.113  17.673  67.029  1.00  0.00    -0.330 A  
HETATM   35  C   UNL     1     -10.196  19.996  66.365  1.00  0.00    -0.598 A  
HETATM   36  C   UNL     1      -9.601  19.393  68.632  1.00  0.00    -0.490 A  
HETATM   37  C   UNL     1     -10.338  18.649  66.047  1.00  0.00    -0.436 A  
HETATM   38  C   UNL     1      -9.743  18.047  68.320  1.00  0.00    -0.332 A  
HETATM   39  C   UNL     1      -9.827  20.368  67.657  1.00  0.00    -0.538 A  
ENDBRANCH  33  34
ENDBRANCH  32  33
ENDBRANCH   2  32
TORSDOF 18
ENDMDL
MODEL       27
REMARK 921   NORMALIZED FREE ENERGY PREDICTED BY IDOCK:   -5.30 KCAL/MOL
REMARK 922        TOTAL FREE ENERGY PREDICTED BY IDOCK:  -15.67 KCAL/MOL
REMARK 923 INTER-LIGAND FREE ENERGY PREDICTED BY IDOCK:  -11.88 KCAL/MOL
REMARK 924 INTRA-LIGAND FREE ENERGY PREDICTED BY IDOCK:   -3.79 KCAL/MOL
REMARK 927      BINDING AFFINITY PREDICTED BY RF-SCORE:    0.00 PKD
ROOT
HETATM    1  O   UNL     1     -12.333  13.865  62.969  1.00  0.00    -1.101 OA 
HETATM    2  C   UNL     1     -12.171  12.598  63.603  1.00  0.00    -0.536 C  
HETATM    3  H   UNL     1     -12.036  13.821  62.068  1.00  0.00     0.000 HD 
ENDROOT
BRANCH   2   4
HETATM    4  C   UNL     1     -12.654  12.670  65.066  1.00  0.00    -0.504 C  
BRANCH   4   5
HETATM    5  C   UNL     1     -12.756  14.084  65.648  1.00  0.00    -0.515 C  
BRANCH   5   6
HETATM    6  C   UNL     1     -11.466  14.657  66.280  1.00  0.00    -0.351 C  
HETATM    7  H   UNL     1      -9.949  16.325  69.610  1.00  0.00     0.000 HD 
HETATM    8  C   UNL     1     -11.508  15.106  67.802  1.00  0.00    -0.329 C  
HETATM    9  C   UNL     1     -11.089  15.945  65.536  1.00  0.00    -0.146 C  
HETATM   10  C   UNL     1     -10.088  16.601  66.442  1.00  0.00    -0.325 C  
HETATM   11  O   UNL     1     -10.500  15.692  64.274  1.00  0.00    -0.494 OA 
HETATM   12  O   UNL     1      -9.586  16.437  68.740  1.00  0.00    -0.229 OA 
HETATM   13  H   UNL     1     -10.266  16.490  63.814  1.00  0.00     0.000 HD 
HETATM   14  C   UNL     1     -10.667  16.423  67.829  1.00  0.00    -0.328 C  
BRANCH   8  15
HETATM   15  C   UNL     1     -11.066  14.021  68.836  1.00  0.00    -0.296 C  
BRANCH  15  16
HETATM   16  C   UNL     1     -11.498  12.600  68.519  1.00  0.00    -0.349 C  
HETATM   17  C   UNL     1     -12.023  11.631  69.294  1.00  0.00    -0.382 C  
BRANCH  17  18
HETATM   18  C   UNL     1     -12.338  11.662  70.762  1.00  0.00    -0.454 C  
BRANCH  18  19
HETATM   19  C   UNL     1     -12.718  10.277  71.307  1.00  0.00    -0.523 C  
BRANCH  19  20
HETATM   20  C   UNL     1     -11.534   9.347  71.539  1.00  0.00    -0.467 C  
BRANCH  20  21
HETATM   21  C   UNL     1     -11.980   8.042  72.122  1.00  0.00    -0.348 C  
HETATM   22  O   UNL     1     -12.970   7.400  71.792  1.00  0.00    -0.338 OA 
BRANCH  21  23
HETATM   23  O   UNL     1     -11.179   7.758  73.184  1.00  0.00    -0.402 OA 
BRANCH  23  24
HETATM   24  C   UNL     1     -10.925   6.370  73.244  1.00  0.00    -0.190 C  
BRANCH  24  25
HETATM   25  C   UNL     1      -9.447   6.044  73.269  1.00  0.00    -0.142 C  
BRANCH  25  26
HETATM   26  C   UNL     1      -8.898   5.670  71.894  1.00  0.00    -0.137 C  
BRANCH  26  27
HETATM   27  C   UNL     1      -9.948   5.183  70.886  1.00  0.00    -0.210 C  
BRANCH  27  28
HETATM   28  O   UNL     1      -9.440   5.343  69.579  1.00  0.00    -0.122 OA 
HETATM   29  N   UNL     1     -10.407   5.855  68.682  1.00  0.00    -0.192 N  
HETATM   30  O   UNL     1      -9.984   5.934  67.526  1.00  0.00    -0.124 OA 
HETATM   31  O   UNL     1     -11.507   6.140  69.139  1.00  0.00    -0.379 OA 
ENDBRANCH  27  28
ENDBRANCH  26  27
ENDBRANCH  25  26
ENDBRANCH  24  25
ENDBRANCH  23  24
ENDBRANCH  21  23
ENDBRANCH  20  21
ENDBRANCH  19  20
ENDBRANCH  18  19
ENDBRANCH  17  18
ENDBRANCH  15  16
ENDBRANCH   8  15
ENDBRANCH   5   6
ENDBRANCH   4   5
ENDBRANCH   2   4
BRANCH   2  32
HETATM   32  C   UNL     1     -10.691  12.253  63.520  1.00  0.00    -0.497 C  
BRANCH  32  33
HETATM   33  C   UNL     1     -10.428  10.802  63.907  1.00  0.00    -0.251 C  
BRANCH  33  34
HETATM   34  C   UNL     1      -9.838  10.757  65.279  1.00  0.00    -0.329 A  
HETATM   35  C   UNL     1      -8.429  11.754  66.971  1.00  0.00    -0.175 A  
HETATM   36  C   UNL     1      -9.383   9.557  67.315  1.00  0.00    -0.161 A  
HETATM   37  C   UNL     1      -9.047  11.825  65.726  1.00  0.00    -0.088 A  
HETATM   38  C   UNL     1     -10.003   9.623  66.073  1.00  0.00    -0.344 A  
HETATM   39  C   UNL     1      -8.597  10.621  67.764  1.00  0.00    -0.123 A  
ENDBRANCH  33  34
ENDBRANCH  32  33
ENDBRANCH   2  32
TORSDOF 18
ENDMDL
MODEL       28
REMARK 921   NORMALIZED FREE ENERGY PREDICTED BY IDOCK:   -5.30 KCAL/MOL
REMARK 922        TOTAL FREE ENERGY PREDICTED BY IDOCK:  -15.66 KCAL/MOL
REMARK 923 INTER-LIGAND FREE ENERGY PREDICTED BY IDOCK:  -12.92 KCAL/MOL
REMARK 924 INTRA-LIGAND FREE ENERGY PREDICTED BY IDOCK:   -2.75 KCAL/MOL
REMARK 927      BINDING AFFINITY PREDICTED BY RF-SCORE:    0.00 PKD
ROOT
HETATM    1  O   UNL     1      -9.438   7.395  65.714  1.00  0.00    -0.395 OA 
HETATM    2  C   UNL     1      -9.459   8.460  66.663  1.00  0.00    -0.205 C  
HETATM    3  H   UNL     1      -8.776   7.559  65.052  1.00  0.00     0.000 HD 
ENDROOT
BRANCH   2   4
HETATM    4  C   UNL     1     -10.532   8.194  67.737  1.00  0.00    -0.279 C  
BRANCH   4   5
HETATM    5  C   UNL     1     -11.158   6.796  67.699  1.00  0.00    -0.309 C  
BRANCH   5   6
HETATM    6  C   UNL     1     -11.060   5.968  69.002  1.00  0.00    -0.377 C  
HETATM    7  H   UNL     1     -10.710   6.238  72.999  1.00  0.00     0.000 HD 
HETATM    8  C   UNL     1     -11.041   6.742  70.388  1.00  0.00    -0.357 C  
HETATM    9  C   UNL     1      -9.727   5.208  68.997  1.00  0.00    -0.161 C  
HETATM   10  C   UNL     1      -9.565   4.762  70.421  1.00  0.00    -0.267 C  
HETATM   11  O   UNL     1      -9.746   4.080  68.142  1.00  0.00    -0.149 OA 
HETATM   12  O   UNL     1     -10.445   5.483  72.486  1.00  0.00    -0.198 OA 
HETATM   13  H   UNL     1      -8.921   3.610  68.139  1.00  0.00     0.000 HD 
HETATM   14  C   UNL     1      -9.986   5.965  71.239  1.00  0.00    -0.187 C  
BRANCH   8  15
HETATM   15  C   UNL     1     -12.433   6.929  71.073  1.00  0.00    -0.364 C  
BRANCH  15  16
HETATM   16  C   UNL     1     -12.558   8.136  71.984  1.00  0.00    -0.366 C  
HETATM   17  C   UNL     1     -12.391   9.454  71.752  1.00  0.00    -0.471 C  
BRANCH  17  18
HETATM   18  C   UNL     1     -12.004  10.146  70.477  1.00  0.00    -0.400 C  
BRANCH  18  19
HETATM   19  C   UNL     1     -12.390  11.634  70.481  1.00  0.00    -0.410 C  
BRANCH  19  20
HETATM   20  C   UNL     1     -13.116  12.091  71.739  1.00  0.00    -0.460 C  
BRANCH  20  21
HETATM   21  C   UNL     1     -13.055  13.580  71.885  1.00  0.00    -0.384 C  
HETATM   22  O   UNL     1     -13.751  14.267  72.623  1.00  0.00    -0.520 OA 
BRANCH  21  23
HETATM   23  O   UNL     1     -12.190  14.060  70.951  1.00  0.00    -0.332 OA 
BRANCH  23  24
HETATM   24  C   UNL     1     -12.729  15.211  70.334  1.00  0.00    -0.333 C  
BRANCH  24  25
HETATM   25  C   UNL     1     -11.988  15.604  69.075  1.00  0.00    -0.323 C  
BRANCH  25  26
HETATM   26  C   UNL     1     -10.596  16.164  69.355  1.00  0.00    -0.300 C  
BRANCH  26  27
HETATM   27  C   UNL     1      -9.843  16.682  68.121  1.00  0.00    -0.250 C  
BRANCH  27  28
HETATM   28  O   UNL     1     -10.766  16.891  67.074  1.00  0.00    -0.267 OA 
HETATM   29  N   UNL     1     -10.132  17.053  65.820  1.00  0.00    -0.249 N  
HETATM   30  O   UNL     1     -10.933  17.301  64.914  1.00  0.00    -0.815 OA 
HETATM   31  O   UNL     1      -8.914  16.942  65.783  1.00  0.00    -0.524 OA 
ENDBRANCH  27  28
ENDBRANCH  26  27
ENDBRANCH  25  26
ENDBRANCH  24  25
ENDBRANCH  23  24
ENDBRANCH  21  23
ENDBRANCH  20  21
ENDBRANCH  19  20
ENDBRANCH  18  19
ENDBRANCH  17  18
ENDBRANCH  15  16
ENDBRANCH   8  15
ENDBRANCH   5   6
ENDBRANCH   4   5
ENDBRANCH   2   4
BRANCH   2  32
HETATM   32  C   UNL     1      -9.753   9.734  65.884  1.00  0.00    -0.332 C  
BRANCH  32  33
HETATM   33  C   UNL     1     -10.268  10.845  66.793  1.00  0.00    -0.277 C  
BRANCH  33  34
HETATM   34  C   UNL     1     -10.981  11.866  65.969  1.00  0.00    -0.355 A  
HETATM   35  C   UNL     1     -11.459  12.825  63.802  1.00  0.00    -0.533 A  
HETATM   36  C   UNL     1     -12.280  13.886  65.816  1.00  0.00    -0.488 A  
HETATM   37  C   UNL     1     -10.863  11.830  64.572  1.00  0.00    -0.377 A  
HETATM   38  C   UNL     1     -11.688  12.896  66.589  1.00  0.00    -0.452 A  
HETATM   39  C   UNL     1     -12.167  13.852  64.424  1.00  0.00    -0.449 A  
ENDBRANCH  33  34
ENDBRANCH  32  33
ENDBRANCH   2  32
TORSDOF 18
ENDMDL
MODEL       29
REMARK 921   NORMALIZED FREE ENERGY PREDICTED BY IDOCK:   -5.30 KCAL/MOL
REMARK 922        TOTAL FREE ENERGY PREDICTED BY IDOCK:  -15.66 KCAL/MOL
REMARK 923 INTER-LIGAND FREE ENERGY PREDICTED BY IDOCK:  -11.45 KCAL/MOL
REMARK 924 INTRA-LIGAND FREE ENERGY PREDICTED BY IDOCK:   -4.21 KCAL/MOL
REMARK 927      BINDING AFFINITY PREDICTED BY RF-SCORE:    0.00 PKD
ROOT
HETATM    1  O   UNL     1     -12.326  13.947  62.940  1.00  0.00    -1.023 OA 
HETATM    2  C   UNL     1     -12.188  12.642  63.497  1.00  0.00    -0.547 C  
HETATM    3  H   UNL     1     -11.961  13.970  62.063  1.00  0.00     0.000 HD 
ENDROOT
BRANCH   2   4
HETATM    4  C   UNL     1     -12.780  12.605  64.919  1.00  0.00    -0.450 C  
BRANCH   4   5
HETATM    5  C   UNL     1     -12.838  13.959  65.635  1.00  0.00    -0.467 C  
BRANCH   5   6
HETATM    6  C   UNL     1     -11.546  14.403  66.360  1.00  0.00    -0.383 C  
HETATM    7  H   UNL     1     -10.031  15.462  69.932  1.00  0.00     0.000 HD 
HETATM    8  C   UNL     1     -11.591  14.585  67.937  1.00  0.00    -0.371 C  
HETATM    9  C   UNL     1     -11.154  15.796  65.849  1.00  0.00    -0.103 C  
HETATM   10  C   UNL     1     -10.152  16.277  66.858  1.00  0.00    -0.278 C  
HETATM   11  O   UNL     1     -10.561  15.758  64.565  1.00  0.00    -0.720 OA 
HETATM   12  O   UNL     1      -9.662  15.718  69.095  1.00  0.00    -0.216 OA 
HETATM   13  H   UNL     1     -10.318  16.620  64.249  1.00  0.00     0.000 HD 
HETATM   14  C   UNL     1     -10.740  15.869  68.192  1.00  0.00    -0.302 C  
BRANCH   8  15
HETATM   15  C   UNL     1     -11.163  13.334  68.770  1.00  0.00    -0.317 C  
BRANCH  15  16
HETATM   16  C   UNL     1     -11.899  12.047  68.445  1.00  0.00    -0.360 C  
HETATM   17  C   UNL     1     -11.922  10.849  69.062  1.00  0.00    -0.322 C  
BRANCH  17  18
HETATM   18  C   UNL     1     -11.187  10.408  70.295  1.00  0.00    -0.395 C  
BRANCH  18  19
HETATM   19  C   UNL     1     -12.102   9.674  71.288  1.00  0.00    -0.457 C  
BRANCH  19  20
HETATM   20  C   UNL     1     -11.405   8.591  72.102  1.00  0.00    -0.442 C  
BRANCH  20  21
HETATM   21  C   UNL     1     -11.534   7.254  71.441  1.00  0.00    -0.266 C  
HETATM   22  O   UNL     1     -12.467   6.876  70.744  1.00  0.00    -0.356 OA 
BRANCH  21  23
HETATM   23  O   UNL     1     -10.503   6.473  71.863  1.00  0.00    -0.203 OA 
BRANCH  23  24
HETATM   24  C   UNL     1      -9.949   5.767  70.772  1.00  0.00    -0.193 C  
BRANCH  24  25
HETATM   25  C   UNL     1      -9.043   6.625  69.917  1.00  0.00    -0.143 C  
BRANCH  25  26
HETATM   26  C   UNL     1      -8.663   5.957  68.598  1.00  0.00    -0.109 C  
BRANCH  26  27
HETATM   27  C   UNL     1      -9.648   4.888  68.104  1.00  0.00    -0.143 C  
BRANCH  27  28
HETATM   28  O   UNL     1      -9.062   4.184  67.031  1.00  0.00    -0.124 OA 
HETATM   29  N   UNL     1      -9.858   4.222  65.862  1.00  0.00    -0.210 N  
HETATM   30  O   UNL     1      -9.380   3.553  64.942  1.00  0.00    -0.140 OA 
HETATM   31  O   UNL     1     -10.889   4.880  65.901  1.00  0.00    -0.289 OA 
ENDBRANCH  27  28
ENDBRANCH  26  27
ENDBRANCH  25  26
ENDBRANCH  24  25
ENDBRANCH  23  24
ENDBRANCH  21  23
ENDBRANCH  20  21
ENDBRANCH  19  20
ENDBRANCH  18  19
ENDBRANCH  17  18
ENDBRANCH  15  16
ENDBRANCH   8  15
ENDBRANCH   5   6
ENDBRANCH   4   5
ENDBRANCH   2   4
BRANCH   2  32
HETATM   32  C   UNL     1     -10.699  12.325  63.503  1.00  0.00    -0.497 C  
BRANCH  32  33
HETATM   33  C   UNL     1     -10.439  10.843  63.745  1.00  0.00    -0.329 C  
BRANCH  33  34
HETATM   34  C   UNL     1      -9.856  10.659  65.108  1.00  0.00    -0.344 A  
HETATM   35  C   UNL     1      -8.599  11.553  66.970  1.00  0.00    -0.161 A  
HETATM   36  C   UNL     1      -9.259   9.225  66.946  1.00  0.00    -0.178 A  
HETATM   37  C   UNL     1      -9.214  11.738  65.735  1.00  0.00    -0.148 A  
HETATM   38  C   UNL     1      -9.875   9.404  65.714  1.00  0.00    -0.345 A  
HETATM   39  C   UNL     1      -8.621  10.298  67.574  1.00  0.00    -0.118 A  
ENDBRANCH  33  34
ENDBRANCH  32  33
ENDBRANCH   2  32
TORSDOF 18
ENDMDL
MODEL       30
REMARK 921   NORMALIZED FREE ENERGY PREDICTED BY IDOCK:   -5.29 KCAL/MOL
REMARK 922        TOTAL FREE ENERGY PREDICTED BY IDOCK:  -15.64 KCAL/MOL
REMARK 923 INTER-LIGAND FREE ENERGY PREDICTED BY IDOCK:  -12.29 KCAL/MOL
REMARK 924 INTRA-LIGAND FREE ENERGY PREDICTED BY IDOCK:   -3.35 KCAL/MOL
REMARK 927      BINDING AFFINITY PREDICTED BY RF-SCORE:    0.00 PKD
ROOT
HETATM    1  O   UNL     1     -12.424  14.316  67.182  1.00  0.00    -0.588 OA 
HETATM    2  C   UNL     1     -11.245  15.097  67.369  1.00  0.00    -0.323 C  
HETATM    3  H   UNL     1     -13.095  14.583  67.798  1.00  0.00     0.000 HD 
ENDROOT
BRANCH   2   4
HETATM    4  C   UNL     1     -10.155  14.664  66.369  1.00  0.00    -0.288 C  
BRANCH   4   5
HETATM    5  C   UNL     1     -10.647  13.791  65.209  1.00  0.00    -0.363 C  
BRANCH   5   6
HETATM    6  C   UNL     1     -10.494  12.263  65.392  1.00  0.00    -0.302 C  
HETATM    7  H   UNL     1      -8.270   9.413  67.155  1.00  0.00     0.000 HD 
HETATM    8  C   UNL     1      -9.372  11.730  66.381  1.00  0.00    -0.229 C  
HETATM    9  C   UNL     1     -10.104  11.647  64.042  1.00  0.00    -0.323 C  
HETATM   10  C   UNL     1      -9.620  10.273  64.403  1.00  0.00    -0.378 C  
HETATM   11  O   UNL     1     -11.200  11.550  63.151  1.00  0.00    -0.764 OA 
HETATM   12  O   UNL     1      -8.798   9.278  66.376  1.00  0.00    -0.137 OA 
HETATM   13  H   UNL     1     -10.959  11.168  62.316  1.00  0.00     0.000 HD 
HETATM   14  C   UNL     1      -8.779  10.487  65.644  1.00  0.00    -0.180 C  
BRANCH   8  15
HETATM   15  C   UNL     1      -9.839  11.466  67.848  1.00  0.00    -0.188 C  
BRANCH  15  16
HETATM   16  C   UNL     1     -11.302  11.096  68.014  1.00  0.00    -0.380 C  
HETATM   17  C   UNL     1     -12.147  11.230  69.055  1.00  0.00    -0.325 C  
BRANCH  17  18
HETATM   18  C   UNL     1     -11.879  11.795  70.421  1.00  0.00    -0.362 C  
BRANCH  18  19
HETATM   19  C   UNL     1     -12.591  11.003  71.529  1.00  0.00    -0.461 C  
BRANCH  19  20
HETATM   20  C   UNL     1     -12.223   9.526  71.582  1.00  0.00    -0.477 C  
BRANCH  20  21
HETATM   21  C   UNL     1     -13.385   8.698  72.036  1.00  0.00    -0.392 C  
HETATM   22  O   UNL     1     -14.315   9.075  72.737  1.00  0.00    -0.596 OA 
BRANCH  21  23
HETATM   23  O   UNL     1     -13.159   7.410  71.657  1.00  0.00    -0.353 OA 
BRANCH  23  24
HETATM   24  C   UNL     1     -11.976   7.329  70.890  1.00  0.00    -0.305 C  
BRANCH  24  25
HETATM   25  C   UNL     1     -11.314   5.971  70.974  1.00  0.00    -0.299 C  
BRANCH  25  26
HETATM   26  C   UNL     1      -9.809   6.056  71.218  1.00  0.00    -0.211 C  
BRANCH  26  27
HETATM   27  C   UNL     1      -8.937   5.436  70.117  1.00  0.00    -0.134 C  
BRANCH  27  28
HETATM   28  O   UNL     1      -9.772   4.928  69.100  1.00  0.00    -0.152 OA 
HETATM   29  N   UNL     1      -9.563   5.573  67.858  1.00  0.00    -0.120 N  
HETATM   30  O   UNL     1     -10.337   5.176  66.983  1.00  0.00    -0.218 OA 
HETATM   31  O   UNL     1      -8.681   6.420  67.802  1.00  0.00    -0.116 OA 
ENDBRANCH  27  28
ENDBRANCH  26  27
ENDBRANCH  25  26
ENDBRANCH  24  25
ENDBRANCH  23  24
ENDBRANCH  21  23
ENDBRANCH  20  21
ENDBRANCH  19  20
ENDBRANCH  18  19
ENDBRANCH  17  18
ENDBRANCH  15  16
ENDBRANCH   8  15
ENDBRANCH   5   6
ENDBRANCH   4   5
ENDBRANCH   2   4
BRANCH   2  32
HETATM   32  C   UNL     1     -10.800  14.879  68.808  1.00  0.00    -0.254 C  
BRANCH  32  33
HETATM   33  C   UNL     1     -11.162  16.064  69.696  1.00  0.00    -0.336 C  
BRANCH  33  34
HETATM   34  C   UNL     1     -12.011  15.591  70.830  1.00  0.00    -0.420 A  
HETATM   35  C   UNL     1     -14.124  14.726  71.626  1.00  0.00    -0.590 A  
HETATM   36  C   UNL     1     -12.391  15.354  73.194  1.00  0.00    -0.562 A  
HETATM   37  C   UNL     1     -13.297  15.094  70.569  1.00  0.00    -0.200 A  
HETATM   38  C   UNL     1     -11.561  15.723  72.143  1.00  0.00    -0.534 A  
HETATM   39  C   UNL     1     -13.671  14.857  72.937  1.00  0.00    -0.427 A  
ENDBRANCH  33  34
ENDBRANCH  32  33
ENDBRANCH   2  32
TORSDOF 18
ENDMDL
MODEL       31
REMARK 921   NORMALIZED FREE ENERGY PREDICTED BY IDOCK:   -5.28 KCAL/MOL
REMARK 922        TOTAL FREE ENERGY PREDICTED BY IDOCK:  -15.62 KCAL/MOL
REMARK 923 INTER-LIGAND FREE ENERGY PREDICTED BY IDOCK:  -11.30 KCAL/MOL
REMARK 924 INTRA-LIGAND FREE ENERGY PREDICTED BY IDOCK:   -4.32 KCAL/MOL
REMARK 927      BINDING AFFINITY PREDICTED BY RF-SCORE:    0.00 PKD
ROOT
HETATM    1  O   UNL     1     -12.200  13.784  62.954  1.00  0.00    -0.943 OA 
HETATM    2  C   UNL     1     -12.056  12.512  63.582  1.00  0.00    -0.554 C  
HETATM    3  H   UNL     1     -11.784  13.777  62.100  1.00  0.00     0.000 HD 
ENDROOT
BRANCH   2   4
HETATM    4  C   UNL     1     -12.731  12.523  64.967  1.00  0.00    -0.302 C  
BRANCH   4   5
HETATM    5  C   UNL     1     -12.753  13.885  65.669  1.00  0.00    -0.534 C  
BRANCH   5   6
HETATM    6  C   UNL     1     -11.447  14.306  66.383  1.00  0.00    -0.361 C  
HETATM    7  H   UNL     1      -9.895  15.397  69.929  1.00  0.00     0.000 HD 
HETATM    8  C   UNL     1     -11.484  14.524  67.955  1.00  0.00    -0.345 C  
HETATM    9  C   UNL     1     -11.015  15.675  65.841  1.00  0.00    -0.231 C  
HETATM   10  C   UNL     1      -9.997  16.148  66.837  1.00  0.00    -0.258 C  
HETATM   11  O   UNL     1     -10.425  15.591  64.557  1.00  0.00    -0.605 OA 
HETATM   12  O   UNL     1      -9.520  15.623  69.086  1.00  0.00    -0.219 OA 
HETATM   13  H   UNL     1     -10.157  16.438  64.222  1.00  0.00     0.000 HD 
HETATM   14  C   UNL     1     -10.594  15.788  68.181  1.00  0.00    -0.275 C  
BRANCH   8  15
HETATM   15  C   UNL     1     -11.093  13.280  68.816  1.00  0.00    -0.303 C  
BRANCH  15  16
HETATM   16  C   UNL     1     -11.875  12.011  68.526  1.00  0.00    -0.369 C  
HETATM   17  C   UNL     1     -11.907  10.817  69.151  1.00  0.00    -0.347 C  
BRANCH  17  18
HETATM   18  C   UNL     1     -11.138  10.363  70.359  1.00  0.00    -0.371 C  
BRANCH  18  19
HETATM   19  C   UNL     1     -12.059   9.877  71.488  1.00  0.00    -0.496 C  
BRANCH  19  20
HETATM   20  C   UNL     1     -11.645   8.549  72.109  1.00  0.00    -0.447 C  
BRANCH  20  21
HETATM   21  C   UNL     1     -12.485   7.425  71.588  1.00  0.00    -0.349 C  
HETATM   22  O   UNL     1     -13.695   7.449  71.402  1.00  0.00    -0.383 OA 
BRANCH  21  23
HETATM   23  O   UNL     1     -11.697   6.319  71.490  1.00  0.00    -0.307 OA 
BRANCH  23  24
HETATM   24  C   UNL     1     -10.714   6.509  70.493  1.00  0.00    -0.254 C  
BRANCH  24  25
HETATM   25  C   UNL     1     -11.296   6.567  69.098  1.00  0.00    -0.330 C  
BRANCH  25  26
HETATM   26  C   UNL     1     -10.512   5.728  68.091  1.00  0.00    -0.277 C  
BRANCH  26  27
HETATM   27  C   UNL     1      -9.082   5.369  68.520  1.00  0.00    -0.108 C  
BRANCH  27  28
HETATM   28  O   UNL     1      -8.903   3.975  68.398  1.00  0.00    -0.096 OA 
HETATM   29  N   UNL     1      -8.078   3.446  69.419  1.00  0.00    -0.052 N  
HETATM   30  O   UNL     1      -7.867   2.239  69.278  1.00  0.00    -0.043 OA 
HETATM   31  O   UNL     1      -7.681   4.218  70.282  1.00  0.00    -0.046 OA 
ENDBRANCH  27  28
ENDBRANCH  26  27
ENDBRANCH  25  26
ENDBRANCH  24  25
ENDBRANCH  23  24
ENDBRANCH  21  23
ENDBRANCH  20  21
ENDBRANCH  19  20
ENDBRANCH  18  19
ENDBRANCH  17  18
ENDBRANCH  15  16
ENDBRANCH   8  15
ENDBRANCH   5   6
ENDBRANCH   4   5
ENDBRANCH   2   4
BRANCH   2  32
HETATM   32  C   UNL     1     -10.562  12.243  63.691  1.00  0.00    -0.501 C  
BRANCH  32  33
HETATM   33  C   UNL     1     -10.267  10.758  63.863  1.00  0.00    -0.377 C  
BRANCH  33  34
HETATM   34  C   UNL     1      -9.634  10.531  65.197  1.00  0.00    -0.316 A  
HETATM   35  C   UNL     1      -9.307   9.116  67.129  1.00  0.00    -0.178 A  
HETATM   36  C   UNL     1      -8.416  11.366  67.097  1.00  0.00    -0.153 A  
HETATM   37  C   UNL     1      -9.826   9.306  65.852  1.00  0.00    -0.335 A  
HETATM   38  C   UNL     1      -8.931  11.560  65.821  1.00  0.00    -0.120 A  
HETATM   39  C   UNL     1      -8.603  10.146  67.751  1.00  0.00    -0.118 A  
ENDBRANCH  33  34
ENDBRANCH  32  33
ENDBRANCH   2  32
TORSDOF 18
ENDMDL
MODEL       32
REMARK 921   NORMALIZED FREE ENERGY PREDICTED BY IDOCK:   -5.27 KCAL/MOL
REMARK 922        TOTAL FREE ENERGY PREDICTED BY IDOCK:  -15.60 KCAL/MOL
REMARK 923 INTER-LIGAND FREE ENERGY PREDICTED BY IDOCK:  -11.92 KCAL/MOL
REMARK 924 INTRA-LIGAND FREE ENERGY PREDICTED BY IDOCK:   -3.68 KCAL/MOL
REMARK 927      BINDING AFFINITY PREDICTED BY RF-SCORE:    0.00 PKD
ROOT
HETATM    1  O   UNL     1     -12.469  14.840  67.689  1.00  0.00    -0.511 OA 
HETATM    2  C   UNL     1     -11.441  15.712  68.155  1.00  0.00    -0.322 C  
HETATM    3  H   UNL     1     -13.016  14.561  68.414  1.00  0.00     0.000 HD 
ENDROOT
BRANCH   2   4
HETATM    4  C   UNL     1     -10.554  16.164  66.979  1.00  0.00    -0.292 C  
BRANCH   4   5
HETATM    5  C   UNL     1     -10.330  17.676  66.877  1.00  0.00    -0.329 C  
BRANCH   5   6
HETATM    6  C   UNL     1      -8.888  18.172  67.136  1.00  0.00    -0.259 C  
HETATM    7  H   UNL     1      -6.102  18.705  69.988  1.00  0.00     0.000 HD 
HETATM    8  C   UNL     1      -8.286  18.012  68.596  1.00  0.00    -0.287 C  
HETATM    9  C   UNL     1      -8.841  19.686  66.893  1.00  0.00    -0.331 C  
HETATM   10  C   UNL     1      -7.547  20.110  67.523  1.00  0.00    -0.333 C  
HETATM   11  O   UNL     1      -8.835  20.017  65.517  1.00  0.00    -0.424 OA 
HETATM   12  O   UNL     1      -6.134  19.188  69.170  1.00  0.00    -0.239 OA 
HETATM   13  H   UNL     1      -8.806  20.954  65.366  1.00  0.00     0.000 HD 
HETATM   14  C   UNL     1      -7.497  19.340  68.826  1.00  0.00    -0.352 C  
BRANCH   8  15
HETATM   15  C   UNL     1      -7.465  16.706  68.846  1.00  0.00    -0.232 C  
BRANCH  15  16
HETATM   16  C   UNL     1      -7.164  15.875  67.611  1.00  0.00    -0.182 C  
HETATM   17  C   UNL     1      -7.094  14.542  67.425  1.00  0.00    -0.138 C  
BRANCH  17  18
HETATM   18  C   UNL     1      -7.287  13.438  68.424  1.00  0.00    -0.112 C  
BRANCH  18  19
HETATM   19  C   UNL     1      -7.887  12.174  67.789  1.00  0.00    -0.148 C  
BRANCH  19  20
HETATM   20  C   UNL     1      -6.964  11.466  66.806  1.00  0.00    -0.128 C  
BRANCH  20  21
HETATM   21  C   UNL     1      -7.717  10.467  65.983  1.00  0.00    -0.147 C  
HETATM   22  O   UNL     1      -7.938  10.536  64.780  1.00  0.00    -0.135 OA 
BRANCH  21  23
HETATM   23  O   UNL     1      -8.243   9.537  66.826  1.00  0.00    -0.112 OA 
BRANCH  23  24
HETATM   24  C   UNL     1      -9.562   9.216  66.434  1.00  0.00    -0.245 C  
BRANCH  24  25
HETATM   25  C   UNL     1     -10.559   9.353  67.563  1.00  0.00    -0.333 C  
BRANCH  25  26
HETATM   26  C   UNL     1     -11.209  10.734  67.618  1.00  0.00    -0.370 C  
BRANCH  26  27
HETATM   27  C   UNL     1     -11.193  11.512  66.294  1.00  0.00    -0.222 C  
BRANCH  27  28
HETATM   28  O   UNL     1     -12.241  12.456  66.303  1.00  0.00    -0.620 OA 
HETATM   29  N   UNL     1     -12.400  13.098  65.052  1.00  0.00    -0.437 N  
HETATM   30  O   UNL     1     -13.273  13.970  65.075  1.00  0.00    -0.720 OA 
HETATM   31  O   UNL     1     -11.676  12.735  64.134  1.00  0.00    -0.345 OA 
ENDBRANCH  27  28
ENDBRANCH  26  27
ENDBRANCH  25  26
ENDBRANCH  24  25
ENDBRANCH  23  24
ENDBRANCH  21  23
ENDBRANCH  20  21
ENDBRANCH  19  20
ENDBRANCH  18  19
ENDBRANCH  17  18
ENDBRANCH  15  16
ENDBRANCH   8  15
ENDBRANCH   5   6
ENDBRANCH   4   5
ENDBRANCH   2   4
BRANCH   2  32
HETATM   32  C   UNL     1     -10.642  14.932  69.190  1.00  0.00    -0.248 C  
BRANCH  32  33
HETATM   33  C   UNL     1     -11.501  13.890  69.898  1.00  0.00    -0.252 C  
BRANCH  33  34
HETATM   34  C   UNL     1     -12.214  14.532  71.042  1.00  0.00    -0.407 A  
HETATM   35  C   UNL     1     -14.291  15.123  72.130  1.00  0.00    -0.647 A  
HETATM   36  C   UNL     1     -12.182  15.931  73.000  1.00  0.00    -0.609 A  
HETATM   37  C   UNL     1     -13.613  14.460  71.111  1.00  0.00    -0.338 A  
HETATM   38  C   UNL     1     -11.501  15.270  71.985  1.00  0.00    -0.500 A  
HETATM   39  C   UNL     1     -13.575  15.858  73.073  1.00  0.00    -0.616 A  
ENDBRANCH  33  34
ENDBRANCH  32  33
ENDBRANCH   2  32
TORSDOF 18
ENDMDL
MODEL       33
REMARK 921   NORMALIZED FREE ENERGY PREDICTED BY IDOCK:   -5.27 KCAL/MOL
REMARK 922        TOTAL FREE ENERGY PREDICTED BY IDOCK:  -15.59 KCAL/MOL
REMARK 923 INTER-LIGAND FREE ENERGY PREDICTED BY IDOCK:  -11.61 KCAL/MOL
REMARK 924 INTRA-LIGAND FREE ENERGY PREDICTED BY IDOCK:   -3.99 KCAL/MOL
REMARK 927      BINDING AFFINITY PREDICTED BY RF-SCORE:    0.00 PKD
ROOT
HETATM    1  O   UNL     1     -11.162   5.701  66.310  1.00  0.00    -0.759 OA 
HETATM    2  C   UNL     1     -10.318   6.397  67.226  1.00  0.00    -0.218 C  
HETATM    3  H   UNL     1     -11.090   6.084  65.443  1.00  0.00     0.000 HD 
ENDROOT
BRANCH   2   4
HETATM    4  C   UNL     1     -10.434   5.776  68.632  1.00  0.00    -0.298 C  
BRANCH   4   5
HETATM    5  C   UNL     1     -11.409   6.486  69.578  1.00  0.00    -0.419 C  
BRANCH   5   6
HETATM    6  C   UNL     1     -10.815   6.997  70.912  1.00  0.00    -0.268 C  
HETATM    7  H   UNL     1      -7.961   9.338  72.508  1.00  0.00     0.000 HD 
HETATM    8  C   UNL     1      -9.654   8.078  70.856  1.00  0.00    -0.179 C  
HETATM    9  C   UNL     1     -10.168   5.813  71.642  1.00  0.00    -0.203 C  
HETATM   10  C   UNL     1      -9.318   6.464  72.694  1.00  0.00    -0.142 C  
HETATM   11  O   UNL     1     -11.120   4.964  72.255  1.00  0.00    -0.115 OA 
HETATM   12  O   UNL     1      -8.369   8.606  72.957  1.00  0.00    -0.404 OA 
HETATM   13  H   UNL     1     -10.720   4.231  72.707  1.00  0.00     0.000 HD 
HETATM   14  C   UNL     1      -8.667   7.629  71.979  1.00  0.00    -0.117 C  
BRANCH   8  15
HETATM   15  C   UNL     1     -10.118   9.568  70.942  1.00  0.00    -0.330 C  
BRANCH  15  16
HETATM   16  C   UNL     1     -11.324   9.929  70.094  1.00  0.00    -0.335 C  
HETATM   17  C   UNL     1     -12.514  10.473  70.416  1.00  0.00    -0.392 C  
BRANCH  17  18
HETATM   18  C   UNL     1     -13.028  10.888  71.765  1.00  0.00    -0.557 C  
BRANCH  18  19
HETATM   19  C   UNL     1     -13.115  12.416  71.912  1.00  0.00    -0.471 C  
BRANCH  19  20
HETATM   20  C   UNL     1     -12.450  13.194  70.784  1.00  0.00    -0.389 C  
BRANCH  20  21
HETATM   21  C   UNL     1     -12.120  14.589  71.214  1.00  0.00    -0.354 C  
HETATM   22  O   UNL     1     -12.001  14.985  72.367  1.00  0.00    -0.362 OA 
BRANCH  21  23
HETATM   23  O   UNL     1     -12.115  15.382  70.108  1.00  0.00    -0.324 OA 
BRANCH  23  24
HETATM   24  C   UNL     1     -12.108  14.588  68.940  1.00  0.00    -0.237 C  
BRANCH  24  25
HETATM   25  C   UNL     1     -11.055  15.022  67.942  1.00  0.00    -0.310 C  
BRANCH  25  26
HETATM   26  C   UNL     1     -11.026  14.147  66.691  1.00  0.00    -0.303 C  
BRANCH  26  27
HETATM   27  C   UNL     1     -12.400  13.861  66.067  1.00  0.00    -0.475 C  
BRANCH  27  28
HETATM   28  O   UNL     1     -12.332  12.653  65.341  1.00  0.00    -0.528 OA 
HETATM   29  N   UNL     1     -12.469  12.852  63.947  1.00  0.00    -0.359 N  
HETATM   30  O   UNL     1     -12.475  11.792  63.316  1.00  0.00    -0.543 OA 
HETATM   31  O   UNL     1     -12.570  14.005  63.548  1.00  0.00    -0.842 OA 
ENDBRANCH  27  28
ENDBRANCH  26  27
ENDBRANCH  25  26
ENDBRANCH  24  25
ENDBRANCH  23  24
ENDBRANCH  21  23
ENDBRANCH  20  21
ENDBRANCH  19  20
ENDBRANCH  18  19
ENDBRANCH  17  18
ENDBRANCH  15  16
ENDBRANCH   8  15
ENDBRANCH   5   6
ENDBRANCH   4   5
ENDBRANCH   2   4
BRANCH   2  32
HETATM   32  C   UNL     1     -10.769   7.850  67.219  1.00  0.00    -0.299 C  
BRANCH  32  33
HETATM   33  C   UNL     1      -9.892   8.709  66.315  1.00  0.00    -0.320 C  
BRANCH  33  34
HETATM   34  C   UNL     1      -9.029   9.590  67.157  1.00  0.00    -0.148 A  
HETATM   35  C   UNL     1      -8.475  11.801  67.963  1.00  0.00    -0.157 A  
HETATM   36  C   UNL     1      -7.053   9.916  68.492  1.00  0.00    -0.071 A  
HETATM   37  C   UNL     1      -9.320  10.960  67.246  1.00  0.00    -0.168 A  
HETATM   38  C   UNL     1      -7.894   9.071  67.778  1.00  0.00    -0.101 A  
HETATM   39  C   UNL     1      -7.342  11.279  68.585  1.00  0.00    -0.109 A  
ENDBRANCH  33  34
ENDBRANCH  32  33
ENDBRANCH   2  32
TORSDOF 18
ENDMDL
MODEL       34
REMARK 921   NORMALIZED FREE ENERGY PREDICTED BY IDOCK:   -5.26 KCAL/MOL
REMARK 922        TOTAL FREE ENERGY PREDICTED BY IDOCK:  -15.58 KCAL/MOL
REMARK 923 INTER-LIGAND FREE ENERGY PREDICTED BY IDOCK:  -12.33 KCAL/MOL
REMARK 924 INTRA-LIGAND FREE ENERGY PREDICTED BY IDOCK:   -3.26 KCAL/MOL
REMARK 927      BINDING AFFINITY PREDICTED BY RF-SCORE:    0.00 PKD
ROOT
HETATM    1  O   UNL     1     -11.107   8.430  68.293  1.00  0.00    -0.433 OA 
HETATM    2  C   UNL     1      -9.803   9.008  68.270  1.00  0.00    -0.166 C  
HETATM    3  H   UNL     1     -11.232   7.873  67.534  1.00  0.00     0.000 HD 
ENDROOT
BRANCH   2   4
HETATM    4  C   UNL     1      -9.599   9.911  69.502  1.00  0.00    -0.242 C  
BRANCH   4   5
HETATM    5  C   UNL     1      -8.623   9.368  70.552  1.00  0.00    -0.265 C  
BRANCH   5   6
HETATM    6  C   UNL     1      -9.093   8.126  71.344  1.00  0.00    -0.194 C  
HETATM    7  H   UNL     1     -11.513   6.894  74.310  1.00  0.00     0.000 HD 
HETATM    8  C   UNL     1     -10.246   8.309  72.419  1.00  0.00    -0.397 C  
HETATM    9  C   UNL     1      -7.913   7.599  72.169  1.00  0.00    -0.105 C  
HETATM   10  C   UNL     1      -8.555   6.668  73.157  1.00  0.00    -0.129 C  
HETATM   11  O   UNL     1      -6.973   6.889  71.384  1.00  0.00    -0.064 OA 
HETATM   12  O   UNL     1     -10.734   6.431  74.025  1.00  0.00    -0.236 OA 
HETATM   13  H   UNL     1      -6.242   6.563  71.895  1.00  0.00     0.000 HD 
HETATM   14  C   UNL     1      -9.797   7.405  73.611  1.00  0.00    -0.315 C  
BRANCH   8  15
HETATM   15  C   UNL     1     -11.697   8.045  71.902  1.00  0.00    -0.351 C  
BRANCH  15  16
HETATM   16  C   UNL     1     -12.748   9.038  72.363  1.00  0.00    -0.433 C  
HETATM   17  C   UNL     1     -13.196  10.186  71.815  1.00  0.00    -0.542 C  
BRANCH  17  18
HETATM   18  C   UNL     1     -12.762  10.857  70.543  1.00  0.00    -0.363 C  
BRANCH  18  19
HETATM   19  C   UNL     1     -12.410  12.338  70.756  1.00  0.00    -0.383 C  
BRANCH  19  20
HETATM   20  C   UNL     1     -13.344  13.074  71.708  1.00  0.00    -0.468 C  
BRANCH  20  21
HETATM   21  C   UNL     1     -12.959  14.516  71.831  1.00  0.00    -0.341 C  
HETATM   22  O   UNL     1     -13.573  15.382  72.443  1.00  0.00    -0.425 OA 
BRANCH  21  23
HETATM   23  O   UNL     1     -11.885  14.737  71.025  1.00  0.00    -0.303 OA 
BRANCH  23  24
HETATM   24  C   UNL     1     -12.094  15.894  70.243  1.00  0.00    -0.270 C  
BRANCH  24  25
HETATM   25  C   UNL     1     -11.797  15.671  68.776  1.00  0.00    -0.336 C  
BRANCH  25  26
HETATM   26  C   UNL     1     -10.383  15.152  68.528  1.00  0.00    -0.230 C  
BRANCH  26  27
HETATM   27  C   UNL     1      -9.665  15.772  67.320  1.00  0.00    -0.223 C  
BRANCH  27  28
HETATM   28  O   UNL     1     -10.551  16.650  66.660  1.00  0.00    -0.286 OA 
HETATM   29  N   UNL     1     -10.624  16.397  65.270  1.00  0.00    -0.356 N  
HETATM   30  O   UNL     1     -11.348  17.204  64.681  1.00  0.00    -0.909 OA 
HETATM   31  O   UNL     1      -9.981  15.452  64.832  1.00  0.00    -0.274 OA 
ENDBRANCH  27  28
ENDBRANCH  26  27
ENDBRANCH  25  26
ENDBRANCH  24  25
ENDBRANCH  23  24
ENDBRANCH  21  23
ENDBRANCH  20  21
ENDBRANCH  19  20
ENDBRANCH  18  19
ENDBRANCH  17  18
ENDBRANCH  15  16
ENDBRANCH   8  15
ENDBRANCH   5   6
ENDBRANCH   4   5
ENDBRANCH   2   4
BRANCH   2  32
HETATM   32  C   UNL     1      -9.699   9.799  66.974  1.00  0.00    -0.233 C  
BRANCH  32  33
HETATM   33  C   UNL     1     -10.078  11.262  67.175  1.00  0.00    -0.223 C  
BRANCH  33  34
HETATM   34  C   UNL     1     -10.804  11.754  65.966  1.00  0.00    -0.343 A  
HETATM   35  C   UNL     1     -12.636  13.007  65.007  1.00  0.00    -0.515 A  
HETATM   36  C   UNL     1     -11.176  11.698  63.589  1.00  0.00    -0.497 A  
HETATM   37  C   UNL     1     -11.905  12.609  66.122  1.00  0.00    -0.477 A  
HETATM   38  C   UNL     1     -10.443  11.298  64.699  1.00  0.00    -0.387 A  
HETATM   39  C   UNL     1     -12.272  12.552  63.741  1.00  0.00    -0.615 A  
ENDBRANCH  33  34
ENDBRANCH  32  33
ENDBRANCH   2  32
TORSDOF 18
ENDMDL
MODEL       35
REMARK 921   NORMALIZED FREE ENERGY PREDICTED BY IDOCK:   -5.26 KCAL/MOL
REMARK 922        TOTAL FREE ENERGY PREDICTED BY IDOCK:  -15.57 KCAL/MOL
REMARK 923 INTER-LIGAND FREE ENERGY PREDICTED BY IDOCK:  -11.46 KCAL/MOL
REMARK 924 INTRA-LIGAND FREE ENERGY PREDICTED BY IDOCK:   -4.11 KCAL/MOL
REMARK 927      BINDING AFFINITY PREDICTED BY RF-SCORE:    0.00 PKD
ROOT
HETATM    1  O   UNL     1     -12.307  12.975  65.821  1.00  0.00    -0.452 OA 
HETATM    2  C   UNL     1     -12.121  13.839  66.941  1.00  0.00    -0.413 C  
HETATM    3  H   UNL     1     -13.002  12.352  66.000  1.00  0.00     0.000 HD 
ENDROOT
BRANCH   2   4
HETATM    4  C   UNL     1     -10.994  14.850  66.651  1.00  0.00    -0.325 C  
BRANCH   4   5
HETATM    5  C   UNL     1     -11.176  16.228  67.295  1.00  0.00     0.052 C  
BRANCH   5   6
HETATM    6  C   UNL     1      -9.956  17.177  67.234  1.00  0.00    -0.274 C  
HETATM    7  H   UNL     1      -7.113  18.955  69.454  1.00  0.00     0.000 HD 
HETATM    8  C   UNL     1      -9.127  17.426  68.564  1.00  0.00    -0.273 C  
HETATM    9  C   UNL     1     -10.447  18.578  66.849  1.00  0.00    -0.396 C  
HETATM   10  C   UNL     1      -9.286  19.468  67.185  1.00  0.00    -0.409 C  
HETATM   11  O   UNL     1     -10.753  18.690  65.471  1.00  0.00    -0.577 OA 
HETATM   12  O   UNL     1      -7.422  19.280  68.616  1.00  0.00    -0.317 OA 
HETATM   13  H   UNL     1     -11.056  19.557  65.233  1.00  0.00     0.000 HD 
HETATM   14  C   UNL     1      -8.794  18.951  68.520  1.00  0.00    -0.352 C  
BRANCH   8  15
HETATM   15  C   UNL     1      -7.895  16.488  68.774  1.00  0.00    -0.235 C  
BRANCH  15  16
HETATM   16  C   UNL     1      -7.528  15.613  67.589  1.00  0.00    -0.186 C  
HETATM   17  C   UNL     1      -7.431  14.275  67.460  1.00  0.00    -0.201 C  
BRANCH  17  18
HETATM   18  C   UNL     1      -7.652  13.209  68.495  1.00  0.00    -0.122 C  
BRANCH  18  19
HETATM   19  C   UNL     1      -8.020  11.855  67.868  1.00  0.00    -0.144 C  
BRANCH  19  20
HETATM   20  C   UNL     1      -8.612  11.951  66.468  1.00  0.00    -0.126 C  
BRANCH  20  21
HETATM   21  C   UNL     1      -9.566  10.828  66.209  1.00  0.00    -0.195 C  
HETATM   22  O   UNL     1     -10.505  10.839  65.421  1.00  0.00    -0.260 OA 
BRANCH  21  23
HETATM   23  O   UNL     1      -9.305   9.836  67.104  1.00  0.00    -0.139 OA 
BRANCH  23  24
HETATM   24  C   UNL     1     -10.511   9.335  67.641  1.00  0.00    -0.264 C  
BRANCH  24  25
HETATM   25  C   UNL     1     -10.368   8.873  69.075  1.00  0.00    -0.226 C  
BRANCH  25  26
HETATM   26  C   UNL     1     -10.788   9.936  70.087  1.00  0.00    -0.356 C  
BRANCH  26  27
HETATM   27  C   UNL     1     -11.635   9.419  71.258  1.00  0.00    -0.364 C  
BRANCH  27  28
HETATM   28  O   UNL     1     -11.897   8.046  71.065  1.00  0.00    -0.290 OA 
HETATM   29  N   UNL     1     -11.420   7.250  72.132  1.00  0.00    -0.264 N  
HETATM   30  O   UNL     1     -11.590   6.044  71.935  1.00  0.00    -0.295 OA 
HETATM   31  O   UNL     1     -10.907   7.826  73.083  1.00  0.00    -0.389 OA 
ENDBRANCH  27  28
ENDBRANCH  26  27
ENDBRANCH  25  26
ENDBRANCH  24  25
ENDBRANCH  23  24
ENDBRANCH  21  23
ENDBRANCH  20  21
ENDBRANCH  19  20
ENDBRANCH  18  19
ENDBRANCH  17  18
ENDBRANCH  15  16
ENDBRANCH   8  15
ENDBRANCH   5   6
ENDBRANCH   4   5
ENDBRANCH   2   4
BRANCH   2  32
HETATM   32  C   UNL     1     -11.780  12.949  68.128  1.00  0.00    -0.395 C  
BRANCH  32  33
HETATM   33  C   UNL     1     -11.165  13.745  69.272  1.00  0.00    -0.291 C  
BRANCH  33  34
HETATM   34  C   UNL     1     -12.195  13.964  70.332  1.00  0.00    -0.438 A  
HETATM   35  C   UNL     1     -13.592  13.068  72.089  1.00  0.00    -0.618 A  
HETATM   36  C   UNL     1     -13.844  15.368  71.380  1.00  0.00    -0.577 A  
HETATM   37  C   UNL     1     -12.577  12.893  71.154  1.00  0.00    -0.373 A  
HETATM   38  C   UNL     1     -12.831  15.199  70.445  1.00  0.00    -0.346 A  
HETATM   39  C   UNL     1     -14.225  14.304  72.202  1.00  0.00    -0.632 A  
ENDBRANCH  33  34
ENDBRANCH  32  33
ENDBRANCH   2  32
TORSDOF 18
ENDMDL
MODEL       36
REMARK 921   NORMALIZED FREE ENERGY PREDICTED BY IDOCK:   -5.25 KCAL/MOL
REMARK 922        TOTAL FREE ENERGY PREDICTED BY IDOCK:  -15.57 KCAL/MOL
REMARK 923 INTER-LIGAND FREE ENERGY PREDICTED BY IDOCK:  -12.22 KCAL/MOL
REMARK 924 INTRA-LIGAND FREE ENERGY PREDICTED BY IDOCK:   -3.35 KCAL/MOL
REMARK 927      BINDING AFFINITY PREDICTED BY RF-SCORE:    0.00 PKD
ROOT
HETATM    1  O   UNL     1     -11.499  13.786  70.675  1.00  0.00    -0.512 OA 
HETATM    2  C   UNL     1     -12.159  13.115  69.604  1.00  0.00    -0.255 C  
HETATM    3  H   UNL     1     -11.531  14.726  70.542  1.00  0.00     0.000 HD 
ENDROOT
BRANCH   2   4
HETATM    4  C   UNL     1     -12.107  11.589  69.820  1.00  0.00    -0.374 C  
BRANCH   4   5
HETATM    5  C   UNL     1     -12.643  11.105  71.172  1.00  0.00    -0.513 C  
BRANCH   5   6
HETATM    6  C   UNL     1     -12.159   9.713  71.638  1.00  0.00    -0.481 C  
HETATM    7  H   UNL     1      -9.953   6.520  70.580  1.00  0.00     0.000 HD 
HETATM    8  C   UNL     1     -11.134   8.923  70.719  1.00  0.00    -0.312 C  
HETATM    9  C   UNL     1     -13.371   8.775  71.712  1.00  0.00    -0.378 C  
HETATM   10  C   UNL     1     -12.759   7.406  71.794  1.00  0.00    -0.367 C  
HETATM   11  O   UNL     1     -14.173   9.010  72.854  1.00  0.00    -1.042 OA 
HETATM   12  O   UNL     1     -10.664   6.497  71.210  1.00  0.00    -0.225 OA 
HETATM   13  H   UNL     1     -14.923   8.429  72.900  1.00  0.00     0.000 HD 
HETATM   14  C   UNL     1     -11.627   7.443  70.789  1.00  0.00    -0.290 C  
BRANCH   8  15
HETATM   15  C   UNL     1      -9.624   9.131  71.063  1.00  0.00    -0.350 C  
BRANCH  15  16
HETATM   16  C   UNL     1      -8.658   8.961  69.903  1.00  0.00    -0.137 C  
HETATM   17  C   UNL     1      -8.286   9.802  68.918  1.00  0.00    -0.120 C  
BRANCH  17  18
HETATM   18  C   UNL     1      -8.744  11.208  68.654  1.00  0.00    -0.153 C  
BRANCH  18  19
HETATM   19  C   UNL     1      -7.639  12.073  68.027  1.00  0.00    -0.120 C  
BRANCH  19  20
HETATM   20  C   UNL     1      -7.726  13.554  68.377  1.00  0.00    -0.135 C  
BRANCH  20  21
HETATM   21  C   UNL     1      -6.547  14.304  67.840  1.00  0.00    -0.165 C  
HETATM   22  O   UNL     1      -5.388  14.206  68.223  1.00  0.00    -0.098 OA 
BRANCH  21  23
HETATM   23  O   UNL     1      -7.003  15.224  66.947  1.00  0.00    -0.181 OA 
BRANCH  23  24
HETATM   24  C   UNL     1      -8.346  15.555  67.232  1.00  0.00    -0.193 C  
BRANCH  24  25
HETATM   25  C   UNL     1      -9.127  15.952  65.998  1.00  0.00    -0.363 C  
BRANCH  25  26
HETATM   26  C   UNL     1     -10.382  16.759  66.323  1.00  0.00    -0.316 C  
BRANCH  26  27
HETATM   27  C   UNL     1     -10.218  18.282  66.225  1.00  0.00    -0.401 C  
BRANCH  27  28
HETATM   28  O   UNL     1     -10.792  18.880  67.367  1.00  0.00    -0.458 OA 
HETATM   29  N   UNL     1      -9.868  19.682  68.078  1.00  0.00    -0.390 N  
HETATM   30  O   UNL     1     -10.348  20.154  69.111  1.00  0.00    -0.314 OA 
HETATM   31  O   UNL     1      -8.744  19.803  67.607  1.00  0.00    -0.311 OA 
ENDBRANCH  27  28
ENDBRANCH  26  27
ENDBRANCH  25  26
ENDBRANCH  24  25
ENDBRANCH  23  24
ENDBRANCH  21  23
ENDBRANCH  20  21
ENDBRANCH  19  20
ENDBRANCH  18  19
ENDBRANCH  17  18
ENDBRANCH  15  16
ENDBRANCH   8  15
ENDBRANCH   5   6
ENDBRANCH   4   5
ENDBRANCH   2   4
BRANCH   2  32
HETATM   32  C   UNL     1     -11.442  13.522  68.325  1.00  0.00    -0.345 C  
BRANCH  32  33
HETATM   33  C   UNL     1     -12.402  13.609  67.143  1.00  0.00    -0.234 C  
BRANCH  33  34
HETATM   34  C   UNL     1     -11.808  12.899  65.971  1.00  0.00    -0.485 A  
HETATM   35  C   UNL     1     -11.616  12.641  63.575  1.00  0.00    -0.584 A  
HETATM   36  C   UNL     1     -10.558  11.053  65.063  1.00  0.00    -0.315 A  
HETATM   37  C   UNL     1     -12.101  13.345  64.674  1.00  0.00    -0.456 A  
HETATM   38  C   UNL     1     -11.039  11.752  66.164  1.00  0.00    -0.358 A  
HETATM   39  C   UNL     1     -10.846  11.497  63.770  1.00  0.00    -0.486 A  
ENDBRANCH  33  34
ENDBRANCH  32  33
ENDBRANCH   2  32
TORSDOF 18
ENDMDL
MODEL       37
REMARK 921   NORMALIZED FREE ENERGY PREDICTED BY IDOCK:   -5.25 KCAL/MOL
REMARK 922        TOTAL FREE ENERGY PREDICTED BY IDOCK:  -15.56 KCAL/MOL
REMARK 923 INTER-LIGAND FREE ENERGY PREDICTED BY IDOCK:  -12.36 KCAL/MOL
REMARK 924 INTRA-LIGAND FREE ENERGY PREDICTED BY IDOCK:   -3.19 KCAL/MOL
REMARK 927      BINDING AFFINITY PREDICTED BY RF-SCORE:    0.00 PKD
ROOT
HETATM    1  O   UNL     1     -10.131  14.201  69.409  1.00  0.00    -0.426 OA 
HETATM    2  C   UNL     1     -11.224  14.675  68.626  1.00  0.00    -0.275 C  
HETATM    3  H   UNL     1     -10.308  14.331  70.334  1.00  0.00     0.000 HD 
ENDROOT
BRANCH   2   4
HETATM    4  C   UNL     1     -10.936  14.462  67.127  1.00  0.00    -0.305 C  
BRANCH   4   5
HETATM    5  C   UNL     1     -12.100  13.882  66.317  1.00  0.00    -0.484 C  
BRANCH   5   6
HETATM    6  C   UNL     1     -11.782  12.631  65.465  1.00  0.00    -0.446 C  
HETATM    7  H   UNL     1      -9.233   9.548  65.051  1.00  0.00     0.000 HD 
HETATM    8  C   UNL     1     -10.590  11.689  65.923  1.00  0.00    -0.318 C  
HETATM    9  C   UNL     1     -11.358  13.091  64.064  1.00  0.00    -0.410 C  
HETATM   10  C   UNL     1     -10.723  11.870  63.464  1.00  0.00    -0.504 C  
HETATM   11  O   UNL     1     -12.456  13.500  63.269  1.00  0.00    -0.897 OA 
HETATM   12  O   UNL     1      -9.759   9.908  64.347  1.00  0.00    -0.274 OA 
HETATM   13  H   UNL     1     -12.193  13.784  62.401  1.00  0.00     0.000 HD 
HETATM   14  C   UNL     1      -9.884  11.296  64.586  1.00  0.00    -0.268 C  
BRANCH   8  15
HETATM   15  C   UNL     1     -10.995  10.485  66.833  1.00  0.00    -0.199 C  
BRANCH  15  16
HETATM   16  C   UNL     1     -10.337  10.446  68.200  1.00  0.00    -0.202 C  
HETATM   17  C   UNL     1     -10.809  10.733  69.429  1.00  0.00    -0.289 C  
BRANCH  17  18
HETATM   18  C   UNL     1     -12.177  11.209  69.828  1.00  0.00    -0.369 C  
BRANCH  18  19
HETATM   19  C   UNL     1     -12.500  10.891  71.296  1.00  0.00    -0.493 C  
BRANCH  19  20
HETATM   20  C   UNL     1     -13.403   9.680  71.492  1.00  0.00    -0.468 C  
BRANCH  20  21
HETATM   21  C   UNL     1     -12.621   8.498  71.974  1.00  0.00    -0.364 C  
HETATM   22  O   UNL     1     -11.714   8.514  72.798  1.00  0.00    -0.317 OA 
BRANCH  21  23
HETATM   23  O   UNL     1     -12.989   7.417  71.234  1.00  0.00    -0.351 OA 
BRANCH  23  24
HETATM   24  C   UNL     1     -11.928   6.487  71.169  1.00  0.00    -0.306 C  
BRANCH  24  25
HETATM   25  C   UNL     1     -11.288   6.422  69.799  1.00  0.00    -0.494 C  
BRANCH  25  26
HETATM   26  C   UNL     1      -9.930   7.118  69.745  1.00  0.00    -0.180 C  
BRANCH  26  27
HETATM   27  C   UNL     1      -8.946   6.542  68.716  1.00  0.00    -0.124 C  
BRANCH  27  28
HETATM   28  O   UNL     1      -8.101   7.575  68.260  1.00  0.00    -0.121 OA 
HETATM   29  N   UNL     1      -8.279   7.852  66.884  1.00  0.00    -0.114 N  
HETATM   30  O   UNL     1      -7.496   8.710  66.469  1.00  0.00    -0.086 OA 
HETATM   31  O   UNL     1      -9.149   7.228  66.290  1.00  0.00    -0.162 OA 
ENDBRANCH  27  28
ENDBRANCH  26  27
ENDBRANCH  25  26
ENDBRANCH  24  25
ENDBRANCH  23  24
ENDBRANCH  21  23
ENDBRANCH  20  21
ENDBRANCH  19  20
ENDBRANCH  18  19
ENDBRANCH  17  18
ENDBRANCH  15  16
ENDBRANCH   8  15
ENDBRANCH   5   6
ENDBRANCH   4   5
ENDBRANCH   2   4
BRANCH   2  32
HETATM   32  C   UNL     1     -11.393  16.150  68.958  1.00  0.00    -0.340 C  
BRANCH  32  33
HETATM   33  C   UNL     1     -10.061  16.807  69.303  1.00  0.00    -0.240 C  
BRANCH  33  34
HETATM   34  C   UNL     1      -9.806  17.932  68.354  1.00  0.00    -0.355 A  
HETATM   35  C   UNL     1      -8.407  19.769  67.635  1.00  0.00    -0.355 A  
HETATM   36  C   UNL     1     -10.565  19.400  66.605  1.00  0.00    -0.566 A  
HETATM   37  C   UNL     1      -8.617  18.669  68.462  1.00  0.00    -0.370 A  
HETATM   38  C   UNL     1     -10.780  18.301  67.428  1.00  0.00    -0.377 A  
HETATM   39  C   UNL     1      -9.381  20.134  66.708  1.00  0.00    -0.513 A  
ENDBRANCH  33  34
ENDBRANCH  32  33
ENDBRANCH   2  32
TORSDOF 18
ENDMDL
MODEL       38
REMARK 921   NORMALIZED FREE ENERGY PREDICTED BY IDOCK:   -5.25 KCAL/MOL
REMARK 922        TOTAL FREE ENERGY PREDICTED BY IDOCK:  -15.55 KCAL/MOL
REMARK 923 INTER-LIGAND FREE ENERGY PREDICTED BY IDOCK:  -11.78 KCAL/MOL
REMARK 924 INTRA-LIGAND FREE ENERGY PREDICTED BY IDOCK:   -3.77 KCAL/MOL
REMARK 927      BINDING AFFINITY PREDICTED BY RF-SCORE:    0.00 PKD
ROOT
HETATM    1  O   UNL     1     -12.360  16.275  71.419  1.00  0.00    -0.574 OA 
HETATM    2  C   UNL     1     -11.594  15.119  71.086  1.00  0.00    -0.360 C  
HETATM    3  H   UNL     1     -13.087  16.035  71.982  1.00  0.00     0.000 HD 
ENDROOT
BRANCH   2   4
HETATM    4  C   UNL     1     -10.415  15.508  70.172  1.00  0.00    -0.317 C  
BRANCH   4   5
HETATM    5  C   UNL     1     -10.356  14.765  68.834  1.00  0.00    -0.243 C  
BRANCH   5   6
HETATM    6  C   UNL     1      -8.944  14.414  68.309  1.00  0.00    -0.187 C  
HETATM    7  H   UNL     1      -6.459  11.364  67.473  1.00  0.00     0.000 HD 
HETATM    8  C   UNL     1      -8.576  12.883  68.101  1.00  0.00    -0.188 C  
HETATM    9  C   UNL     1      -7.909  14.896  69.334  1.00  0.00    -0.139 C  
HETATM   10  C   UNL     1      -6.649  14.188  68.930  1.00  0.00    -0.099 C  
HETATM   11  O   UNL     1      -7.708  16.296  69.287  1.00  0.00    -0.231 OA 
HETATM   12  O   UNL     1      -6.175  12.248  67.677  1.00  0.00    -0.088 OA 
HETATM   13  H   UNL     1      -7.067  16.595  69.921  1.00  0.00     0.000 HD 
HETATM   14  C   UNL     1      -7.100  12.780  68.605  1.00  0.00    -0.100 C  
BRANCH   8  15
HETATM   15  C   UNL     1      -8.823  12.321  66.665  1.00  0.00    -0.167 C  
BRANCH  15  16
HETATM   16  C   UNL     1      -9.806  11.168  66.573  1.00  0.00    -0.242 C  
HETATM   17  C   UNL     1     -10.361  10.547  65.513  1.00  0.00    -0.287 C  
BRANCH  17  18
HETATM   18  C   UNL     1     -10.177  10.832  64.050  1.00  0.00    -0.390 C  
BRANCH  18  19
HETATM   19  C   UNL     1     -10.902  12.113  63.610  1.00  0.00    -0.523 C  
BRANCH  19  20
HETATM   20  C   UNL     1     -12.257  12.328  64.272  1.00  0.00    -0.514 C  
BRANCH  20  21
HETATM   21  C   UNL     1     -12.319  13.661  64.950  1.00  0.00    -0.406 C  
HETATM   22  O   UNL     1     -13.280  14.126  65.552  1.00  0.00    -0.688 OA 
BRANCH  21  23
HETATM   23  O   UNL     1     -11.173  14.336  64.661  1.00  0.00    -0.373 OA 
BRANCH  23  24
HETATM   24  C   UNL     1     -11.389  15.728  64.764  1.00  0.00    -0.314 C  
BRANCH  24  25
HETATM   25  C   UNL     1     -10.326  16.427  65.584  1.00  0.00    -0.371 C  
BRANCH  25  26
HETATM   26  C   UNL     1     -10.641  17.901  65.831  1.00  0.00    -0.216 C  
BRANCH  26  27
HETATM   27  C   UNL     1      -9.498  18.712  66.458  1.00  0.00    -0.322 C  
BRANCH  27  28
HETATM   28  O   UNL     1      -8.530  17.823  66.971  1.00  0.00    -0.219 OA 
HETATM   29  N   UNL     1      -7.316  17.872  66.247  1.00  0.00    -0.269 N  
HETATM   30  O   UNL     1      -6.491  17.049  66.653  1.00  0.00    -0.200 OA 
HETATM   31  O   UNL     1      -7.232  18.685  65.336  1.00  0.00    -0.520 OA 
ENDBRANCH  27  28
ENDBRANCH  26  27
ENDBRANCH  25  26
ENDBRANCH  24  25
ENDBRANCH  23  24
ENDBRANCH  21  23
ENDBRANCH  20  21
ENDBRANCH  19  20
ENDBRANCH  18  19
ENDBRANCH  17  18
ENDBRANCH  15  16
ENDBRANCH   8  15
ENDBRANCH   5   6
ENDBRANCH   4   5
ENDBRANCH   2   4
BRANCH   2  32
HETATM   32  C   UNL     1     -12.541  14.151  70.392  1.00  0.00    -0.397 C  
BRANCH  32  33
HETATM   33  C   UNL     1     -13.150  13.157  71.374  1.00  0.00    -0.352 C  
BRANCH  33  34
HETATM   34  C   UNL     1     -12.650  11.784  71.063  1.00  0.00    -0.409 A  
HETATM   35  C   UNL     1     -12.536   9.435  71.623  1.00  0.00    -0.460 A  
HETATM   36  C   UNL     1     -11.195  10.327  69.817  1.00  0.00    -0.339 A  
HETATM   37  C   UNL     1     -13.061  10.704  71.857  1.00  0.00    -0.563 A  
HETATM   38  C   UNL     1     -11.715  11.595  70.046  1.00  0.00    -0.402 A  
HETATM   39  C   UNL     1     -11.604   9.248  70.605  1.00  0.00    -0.305 A  
ENDBRANCH  33  34
ENDBRANCH  32  33
ENDBRANCH   2  32
TORSDOF 18
ENDMDL
MODEL       39
REMARK 921   NORMALIZED FREE ENERGY PREDICTED BY IDOCK:   -5.24 KCAL/MOL
REMARK 922        TOTAL FREE ENERGY PREDICTED BY IDOCK:  -15.55 KCAL/MOL
REMARK 923 INTER-LIGAND FREE ENERGY PREDICTED BY IDOCK:  -11.82 KCAL/MOL
REMARK 924 INTRA-LIGAND FREE ENERGY PREDICTED BY IDOCK:   -3.72 KCAL/MOL
REMARK 927      BINDING AFFINITY PREDICTED BY RF-SCORE:    0.00 PKD
ROOT
HETATM    1  O   UNL     1     -12.531  13.996  62.941  1.00  0.00    -1.028 OA 
HETATM    2  C   UNL     1     -12.380  14.028  64.359  1.00  0.00    -0.367 C  
HETATM    3  H   UNL     1     -13.166  13.334  62.694  1.00  0.00     0.000 HD 
ENDROOT
BRANCH   2   4
HETATM    4  C   UNL     1     -11.350  15.102  64.760  1.00  0.00    -0.399 C  
BRANCH   4   5
HETATM    5  C   UNL     1     -10.140  14.583  65.544  1.00  0.00    -0.394 C  
BRANCH   5   6
HETATM    6  C   UNL     1     -10.143  14.857  67.066  1.00  0.00    -0.244 C  
HETATM    7  H   UNL     1     -12.002  13.970  70.520  1.00  0.00     0.000 HD 
HETATM    8  C   UNL     1     -11.159  14.046  67.977  1.00  0.00    -0.282 C  
HETATM    9  C   UNL     1     -10.543  16.320  67.296  1.00  0.00    -0.298 C  
HETATM   10  C   UNL     1     -10.880  16.372  68.758  1.00  0.00    -0.338 C  
HETATM   11  O   UNL     1      -9.490  17.224  67.015  1.00  0.00    -0.248 OA 
HETATM   12  O   UNL     1     -11.505  14.765  70.366  1.00  0.00    -0.260 OA 
HETATM   13  H   UNL     1      -9.738  18.129  67.158  1.00  0.00     0.000 HD 
HETATM   14  C   UNL     1     -11.672  15.105  69.004  1.00  0.00    -0.335 C  
BRANCH   8  15
HETATM   15  C   UNL     1     -10.595  12.734  68.609  1.00  0.00    -0.256 C  
BRANCH  15  16
HETATM   16  C   UNL     1     -11.517  11.529  68.552  1.00  0.00    -0.354 C  
HETATM   17  C   UNL     1     -12.266  10.929  69.499  1.00  0.00    -0.331 C  
BRANCH  17  18
HETATM   18  C   UNL     1     -12.406  11.278  70.953  1.00  0.00    -0.490 C  
BRANCH  18  19
HETATM   19  C   UNL     1     -12.967  10.111  71.781  1.00  0.00    -0.567 C  
BRANCH  19  20
HETATM   20  C   UNL     1     -12.646   8.731  71.220  1.00  0.00    -0.285 C  
BRANCH  20  21
HETATM   21  C   UNL     1     -11.410   8.168  71.850  1.00  0.00    -0.296 C  
HETATM   22  O   UNL     1     -11.302   7.762  73.001  1.00  0.00    -0.399 OA 
BRANCH  21  23
HETATM   23  O   UNL     1     -10.383   8.316  70.970  1.00  0.00    -0.187 OA 
BRANCH  23  24
HETATM   24  C   UNL     1     -10.591   7.501  69.836  1.00  0.00    -0.237 C  
BRANCH  24  25
HETATM   25  C   UNL     1     -10.036   8.109  68.566  1.00  0.00    -0.220 C  
BRANCH  25  26
HETATM   26  C   UNL     1     -10.579   7.445  67.303  1.00  0.00    -0.393 C  
BRANCH  26  27
HETATM   27  C   UNL     1     -10.786   5.927  67.404  1.00  0.00    -0.287 C  
BRANCH  27  28
HETATM   28  O   UNL     1     -10.763   5.372  66.107  1.00  0.00    -0.229 OA 
HETATM   29  N   UNL     1      -9.996   4.185  66.041  1.00  0.00    -0.205 N  
HETATM   30  O   UNL     1      -9.921   3.734  64.896  1.00  0.00    -0.184 OA 
HETATM   31  O   UNL     1      -9.510   3.767  67.084  1.00  0.00    -0.186 OA 
ENDBRANCH  27  28
ENDBRANCH  26  27
ENDBRANCH  25  26
ENDBRANCH  24  25
ENDBRANCH  23  24
ENDBRANCH  21  23
ENDBRANCH  20  21
ENDBRANCH  19  20
ENDBRANCH  18  19
ENDBRANCH  17  18
ENDBRANCH  15  16
ENDBRANCH   8  15
ENDBRANCH   5   6
ENDBRANCH   4   5
ENDBRANCH   2   4
BRANCH   2  32
HETATM   32  C   UNL     1     -11.930  12.637  64.782  1.00  0.00    -0.458 C  
BRANCH  32  33
HETATM   33  C   UNL     1     -11.490  11.799  63.588  1.00  0.00    -0.524 C  
BRANCH  33  34
HETATM   34  C   UNL     1     -10.306  10.974  63.973  1.00  0.00    -0.436 A  
HETATM   35  C   UNL     1      -8.748  10.236  65.668  1.00  0.00    -0.176 A  
HETATM   36  C   UNL     1      -8.418   9.617  63.351  1.00  0.00    -0.188 A  
HETATM   37  C   UNL     1      -9.897  10.937  65.314  1.00  0.00    -0.318 A  
HETATM   38  C   UNL     1      -9.564  10.316  62.993  1.00  0.00    -0.297 A  
HETATM   39  C   UNL     1      -8.009   9.577  64.687  1.00  0.00    -0.128 A  
ENDBRANCH  33  34
ENDBRANCH  32  33
ENDBRANCH   2  32
TORSDOF 18
ENDMDL
MODEL       40
REMARK 921   NORMALIZED FREE ENERGY PREDICTED BY IDOCK:   -5.24 KCAL/MOL
REMARK 922        TOTAL FREE ENERGY PREDICTED BY IDOCK:  -15.54 KCAL/MOL
REMARK 923 INTER-LIGAND FREE ENERGY PREDICTED BY IDOCK:  -10.65 KCAL/MOL
REMARK 924 INTRA-LIGAND FREE ENERGY PREDICTED BY IDOCK:   -4.89 KCAL/MOL
REMARK 927      BINDING AFFINITY PREDICTED BY RF-SCORE:    0.00 PKD
ROOT
HETATM    1  O   UNL     1     -13.075  12.257  63.922  1.00  0.00    -0.772 OA 
HETATM    2  C   UNL     1     -11.930  13.047  63.608  1.00  0.00    -0.539 C  
HETATM    3  H   UNL     1     -13.870  12.736  63.715  1.00  0.00     0.000 HD 
ENDROOT
BRANCH   2   4
HETATM    4  C   UNL     1     -10.641  12.271  63.943  1.00  0.00    -0.462 C  
BRANCH   4   5
HETATM    5  C   UNL     1     -10.858  10.881  64.550  1.00  0.00    -0.145 C  
BRANCH   5   6
HETATM    6  C   UNL     1      -9.755  10.374  65.508  1.00  0.00    -0.307 C  
HETATM    7  H   UNL     1      -7.141  11.520  68.341  1.00  0.00     0.000 HD 
HETATM    8  C   UNL     1      -9.120  11.402  66.538  1.00  0.00    -0.193 C  
HETATM    9  C   UNL     1      -8.554   9.916  64.671  1.00  0.00    -0.182 C  
HETATM   10  C   UNL     1      -7.439   9.813  65.671  1.00  0.00    -0.110 C  
HETATM   11  O   UNL     1      -8.765   8.658  64.058  1.00  0.00    -0.408 OA 
HETATM   12  O   UNL     1      -7.040  10.747  67.799  1.00  0.00    -0.083 OA 
HETATM   13  H   UNL     1      -8.021   8.374  63.540  1.00  0.00     0.000 HD 
HETATM   14  C   UNL     1      -7.599  11.046  66.535  1.00  0.00    -0.146 C  
BRANCH   8  15
HETATM   15  C   UNL     1      -9.786  11.438  67.950  1.00  0.00    -0.188 C  
BRANCH  15  16
HETATM   16  C   UNL     1     -11.225  10.957  68.009  1.00  0.00    -0.378 C  
HETATM   17  C   UNL     1     -12.131  10.964  69.007  1.00  0.00    -0.240 C  
BRANCH  17  18
HETATM   18  C   UNL     1     -11.978  11.455  70.418  1.00  0.00    -0.465 C  
BRANCH  18  19
HETATM   19  C   UNL     1     -12.481  10.433  71.449  1.00  0.00    -0.521 C  
BRANCH  19  20
HETATM   20  C   UNL     1     -11.618   9.184  71.569  1.00  0.00    -0.439 C  
BRANCH  20  21
HETATM   21  C   UNL     1     -12.378   7.963  71.157  1.00  0.00    -0.230 C  
HETATM   22  O   UNL     1     -13.511   7.659  71.510  1.00  0.00    -0.352 OA 
BRANCH  21  23
HETATM   23  O   UNL     1     -11.542   7.168  70.435  1.00  0.00    -0.295 OA 
BRANCH  23  24
HETATM   24  C   UNL     1     -10.339   7.854  70.156  1.00  0.00    -0.215 C  
BRANCH  24  25
HETATM   25  C   UNL     1      -9.722   7.446  68.836  1.00  0.00    -0.150 C  
BRANCH  25  26
HETATM   26  C   UNL     1     -10.699   7.549  67.667  1.00  0.00    -0.266 C  
BRANCH  26  27
HETATM   27  C   UNL     1     -10.902   6.249  66.874  1.00  0.00    -0.354 C  
BRANCH  27  28
HETATM   28  O   UNL     1     -10.021   5.266  67.370  1.00  0.00    -0.149 OA 
HETATM   29  N   UNL     1      -8.873   5.111  66.558  1.00  0.00    -0.116 N  
HETATM   30  O   UNL     1      -8.132   4.207  66.954  1.00  0.00    -0.100 OA 
HETATM   31  O   UNL     1      -8.757   5.856  65.594  1.00  0.00    -0.152 OA 
ENDBRANCH  27  28
ENDBRANCH  26  27
ENDBRANCH  25  26
ENDBRANCH  24  25
ENDBRANCH  23  24
ENDBRANCH  21  23
ENDBRANCH  20  21
ENDBRANCH  19  20
ENDBRANCH  18  19
ENDBRANCH  17  18
ENDBRANCH  15  16
ENDBRANCH   8  15
ENDBRANCH   5   6
ENDBRANCH   4   5
ENDBRANCH   2   4
BRANCH   2  32
HETATM   32  C   UNL     1     -12.041  14.324  64.428  1.00  0.00    -0.490 C  
BRANCH  32  33
HETATM   33  C   UNL     1     -12.597  14.054  65.821  1.00  0.00    -0.512 C  
BRANCH  33  34
HETATM   34  C   UNL     1     -11.579  14.444  66.843  1.00  0.00    -0.404 A  
HETATM   35  C   UNL     1     -11.036  14.985  69.136  1.00  0.00    -0.278 A  
HETATM   36  C   UNL     1      -9.372  15.226  67.396  1.00  0.00    -0.202 A  
HETATM   37  C   UNL     1     -11.957  14.545  68.190  1.00  0.00    -0.296 A  
HETATM   38  C   UNL     1     -10.287  14.787  66.447  1.00  0.00    -0.297 A  
HETATM   39  C   UNL     1      -9.745  15.325  68.739  1.00  0.00    -0.212 A  
ENDBRANCH  33  34
ENDBRANCH  32  33
ENDBRANCH   2  32
TORSDOF 18
ENDMDL
MODEL       41
REMARK 921   NORMALIZED FREE ENERGY PREDICTED BY IDOCK:   -5.24 KCAL/MOL
REMARK 922        TOTAL FREE ENERGY PREDICTED BY IDOCK:  -15.54 KCAL/MOL
REMARK 923 INTER-LIGAND FREE ENERGY PREDICTED BY IDOCK:  -11.95 KCAL/MOL
REMARK 924 INTRA-LIGAND FREE ENERGY PREDICTED BY IDOCK:   -3.58 KCAL/MOL
REMARK 927      BINDING AFFINITY PREDICTED BY RF-SCORE:    0.00 PKD
ROOT
HETATM    1  O   UNL     1     -13.552   9.843  70.443  1.00  0.00    -0.547 OA 
HETATM    2  C   UNL     1     -12.528   9.912  71.433  1.00  0.00    -0.398 C  
HETATM    3  H   UNL     1     -14.405   9.788  70.857  1.00  0.00     0.000 HD 
ENDROOT
BRANCH   2   4
HETATM    4  C   UNL     1     -11.144  10.002  70.761  1.00  0.00    -0.407 C  
BRANCH   4   5
HETATM    5  C   UNL     1     -10.017   9.263  71.491  1.00  0.00    -0.281 C  
BRANCH   5   6
HETATM    6  C   UNL     1      -8.672   9.151  70.734  1.00  0.00    -0.285 C  
HETATM    7  H   UNL     1      -6.933   7.719  67.403  1.00  0.00     0.000 HD 
HETATM    8  C   UNL     1      -8.672   8.493  69.290  1.00  0.00    -0.133 C  
HETATM    9  C   UNL     1      -7.734   8.244  71.541  1.00  0.00    -0.098 C  
HETATM   10  C   UNL     1      -6.644   7.902  70.568  1.00  0.00    -0.037 C  
HETATM   11  O   UNL     1      -7.181   8.898  72.668  1.00  0.00    -0.337 OA 
HETATM   12  O   UNL     1      -6.474   7.894  68.216  1.00  0.00    -0.051 OA 
HETATM   13  H   UNL     1      -6.599   8.337  73.168  1.00  0.00     0.000 HD 
HETATM   14  C   UNL     1      -7.375   7.623  69.272  1.00  0.00    -0.088 C  
BRANCH   8  15
HETATM   15  C   UNL     1      -8.813   9.492  68.096  1.00  0.00    -0.124 C  
BRANCH  15  16
HETATM   16  C   UNL     1     -10.036   9.296  67.219  1.00  0.00    -0.291 C  
HETATM   17  C   UNL     1     -10.353   9.785  66.003  1.00  0.00    -0.184 C  
BRANCH  17  18
HETATM   18  C   UNL     1      -9.566  10.717  65.126  1.00  0.00    -0.304 C  
BRANCH  18  19
HETATM   19  C   UNL     1     -10.287  11.021  63.803  1.00  0.00    -0.427 C  
BRANCH  19  20
HETATM   20  C   UNL     1     -10.960  12.387  63.755  1.00  0.00    -0.501 C  
BRANCH  20  21
HETATM   21  C   UNL     1     -12.358  12.317  64.284  1.00  0.00    -0.427 C  
HETATM   22  O   UNL     1     -13.356  11.982  63.659  1.00  0.00    -0.676 OA 
BRANCH  21  23
HETATM   23  O   UNL     1     -12.359  12.831  65.545  1.00  0.00    -0.496 OA 
BRANCH  23  24
HETATM   24  C   UNL     1     -11.806  14.131  65.541  1.00  0.00    -0.364 C  
BRANCH  24  25
HETATM   25  C   UNL     1     -11.413  14.605  66.923  1.00  0.00    -0.372 C  
BRANCH  25  26
HETATM   26  C   UNL     1     -11.940  13.700  68.034  1.00  0.00    -0.385 C  
BRANCH  26  27
HETATM   27  C   UNL     1     -11.830  14.280  69.452  1.00  0.00    -0.326 C  
BRANCH  27  28
HETATM   28  O   UNL     1     -12.432  13.386  70.362  1.00  0.00    -0.310 OA 
HETATM   29  N   UNL     1     -13.124  14.056  71.399  1.00  0.00    -0.345 N  
HETATM   30  O   UNL     1     -13.595  13.278  72.232  1.00  0.00    -0.536 OA 
HETATM   31  O   UNL     1     -13.165  15.279  71.354  1.00  0.00    -0.402 OA 
ENDBRANCH  27  28
ENDBRANCH  26  27
ENDBRANCH  25  26
ENDBRANCH  24  25
ENDBRANCH  23  24
ENDBRANCH  21  23
ENDBRANCH  20  21
ENDBRANCH  19  20
ENDBRANCH  18  19
ENDBRANCH  17  18
ENDBRANCH  15  16
ENDBRANCH   8  15
ENDBRANCH   5   6
ENDBRANCH   4   5
ENDBRANCH   2   4
BRANCH   2  32
HETATM   32  C   UNL     1     -12.655   8.655  72.282  1.00  0.00    -0.457 C  
BRANCH  32  33
HETATM   33  C   UNL     1     -13.171   7.474  71.469  1.00  0.00    -0.404 C  
BRANCH  33  34
HETATM   34  C   UNL     1     -12.043   6.537  71.187  1.00  0.00    -0.318 A  
HETATM   35  C   UNL     1     -10.226   5.166  72.003  1.00  0.00    -0.260 A  
HETATM   36  C   UNL     1     -10.548   5.481  69.625  1.00  0.00    -0.375 A  
HETATM   37  C   UNL     1     -11.329   5.976  72.257  1.00  0.00    -0.353 A  
HETATM   38  C   UNL     1     -11.650   6.290  69.873  1.00  0.00    -0.361 A  
HETATM   39  C   UNL     1      -9.837   4.919  70.688  1.00  0.00    -0.289 A  
ENDBRANCH  33  34
ENDBRANCH  32  33
ENDBRANCH   2  32
TORSDOF 18
ENDMDL
MODEL       42
REMARK 921   NORMALIZED FREE ENERGY PREDICTED BY IDOCK:   -5.23 KCAL/MOL
REMARK 922        TOTAL FREE ENERGY PREDICTED BY IDOCK:  -15.53 KCAL/MOL
REMARK 923 INTER-LIGAND FREE ENERGY PREDICTED BY IDOCK:  -11.39 KCAL/MOL
REMARK 924 INTRA-LIGAND FREE ENERGY PREDICTED BY IDOCK:   -4.13 KCAL/MOL
REMARK 927      BINDING AFFINITY PREDICTED BY RF-SCORE:    0.00 PKD
ROOT
HETATM    1  O   UNL     1     -12.038  12.620  70.430  1.00  0.00    -0.397 OA 
HETATM    2  C   UNL     1     -11.769  11.295  69.977  1.00  0.00    -0.346 C  
HETATM    3  H   UNL     1     -12.048  12.646  71.379  1.00  0.00     0.000 HD 
ENDROOT
BRANCH   2   4
HETATM    4  C   UNL     1     -11.752  11.253  68.436  1.00  0.00    -0.365 C  
BRANCH   4   5
HETATM    5  C   UNL     1     -10.836  10.188  67.824  1.00  0.00    -0.346 C  
BRANCH   5   6
HETATM    6  C   UNL     1      -9.471  10.685  67.293  1.00  0.00    -0.178 C  
HETATM    7  H   UNL     1      -6.741  10.179  64.384  1.00  0.00     0.000 HD 
HETATM    8  C   UNL     1      -8.937  10.098  65.919  1.00  0.00    -0.182 C  
HETATM    9  C   UNL     1      -8.383  10.289  68.300  1.00  0.00    -0.116 C  
HETATM   10  C   UNL     1      -7.105  10.467  67.533  1.00  0.00    -0.089 C  
HETATM   11  O   UNL     1      -8.373  11.118  69.446  1.00  0.00    -0.378 OA 
HETATM   12  O   UNL     1      -6.551  10.538  65.242  1.00  0.00    -0.120 OA 
HETATM   13  H   UNL     1      -7.699  10.873  70.069  1.00  0.00     0.000 HD 
HETATM   14  C   UNL     1      -7.408   9.895  66.164  1.00  0.00    -0.104 C  
BRANCH   8  15
HETATM   15  C   UNL     1      -9.295  10.932  64.647  1.00  0.00    -0.256 C  
BRANCH  15  16
HETATM   16  C   UNL     1     -10.758  10.917  64.244  1.00  0.00    -0.241 C  
HETATM   17  C   UNL     1     -11.638  11.916  64.028  1.00  0.00    -0.476 C  
BRANCH  17  18
HETATM   18  C   UNL     1     -11.428  13.399  64.140  1.00  0.00    -0.421 C  
BRANCH  18  19
HETATM   19  C   UNL     1     -11.779  13.934  65.537  1.00  0.00    -0.356 C  
BRANCH  19  20
HETATM   20  C   UNL     1     -10.585  14.446  66.332  1.00  0.00    -0.297 C  
BRANCH  20  21
HETATM   21  C   UNL     1     -10.599  15.941  66.421  1.00  0.00    -0.297 C  
HETATM   22  O   UNL     1     -10.505  16.725  65.485  1.00  0.00    -0.538 OA 
BRANCH  21  23
HETATM   23  O   UNL     1     -10.589  16.285  67.738  1.00  0.00    -0.298 OA 
BRANCH  23  24
HETATM   24  C   UNL     1      -9.913  15.302  68.493  1.00  0.00    -0.222 C  
BRANCH  24  25
HETATM   25  C   UNL     1     -10.086  15.486  69.985  1.00  0.00    -0.241 C  
BRANCH  25  26
HETATM   26  C   UNL     1     -11.333  16.291  70.344  1.00  0.00    -0.313 C  
BRANCH  26  27
HETATM   27  C   UNL     1     -11.942  15.968  71.715  1.00  0.00    -0.517 C  
BRANCH  27  28
HETATM   28  O   UNL     1     -12.885  14.928  71.565  1.00  0.00    -0.298 OA 
HETATM   29  N   UNL     1     -13.286  14.381  72.806  1.00  0.00    -0.503 N  
HETATM   30  O   UNL     1     -14.060  13.429  72.675  1.00  0.00    -0.767 OA 
HETATM   31  O   UNL     1     -12.831  14.889  73.823  1.00  0.00    -0.491 OA 
ENDBRANCH  27  28
ENDBRANCH  26  27
ENDBRANCH  25  26
ENDBRANCH  24  25
ENDBRANCH  23  24
ENDBRANCH  21  23
ENDBRANCH  20  21
ENDBRANCH  19  20
ENDBRANCH  18  19
ENDBRANCH  17  18
ENDBRANCH  15  16
ENDBRANCH   8  15
ENDBRANCH   5   6
ENDBRANCH   4   5
ENDBRANCH   2   4
BRANCH   2  32
HETATM   32  C   UNL     1     -12.865  10.407  70.548  1.00  0.00    -0.326 C  
BRANCH  32  33
HETATM   33  C   UNL     1     -12.371   9.598  71.742  1.00  0.00    -0.474 C  
BRANCH  33  34
HETATM   34  C   UNL     1     -11.283   8.676  71.298  1.00  0.00    -0.338 A  
HETATM   35  C   UNL     1      -8.938   8.088  71.272  1.00  0.00    -0.166 A  
HETATM   36  C   UNL     1     -10.521   6.861  69.914  1.00  0.00    -0.239 A  
HETATM   37  C   UNL     1      -9.970   8.893  71.743  1.00  0.00    -0.397 A  
HETATM   38  C   UNL     1     -11.556   7.662  70.382  1.00  0.00    -0.138 A  
HETATM   39  C   UNL     1      -9.214   7.073  70.358  1.00  0.00    -0.156 A  
ENDBRANCH  33  34
ENDBRANCH  32  33
ENDBRANCH   2  32
TORSDOF 18
ENDMDL
MODEL       43
REMARK 921   NORMALIZED FREE ENERGY PREDICTED BY IDOCK:   -5.22 KCAL/MOL
REMARK 922        TOTAL FREE ENERGY PREDICTED BY IDOCK:  -15.51 KCAL/MOL
REMARK 923 INTER-LIGAND FREE ENERGY PREDICTED BY IDOCK:  -11.77 KCAL/MOL
REMARK 924 INTRA-LIGAND FREE ENERGY PREDICTED BY IDOCK:   -3.73 KCAL/MOL
REMARK 927      BINDING AFFINITY PREDICTED BY RF-SCORE:    0.00 PKD
ROOT
HETATM    1  O   UNL     1     -13.910  10.881  72.266  1.00  0.00    -0.336 OA 
HETATM    2  C   UNL     1     -12.802  10.080  71.860  1.00  0.00    -0.426 C  
HETATM    3  H   UNL     1     -14.086  10.752  73.190  1.00  0.00     0.000 HD 
ENDROOT
BRANCH   2   4
HETATM    4  C   UNL     1     -12.515  10.290  70.360  1.00  0.00    -0.296 C  
BRANCH   4   5
HETATM    5  C   UNL     1     -11.141  10.889  70.039  1.00  0.00    -0.285 C  
BRANCH   5   6
HETATM    6  C   UNL     1     -10.134   9.948  69.338  1.00  0.00    -0.227 C  
HETATM    7  H   UNL     1      -9.819   6.818  66.832  1.00  0.00     0.000 HD 
HETATM    8  C   UNL     1     -10.692   8.883  68.301  1.00  0.00    -0.135 C  
HETATM    9  C   UNL     1      -9.449   9.085  70.405  1.00  0.00    -0.210 C  
HETATM   10  C   UNL     1      -8.803   7.984  69.615  1.00  0.00    -0.141 C  
HETATM   11  O   UNL     1      -8.462   9.796  71.130  1.00  0.00    -0.305 OA 
HETATM   12  O   UNL     1      -9.163   7.059  67.476  1.00  0.00    -0.124 OA 
HETATM   13  H   UNL     1      -8.038   9.261  71.791  1.00  0.00     0.000 HD 
HETATM   14  C   UNL     1      -9.848   7.600  68.588  1.00  0.00    -0.171 C  
BRANCH   8  15
HETATM   15  C   UNL     1     -10.705   9.342  66.808  1.00  0.00    -0.120 C  
BRANCH  15  16
HETATM   16  C   UNL     1     -10.064  10.690  66.530  1.00  0.00    -0.275 C  
HETATM   17  C   UNL     1     -10.070  11.475  65.435  1.00  0.00    -0.304 C  
BRANCH  17  18
HETATM   18  C   UNL     1     -10.727  11.236  64.105  1.00  0.00    -0.436 C  
BRANCH  18  19
HETATM   19  C   UNL     1     -11.841  12.254  63.814  1.00  0.00    -0.587 C  
BRANCH  19  20
HETATM   20  C   UNL     1     -12.374  12.972  65.047  1.00  0.00    -0.526 C  
BRANCH  20  21
HETATM   21  C   UNL     1     -12.274  14.458  64.890  1.00  0.00    -0.433 C  
HETATM   22  O   UNL     1     -12.741  15.124  63.974  1.00  0.00    -0.746 OA 
BRANCH  21  23
HETATM   23  O   UNL     1     -11.451  14.931  65.864  1.00  0.00    -0.342 OA 
BRANCH  23  24
HETATM   24  C   UNL     1     -11.845  14.426  67.123  1.00  0.00    -0.410 C  
BRANCH  24  25
HETATM   25  C   UNL     1     -10.682  14.251  68.075  1.00  0.00    -0.242 C  
BRANCH  25  26
HETATM   26  C   UNL     1     -11.052  14.549  69.526  1.00  0.00    -0.285 C  
BRANCH  26  27
HETATM   27  C   UNL     1     -12.521  14.932  69.756  1.00  0.00    -0.185 C  
BRANCH  27  28
HETATM   28  O   UNL     1     -13.115  13.980  70.612  1.00  0.00    -0.260 OA 
HETATM   29  N   UNL     1     -13.429  14.518  71.882  1.00  0.00    -0.348 N  
HETATM   30  O   UNL     1     -13.888  13.672  72.653  1.00  0.00    -0.715 OA 
HETATM   31  O   UNL     1     -13.209  15.708  72.062  1.00  0.00    -0.426 OA 
ENDBRANCH  27  28
ENDBRANCH  26  27
ENDBRANCH  25  26
ENDBRANCH  24  25
ENDBRANCH  23  24
ENDBRANCH  21  23
ENDBRANCH  20  21
ENDBRANCH  19  20
ENDBRANCH  18  19
ENDBRANCH  17  18
ENDBRANCH  15  16
ENDBRANCH   8  15
ENDBRANCH   5   6
ENDBRANCH   4   5
ENDBRANCH   2   4
BRANCH   2  32
HETATM   32  C   UNL     1     -13.174   8.635  72.160  1.00  0.00    -0.420 C  
BRANCH  32  33
HETATM   33  C   UNL     1     -12.388   7.658  71.293  1.00  0.00    -0.334 C  
BRANCH  33  34
HETATM   34  C   UNL     1     -11.484   6.845  72.161  1.00  0.00    -0.316 A  
HETATM   35  C   UNL     1     -10.510   4.703  72.717  1.00  0.00    -0.261 A  
HETATM   36  C   UNL     1     -10.141   6.622  74.145  1.00  0.00    -0.390 A  
HETATM   37  C   UNL     1     -11.285   5.487  71.868  1.00  0.00    -0.188 A  
HETATM   38  C   UNL     1     -10.914   7.410  73.300  1.00  0.00    -0.367 A  
HETATM   39  C   UNL     1      -9.938   5.271  73.854  1.00  0.00    -0.202 A  
ENDBRANCH  33  34
ENDBRANCH  32  33
ENDBRANCH   2  32
TORSDOF 18
ENDMDL
MODEL       44
REMARK 921   NORMALIZED FREE ENERGY PREDICTED BY IDOCK:   -5.16 KCAL/MOL
REMARK 922        TOTAL FREE ENERGY PREDICTED BY IDOCK:  -15.37 KCAL/MOL
REMARK 923 INTER-LIGAND FREE ENERGY PREDICTED BY IDOCK:  -12.45 KCAL/MOL
REMARK 924 INTRA-LIGAND FREE ENERGY PREDICTED BY IDOCK:   -2.92 KCAL/MOL
REMARK 927      BINDING AFFINITY PREDICTED BY RF-SCORE:    0.00 PKD
ROOT
HETATM    1  O   UNL     1     -10.086  16.076  66.952  1.00  0.00    -0.253 OA 
HETATM    2  C   UNL     1     -10.389  14.779  67.463  1.00  0.00    -0.238 C  
HETATM    3  H   UNL     1      -9.312  16.424  67.379  1.00  0.00     0.000 HD 
ENDROOT
BRANCH   2   4
HETATM    4  C   UNL     1     -11.646  14.216  66.771  1.00  0.00    -0.409 C  
BRANCH   4   5
HETATM    5  C   UNL     1     -11.382  13.437  65.478  1.00  0.00    -0.310 C  
BRANCH   5   6
HETATM    6  C   UNL     1     -11.246  11.903  65.621  1.00  0.00    -0.360 C  
HETATM    7  H   UNL     1      -9.808   8.978  67.976  1.00  0.00     0.000 HD 
HETATM    8  C   UNL     1     -10.603  11.323  66.951  1.00  0.00    -0.300 C  
HETATM    9  C   UNL     1     -10.310  11.392  64.517  1.00  0.00    -0.313 C  
HETATM   10  C   UNL     1      -9.952  10.005  64.967  1.00  0.00    -0.320 C  
HETATM   11  O   UNL     1     -10.940  11.337  63.251  1.00  0.00    -0.738 OA 
HETATM   12  O   UNL     1      -9.964   8.889  67.043  1.00  0.00    -0.191 OA 
HETATM   13  H   UNL     1     -10.361  11.021  62.568  1.00  0.00     0.000 HD 
HETATM   14  C   UNL     1      -9.704  10.147  66.453  1.00  0.00    -0.205 C  
BRANCH   8  15
HETATM   15  C   UNL     1     -11.617  10.946  68.079  1.00  0.00    -0.295 C  
BRANCH  15  16
HETATM   16  C   UNL     1     -11.051  10.922  69.487  1.00  0.00    -0.326 C  
HETATM   17  C   UNL     1     -11.636  10.712  70.684  1.00  0.00    -0.432 C  
BRANCH  17  18
HETATM   18  C   UNL     1     -13.080  10.444  70.994  1.00  0.00    -0.450 C  
BRANCH  18  19
HETATM   19  C   UNL     1     -13.286   9.089  71.689  1.00  0.00    -0.427 C  
BRANCH  19  20
HETATM   20  C   UNL     1     -12.000   8.428  72.169  1.00  0.00    -0.438 C  
BRANCH  20  21
HETATM   21  C   UNL     1     -11.896   7.023  71.664  1.00  0.00    -0.313 C  
HETATM   22  O   UNL     1     -12.123   6.642  70.522  1.00  0.00    -0.390 OA 
BRANCH  21  23
HETATM   23  O   UNL     1     -11.646   6.210  72.727  1.00  0.00    -0.231 OA 
BRANCH  23  24
HETATM   24  C   UNL     1     -10.255   6.123  72.957  1.00  0.00    -0.195 C  
BRANCH  24  25
HETATM   25  C   UNL     1      -9.835   6.768  74.260  1.00  0.00    -0.348 C  
BRANCH  25  26
HETATM   26  C   UNL     1      -8.620   7.680  74.106  1.00  0.00    -0.296 C  
BRANCH  26  27
HETATM   27  C   UNL     1      -7.885   7.562  72.764  1.00  0.00    -0.099 C  
BRANCH  27  28
HETATM   28  O   UNL     1      -7.759   8.847  72.194  1.00  0.00    -0.341 OA 
HETATM   29  N   UNL     1      -8.213   8.890  70.855  1.00  0.00    -0.159 N  
HETATM   30  O   UNL     1      -8.045   9.995  70.334  1.00  0.00    -0.187 OA 
HETATM   31  O   UNL     1      -8.693   7.865  70.387  1.00  0.00    -0.135 OA 
ENDBRANCH  27  28
ENDBRANCH  26  27
ENDBRANCH  25  26
ENDBRANCH  24  25
ENDBRANCH  23  24
ENDBRANCH  21  23
ENDBRANCH  20  21
ENDBRANCH  19  20
ENDBRANCH  18  19
ENDBRANCH  17  18
ENDBRANCH  15  16
ENDBRANCH   8  15
ENDBRANCH   5   6
ENDBRANCH   4   5
ENDBRANCH   2   4
BRANCH   2  32
HETATM   32  C   UNL     1     -10.601  14.938  68.962  1.00  0.00    -0.245 C  
BRANCH  32  33
HETATM   33  C   UNL     1     -11.954  15.565  69.277  1.00  0.00    -0.338 C  
BRANCH  33  34
HETATM   34  C   UNL     1     -12.303  15.297  70.704  1.00  0.00    -0.427 A  
HETATM   35  C   UNL     1     -11.981  15.783  73.051  1.00  0.00    -0.596 A  
HETATM   36  C   UNL     1     -13.381  13.932  72.367  1.00  0.00    -0.629 A  
HETATM   37  C   UNL     1     -11.724  16.079  71.715  1.00  0.00    -0.593 A  
HETATM   38  C   UNL     1     -13.128  14.222  71.032  1.00  0.00    -0.394 A  
HETATM   39  C   UNL     1     -12.809  14.711  73.376  1.00  0.00    -0.526 A  
ENDBRANCH  33  34
ENDBRANCH  32  33
ENDBRANCH   2  32
TORSDOF 18
ENDMDL
MODEL       45
REMARK 921   NORMALIZED FREE ENERGY PREDICTED BY IDOCK:   -5.14 KCAL/MOL
REMARK 922        TOTAL FREE ENERGY PREDICTED BY IDOCK:  -15.33 KCAL/MOL
REMARK 923 INTER-LIGAND FREE ENERGY PREDICTED BY IDOCK:  -11.82 KCAL/MOL
REMARK 924 INTRA-LIGAND FREE ENERGY PREDICTED BY IDOCK:   -3.51 KCAL/MOL
REMARK 927      BINDING AFFINITY PREDICTED BY RF-SCORE:    0.00 PKD
ROOT
HETATM    1  O   UNL     1      -9.106  15.253  67.059  1.00  0.00    -0.201 OA 
HETATM    2  C   UNL     1      -9.940  14.503  67.941  1.00  0.00    -0.226 C  
HETATM    3  H   UNL     1      -8.246  15.373  67.445  1.00  0.00     0.000 HD 
ENDROOT
BRANCH   2   4
HETATM    4  C   UNL     1     -11.335  14.308  67.315  1.00  0.00    -0.350 C  
BRANCH   4   5
HETATM    5  C   UNL     1     -11.339  14.031  65.808  1.00  0.00    -0.312 C  
BRANCH   5   6
HETATM    6  C   UNL     1     -11.296  12.544  65.387  1.00  0.00    -0.363 C  
HETATM    7  H   UNL     1      -9.607   8.987  66.206  1.00  0.00     0.000 HD 
HETATM    8  C   UNL     1     -10.423  11.540  66.252  1.00  0.00    -0.294 C  
HETATM    9  C   UNL     1     -10.670  12.451  63.989  1.00  0.00    -0.404 C  
HETATM   10  C   UNL     1     -10.332  10.995  63.845  1.00  0.00    -0.436 C  
HETATM   11  O   UNL     1     -11.566  12.838  62.964  1.00  0.00    -0.800 OA 
HETATM   12  O   UNL     1      -9.972   9.227  65.362  1.00  0.00    -0.165 OA 
HETATM   13  H   UNL     1     -11.179  12.780  62.099  1.00  0.00     0.000 HD 
HETATM   14  C   UNL     1      -9.751  10.613  65.190  1.00  0.00    -0.271 C  
BRANCH   8  15
HETATM   15  C   UNL     1     -11.188  10.791  67.390  1.00  0.00    -0.315 C  
BRANCH  15  16
HETATM   16  C   UNL     1     -10.563  10.882  68.770  1.00  0.00    -0.231 C  
HETATM   17  C   UNL     1     -11.086  10.720  70.002  1.00  0.00    -0.327 C  
BRANCH  17  18
HETATM   18  C   UNL     1     -12.501  10.402  70.393  1.00  0.00    -0.348 C  
BRANCH  18  19
HETATM   19  C   UNL     1     -12.598   9.816  71.810  1.00  0.00    -0.506 C  
BRANCH  19  20
HETATM   20  C   UNL     1     -11.654   8.649  72.073  1.00  0.00    -0.440 C  
BRANCH  20  21
HETATM   21  C   UNL     1     -12.142   7.401  71.407  1.00  0.00    -0.327 C  
HETATM   22  O   UNL     1     -13.306   7.028  71.327  1.00  0.00    -0.346 OA 
BRANCH  21  23
HETATM   23  O   UNL     1     -11.057   6.672  71.028  1.00  0.00    -0.255 OA 
BRANCH  23  24
HETATM   24  C   UNL     1     -11.186   6.274  69.679  1.00  0.00    -0.437 C  
BRANCH  24  25
HETATM   25  C   UNL     1     -10.464   7.199  68.723  1.00  0.00    -0.217 C  
BRANCH  25  26
HETATM   26  C   UNL     1      -9.399   6.484  67.894  1.00  0.00    -0.111 C  
BRANCH  26  27
HETATM   27  C   UNL     1      -7.991   7.089  67.984  1.00  0.00    -0.115 C  
BRANCH  27  28
HETATM   28  O   UNL     1      -7.905   7.881  69.149  1.00  0.00    -0.105 OA 
HETATM   29  N   UNL     1      -7.492   9.206  68.871  1.00  0.00    -0.074 N  
HETATM   30  O   UNL     1      -7.353   9.881  69.894  1.00  0.00    -0.109 OA 
HETATM   31  O   UNL     1      -7.320   9.511  67.698  1.00  0.00    -0.082 OA 
ENDBRANCH  27  28
ENDBRANCH  26  27
ENDBRANCH  25  26
ENDBRANCH  24  25
ENDBRANCH  23  24
ENDBRANCH  21  23
ENDBRANCH  20  21
ENDBRANCH  19  20
ENDBRANCH  18  19
ENDBRANCH  17  18
ENDBRANCH  15  16
ENDBRANCH   8  15
ENDBRANCH   5   6
ENDBRANCH   4   5
ENDBRANCH   2   4
BRANCH   2  32
HETATM   32  C   UNL     1     -10.017  15.287  69.243  1.00  0.00    -0.251 C  
BRANCH  32  33
HETATM   33  C   UNL     1     -11.399  15.894  69.455  1.00  0.00    -0.349 C  
BRANCH  33  34
HETATM   34  C   UNL     1     -11.975  15.377  70.732  1.00  0.00    -0.402 A  
HETATM   35  C   UNL     1     -13.256  13.695  71.905  1.00  0.00    -0.497 A  
HETATM   36  C   UNL     1     -12.529  15.698  73.052  1.00  0.00    -0.566 A  
HETATM   37  C   UNL     1     -12.647  14.146  70.738  1.00  0.00    -0.432 A  
HETATM   38  C   UNL     1     -11.919  16.153  71.889  1.00  0.00    -0.583 A  
HETATM   39  C   UNL     1     -13.197  14.471  73.061  1.00  0.00    -0.575 A  
ENDBRANCH  33  34
ENDBRANCH  32  33
ENDBRANCH   2  32
TORSDOF 18
ENDMDL
MODEL       46
REMARK 921   NORMALIZED FREE ENERGY PREDICTED BY IDOCK:   -5.14 KCAL/MOL
REMARK 922        TOTAL FREE ENERGY PREDICTED BY IDOCK:  -15.33 KCAL/MOL
REMARK 923 INTER-LIGAND FREE ENERGY PREDICTED BY IDOCK:  -11.09 KCAL/MOL
REMARK 924 INTRA-LIGAND FREE ENERGY PREDICTED BY IDOCK:   -4.24 KCAL/MOL
REMARK 927      BINDING AFFINITY PREDICTED BY RF-SCORE:    0.00 PKD
ROOT
HETATM    1  O   UNL     1     -12.462  13.625  63.186  1.00  0.00    -1.033 OA 
HETATM    2  C   UNL     1     -11.967  12.543  63.972  1.00  0.00    -0.454 C  
HETATM    3  H   UNL     1     -12.330  13.446  62.262  1.00  0.00     0.000 HD 
ENDROOT
BRANCH   2   4
HETATM    4  C   UNL     1     -12.181  12.833  65.471  1.00  0.00    -0.519 C  
BRANCH   4   5
HETATM    5  C   UNL     1     -12.413  14.307  65.821  1.00  0.00    -0.421 C  
BRANCH   5   6
HETATM    6  C   UNL     1     -11.154  15.204  65.866  1.00  0.00    -0.319 C  
HETATM    7  H   UNL     1      -8.783  17.351  68.305  1.00  0.00     0.000 HD 
HETATM    8  C   UNL     1     -10.634  15.705  67.280  1.00  0.00    -0.305 C  
HETATM    9  C   UNL     1     -11.456  16.506  65.113  1.00  0.00     0.293 C  
HETATM   10  C   UNL     1     -10.348  17.428  65.533  1.00  0.00    -0.075 C  
HETATM   11  O   UNL     1     -11.433  16.341  63.707  1.00  0.00    -1.475 OA 
HETATM   12  O   UNL     1      -8.873  17.503  67.371  1.00  0.00    -0.225 OA 
HETATM   13  H   UNL     1     -11.620  17.147  63.241  1.00  0.00     0.000 HD 
HETATM   14  C   UNL     1     -10.205  17.184  67.021  1.00  0.00    -0.313 C  
BRANCH   8  15
HETATM   15  C   UNL     1      -9.542  14.810  67.950  1.00  0.00    -0.210 C  
BRANCH  15  16
HETATM   16  C   UNL     1      -8.983  13.697  67.082  1.00  0.00    -0.235 C  
HETATM   17  C   UNL     1      -8.891  12.367  67.281  1.00  0.00    -0.192 C  
BRANCH  17  18
HETATM   18  C   UNL     1      -9.319  11.559  68.472  1.00  0.00    -0.171 C  
BRANCH  18  19
HETATM   19  C   UNL     1     -10.848  11.462  68.594  1.00  0.00    -0.249 C  
BRANCH  19  20
HETATM   20  C   UNL     1     -11.335  10.386  69.556  1.00  0.00    -0.325 C  
BRANCH  20  21
HETATM   21  C   UNL     1     -12.205  10.973  70.624  1.00  0.00    -0.385 C  
HETATM   22  O   UNL     1     -12.407  12.164  70.823  1.00  0.00    -0.376 OA 
BRANCH  21  23
HETATM   23  O   UNL     1     -12.622   9.960  71.432  1.00  0.00    -0.337 OA 
BRANCH  23  24
HETATM   24  C   UNL     1     -12.079   8.732  70.993  1.00  0.00    -0.225 C  
BRANCH  24  25
HETATM   25  C   UNL     1     -12.897   7.538  71.435  1.00  0.00    -0.381 C  
BRANCH  25  26
HETATM   26  C   UNL     1     -12.036   6.371  71.911  1.00  0.00    -0.381 C  
BRANCH  26  27
HETATM   27  C   UNL     1     -10.564   6.429  71.475  1.00  0.00    -0.231 C  
BRANCH  27  28
HETATM   28  O   UNL     1     -10.227   5.220  70.832  1.00  0.00    -0.211 OA 
HETATM   29  N   UNL     1     -10.105   5.369  69.431  1.00  0.00    -0.212 N  
HETATM   30  O   UNL     1      -9.874   4.301  68.859  1.00  0.00    -0.150 OA 
HETATM   31  O   UNL     1     -10.244   6.494  68.968  1.00  0.00    -0.160 OA 
ENDBRANCH  27  28
ENDBRANCH  26  27
ENDBRANCH  25  26
ENDBRANCH  24  25
ENDBRANCH  23  24
ENDBRANCH  21  23
ENDBRANCH  20  21
ENDBRANCH  19  20
ENDBRANCH  18  19
ENDBRANCH  17  18
ENDBRANCH  15  16
ENDBRANCH   8  15
ENDBRANCH   5   6
ENDBRANCH   4   5
ENDBRANCH   2   4
BRANCH   2  32
HETATM   32  C   UNL     1     -10.489  12.399  63.638  1.00  0.00    -0.460 C  
BRANCH  32  33
HETATM   33  C   UNL     1     -10.144  10.979  63.205  1.00  0.00    -0.400 C  
BRANCH  33  34
HETATM   34  C   UNL     1      -9.395  10.296  64.303  1.00  0.00    -0.328 A  
HETATM   35  C   UNL     1      -7.290   9.575  65.249  1.00  0.00    -0.104 A  
HETATM   36  C   UNL     1      -9.381   8.912  66.272  1.00  0.00    -0.279 A  
HETATM   37  C   UNL     1      -7.993  10.277  64.273  1.00  0.00    -0.132 A  
HETATM   38  C   UNL     1     -10.087   9.612  65.301  1.00  0.00    -0.007 A  
HETATM   39  C   UNL     1      -7.984   8.894  66.246  1.00  0.00    -0.103 A  
ENDBRANCH  33  34
ENDBRANCH  32  33
ENDBRANCH   2  32
TORSDOF 18
ENDMDL
MODEL       47
REMARK 921   NORMALIZED FREE ENERGY PREDICTED BY IDOCK:   -5.14 KCAL/MOL
REMARK 922        TOTAL FREE ENERGY PREDICTED BY IDOCK:  -15.33 KCAL/MOL
REMARK 923 INTER-LIGAND FREE ENERGY PREDICTED BY IDOCK:  -12.23 KCAL/MOL
REMARK 924 INTRA-LIGAND FREE ENERGY PREDICTED BY IDOCK:   -3.10 KCAL/MOL
REMARK 927      BINDING AFFINITY PREDICTED BY RF-SCORE:    0.00 PKD
ROOT
HETATM    1  O   UNL     1     -12.481  14.322  67.159  1.00  0.00    -0.588 OA 
HETATM    2  C   UNL     1     -11.280  15.078  67.306  1.00  0.00    -0.338 C  
HETATM    3  H   UNL     1     -13.131  14.616  67.786  1.00  0.00     0.000 HD 
ENDROOT
BRANCH   2   4
HETATM    4  C   UNL     1     -10.224  14.602  66.289  1.00  0.00    -0.302 C  
BRANCH   4   5
HETATM    5  C   UNL     1     -10.759  13.703  65.169  1.00  0.00    -0.359 C  
BRANCH   5   6
HETATM    6  C   UNL     1     -10.585  12.180  65.375  1.00  0.00    -0.309 C  
HETATM    7  H   UNL     1      -8.291   9.384  67.134  1.00  0.00     0.000 HD 
HETATM    8  C   UNL     1      -9.435  11.677  66.346  1.00  0.00    -0.232 C  
HETATM    9  C   UNL     1     -10.220  11.545  64.027  1.00  0.00    -0.345 C  
HETATM   10  C   UNL     1      -9.712  10.182  64.399  1.00  0.00    -0.345 C  
HETATM   11  O   UNL     1     -11.334  11.421  63.163  1.00  0.00    -0.829 OA 
HETATM   12  O   UNL     1      -8.834   9.231  66.370  1.00  0.00    -0.137 OA 
HETATM   13  H   UNL     1     -11.108  11.027  62.328  1.00  0.00     0.000 HD 
HETATM   14  C   UNL     1      -8.846  10.427  65.617  1.00  0.00    -0.173 C  
BRANCH   8  15
HETATM   15  C   UNL     1      -9.866  11.432  67.828  1.00  0.00    -0.186 C  
BRANCH  15  16
HETATM   16  C   UNL     1     -11.317  11.038  68.032  1.00  0.00    -0.374 C  
HETATM   17  C   UNL     1     -12.145  11.186  69.085  1.00  0.00    -0.352 C  
BRANCH  17  18
HETATM   18  C   UNL     1     -11.864  11.796  70.429  1.00  0.00    -0.362 C  
BRANCH  18  19
HETATM   19  C   UNL     1     -12.590  11.060  71.567  1.00  0.00    -0.461 C  
BRANCH  19  20
HETATM   20  C   UNL     1     -12.217   9.590  71.702  1.00  0.00    -0.477 C  
BRANCH  20  21
HETATM   21  C   UNL     1     -13.393   8.775  72.143  1.00  0.00    -0.423 C  
HETATM   22  O   UNL     1     -14.406   9.197  72.688  1.00  0.00    -0.561 OA 
BRANCH  21  23
HETATM   23  O   UNL     1     -13.086   7.461  71.968  1.00  0.00    -0.254 OA 
BRANCH  23  24
HETATM   24  C   UNL     1     -11.872   7.335  71.258  1.00  0.00    -0.307 C  
BRANCH  24  25
HETATM   25  C   UNL     1     -11.028   6.174  71.738  1.00  0.00    -0.315 C  
BRANCH  25  26
HETATM   26  C   UNL     1      -9.588   6.238  71.234  1.00  0.00    -0.189 C  
BRANCH  26  27
HETATM   27  C   UNL     1      -9.059   4.936  70.615  1.00  0.00    -0.128 C  
BRANCH  27  28
HETATM   28  O   UNL     1      -9.959   3.889  70.907  1.00  0.00    -0.176 OA 
HETATM   29  N   UNL     1      -9.312   2.764  71.471  1.00  0.00    -0.117 N  
HETATM   30  O   UNL     1     -10.086   1.824  71.668  1.00  0.00    -0.152 OA 
HETATM   31  O   UNL     1      -8.109   2.849  71.682  1.00  0.00    -0.055 OA 
ENDBRANCH  27  28
ENDBRANCH  26  27
ENDBRANCH  25  26
ENDBRANCH  24  25
ENDBRANCH  23  24
ENDBRANCH  21  23
ENDBRANCH  20  21
ENDBRANCH  19  20
ENDBRANCH  18  19
ENDBRANCH  17  18
ENDBRANCH  15  16
ENDBRANCH   8  15
ENDBRANCH   5   6
ENDBRANCH   4   5
ENDBRANCH   2   4
BRANCH   2  32
HETATM   32  C   UNL     1     -10.807  14.872  68.738  1.00  0.00    -0.254 C  
BRANCH  32  33
HETATM   33  C   UNL     1     -11.066  16.103  69.600  1.00  0.00    -0.344 C  
BRANCH  33  34
HETATM   34  C   UNL     1     -11.984  15.737  70.720  1.00  0.00    -0.444 A  
HETATM   35  C   UNL     1     -12.309  15.220  73.059  1.00  0.00    -0.525 A  
HETATM   36  C   UNL     1     -14.140  14.998  71.493  1.00  0.00    -0.613 A  
HETATM   37  C   UNL     1     -11.477  15.638  72.024  1.00  0.00    -0.495 A  
HETATM   38  C   UNL     1     -13.315  15.415  70.456  1.00  0.00    -0.173 A  
HETATM   39  C   UNL     1     -13.639  14.901  72.793  1.00  0.00    -0.537 A  
ENDBRANCH  33  34
ENDBRANCH  32  33
ENDBRANCH   2  32
TORSDOF 18
ENDMDL
MODEL       48
REMARK 921   NORMALIZED FREE ENERGY PREDICTED BY IDOCK:   -5.14 KCAL/MOL
REMARK 922        TOTAL FREE ENERGY PREDICTED BY IDOCK:  -15.33 KCAL/MOL
REMARK 923 INTER-LIGAND FREE ENERGY PREDICTED BY IDOCK:  -13.06 KCAL/MOL
REMARK 924 INTRA-LIGAND FREE ENERGY PREDICTED BY IDOCK:   -2.27 KCAL/MOL
REMARK 927      BINDING AFFINITY PREDICTED BY RF-SCORE:    0.00 PKD
ROOT
HETATM    1  O   UNL     1     -11.756   9.826  68.799  1.00  0.00    -0.403 OA 
HETATM    2  C   UNL     1     -11.026  10.584  69.762  1.00  0.00    -0.294 C  
HETATM    3  H   UNL     1     -12.228  10.408  68.214  1.00  0.00     0.000 HD 
ENDROOT
BRANCH   2   4
HETATM    4  C   UNL     1     -10.261   9.641  70.712  1.00  0.00    -0.330 C  
BRANCH   4   5
HETATM    5  C   UNL     1     -11.135   8.652  71.490  1.00  0.00    -0.358 C  
BRANCH   5   6
HETATM    6  C   UNL     1     -10.469   7.312  71.879  1.00  0.00    -0.224 C  
HETATM    7  H   UNL     1     -10.831   3.315  71.626  1.00  0.00     0.000 HD 
HETATM    8  C   UNL     1     -11.116   5.965  71.344  1.00  0.00    -0.313 C  
HETATM    9  C   UNL     1     -10.533   7.160  73.405  1.00  0.00    -0.368 C  
HETATM   10  C   UNL     1     -10.224   5.710  73.633  1.00  0.00    -0.232 C  
HETATM   11  O   UNL     1      -9.580   7.965  74.073  1.00  0.00    -0.335 OA 
HETATM   12  O   UNL     1     -10.339   3.768  72.301  1.00  0.00    -0.163 OA 
HETATM   13  H   UNL     1      -9.619   7.871  75.017  1.00  0.00     0.000 HD 
HETATM   14  C   UNL     1     -11.007   4.987  72.558  1.00  0.00    -0.177 C  
BRANCH   8  15
HETATM   15  C   UNL     1     -10.526   5.421  70.004  1.00  0.00    -0.373 C  
BRANCH  15  16
HETATM   16  C   UNL     1      -9.286   6.135  69.497  1.00  0.00    -0.147 C  
HETATM   17  C   UNL     1      -9.096   6.961  68.449  1.00  0.00    -0.126 C  
BRANCH  17  18
HETATM   18  C   UNL     1     -10.087   7.429  67.422  1.00  0.00    -0.274 C  
BRANCH  18  19
HETATM   19  C   UNL     1      -9.405   7.966  66.154  1.00  0.00    -0.188 C  
BRANCH  19  20
HETATM   20  C   UNL     1      -9.155   9.468  66.164  1.00  0.00    -0.207 C  
BRANCH  20  21
HETATM   21  C   UNL     1      -8.404   9.897  64.942  1.00  0.00    -0.150 C  
HETATM   22  O   UNL     1      -7.188   9.997  64.835  1.00  0.00    -0.131 OA 
BRANCH  21  23
HETATM   23  O   UNL     1      -9.310  10.298  64.009  1.00  0.00    -0.245 OA 
BRANCH  23  24
HETATM   24  C   UNL     1     -10.116  11.335  64.528  1.00  0.00    -0.295 C  
BRANCH  24  25
HETATM   25  C   UNL     1     -10.741  12.189  63.446  1.00  0.00    -0.461 C  
BRANCH  25  26
HETATM   26  C   UNL     1     -12.229  12.443  63.675  1.00  0.00    -0.653 C  
BRANCH  26  27
HETATM   27  C   UNL     1     -12.550  13.583  64.652  1.00  0.00    -0.251 C  
BRANCH  27  28
HETATM   28  O   UNL     1     -12.337  14.818  64.004  1.00  0.00    -0.712 OA 
HETATM   29  N   UNL     1     -11.347  15.601  64.644  1.00  0.00    -0.406 N  
HETATM   30  O   UNL     1     -11.206  16.707  64.117  1.00  0.00    -1.103 OA 
HETATM   31  O   UNL     1     -10.777  15.111  65.611  1.00  0.00    -0.323 OA 
ENDBRANCH  27  28
ENDBRANCH  26  27
ENDBRANCH  25  26
ENDBRANCH  24  25
ENDBRANCH  23  24
ENDBRANCH  21  23
ENDBRANCH  20  21
ENDBRANCH  19  20
ENDBRANCH  18  19
ENDBRANCH  17  18
ENDBRANCH  15  16
ENDBRANCH   8  15
ENDBRANCH   5   6
ENDBRANCH   4   5
ENDBRANCH   2   4
BRANCH   2  32
HETATM   32  C   UNL     1     -12.043  11.430  70.516  1.00  0.00    -0.487 C  
BRANCH  32  33
HETATM   33  C   UNL     1     -12.246  12.789  69.856  1.00  0.00    -0.245 C  
BRANCH  33  34
HETATM   34  C   UNL     1     -12.340  13.841  70.912  1.00  0.00    -0.456 A  
HETATM   35  C   UNL     1     -13.394  14.687  72.916  1.00  0.00    -0.585 A  
HETATM   36  C   UNL     1     -11.757  16.024  71.740  1.00  0.00    -0.593 A  
HETATM   37  C   UNL     1     -13.242  13.675  71.973  1.00  0.00    -0.522 A  
HETATM   38  C   UNL     1     -11.601  15.017  70.795  1.00  0.00    -0.364 A  
HETATM   39  C   UNL     1     -12.652  15.860  72.799  1.00  0.00    -0.567 A  
ENDBRANCH  33  34
ENDBRANCH  32  33
ENDBRANCH   2  32
TORSDOF 18
ENDMDL
MODEL       49
REMARK 921   NORMALIZED FREE ENERGY PREDICTED BY IDOCK:   -5.14 KCAL/MOL
REMARK 922        TOTAL FREE ENERGY PREDICTED BY IDOCK:  -15.33 KCAL/MOL
REMARK 923 INTER-LIGAND FREE ENERGY PREDICTED BY IDOCK:  -11.80 KCAL/MOL
REMARK 924 INTRA-LIGAND FREE ENERGY PREDICTED BY IDOCK:   -3.53 KCAL/MOL
REMARK 927      BINDING AFFINITY PREDICTED BY RF-SCORE:    0.00 PKD
ROOT
HETATM    1  O   UNL     1     -11.883  10.369  68.210  1.00  0.00    -0.747 OA 
HETATM    2  C   UNL     1     -11.880  11.772  68.470  1.00  0.00    -0.303 C  
HETATM    3  H   UNL     1     -12.513   9.933  68.773  1.00  0.00     0.000 HD 
ENDROOT
BRANCH   2   4
HETATM    4  C   UNL     1     -10.859  12.479  67.556  1.00  0.00    -0.264 C  
BRANCH   4   5
HETATM    5  C   UNL     1      -9.490  12.742  68.192  1.00  0.00    -0.219 C  
BRANCH   5   6
HETATM    6  C   UNL     1      -8.906  14.160  67.994  1.00  0.00    -0.182 C  
HETATM    7  H   UNL     1      -5.871  16.592  69.016  1.00  0.00     0.000 HD 
HETATM    8  C   UNL     1      -7.500  14.496  68.650  1.00  0.00    -0.128 C  
HETATM    9  C   UNL     1      -9.857  15.174  68.644  1.00  0.00    -0.218 C  
HETATM   10  C   UNL     1      -9.037  16.428  68.732  1.00  0.00    -0.244 C  
HETATM   11  O   UNL     1     -11.015  15.412  67.865  1.00  0.00    -0.290 OA 
HETATM   12  O   UNL     1      -6.725  16.891  68.728  1.00  0.00    -0.169 OA 
HETATM   13  H   UNL     1     -11.603  16.040  68.267  1.00  0.00     0.000 HD 
HETATM   14  C   UNL     1      -7.675  15.951  69.190  1.00  0.00    -0.220 C  
BRANCH   8  15
HETATM   15  C   UNL     1      -6.259  14.280  67.727  1.00  0.00    -0.152 C  
BRANCH  15  16
HETATM   16  C   UNL     1      -5.505  12.979  67.937  1.00  0.00    -0.116 C  
HETATM   17  C   UNL     1      -5.700  11.741  67.440  1.00  0.00    -0.102 C  
BRANCH  17  18
HETATM   18  C   UNL     1      -6.771  11.258  66.505  1.00  0.00    -0.105 C  
BRANCH  18  19
HETATM   19  C   UNL     1      -7.302   9.869  66.894  1.00  0.00    -0.091 C  
BRANCH  19  20
HETATM   20  C   UNL     1      -8.797   9.683  66.669  1.00  0.00    -0.153 C  
BRANCH  20  21
HETATM   21  C   UNL     1      -9.104   9.513  65.213  1.00  0.00    -0.224 C  
HETATM   22  O   UNL     1      -8.428   8.902  64.395  1.00  0.00    -0.172 OA 
BRANCH  21  23
HETATM   23  O   UNL     1     -10.192  10.275  64.920  1.00  0.00    -0.327 OA 
BRANCH  23  24
HETATM   24  C   UNL     1      -9.793  11.462  64.266  1.00  0.00    -0.261 C  
BRANCH  24  25
HETATM   25  C   UNL     1     -10.877  12.038  63.381  1.00  0.00    -0.471 C  
BRANCH  25  26
HETATM   26  C   UNL     1     -12.081  12.545  64.171  1.00  0.00    -0.530 C  
BRANCH  26  27
HETATM   27  C   UNL     1     -12.243  14.072  64.199  1.00  0.00    -0.396 C  
BRANCH  27  28
HETATM   28  O   UNL     1     -11.177  14.634  64.933  1.00  0.00    -0.360 OA 
HETATM   29  N   UNL     1     -11.064  16.030  64.738  1.00  0.00    -0.441 N  
HETATM   30  O   UNL     1     -10.094  16.513  65.327  1.00  0.00    -0.564 OA 
HETATM   31  O   UNL     1     -11.903  16.572  64.030  1.00  0.00    -1.022 OA 
ENDBRANCH  27  28
ENDBRANCH  26  27
ENDBRANCH  25  26
ENDBRANCH  24  25
ENDBRANCH  23  24
ENDBRANCH  21  23
ENDBRANCH  20  21
ENDBRANCH  19  20
ENDBRANCH  18  19
ENDBRANCH  17  18
ENDBRANCH  15  16
ENDBRANCH   8  15
ENDBRANCH   5   6
ENDBRANCH   4   5
ENDBRANCH   2   4
BRANCH   2  32
HETATM   32  C   UNL     1     -11.525  11.943  69.940  1.00  0.00    -0.264 C  
BRANCH  32  33
HETATM   33  C   UNL     1     -12.771  12.015  70.816  1.00  0.00    -0.231 C  
BRANCH  33  34
HETATM   34  C   UNL     1     -12.930  13.406  71.335  1.00  0.00    -0.412 A  
HETATM   35  C   UNL     1     -12.037  15.635  71.617  1.00  0.00    -0.496 A  
HETATM   36  C   UNL     1     -14.112  15.005  72.691  1.00  0.00    -0.397 A  
HETATM   37  C   UNL     1     -11.936  14.360  71.070  1.00  0.00    -0.389 A  
HETATM   38  C   UNL     1     -14.016  13.730  72.147  1.00  0.00    -0.638 A  
HETATM   39  C   UNL     1     -13.125  15.957  72.427  1.00  0.00    -0.503 A  
ENDBRANCH  33  34
ENDBRANCH  32  33
ENDBRANCH   2  32
TORSDOF 18
ENDMDL
MODEL       50
REMARK 921   NORMALIZED FREE ENERGY PREDICTED BY IDOCK:   -5.14 KCAL/MOL
REMARK 922        TOTAL FREE ENERGY PREDICTED BY IDOCK:  -15.33 KCAL/MOL
REMARK 923 INTER-LIGAND FREE ENERGY PREDICTED BY IDOCK:  -11.73 KCAL/MOL
REMARK 924 INTRA-LIGAND FREE ENERGY PREDICTED BY IDOCK:   -3.59 KCAL/MOL
REMARK 927      BINDING AFFINITY PREDICTED BY RF-SCORE:    0.00 PKD
ROOT
HETATM    1  O   UNL     1     -11.780  11.480  67.422  1.00  0.00    -0.567 OA 
HETATM    2  C   UNL     1     -10.875  10.409  67.685  1.00  0.00    -0.306 C  
HETATM    3  H   UNL     1     -12.423  11.214  66.775  1.00  0.00     0.000 HD 
ENDROOT
BRANCH   2   4
HETATM    4  C   UNL     1      -9.831  10.841  68.734  1.00  0.00    -0.200 C  
BRANCH   4   5
HETATM    5  C   UNL     1      -9.625   9.856  69.890  1.00  0.00    -0.265 C  
BRANCH   5   6
HETATM    6  C   UNL     1     -10.887   9.116  70.389  1.00  0.00    -0.285 C  
HETATM    7  H   UNL     1     -13.909   9.275  73.039  1.00  0.00     0.000 HD 
HETATM    8  C   UNL     1     -11.785   9.815  71.496  1.00  0.00    -0.450 C  
HETATM    9  C   UNL     1     -10.451   7.805  71.057  1.00  0.00    -0.203 C  
HETATM   10  C   UNL     1     -11.669   7.370  71.819  1.00  0.00    -0.319 C  
HETATM   11  O   UNL     1     -10.093   6.808  70.118  1.00  0.00    -0.177 OA 
HETATM   12  O   UNL     1     -13.581   8.475  72.645  1.00  0.00    -0.260 OA 
HETATM   13  H   UNL     1      -9.823   5.997  70.531  1.00  0.00     0.000 HD 
HETATM   14  C   UNL     1     -12.191   8.645  72.447  1.00  0.00    -0.349 C  
BRANCH   8  15
HETATM   15  C   UNL     1     -12.976  10.669  70.955  1.00  0.00    -0.456 C  
BRANCH  15  16
HETATM   16  C   UNL     1     -13.133  12.044  71.579  1.00  0.00    -0.362 C  
HETATM   17  C   UNL     1     -12.735  13.265  71.167  1.00  0.00    -0.404 C  
BRANCH  17  18
HETATM   18  C   UNL     1     -11.975  13.641  69.927  1.00  0.00    -0.415 C  
BRANCH  18  19
HETATM   19  C   UNL     1     -12.226  15.099  69.510  1.00  0.00    -0.268 C  
BRANCH  19  20
HETATM   20  C   UNL     1     -11.314  16.112  70.191  1.00  0.00    -0.347 C  
BRANCH  20  21
HETATM   21  C   UNL     1     -10.327  16.685  69.222  1.00  0.00    -0.318 C  
HETATM   22  O   UNL     1     -10.528  17.604  68.438  1.00  0.00    -0.364 OA 
BRANCH  21  23
HETATM   23  O   UNL     1      -9.206  15.913  69.255  1.00  0.00    -0.238 OA 
BRANCH  23  24
HETATM   24  C   UNL     1      -8.625  15.844  67.970  1.00  0.00    -0.164 C  
BRANCH  24  25
HETATM   25  C   UNL     1      -9.108  14.652  67.171  1.00  0.00    -0.236 C  
BRANCH  25  26
HETATM   26  C   UNL     1      -9.711  15.044  65.824  1.00  0.00    -0.375 C  
BRANCH  26  27
HETATM   27  C   UNL     1     -11.240  15.172  65.810  1.00  0.00    -0.287 C  
BRANCH  27  28
HETATM   28  O   UNL     1     -11.810  13.884  65.897  1.00  0.00    -0.348 OA 
HETATM   29  N   UNL     1     -12.524  13.530  64.728  1.00  0.00    -0.377 N  
HETATM   30  O   UNL     1     -13.077  12.432  64.827  1.00  0.00    -0.806 OA 
HETATM   31  O   UNL     1     -12.516  14.325  63.797  1.00  0.00    -0.810 OA 
ENDBRANCH  27  28
ENDBRANCH  26  27
ENDBRANCH  25  26
ENDBRANCH  24  25
ENDBRANCH  23  24
ENDBRANCH  21  23
ENDBRANCH  20  21
ENDBRANCH  19  20
ENDBRANCH  18  19
ENDBRANCH  17  18
ENDBRANCH  15  16
ENDBRANCH   8  15
ENDBRANCH   5   6
ENDBRANCH   4   5
ENDBRANCH   2   4
BRANCH   2  32
HETATM   32  C   UNL     1     -10.220  10.054  66.359  1.00  0.00    -0.290 C  
BRANCH  32  33
HETATM   33  C   UNL     1      -8.923   9.278  66.560  1.00  0.00    -0.178 C  
BRANCH  33  34
HETATM   34  C   UNL     1      -9.234   7.825  66.706  1.00  0.00    -0.202 A  
HETATM   35  C   UNL     1     -10.869   6.065  66.976  1.00  0.00    -0.413 A  
HETATM   36  C   UNL     1      -8.504   5.563  67.089  1.00  0.00    -0.110 A  
HETATM   37  C   UNL     1     -10.572   7.407  66.760  1.00  0.00    -0.281 A  
HETATM   38  C   UNL     1      -8.202   6.902  66.873  1.00  0.00    -0.113 A  
HETATM   39  C   UNL     1      -9.836   5.144  67.140  1.00  0.00    -0.191 A  
ENDBRANCH  33  34
ENDBRANCH  32  33
ENDBRANCH   2  32
TORSDOF 18
ENDMDL
MODEL       51
REMARK 921   NORMALIZED FREE ENERGY PREDICTED BY IDOCK:   -5.13 KCAL/MOL
REMARK 922        TOTAL FREE ENERGY PREDICTED BY IDOCK:  -15.32 KCAL/MOL
REMARK 923 INTER-LIGAND FREE ENERGY PREDICTED BY IDOCK:  -11.27 KCAL/MOL
REMARK 924 INTRA-LIGAND FREE ENERGY PREDICTED BY IDOCK:   -4.05 KCAL/MOL
REMARK 927      BINDING AFFINITY PREDICTED BY RF-SCORE:    0.00 PKD
ROOT
HETATM    1  O   UNL     1     -12.515  14.017  62.866  1.00  0.00    -1.028 OA 
HETATM    2  C   UNL     1     -12.515  14.104  64.290  1.00  0.00    -0.266 C  
HETATM    3  H   UNL     1     -13.157  13.380  62.576  1.00  0.00     0.000 HD 
ENDROOT
BRANCH   2   4
HETATM    4  C   UNL     1     -11.474  15.138  64.759  1.00  0.00    -0.383 C  
BRANCH   4   5
HETATM    5  C   UNL     1     -10.323  14.569  65.597  1.00  0.00    -0.367 C  
BRANCH   5   6
HETATM    6  C   UNL     1     -10.209  15.095  67.046  1.00  0.00    -0.262 C  
HETATM    7  H   UNL     1     -12.012  15.121  70.641  1.00  0.00     0.000 HD 
HETATM    8  C   UNL     1     -11.293  14.626  68.107  1.00  0.00    -0.321 C  
HETATM    9  C   UNL     1     -10.365  16.622  67.025  1.00  0.00    -0.301 C  
HETATM   10  C   UNL     1     -10.617  16.975  68.461  1.00  0.00    -0.370 C  
HETATM   11  O   UNL     1      -9.199  17.282  66.567  1.00  0.00    -0.244 OA 
HETATM   12  O   UNL     1     -11.405  15.788  70.340  1.00  0.00    -0.310 OA 
HETATM   13  H   UNL     1      -9.296  18.226  66.554  1.00  0.00     0.000 HD 
HETATM   14  C   UNL     1     -11.584  15.914  68.943  1.00  0.00    -0.388 C  
BRANCH   8  15
HETATM   15  C   UNL     1     -10.909  13.367  68.949  1.00  0.00    -0.253 C  
BRANCH  15  16
HETATM   16  C   UNL     1     -11.555  12.065  68.511  1.00  0.00    -0.363 C  
HETATM   17  C   UNL     1     -12.100  11.054  69.217  1.00  0.00    -0.363 C  
BRANCH  17  18
HETATM   18  C   UNL     1     -12.223  10.901  70.706  1.00  0.00    -0.483 C  
BRANCH  18  19
HETATM   19  C   UNL     1     -12.849   9.556  71.105  1.00  0.00    -0.361 C  
BRANCH  19  20
HETATM   20  C   UNL     1     -12.097   8.814  72.202  1.00  0.00    -0.441 C  
BRANCH  20  21
HETATM   21  C   UNL     1     -11.746   7.425  71.769  1.00  0.00    -0.286 C  
HETATM   22  O   UNL     1     -11.550   6.463  72.502  1.00  0.00    -0.273 OA 
BRANCH  21  23
HETATM   23  O   UNL     1     -11.538   7.442  70.424  1.00  0.00    -0.264 OA 
BRANCH  23  24
HETATM   24  C   UNL     1     -10.168   7.247  70.141  1.00  0.00    -0.203 C  
BRANCH  24  25
HETATM   25  C   UNL     1      -9.522   8.460  69.506  1.00  0.00    -0.166 C  
BRANCH  25  26
HETATM   26  C   UNL     1      -8.718   9.294  70.500  1.00  0.00    -0.276 C  
BRANCH  26  27
HETATM   27  C   UNL     1      -7.639  10.189  69.874  1.00  0.00    -0.166 C  
BRANCH  27  28
HETATM   28  O   UNL     1      -8.080  10.620  68.604  1.00  0.00    -0.116 OA 
HETATM   29  N   UNL     1      -7.631  11.925  68.292  1.00  0.00    -0.108 N  
HETATM   30  O   UNL     1      -8.069  12.329  67.212  1.00  0.00    -0.167 OA 
HETATM   31  O   UNL     1      -6.899  12.481  69.101  1.00  0.00    -0.103 OA 
ENDBRANCH  27  28
ENDBRANCH  26  27
ENDBRANCH  25  26
ENDBRANCH  24  25
ENDBRANCH  23  24
ENDBRANCH  21  23
ENDBRANCH  20  21
ENDBRANCH  19  20
ENDBRANCH  18  19
ENDBRANCH  17  18
ENDBRANCH  15  16
ENDBRANCH   8  15
ENDBRANCH   5   6
ENDBRANCH   4   5
ENDBRANCH   2   4
BRANCH   2  32
HETATM   32  C   UNL     1     -12.194  12.711  64.812  1.00  0.00    -0.528 C  
BRANCH  32  33
HETATM   33  C   UNL     1     -11.773  11.770  63.690  1.00  0.00    -0.517 C  
BRANCH  33  34
HETATM   34  C   UNL     1     -10.559  11.009  64.111  1.00  0.00    -0.412 A  
HETATM   35  C   UNL     1      -8.385  10.098  63.574  1.00  0.00    -0.169 A  
HETATM   36  C   UNL     1      -9.429   9.597  65.699  1.00  0.00    -0.318 A  
HETATM   37  C   UNL     1      -9.486  10.872  63.219  1.00  0.00    -0.347 A  
HETATM   38  C   UNL     1     -10.530  10.369  65.350  1.00  0.00    -0.187 A  
HETATM   39  C   UNL     1      -8.358   9.461  64.813  1.00  0.00    -0.159 A  
ENDBRANCH  33  34
ENDBRANCH  32  33
ENDBRANCH   2  32
TORSDOF 18
ENDMDL
MODEL       52
REMARK 921   NORMALIZED FREE ENERGY PREDICTED BY IDOCK:   -5.13 KCAL/MOL
REMARK 922        TOTAL FREE ENERGY PREDICTED BY IDOCK:  -15.31 KCAL/MOL
REMARK 923 INTER-LIGAND FREE ENERGY PREDICTED BY IDOCK:  -10.66 KCAL/MOL
REMARK 924 INTRA-LIGAND FREE ENERGY PREDICTED BY IDOCK:   -4.65 KCAL/MOL
REMARK 927      BINDING AFFINITY PREDICTED BY RF-SCORE:    0.00 PKD
ROOT
HETATM    1  O   UNL     1     -13.774   9.240  72.514  1.00  0.00    -0.598 OA 
HETATM    2  C   UNL     1     -12.482   8.717  72.214  1.00  0.00    -0.395 C  
HETATM    3  H   UNL     1     -14.262   8.624  73.047  1.00  0.00     0.000 HD 
ENDROOT
BRANCH   2   4
HETATM    4  C   UNL     1     -11.690   9.717  71.349  1.00  0.00    -0.475 C  
BRANCH   4   5
HETATM    5  C   UNL     1     -10.193   9.419  71.215  1.00  0.00    -0.340 C  
BRANCH   5   6
HETATM    6  C   UNL     1      -9.536   9.815  69.872  1.00  0.00    -0.264 C  
HETATM    7  H   UNL     1      -9.242   8.822  65.986  1.00  0.00     0.000 HD 
HETATM    8  C   UNL     1      -9.940   9.006  68.567  1.00  0.00    -0.193 C  
HETATM    9  C   UNL     1      -8.023   9.583  69.983  1.00  0.00    -0.156 C  
HETATM   10  C   UNL     1      -7.550   9.626  68.559  1.00  0.00    -0.080 C  
HETATM   11  O   UNL     1      -7.372  10.590  70.735  1.00  0.00    -0.355 OA 
HETATM   12  O   UNL     1      -8.587   9.317  66.465  1.00  0.00    -0.127 OA 
HETATM   13  H   UNL     1      -6.435  10.447  70.803  1.00  0.00     0.000 HD 
HETATM   14  C   UNL     1      -8.593   8.838  67.796  1.00  0.00    -0.129 C  
BRANCH   8  15
HETATM   15  C   UNL     1     -11.107   9.622  67.730  1.00  0.00    -0.089 C  
BRANCH  15  16
HETATM   16  C   UNL     1     -11.535  11.021  68.132  1.00  0.00    -0.374 C  
HETATM   17  C   UNL     1     -11.271  12.228  67.592  1.00  0.00    -0.346 C  
BRANCH  17  18
HETATM   18  C   UNL     1     -10.430  12.562  66.393  1.00  0.00    -0.269 C  
BRANCH  18  19
HETATM   19  C   UNL     1      -8.956  12.790  66.760  1.00  0.00    -0.188 C  
BRANCH  19  20
HETATM   20  C   UNL     1      -8.721  13.161  68.219  1.00  0.00    -0.165 C  
BRANCH  20  21
HETATM   21  C   UNL     1      -8.478  14.630  68.369  1.00  0.00    -0.160 C  
HETATM   22  O   UNL     1      -7.539  15.262  67.901  1.00  0.00    -0.121 OA 
BRANCH  21  23
HETATM   23  O   UNL     1      -9.402  15.125  69.237  1.00  0.00    -0.218 OA 
BRANCH  23  24
HETATM   24  C   UNL     1     -10.283  16.000  68.564  1.00  0.00    -0.236 C  
BRANCH  24  25
HETATM   25  C   UNL     1     -11.736  15.740  68.896  1.00  0.00    -0.404 C  
BRANCH  25  26
HETATM   26  C   UNL     1     -11.916  14.788  70.076  1.00  0.00    -0.369 C  
BRANCH  26  27
HETATM   27  C   UNL     1     -13.076  15.136  71.020  1.00  0.00    -0.452 C  
BRANCH  27  28
HETATM   28  O   UNL     1     -12.555  15.739  72.184  1.00  0.00    -0.394 OA 
HETATM   29  N   UNL     1     -12.796  14.968  73.346  1.00  0.00    -0.516 N  
HETATM   30  O   UNL     1     -12.400  15.524  74.373  1.00  0.00    -0.639 OA 
HETATM   31  O   UNL     1     -13.354  13.888  73.202  1.00  0.00    -0.571 OA 
ENDBRANCH  27  28
ENDBRANCH  26  27
ENDBRANCH  25  26
ENDBRANCH  24  25
ENDBRANCH  23  24
ENDBRANCH  21  23
ENDBRANCH  20  21
ENDBRANCH  19  20
ENDBRANCH  18  19
ENDBRANCH  17  18
ENDBRANCH  15  16
ENDBRANCH   8  15
ENDBRANCH   5   6
ENDBRANCH   4   5
ENDBRANCH   2   4
BRANCH   2  32
HETATM   32  C   UNL     1     -12.702   7.400  71.483  1.00  0.00    -0.409 C  
BRANCH  32  33
HETATM   33  C   UNL     1     -11.919   6.260  72.124  1.00  0.00    -0.338 C  
BRANCH  33  34
HETATM   34  C   UNL     1     -10.707   5.970  71.302  1.00  0.00    -0.320 A  
HETATM   35  C   UNL     1      -8.299   5.875  71.110  1.00  0.00    -0.124 A  
HETATM   36  C   UNL     1      -9.695   5.501  69.169  1.00  0.00    -0.208 A  
HETATM   37  C   UNL     1      -9.436   6.065  71.889  1.00  0.00    -0.163 A  
HETATM   38  C   UNL     1     -10.834   5.690  69.942  1.00  0.00    -0.370 A  
HETATM   39  C   UNL     1      -8.429   5.593  69.751  1.00  0.00    -0.107 A  
ENDBRANCH  33  34
ENDBRANCH  32  33
ENDBRANCH   2  32
TORSDOF 18
ENDMDL
MODEL       53
REMARK 921   NORMALIZED FREE ENERGY PREDICTED BY IDOCK:   -5.13 KCAL/MOL
REMARK 922        TOTAL FREE ENERGY PREDICTED BY IDOCK:  -15.31 KCAL/MOL
REMARK 923 INTER-LIGAND FREE ENERGY PREDICTED BY IDOCK:  -12.33 KCAL/MOL
REMARK 924 INTRA-LIGAND FREE ENERGY PREDICTED BY IDOCK:   -2.98 KCAL/MOL
REMARK 927      BINDING AFFINITY PREDICTED BY RF-SCORE:    0.00 PKD
ROOT
HETATM    1  O   UNL     1      -8.802   7.747  64.905  1.00  0.00    -0.378 OA 
HETATM    2  C   UNL     1      -8.860   8.807  65.857  1.00  0.00    -0.186 C  
HETATM    3  H   UNL     1      -8.336   8.030  64.127  1.00  0.00     0.000 HD 
ENDROOT
BRANCH   2   4
HETATM    4  C   UNL     1      -9.614   8.348  67.120  1.00  0.00    -0.233 C  
BRANCH   4   5
HETATM    5  C   UNL     1     -10.835   7.458  66.860  1.00  0.00    -0.223 C  
BRANCH   5   6
HETATM    6  C   UNL     1     -10.870   6.110  67.616  1.00  0.00    -0.421 C  
HETATM    7  H   UNL     1      -9.391   4.128  70.788  1.00  0.00     0.000 HD 
HETATM    8  C   UNL     1     -10.063   5.987  68.978  1.00  0.00    -0.223 C  
HETATM    9  C   UNL     1     -10.235   5.035  66.725  1.00  0.00    -0.248 C  
HETATM   10  C   UNL     1      -9.976   3.895  67.667  1.00  0.00     0.060 C  
HETATM   11  O   UNL     1     -11.096   4.610  65.685  1.00  0.00    -0.826 OA 
HETATM   12  O   UNL     1      -9.732   3.711  70.005  1.00  0.00    -0.190 OA 
HETATM   13  H   UNL     1     -10.703   3.944  65.134  1.00  0.00     0.000 HD 
HETATM   14  C   UNL     1      -9.432   4.560  68.915  1.00  0.00    -0.160 C  
BRANCH   8  15
HETATM   15  C   UNL     1     -10.882   6.289  70.274  1.00  0.00    -0.366 C  
BRANCH  15  16
HETATM   16  C   UNL     1     -10.324   7.387  71.161  1.00  0.00    -0.209 C  
HETATM   17  C   UNL     1     -10.463   8.727  71.120  1.00  0.00    -0.315 C  
BRANCH  17  18
HETATM   18  C   UNL     1     -11.229   9.568  70.139  1.00  0.00    -0.275 C  
BRANCH  18  19
HETATM   19  C   UNL     1     -12.113  10.615  70.833  1.00  0.00    -0.489 C  
BRANCH  19  20
HETATM   20  C   UNL     1     -12.027  12.011  70.228  1.00  0.00    -0.398 C  
BRANCH  20  21
HETATM   21  C   UNL     1     -12.621  13.033  71.146  1.00  0.00    -0.297 C  
HETATM   22  O   UNL     1     -13.311  12.809  72.133  1.00  0.00    -0.517 OA 
BRANCH  21  23
HETATM   23  O   UNL     1     -12.386  14.264  70.615  1.00  0.00    -0.314 OA 
BRANCH  23  24
HETATM   24  C   UNL     1     -11.581  14.151  69.460  1.00  0.00    -0.295 C  
BRANCH  24  25
HETATM   25  C   UNL     1     -10.585  15.282  69.326  1.00  0.00    -0.256 C  
BRANCH  25  26
HETATM   26  C   UNL     1     -11.137  16.469  68.538  1.00  0.00    -0.335 C  
BRANCH  26  27
HETATM   27  C   UNL     1     -10.185  17.043  67.479  1.00  0.00    -0.323 C  
BRANCH  27  28
HETATM   28  O   UNL     1     -10.935  17.424  66.346  1.00  0.00    -0.018 OA 
HETATM   29  N   UNL     1     -10.580  16.687  65.192  1.00  0.00    -0.253 N  
HETATM   30  O   UNL     1     -11.187  17.062  64.186  1.00  0.00    -1.130 OA 
HETATM   31  O   UNL     1      -9.740  15.805  65.319  1.00  0.00    -0.358 OA 
ENDBRANCH  27  28
ENDBRANCH  26  27
ENDBRANCH  25  26
ENDBRANCH  24  25
ENDBRANCH  23  24
ENDBRANCH  21  23
ENDBRANCH  20  21
ENDBRANCH  19  20
ENDBRANCH  18  19
ENDBRANCH  17  18
ENDBRANCH  15  16
ENDBRANCH   8  15
ENDBRANCH   5   6
ENDBRANCH   4   5
ENDBRANCH   2   4
BRANCH   2  32
HETATM   32  C   UNL     1      -9.568   9.969  65.175  1.00  0.00    -0.356 C  
BRANCH  32  33
HETATM   33  C   UNL     1     -10.139  10.955  66.188  1.00  0.00    -0.291 C  
BRANCH  33  34
HETATM   34  C   UNL     1     -11.057  11.904  65.490  1.00  0.00    -0.356 A  
HETATM   35  C   UNL     1     -11.816  12.935  63.439  1.00  0.00    -0.576 A  
HETATM   36  C   UNL     1     -12.671  13.687  65.574  1.00  0.00    -0.514 A  
HETATM   37  C   UNL     1     -11.021  11.996  64.091  1.00  0.00    -0.418 A  
HETATM   38  C   UNL     1     -11.880  12.752  66.230  1.00  0.00    -0.485 A  
HETATM   39  C   UNL     1     -12.640  13.779  64.180  1.00  0.00    -0.159 A  
ENDBRANCH  33  34
ENDBRANCH  32  33
ENDBRANCH   2  32
TORSDOF 18
ENDMDL
MODEL       54
REMARK 921   NORMALIZED FREE ENERGY PREDICTED BY IDOCK:   -5.13 KCAL/MOL
REMARK 922        TOTAL FREE ENERGY PREDICTED BY IDOCK:  -15.31 KCAL/MOL
REMARK 923 INTER-LIGAND FREE ENERGY PREDICTED BY IDOCK:  -11.84 KCAL/MOL
REMARK 924 INTRA-LIGAND FREE ENERGY PREDICTED BY IDOCK:   -3.47 KCAL/MOL
REMARK 927      BINDING AFFINITY PREDICTED BY RF-SCORE:    0.00 PKD
ROOT
HETATM    1  O   UNL     1     -13.605  10.208  72.324  1.00  0.00    -0.567 OA 
HETATM    2  C   UNL     1     -12.471   9.435  71.938  1.00  0.00    -0.390 C  
HETATM    3  H   UNL     1     -14.141   9.720  72.939  1.00  0.00     0.000 HD 
ENDROOT
BRANCH   2   4
HETATM    4  C   UNL     1     -11.601  10.227  70.942  1.00  0.00    -0.454 C  
BRANCH   4   5
HETATM    5  C   UNL     1     -10.176   9.695  70.756  1.00  0.00    -0.330 C  
BRANCH   5   6
HETATM    6  C   UNL     1      -9.604   9.763  69.321  1.00  0.00    -0.204 C  
HETATM    7  H   UNL     1     -10.491   9.176  65.442  1.00  0.00     0.000 HD 
HETATM    8  C   UNL     1     -10.582   9.477  68.104  1.00  0.00    -0.265 C  
HETATM    9  C   UNL     1      -8.524   8.683  69.175  1.00  0.00    -0.124 C  
HETATM   10  C   UNL     1      -8.318   8.582  67.692  1.00  0.00    -0.129 C  
HETATM   11  O   UNL     1      -7.308   9.040  69.805  1.00  0.00    -0.053 OA 
HETATM   12  O   UNL     1      -9.612   9.145  65.804  1.00  0.00    -0.262 OA 
HETATM   13  H   UNL     1      -6.639   8.371  69.714  1.00  0.00     0.000 HD 
HETATM   14  C   UNL     1      -9.717   8.631  67.116  1.00  0.00    -0.190 C  
BRANCH   8  15
HETATM   15  C   UNL     1     -11.259  10.737  67.475  1.00  0.00    -0.346 C  
BRANCH  15  16
HETATM   16  C   UNL     1     -10.408  11.993  67.448  1.00  0.00    -0.226 C  
HETATM   17  C   UNL     1      -9.958  12.747  66.425  1.00  0.00    -0.268 C  
BRANCH  17  18
HETATM   18  C   UNL     1     -10.159  12.554  64.950  1.00  0.00    -0.249 C  
BRANCH  18  19
HETATM   19  C   UNL     1     -11.078  13.625  64.341  1.00  0.00    -0.378 C  
BRANCH  19  20
HETATM   20  C   UNL     1     -11.526  14.699  65.324  1.00  0.00    -0.361 C  
BRANCH  20  21
HETATM   21  C   UNL     1     -11.085  16.058  64.875  1.00  0.00    -0.370 C  
HETATM   22  O   UNL     1     -11.505  16.674  63.903  1.00  0.00    -1.186 OA 
BRANCH  21  23
HETATM   23  O   UNL     1     -10.030  16.435  65.648  1.00  0.00    -0.469 OA 
BRANCH  23  24
HETATM   24  C   UNL     1     -10.254  16.064  66.992  1.00  0.00    -0.282 C  
BRANCH  24  25
HETATM   25  C   UNL     1      -9.473  16.911  67.972  1.00  0.00    -0.243 C  
BRANCH  25  26
HETATM   26  C   UNL     1     -10.325  17.990  68.637  1.00  0.00    -0.328 C  
BRANCH  26  27
HETATM   27  C   UNL     1     -10.127  19.408  68.083  1.00  0.00    -0.425 C  
BRANCH  27  28
HETATM   28  O   UNL     1     -11.026  19.614  67.015  1.00  0.00    -0.462 OA 
HETATM   29  N   UNL     1     -10.364  19.764  65.774  1.00  0.00    -0.469 N  
HETATM   30  O   UNL     1     -11.143  20.008  64.849  1.00  0.00    -0.135 OA 
HETATM   31  O   UNL     1      -9.145  19.646  65.764  1.00  0.00    -0.377 OA 
ENDBRANCH  27  28
ENDBRANCH  26  27
ENDBRANCH  25  26
ENDBRANCH  24  25
ENDBRANCH  23  24
ENDBRANCH  21  23
ENDBRANCH  20  21
ENDBRANCH  19  20
ENDBRANCH  18  19
ENDBRANCH  17  18
ENDBRANCH  15  16
ENDBRANCH   8  15
ENDBRANCH   5   6
ENDBRANCH   4   5
ENDBRANCH   2   4
BRANCH   2  32
HETATM   32  C   UNL     1     -13.006   8.153  71.316  1.00  0.00    -0.183 C  
BRANCH  32  33
HETATM   33  C   UNL     1     -12.424   6.914  71.987  1.00  0.00    -0.285 C  
BRANCH  33  34
HETATM   34  C   UNL     1     -11.355   6.338  71.118  1.00  0.00    -0.364 A  
HETATM   35  C   UNL     1     -10.562   5.749  68.911  1.00  0.00    -0.337 A  
HETATM   36  C   UNL     1      -9.302   5.106  70.875  1.00  0.00    -0.199 A  
HETATM   37  C   UNL     1     -11.515   6.356  69.725  1.00  0.00    -0.468 A  
HETATM   38  C   UNL     1     -10.250   5.710  71.692  1.00  0.00    -0.261 A  
HETATM   39  C   UNL     1      -9.457   5.124  69.487  1.00  0.00    -0.205 A  
ENDBRANCH  33  34
ENDBRANCH  32  33
ENDBRANCH   2  32
TORSDOF 18
ENDMDL
MODEL       55
REMARK 921   NORMALIZED FREE ENERGY PREDICTED BY IDOCK:   -5.12 KCAL/MOL
REMARK 922        TOTAL FREE ENERGY PREDICTED BY IDOCK:  -15.29 KCAL/MOL
REMARK 923 INTER-LIGAND FREE ENERGY PREDICTED BY IDOCK:  -11.71 KCAL/MOL
REMARK 924 INTRA-LIGAND FREE ENERGY PREDICTED BY IDOCK:   -3.58 KCAL/MOL
REMARK 927      BINDING AFFINITY PREDICTED BY RF-SCORE:    0.00 PKD
ROOT
HETATM    1  O   UNL     1     -12.303  15.436  69.228  1.00  0.00    -0.577 OA 
HETATM    2  C   UNL     1     -12.343  14.095  68.742  1.00  0.00    -0.048 C  
HETATM    3  H   UNL     1     -12.677  16.028  68.586  1.00  0.00     0.000 HD 
ENDROOT
BRANCH   2   4
HETATM    4  C   UNL     1     -11.736  13.135  69.784  1.00  0.00    -0.350 C  
BRANCH   4   5
HETATM    5  C   UNL     1     -12.041  11.651  69.555  1.00  0.00    -0.336 C  
BRANCH   5   6
HETATM    6  C   UNL     1     -11.571  10.679  70.662  1.00  0.00    -0.432 C  
HETATM    7  H   UNL     1      -9.735   7.163  71.329  1.00  0.00     0.000 HD 
HETATM    8  C   UNL     1     -10.743   9.393  70.236  1.00  0.00    -0.299 C  
HETATM    9  C   UNL     1     -12.809  10.094  71.355  1.00  0.00    -0.428 C  
HETATM   10  C   UNL     1     -12.271   8.919  72.118  1.00  0.00    -0.437 C  
HETATM   11  O   UNL     1     -13.415  11.008  72.250  1.00  0.00    -0.603 OA 
HETATM   12  O   UNL     1     -10.342   7.576  71.933  1.00  0.00    -0.190 OA 
HETATM   13  H   UNL     1     -14.181  10.647  72.679  1.00  0.00     0.000 HD 
HETATM   14  C   UNL     1     -11.303   8.262  71.156  1.00  0.00    -0.263 C  
BRANCH   8  15
HETATM   15  C   UNL     1      -9.189   9.555  70.262  1.00  0.00    -0.303 C  
BRANCH  15  16
HETATM   16  C   UNL     1      -8.531   9.775  68.912  1.00  0.00    -0.129 C  
HETATM   17  C   UNL     1      -8.290  10.897  68.206  1.00  0.00    -0.129 C  
BRANCH  17  18
HETATM   18  C   UNL     1      -8.627  12.320  68.550  1.00  0.00    -0.068 C  
BRANCH  18  19
HETATM   19  C   UNL     1      -7.987  13.323  67.577  1.00  0.00    -0.186 C  
BRANCH  19  20
HETATM   20  C   UNL     1      -7.383  14.550  68.248  1.00  0.00    -0.120 C  
BRANCH  20  21
HETATM   21  C   UNL     1      -7.250  15.683  67.278  1.00  0.00    -0.217 C  
HETATM   22  O   UNL     1      -6.204  16.180  66.880  1.00  0.00    -0.316 OA 
BRANCH  21  23
HETATM   23  O   UNL     1      -8.496  16.167  67.021  1.00  0.00    -0.177 OA 
BRANCH  23  24
HETATM   24  C   UNL     1      -8.963  16.918  68.122  1.00  0.00    -0.227 C  
BRANCH  24  25
HETATM   25  C   UNL     1     -10.180  17.754  67.788  1.00  0.00    -0.362 C  
BRANCH  25  26
HETATM   26  C   UNL     1      -9.945  19.250  67.985  1.00  0.00    -0.473 C  
BRANCH  26  27
HETATM   27  C   UNL     1      -9.657  20.037  66.698  1.00  0.00    -0.425 C  
BRANCH  27  28
HETATM   28  O   UNL     1      -8.907  19.225  65.821  1.00  0.00    -0.395 OA 
HETATM   29  N   UNL     1      -7.542  19.595  65.778  1.00  0.00    -0.311 N  
HETATM   30  O   UNL     1      -6.898  18.930  64.964  1.00  0.00    -0.491 OA 
HETATM   31  O   UNL     1      -7.178  20.501  66.517  1.00  0.00    -0.266 OA 
ENDBRANCH  27  28
ENDBRANCH  26  27
ENDBRANCH  25  26
ENDBRANCH  24  25
ENDBRANCH  23  24
ENDBRANCH  21  23
ENDBRANCH  20  21
ENDBRANCH  19  20
ENDBRANCH  18  19
ENDBRANCH  17  18
ENDBRANCH  15  16
ENDBRANCH   8  15
ENDBRANCH   5   6
ENDBRANCH   4   5
ENDBRANCH   2   4
BRANCH   2  32
HETATM   32  C   UNL     1     -11.554  14.078  67.441  1.00  0.00    -0.397 C  
BRANCH  32  33
HETATM   33  C   UNL     1     -12.423  13.657  66.261  1.00  0.00    -0.420 C  
BRANCH  33  34
HETATM   34  C   UNL     1     -11.672  12.676  65.420  1.00  0.00    -0.428 A  
HETATM   35  C   UNL     1     -10.329  10.672  65.262  1.00  0.00    -0.321 A  
HETATM   36  C   UNL     1     -10.705  12.049  63.308  1.00  0.00    -0.400 A  
HETATM   37  C   UNL     1     -11.097  11.548  66.024  1.00  0.00    -0.289 A  
HETATM   38  C   UNL     1     -11.473  12.927  64.063  1.00  0.00    -0.478 A  
HETATM   39  C   UNL     1     -10.133  10.923  63.906  1.00  0.00    -0.422 A  
ENDBRANCH  33  34
ENDBRANCH  32  33
ENDBRANCH   2  32
TORSDOF 18
ENDMDL
MODEL       56
REMARK 921   NORMALIZED FREE ENERGY PREDICTED BY IDOCK:   -5.12 KCAL/MOL
REMARK 922        TOTAL FREE ENERGY PREDICTED BY IDOCK:  -15.29 KCAL/MOL
REMARK 923 INTER-LIGAND FREE ENERGY PREDICTED BY IDOCK:  -11.88 KCAL/MOL
REMARK 924 INTRA-LIGAND FREE ENERGY PREDICTED BY IDOCK:   -3.41 KCAL/MOL
REMARK 927      BINDING AFFINITY PREDICTED BY RF-SCORE:    0.00 PKD
ROOT
HETATM    1  O   UNL     1     -11.283  12.704  69.830  1.00  0.00    -0.484 OA 
HETATM    2  C   UNL     1     -10.505  12.202  68.745  1.00  0.00    -0.176 C  
HETATM    3  H   UNL     1     -10.739  12.807  70.602  1.00  0.00     0.000 HD 
ENDROOT
BRANCH   2   4
HETATM    4  C   UNL     1     -11.388  12.035  67.492  1.00  0.00    -0.387 C  
BRANCH   4   5
HETATM    5  C   UNL     1     -10.623  11.812  66.183  1.00  0.00    -0.301 C  
BRANCH   5   6
HETATM    6  C   UNL     1     -10.751  12.926  65.119  1.00  0.00    -0.326 C  
HETATM    7  H   UNL     1     -11.831  16.758  64.547  1.00  0.00     0.000 HD 
HETATM    8  C   UNL     1     -11.182  14.378  65.595  1.00  0.00    -0.323 C  
HETATM    9  C   UNL     1     -11.854  12.531  64.128  1.00  0.00    -0.411 C  
HETATM   10  C   UNL     1     -12.151  13.807  63.396  1.00  0.00    -0.122 C  
HETATM   11  O   UNL     1     -11.432  11.540  63.210  1.00  0.00    -0.781 OA 
HETATM   12  O   UNL     1     -11.824  16.094  63.867  1.00  0.00    -0.921 OA 
HETATM   13  H   UNL     1     -12.114  11.295  62.597  1.00  0.00     0.000 HD 
HETATM   14  C   UNL     1     -12.161  14.865  64.479  1.00  0.00    -0.407 C  
BRANCH   8  15
HETATM   15  C   UNL     1     -10.008  15.357  65.916  1.00  0.00    -0.374 C  
BRANCH  15  16
HETATM   16  C   UNL     1      -8.848  14.758  66.690  1.00  0.00    -0.262 C  
HETATM   17  C   UNL     1      -7.819  15.331  67.346  1.00  0.00    -0.220 C  
BRANCH  17  18
HETATM   18  C   UNL     1      -7.492  16.789  67.501  1.00  0.00    -0.181 C  
BRANCH  18  19
HETATM   19  C   UNL     1      -6.496  17.279  66.439  1.00  0.00    -0.267 C  
BRANCH  19  20
HETATM   20  C   UNL     1      -6.986  18.465  65.617  1.00  0.00    -0.241 C  
BRANCH  20  21
HETATM   21  C   UNL     1      -6.707  19.758  66.318  1.00  0.00    -0.216 C  
HETATM   22  O   UNL     1      -5.612  20.291  66.450  1.00  0.00    -0.172 OA 
BRANCH  21  23
HETATM   23  O   UNL     1      -7.859  20.172  66.913  1.00  0.00    -0.293 OA 
BRANCH  23  24
HETATM   24  C   UNL     1      -8.965  19.886  66.083  1.00  0.00    -0.311 C  
BRANCH  24  25
HETATM   25  C   UNL     1     -10.279  19.889  66.835  1.00  0.00    -0.600 C  
BRANCH  25  26
HETATM   26  C   UNL     1     -10.173  19.249  68.218  1.00  0.00    -0.513 C  
BRANCH  26  27
HETATM   27  C   UNL     1     -10.882  17.894  68.362  1.00  0.00    -0.029 C  
BRANCH  27  28
HETATM   28  O   UNL     1     -10.426  17.260  69.537  1.00  0.00    -0.276 OA 
HETATM   29  N   UNL     1     -11.056  16.012  69.755  1.00  0.00    -0.312 N  
HETATM   30  O   UNL     1     -10.707  15.486  70.815  1.00  0.00    -0.318 OA 
HETATM   31  O   UNL     1     -11.846  15.621  68.906  1.00  0.00    -0.379 OA 
ENDBRANCH  27  28
ENDBRANCH  26  27
ENDBRANCH  25  26
ENDBRANCH  24  25
ENDBRANCH  23  24
ENDBRANCH  21  23
ENDBRANCH  20  21
ENDBRANCH  19  20
ENDBRANCH  18  19
ENDBRANCH  17  18
ENDBRANCH  15  16
ENDBRANCH   8  15
ENDBRANCH   5   6
ENDBRANCH   4   5
ENDBRANCH   2   4
BRANCH   2  32
HETATM   32  C   UNL     1      -9.925  10.871  69.200  1.00  0.00    -0.181 C  
BRANCH  32  33
HETATM   33  C   UNL     1     -10.737  10.261  70.337  1.00  0.00    -0.270 C  
BRANCH  33  34
HETATM   34  C   UNL     1     -10.987   8.818  70.047  1.00  0.00    -0.216 A  
HETATM   35  C   UNL     1     -11.740   6.646  70.797  1.00  0.00    -0.445 A  
HETATM   36  C   UNL     1     -10.725   6.902  68.614  1.00  0.00    -0.256 A  
HETATM   37  C   UNL     1     -11.576   8.008  71.029  1.00  0.00    -0.303 A  
HETATM   38  C   UNL     1     -10.560   8.263  68.842  1.00  0.00    -0.160 A  
HETATM   39  C   UNL     1     -11.314   6.094  69.590  1.00  0.00    -0.442 A  
ENDBRANCH  33  34
ENDBRANCH  32  33
ENDBRANCH   2  32
TORSDOF 18
ENDMDL
MODEL       57
REMARK 921   NORMALIZED FREE ENERGY PREDICTED BY IDOCK:   -5.12 KCAL/MOL
REMARK 922        TOTAL FREE ENERGY PREDICTED BY IDOCK:  -15.28 KCAL/MOL
REMARK 923 INTER-LIGAND FREE ENERGY PREDICTED BY IDOCK:  -12.72 KCAL/MOL
REMARK 924 INTRA-LIGAND FREE ENERGY PREDICTED BY IDOCK:   -2.56 KCAL/MOL
REMARK 927      BINDING AFFINITY PREDICTED BY RF-SCORE:    0.00 PKD
ROOT
HETATM    1  O   UNL     1     -12.454  14.230  67.198  1.00  0.00    -0.588 OA 
HETATM    2  C   UNL     1     -11.673  14.591  66.060  1.00  0.00    -0.345 C  
HETATM    3  H   UNL     1     -12.806  15.008  67.614  1.00  0.00     0.000 HD 
ENDROOT
BRANCH   2   4
HETATM    4  C   UNL     1     -11.101  13.330  65.385  1.00  0.00    -0.300 C  
BRANCH   4   5
HETATM    5  C   UNL     1     -11.402  12.012  66.107  1.00  0.00    -0.407 C  
BRANCH   5   6
HETATM    6  C   UNL     1     -10.401  10.858  65.868  1.00  0.00    -0.310 C  
HETATM    7  H   UNL     1      -6.905   9.290  67.090  1.00  0.00     0.000 HD 
HETATM    8  C   UNL     1      -9.151  10.731  66.838  1.00  0.00    -0.160 C  
HETATM    9  C   UNL     1      -9.764  11.044  64.484  1.00  0.00    -0.273 C  
HETATM   10  C   UNL     1      -8.574  10.130  64.513  1.00  0.00    -0.198 C  
HETATM   11  O   UNL     1     -10.632  10.668  63.431  1.00  0.00    -0.490 OA 
HETATM   12  O   UNL     1      -7.282   9.157  66.228  1.00  0.00    -0.089 OA 
HETATM   13  H   UNL     1     -10.237  10.782  62.574  1.00  0.00     0.000 HD 
HETATM   14  C   UNL     1      -7.974  10.341  65.887  1.00  0.00    -0.137 C  
BRANCH   8  15
HETATM   15  C   UNL     1      -9.346   9.786  68.067  1.00  0.00    -0.138 C  
BRANCH  15  16
HETATM   16  C   UNL     1     -10.263   8.598  67.840  1.00  0.00    -0.273 C  
HETATM   17  C   UNL     1     -10.475   7.481  68.564  1.00  0.00    -0.211 C  
BRANCH  17  18
HETATM   18  C   UNL     1      -9.834   7.055  69.854  1.00  0.00    -0.173 C  
BRANCH  18  19
HETATM   19  C   UNL     1     -10.733   6.114  70.670  1.00  0.00    -0.336 C  
BRANCH  19  20
HETATM   20  C   UNL     1     -11.998   6.767  71.212  1.00  0.00    -0.414 C  
BRANCH  20  21
HETATM   21  C   UNL     1     -11.666   7.915  72.114  1.00  0.00    -0.333 C  
HETATM   22  O   UNL     1     -10.908   7.888  73.076  1.00  0.00    -0.383 OA 
BRANCH  21  23
HETATM   23  O   UNL     1     -12.462   8.965  71.772  1.00  0.00    -0.319 OA 
BRANCH  23  24
HETATM   24  C   UNL     1     -11.707   9.947  71.094  1.00  0.00    -0.396 C  
BRANCH  24  25
HETATM   25  C   UNL     1     -12.514  11.186  70.769  1.00  0.00    -0.479 C  
BRANCH  25  26
HETATM   26  C   UNL     1     -13.280  11.729  71.972  1.00  0.00    -0.460 C  
BRANCH  26  27
HETATM   27  C   UNL     1     -13.448  13.255  72.000  1.00  0.00    -0.507 C  
BRANCH  27  28
HETATM   28  O   UNL     1     -12.599  13.829  71.030  1.00  0.00    -0.341 OA 
HETATM   29  N   UNL     1     -12.981  15.148  70.690  1.00  0.00    -0.385 N  
HETATM   30  O   UNL     1     -12.280  15.628  69.796  1.00  0.00    -0.360 OA 
HETATM   31  O   UNL     1     -13.929  15.635  71.292  1.00  0.00    -0.570 OA 
ENDBRANCH  27  28
ENDBRANCH  26  27
ENDBRANCH  25  26
ENDBRANCH  24  25
ENDBRANCH  23  24
ENDBRANCH  21  23
ENDBRANCH  20  21
ENDBRANCH  19  20
ENDBRANCH  18  19
ENDBRANCH  17  18
ENDBRANCH  15  16
ENDBRANCH   8  15
ENDBRANCH   5   6
ENDBRANCH   4   5
ENDBRANCH   2   4
BRANCH   2  32
HETATM   32  C   UNL     1     -10.565  15.506  66.563  1.00  0.00    -0.307 C  
BRANCH  32  33
HETATM   33  C   UNL     1     -10.476  16.788  65.742  1.00  0.00    -0.305 C  
BRANCH  33  34
HETATM   34  C   UNL     1     -10.222  17.942  66.655  1.00  0.00    -0.371 A  
HETATM   35  C   UNL     1      -9.916  18.792  68.897  1.00  0.00    -0.423 A  
HETATM   36  C   UNL     1     -10.063  20.315  67.023  1.00  0.00    -0.567 A  
HETATM   37  C   UNL     1     -10.073  17.714  68.031  1.00  0.00    -0.343 A  
HETATM   38  C   UNL     1     -10.220  19.243  66.153  1.00  0.00    -0.549 A  
HETATM   39  C   UNL     1      -9.911  20.091  68.393  1.00  0.00    -0.481 A  
ENDBRANCH  33  34
ENDBRANCH  32  33
ENDBRANCH   2  32
TORSDOF 18
ENDMDL
MODEL       58
REMARK 921   NORMALIZED FREE ENERGY PREDICTED BY IDOCK:   -5.11 KCAL/MOL
REMARK 922        TOTAL FREE ENERGY PREDICTED BY IDOCK:  -15.27 KCAL/MOL
REMARK 923 INTER-LIGAND FREE ENERGY PREDICTED BY IDOCK:  -11.59 KCAL/MOL
REMARK 924 INTRA-LIGAND FREE ENERGY PREDICTED BY IDOCK:   -3.69 KCAL/MOL
REMARK 927      BINDING AFFINITY PREDICTED BY RF-SCORE:    0.00 PKD
ROOT
HETATM    1  O   UNL     1     -12.337  13.885  62.914  1.00  0.00    -1.023 OA 
HETATM    2  C   UNL     1     -12.214  12.629  63.579  1.00  0.00    -0.547 C  
HETATM    3  H   UNL     1     -11.989  13.824  62.032  1.00  0.00     0.000 HD 
ENDROOT
BRANCH   2   4
HETATM    4  C   UNL     1     -12.778  12.728  65.010  1.00  0.00    -0.455 C  
BRANCH   4   5
HETATM    5  C   UNL     1     -12.728  14.127  65.633  1.00  0.00    -0.469 C  
BRANCH   5   6
HETATM    6  C   UNL     1     -11.432  14.491  66.393  1.00  0.00    -0.362 C  
HETATM    7  H   UNL     1     -10.003  16.039  69.819  1.00  0.00     0.000 HD 
HETATM    8  C   UNL     1     -11.555  15.024  67.883  1.00  0.00    -0.350 C  
HETATM    9  C   UNL     1     -10.741  15.645  65.655  1.00  0.00    -0.364 C  
HETATM   10  C   UNL     1      -9.741  16.158  66.649  1.00  0.00    -0.260 C  
HETATM   11  O   UNL     1     -10.075  15.220  64.481  1.00  0.00    -0.370 OA 
HETATM   12  O   UNL     1      -9.532  16.034  68.994  1.00  0.00    -0.217 OA 
HETATM   13  H   UNL     1      -9.648  15.935  64.024  1.00  0.00     0.000 HD 
HETATM   14  C   UNL     1     -10.491  16.166  67.964  1.00  0.00    -0.281 C  
BRANCH   8  15
HETATM   15  C   UNL     1     -11.439  13.936  68.999  1.00  0.00    -0.341 C  
BRANCH  15  16
HETATM   16  C   UNL     1     -11.749  12.515  68.562  1.00  0.00    -0.369 C  
HETATM   17  C   UNL     1     -12.198  11.446  69.250  1.00  0.00    -0.271 C  
BRANCH  17  18
HETATM   18  C   UNL     1     -12.524  11.332  70.712  1.00  0.00    -0.471 C  
BRANCH  18  19
HETATM   19  C   UNL     1     -13.070   9.944  71.081  1.00  0.00    -0.453 C  
BRANCH  19  20
HETATM   20  C   UNL     1     -12.154   9.128  71.984  1.00  0.00    -0.431 C  
BRANCH  20  21
HETATM   21  C   UNL     1     -11.623   7.926  71.268  1.00  0.00    -0.276 C  
HETATM   22  O   UNL     1     -10.902   7.930  70.277  1.00  0.00    -0.238 OA 
BRANCH  21  23
HETATM   23  O   UNL     1     -12.195   6.820  71.817  1.00  0.00    -0.333 OA 
BRANCH  23  24
HETATM   24  C   UNL     1     -11.223   5.814  72.010  1.00  0.00    -0.247 C  
BRANCH  24  25
HETATM   25  C   UNL     1     -10.863   5.617  73.467  1.00  0.00    -0.295 C  
BRANCH  25  26
HETATM   26  C   UNL     1      -9.476   6.152  73.814  1.00  0.00    -0.152 C  
BRANCH  26  27
HETATM   27  C   UNL     1      -8.554   6.395  72.611  1.00  0.00    -0.122 C  
BRANCH  27  28
HETATM   28  O   UNL     1      -7.409   7.098  73.044  1.00  0.00    -0.073 OA 
HETATM   29  N   UNL     1      -7.454   8.469  72.695  1.00  0.00    -0.062 N  
HETATM   30  O   UNL     1      -6.427   9.072  73.015  1.00  0.00    -0.311 OA 
HETATM   31  O   UNL     1      -8.463   8.877  72.134  1.00  0.00    -0.382 OA 
ENDBRANCH  27  28
ENDBRANCH  26  27
ENDBRANCH  25  26
ENDBRANCH  24  25
ENDBRANCH  23  24
ENDBRANCH  21  23
ENDBRANCH  20  21
ENDBRANCH  19  20
ENDBRANCH  18  19
ENDBRANCH  17  18
ENDBRANCH  15  16
ENDBRANCH   8  15
ENDBRANCH   5   6
ENDBRANCH   4   5
ENDBRANCH   2   4
BRANCH   2  32
HETATM   32  C   UNL     1     -10.733  12.280  63.585  1.00  0.00    -0.513 C  
BRANCH  32  33
HETATM   33  C   UNL     1     -10.498  10.822  63.962  1.00  0.00    -0.287 C  
BRANCH  33  34
HETATM   34  C   UNL     1      -9.913  10.754  65.334  1.00  0.00    -0.330 A  
HETATM   35  C   UNL     1      -8.546  11.747  67.063  1.00  0.00    -0.173 A  
HETATM   36  C   UNL     1      -9.425   9.509  67.335  1.00  0.00    -0.164 A  
HETATM   37  C   UNL     1      -9.161  11.835  65.818  1.00  0.00    -0.148 A  
HETATM   38  C   UNL     1     -10.042   9.591  66.092  1.00  0.00    -0.326 A  
HETATM   39  C   UNL     1      -8.678  10.585  67.820  1.00  0.00    -0.122 A  
ENDBRANCH  33  34
ENDBRANCH  32  33
ENDBRANCH   2  32
TORSDOF 18
ENDMDL
MODEL       59
REMARK 921   NORMALIZED FREE ENERGY PREDICTED BY IDOCK:   -5.10 KCAL/MOL
REMARK 922        TOTAL FREE ENERGY PREDICTED BY IDOCK:  -15.25 KCAL/MOL
REMARK 923 INTER-LIGAND FREE ENERGY PREDICTED BY IDOCK:  -11.97 KCAL/MOL
REMARK 924 INTRA-LIGAND FREE ENERGY PREDICTED BY IDOCK:   -3.28 KCAL/MOL
REMARK 927      BINDING AFFINITY PREDICTED BY RF-SCORE:    0.00 PKD
ROOT
HETATM    1  O   UNL     1     -11.386   6.088  66.459  1.00  0.00    -0.737 OA 
HETATM    2  C   UNL     1     -10.344   6.673  67.239  1.00  0.00    -0.232 C  
HETATM    3  H   UNL     1     -11.403   6.476  65.592  1.00  0.00     0.000 HD 
ENDROOT
BRANCH   2   4
HETATM    4  C   UNL     1     -10.316   6.043  68.645  1.00  0.00    -0.264 C  
BRANCH   4   5
HETATM    5  C   UNL     1     -11.520   6.377  69.532  1.00  0.00    -0.412 C  
BRANCH   5   6
HETATM    6  C   UNL     1     -11.206   7.074  70.876  1.00  0.00    -0.318 C  
HETATM    7  H   UNL     1      -8.376   9.088  72.903  1.00  0.00     0.000 HD 
HETATM    8  C   UNL     1      -9.821   7.835  71.025  1.00  0.00    -0.186 C  
HETATM    9  C   UNL     1     -11.151   6.008  71.977  1.00  0.00    -0.274 C  
HETATM   10  C   UNL     1     -10.483   6.711  73.123  1.00  0.00    -0.277 C  
HETATM   11  O   UNL     1     -12.436   5.565  72.372  1.00  0.00    -0.143 OA 
HETATM   12  O   UNL     1      -9.083   8.599  73.309  1.00  0.00    -0.246 OA 
HETATM   13  H   UNL     1     -12.401   4.905  73.054  1.00  0.00     0.000 HD 
HETATM   14  C   UNL     1      -9.356   7.490  72.476  1.00  0.00    -0.153 C  
BRANCH   8  15
HETATM   15  C   UNL     1      -9.851   9.360  70.688  1.00  0.00    -0.340 C  
BRANCH  15  16
HETATM   16  C   UNL     1     -11.230   9.995  70.646  1.00  0.00    -0.425 C  
HETATM   17  C   UNL     1     -11.726  11.009  69.909  1.00  0.00    -0.424 C  
BRANCH  17  18
HETATM   18  C   UNL     1     -11.033  11.856  68.881  1.00  0.00    -0.285 C  
BRANCH  18  19
HETATM   19  C   UNL     1     -11.965  12.248  67.724  1.00  0.00    -0.229 C  
BRANCH  19  20
HETATM   20  C   UNL     1     -11.929  13.727  67.361  1.00  0.00    -0.423 C  
BRANCH  20  21
HETATM   21  C   UNL     1     -12.204  13.932  65.904  1.00  0.00    -0.467 C  
HETATM   22  O   UNL     1     -12.822  13.172  65.168  1.00  0.00    -0.669 OA 
BRANCH  21  23
HETATM   23  O   UNL     1     -11.526  15.039  65.497  1.00  0.00    -0.336 OA 
BRANCH  23  24
HETATM   24  C   UNL     1     -10.138  14.778  65.473  1.00  0.00    -0.380 C  
BRANCH  24  25
HETATM   25  C   UNL     1      -9.311  15.960  65.930  1.00  0.00    -0.353 C  
BRANCH  25  26
HETATM   26  C   UNL     1      -9.988  16.768  67.035  1.00  0.00    -0.269 C  
BRANCH  26  27
HETATM   27  C   UNL     1     -10.187  18.258  66.722  1.00  0.00    -0.378 C  
BRANCH  27  28
HETATM   28  O   UNL     1      -9.126  18.701  65.905  1.00  0.00    -0.467 OA 
HETATM   29  N   UNL     1      -8.366  19.726  66.517  1.00  0.00    -0.327 N  
HETATM   30  O   UNL     1      -7.478  20.161  65.779  1.00  0.00    -0.313 OA 
HETATM   31  O   UNL     1      -8.671  20.054  67.656  1.00  0.00    -0.322 OA 
ENDBRANCH  27  28
ENDBRANCH  26  27
ENDBRANCH  25  26
ENDBRANCH  24  25
ENDBRANCH  23  24
ENDBRANCH  21  23
ENDBRANCH  20  21
ENDBRANCH  19  20
ENDBRANCH  18  19
ENDBRANCH  17  18
ENDBRANCH  15  16
ENDBRANCH   8  15
ENDBRANCH   5   6
ENDBRANCH   4   5
ENDBRANCH   2   4
BRANCH   2  32
HETATM   32  C   UNL     1     -10.631   8.166  67.302  1.00  0.00    -0.344 C  
BRANCH  32  33
HETATM   33  C   UNL     1      -9.376   8.993  67.046  1.00  0.00    -0.190 C  
BRANCH  33  34
HETATM   34  C   UNL     1      -9.384   9.478  65.633  1.00  0.00    -0.302 A  
HETATM   35  C   UNL     1      -8.422   9.438  63.415  1.00  0.00    -0.202 A  
HETATM   36  C   UNL     1     -10.170  11.020  63.961  1.00  0.00    -0.420 A  
HETATM   37  C   UNL     1      -8.476   8.936  64.712  1.00  0.00    -0.193 A  
HETATM   38  C   UNL     1     -10.228  10.522  65.257  1.00  0.00    -0.352 A  
HETATM   39  C   UNL     1      -9.269  10.480  63.041  1.00  0.00    -0.313 A  
ENDBRANCH  33  34
ENDBRANCH  32  33
ENDBRANCH   2  32
TORSDOF 18
ENDMDL
MODEL       60
REMARK 921   NORMALIZED FREE ENERGY PREDICTED BY IDOCK:   -5.10 KCAL/MOL
REMARK 922        TOTAL FREE ENERGY PREDICTED BY IDOCK:  -15.25 KCAL/MOL
REMARK 923 INTER-LIGAND FREE ENERGY PREDICTED BY IDOCK:  -12.61 KCAL/MOL
REMARK 924 INTRA-LIGAND FREE ENERGY PREDICTED BY IDOCK:   -2.64 KCAL/MOL
REMARK 927      BINDING AFFINITY PREDICTED BY RF-SCORE:    0.00 PKD
ROOT
HETATM    1  O   UNL     1     -12.087   6.399  71.947  1.00  0.00    -0.336 OA 
HETATM    2  C   UNL     1     -10.838   7.001  72.285  1.00  0.00    -0.230 C  
HETATM    3  H   UNL     1     -12.057   5.465  72.117  1.00  0.00     0.000 HD 
ENDROOT
BRANCH   2   4
HETATM    4  C   UNL     1     -10.887   8.517  72.010  1.00  0.00    -0.405 C  
BRANCH   4   5
HETATM    5  C   UNL     1      -9.626   9.102  71.364  1.00  0.00    -0.316 C  
BRANCH   5   6
HETATM    6  C   UNL     1      -9.841   9.938  70.082  1.00  0.00    -0.272 C  
HETATM    7  H   UNL     1     -12.616  11.204  67.460  1.00  0.00     0.000 HD 
HETATM    8  C   UNL     1     -11.326  10.152  69.561  1.00  0.00    -0.260 C  
HETATM    9  C   UNL     1      -9.150   9.225  68.913  1.00  0.00    -0.139 C  
HETATM   10  C   UNL     1      -9.726   9.890  67.697  1.00  0.00    -0.183 C  
HETATM   11  O   UNL     1      -7.744   9.392  68.928  1.00  0.00    -0.074 OA 
HETATM   12  O   UNL     1     -11.690  11.121  67.264  1.00  0.00    -0.540 OA 
HETATM   13  H   UNL     1      -7.316   8.950  68.204  1.00  0.00     0.000 HD 
HETATM   14  C   UNL     1     -11.202  10.023  68.009  1.00  0.00    -0.122 C  
BRANCH   8  15
HETATM   15  C   UNL     1     -12.033  11.453  70.059  1.00  0.00    -0.442 C  
BRANCH  15  16
HETATM   16  C   UNL     1     -12.750  11.339  71.392  1.00  0.00    -0.501 C  
HETATM   17  C   UNL     1     -13.411  12.251  72.134  1.00  0.00    -0.473 C  
BRANCH  17  18
HETATM   18  C   UNL     1     -13.629  13.711  71.860  1.00  0.00    -0.512 C  
BRANCH  18  19
HETATM   19  C   UNL     1     -12.308  14.491  71.767  1.00  0.00    -0.408 C  
BRANCH  19  20
HETATM   20  C   UNL     1     -12.354  15.695  70.834  1.00  0.00    -0.479 C  
BRANCH  20  21
HETATM   21  C   UNL     1     -11.239  15.644  69.836  1.00  0.00    -0.331 C  
HETATM   22  O   UNL     1     -10.051  15.481  70.082  1.00  0.00    -0.298 OA 
BRANCH  21  23
HETATM   23  O   UNL     1     -11.752  15.957  68.615  1.00  0.00    -0.387 OA 
BRANCH  23  24
HETATM   24  C   UNL     1     -10.707  16.215  67.700  1.00  0.00    -0.318 C  
BRANCH  24  25
HETATM   25  C   UNL     1     -10.767  15.328  66.476  1.00  0.00    -0.311 C  
BRANCH  25  26
HETATM   26  C   UNL     1     -11.755  14.173  66.626  1.00  0.00    -0.422 C  
BRANCH  26  27
HETATM   27  C   UNL     1     -12.916  14.178  65.621  1.00  0.00    -0.251 C  
BRANCH  27  28
HETATM   28  O   UNL     1     -13.049  12.887  65.066  1.00  0.00    -0.794 OA 
HETATM   29  N   UNL     1     -12.775  12.866  63.678  1.00  0.00    -0.192 N  
HETATM   30  O   UNL     1     -12.953  11.753  63.178  1.00  0.00    -0.576 OA 
HETATM   31  O   UNL     1     -12.417  13.914  63.156  1.00  0.00    -0.766 OA 
ENDBRANCH  27  28
ENDBRANCH  26  27
ENDBRANCH  25  26
ENDBRANCH  24  25
ENDBRANCH  23  24
ENDBRANCH  21  23
ENDBRANCH  20  21
ENDBRANCH  19  20
ENDBRANCH  18  19
ENDBRANCH  17  18
ENDBRANCH  15  16
ENDBRANCH   8  15
ENDBRANCH   5   6
ENDBRANCH   4   5
ENDBRANCH   2   4
BRANCH   2  32
HETATM   32  C   UNL     1      -9.778   6.314  71.436  1.00  0.00    -0.191 C  
BRANCH  32  33
HETATM   33  C   UNL     1     -10.337   5.093  70.714  1.00  0.00    -0.294 C  
BRANCH  33  34
HETATM   34  C   UNL     1     -10.290   5.325  69.240  1.00  0.00    -0.286 A  
HETATM   35  C   UNL     1     -11.158   6.450  67.284  1.00  0.00    -0.416 A  
HETATM   36  C   UNL     1      -9.496   4.706  67.054  1.00  0.00    -0.175 A  
HETATM   37  C   UNL     1     -11.138   6.284  68.665  1.00  0.00    -0.409 A  
HETATM   38  C   UNL     1      -9.472   4.536  68.433  1.00  0.00    -0.209 A  
HETATM   39  C   UNL     1     -10.337   5.661  66.479  1.00  0.00    -0.287 A  
ENDBRANCH  33  34
ENDBRANCH  32  33
ENDBRANCH   2  32
TORSDOF 18
ENDMDL
MODEL       61
REMARK 921   NORMALIZED FREE ENERGY PREDICTED BY IDOCK:   -5.09 KCAL/MOL
REMARK 922        TOTAL FREE ENERGY PREDICTED BY IDOCK:  -15.24 KCAL/MOL
REMARK 923 INTER-LIGAND FREE ENERGY PREDICTED BY IDOCK:  -11.85 KCAL/MOL
REMARK 924 INTRA-LIGAND FREE ENERGY PREDICTED BY IDOCK:   -3.39 KCAL/MOL
REMARK 927      BINDING AFFINITY PREDICTED BY RF-SCORE:    0.00 PKD
ROOT
HETATM    1  O   UNL     1      -6.846  10.358  70.732  1.00  0.00    -0.369 OA 
HETATM    2  C   UNL     1      -7.802   9.343  70.431  1.00  0.00    -0.164 C  
HETATM    3  H   UNL     1      -6.043   9.967  71.055  1.00  0.00     0.000 HD 
ENDROOT
BRANCH   2   4
HETATM    4  C   UNL     1      -9.105   9.978  69.907  1.00  0.00    -0.188 C  
BRANCH   4   5
HETATM    5  C   UNL     1     -10.032   9.025  69.145  1.00  0.00    -0.187 C  
BRANCH   5   6
HETATM    6  C   UNL     1     -11.405   8.742  69.796  1.00  0.00     0.095 C  
HETATM    7  H   UNL     1     -13.795   9.713  72.882  1.00  0.00     0.000 HD 
HETATM    8  C   UNL     1     -11.833   9.604  71.059  1.00  0.00    -0.428 C  
HETATM    9  C   UNL     1     -11.405   7.303  70.328  1.00  0.00    -0.238 C  
HETATM   10  C   UNL     1     -12.591   7.261  71.247  1.00  0.00    -0.402 C  
HETATM   11  O   UNL     1     -11.562   6.342  69.300  1.00  0.00    -0.611 OA 
HETATM   12  O   UNL     1     -13.839   8.892  72.406  1.00  0.00    -0.447 OA 
HETATM   13  H   UNL     1     -11.562   5.451  69.630  1.00  0.00     0.000 HD 
HETATM   14  C   UNL     1     -12.521   8.570  72.005  1.00  0.00    -0.363 C  
BRANCH   8  15
HETATM   15  C   UNL     1     -12.682  10.878  70.746  1.00  0.00    -0.431 C  
BRANCH  15  16
HETATM   16  C   UNL     1     -11.893  12.103  70.319  1.00  0.00    -0.339 C  
HETATM   17  C   UNL     1     -11.463  12.513  69.109  1.00  0.00    -0.361 C  
BRANCH  17  18
HETATM   18  C   UNL     1     -11.631  11.848  67.772  1.00  0.00    -0.393 C  
BRANCH  18  19
HETATM   19  C   UNL     1     -12.145  12.820  66.698  1.00  0.00    -0.316 C  
BRANCH  19  20
HETATM   20  C   UNL     1     -11.612  12.547  65.297  1.00  0.00    -0.406 C  
BRANCH  20  21
HETATM   21  C   UNL     1     -11.617  13.792  64.467  1.00  0.00    -0.392 C  
HETATM   22  O   UNL     1     -12.440  14.090  63.610  1.00  0.00    -0.803 OA 
BRANCH  21  23
HETATM   23  O   UNL     1     -10.469  14.476  64.723  1.00  0.00    -0.423 OA 
BRANCH  23  24
HETATM   24  C   UNL     1     -10.769  15.789  65.149  1.00  0.00    -0.435 C  
BRANCH  24  25
HETATM   25  C   UNL     1      -9.811  16.296  66.205  1.00  0.00    -0.334 C  
BRANCH  25  26
HETATM   26  C   UNL     1     -10.522  16.929  67.399  1.00  0.00    -0.310 C  
BRANCH  26  27
HETATM   27  C   UNL     1     -10.639  16.030  68.637  1.00  0.00    -0.266 C  
BRANCH  27  28
HETATM   28  O   UNL     1     -11.991  15.967  69.035  1.00  0.00    -0.342 OA 
HETATM   29  N   UNL     1     -12.136  15.786  70.431  1.00  0.00    -0.385 N  
HETATM   30  O   UNL     1     -13.315  15.666  70.772  1.00  0.00    -0.535 OA 
HETATM   31  O   UNL     1     -11.115  15.762  71.107  1.00  0.00    -0.339 OA 
ENDBRANCH  27  28
ENDBRANCH  26  27
ENDBRANCH  25  26
ENDBRANCH  24  25
ENDBRANCH  23  24
ENDBRANCH  21  23
ENDBRANCH  20  21
ENDBRANCH  19  20
ENDBRANCH  18  19
ENDBRANCH  17  18
ENDBRANCH  15  16
ENDBRANCH   8  15
ENDBRANCH   5   6
ENDBRANCH   4   5
ENDBRANCH   2   4
BRANCH   2  32
HETATM   32  C   UNL     1      -8.037   8.568  71.720  1.00  0.00    -0.191 C  
BRANCH  32  33
HETATM   33  C   UNL     1      -7.886   7.066  71.511  1.00  0.00    -0.098 C  
BRANCH  33  34
HETATM   34  C   UNL     1      -8.910   6.348  72.328  1.00  0.00    -0.135 A  
HETATM   35  C   UNL     1     -10.275   6.236  74.320  1.00  0.00    -0.351 A  
HETATM   36  C   UNL     1     -10.217   4.377  72.771  1.00  0.00    -0.233 A  
HETATM   37  C   UNL     1      -9.382   6.933  73.512  1.00  0.00    -0.197 A  
HETATM   38  C   UNL     1      -9.326   5.069  71.961  1.00  0.00    -0.168 A  
HETATM   39  C   UNL     1     -10.692   4.959  73.949  1.00  0.00    -0.363 A  
ENDBRANCH  33  34
ENDBRANCH  32  33
ENDBRANCH   2  32
TORSDOF 18
ENDMDL
MODEL       62
REMARK 921   NORMALIZED FREE ENERGY PREDICTED BY IDOCK:   -5.09 KCAL/MOL
REMARK 922        TOTAL FREE ENERGY PREDICTED BY IDOCK:  -15.23 KCAL/MOL
REMARK 923 INTER-LIGAND FREE ENERGY PREDICTED BY IDOCK:  -11.04 KCAL/MOL
REMARK 924 INTRA-LIGAND FREE ENERGY PREDICTED BY IDOCK:   -4.19 KCAL/MOL
REMARK 927      BINDING AFFINITY PREDICTED BY RF-SCORE:    0.00 PKD
ROOT
HETATM    1  O   UNL     1     -11.933  14.733  64.191  1.00  0.00    -0.653 OA 
HETATM    2  C   UNL     1     -12.782  13.880  64.957  1.00  0.00    -0.336 C  
HETATM    3  H   UNL     1     -12.123  14.638  63.265  1.00  0.00     0.000 HD 
ENDROOT
BRANCH   2   4
HETATM    4  C   UNL     1     -12.475  14.035  66.460  1.00  0.00    -0.351 C  
BRANCH   4   5
HETATM    5  C   UNL     1     -11.128  13.460  66.911  1.00  0.00    -0.309 C  
BRANCH   5   6
HETATM    6  C   UNL     1     -11.088  12.848  68.330  1.00  0.00    -0.293 C  
HETATM    7  H   UNL     1     -12.156   9.645  70.514  1.00  0.00     0.000 HD 
HETATM    8  C   UNL     1     -11.644  11.375  68.533  1.00  0.00    -0.384 C  
HETATM    9  C   UNL     1     -11.974  13.696  69.252  1.00  0.00    -0.336 C  
HETATM   10  C   UNL     1     -12.167  12.828  70.461  1.00  0.00    -0.389 C  
HETATM   11  O   UNL     1     -11.358  14.913  69.631  1.00  0.00    -0.255 OA 
HETATM   12  O   UNL     1     -12.003  10.512  70.872  1.00  0.00    -0.329 OA 
HETATM   13  H   UNL     1     -11.907  15.438  70.202  1.00  0.00     0.000 HD 
HETATM   14  C   UNL     1     -12.411  11.446  69.892  1.00  0.00    -0.214 C  
BRANCH   8  15
HETATM   15  C   UNL     1     -10.580  10.235  68.435  1.00  0.00    -0.247 C  
BRANCH  15  16
HETATM   16  C   UNL     1      -9.263  10.505  69.141  1.00  0.00    -0.183 C  
HETATM   17  C   UNL     1      -8.148  11.147  68.739  1.00  0.00    -0.140 C  
BRANCH  17  18
HETATM   18  C   UNL     1      -7.857  11.798  67.417  1.00  0.00    -0.155 C  
BRANCH  18  19
HETATM   19  C   UNL     1      -7.096  13.124  67.576  1.00  0.00    -0.156 C  
BRANCH  19  20
HETATM   20  C   UNL     1      -7.859  14.349  67.088  1.00  0.00    -0.111 C  
BRANCH  20  21
HETATM   21  C   UNL     1      -8.082  15.323  68.203  1.00  0.00    -0.136 C  
HETATM   22  O   UNL     1      -8.427  15.051  69.347  1.00  0.00    -0.191 OA 
BRANCH  21  23
HETATM   23  O   UNL     1      -7.977  16.580  67.693  1.00  0.00    -0.157 OA 
BRANCH  23  24
HETATM   24  C   UNL     1      -8.626  16.652  66.440  1.00  0.00    -0.310 C  
BRANCH  24  25
HETATM   25  C   UNL     1     -10.111  16.918  66.563  1.00  0.00    -0.320 C  
BRANCH  25  26
HETATM   26  C   UNL     1     -10.501  18.325  66.118  1.00  0.00    -0.403 C  
BRANCH  26  27
HETATM   27  C   UNL     1     -10.313  19.418  67.181  1.00  0.00    -0.438 C  
BRANCH  27  28
HETATM   28  O   UNL     1      -9.307  20.308  66.751  1.00  0.00    -0.369 OA 
HETATM   29  N   UNL     1      -8.202  20.341  67.635  1.00  0.00    -0.303 N  
HETATM   30  O   UNL     1      -7.350  21.167  67.297  1.00  0.00    -0.430 OA 
HETATM   31  O   UNL     1      -8.224  19.584  68.597  1.00  0.00    -0.354 OA 
ENDBRANCH  27  28
ENDBRANCH  26  27
ENDBRANCH  25  26
ENDBRANCH  24  25
ENDBRANCH  23  24
ENDBRANCH  21  23
ENDBRANCH  20  21
ENDBRANCH  19  20
ENDBRANCH  18  19
ENDBRANCH  17  18
ENDBRANCH  15  16
ENDBRANCH   8  15
ENDBRANCH   5   6
ENDBRANCH   4   5
ENDBRANCH   2   4
BRANCH   2  32
HETATM   32  C   UNL     1     -12.521  12.459  64.478  1.00  0.00    -0.519 C  
BRANCH  32  33
HETATM   33  C   UNL     1     -11.529  12.427  63.320  1.00  0.00    -0.426 C  
BRANCH  33  34
HETATM   34  C   UNL     1     -10.411  11.496  63.654  1.00  0.00    -0.467 A  
HETATM   35  C   UNL     1      -8.358  10.394  63.006  1.00  0.00    -0.174 A  
HETATM   36  C   UNL     1      -9.448   9.821  65.089  1.00  0.00    -0.338 A  
HETATM   37  C   UNL     1      -9.363  11.320  62.739  1.00  0.00    -0.362 A  
HETATM   38  C   UNL     1     -10.453  10.744  64.827  1.00  0.00    -0.335 A  
HETATM   39  C   UNL     1      -8.402   9.646  64.180  1.00  0.00    -0.171 A  
ENDBRANCH  33  34
ENDBRANCH  32  33
ENDBRANCH   2  32
TORSDOF 18
ENDMDL
MODEL       63
REMARK 921   NORMALIZED FREE ENERGY PREDICTED BY IDOCK:   -5.09 KCAL/MOL
REMARK 922        TOTAL FREE ENERGY PREDICTED BY IDOCK:  -15.22 KCAL/MOL
REMARK 923 INTER-LIGAND FREE ENERGY PREDICTED BY IDOCK:  -12.03 KCAL/MOL
REMARK 924 INTRA-LIGAND FREE ENERGY PREDICTED BY IDOCK:   -3.19 KCAL/MOL
REMARK 927      BINDING AFFINITY PREDICTED BY RF-SCORE:    0.00 PKD
ROOT
HETATM    1  O   UNL     1     -11.990   7.856  73.191  1.00  0.00    -0.662 OA 
HETATM    2  C   UNL     1     -11.036   7.695  72.143  1.00  0.00    -0.267 C  
HETATM    3  H   UNL     1     -12.217   7.011  73.561  1.00  0.00     0.000 HD 
ENDROOT
BRANCH   2   4
HETATM    4  C   UNL     1     -10.668   9.067  71.544  1.00  0.00    -0.421 C  
BRANCH   4   5
HETATM    5  C   UNL     1     -11.327   9.387  70.198  1.00  0.00    -0.220 C  
BRANCH   5   6
HETATM    6  C   UNL     1     -12.176  10.678  70.143  1.00  0.00    -0.398 C  
HETATM    7  H   UNL     1     -12.010  14.647  69.513  1.00  0.00     0.000 HD 
HETATM    8  C   UNL     1     -11.467  12.029  69.703  1.00  0.00    -0.322 C  
HETATM    9  C   UNL     1     -12.688  10.985  71.557  1.00  0.00    -0.415 C  
HETATM   10  C   UNL     1     -13.155  12.409  71.466  1.00  0.00    -0.362 C  
HETATM   11  O   UNL     1     -13.766  10.151  71.939  1.00  0.00    -0.254 OA 
HETATM   12  O   UNL     1     -12.685  14.211  70.020  1.00  0.00    -0.292 OA 
HETATM   13  H   UNL     1     -14.083  10.342  72.814  1.00  0.00     0.000 HD 
HETATM   14  C   UNL     1     -12.079  13.103  70.657  1.00  0.00    -0.264 C  
BRANCH   8  15
HETATM   15  C   UNL     1     -11.558  12.370  68.181  1.00  0.00    -0.395 C  
BRANCH  15  16
HETATM   16  C   UNL     1     -10.230  12.456  67.449  1.00  0.00    -0.215 C  
HETATM   17  C   UNL     1      -9.853  12.031  66.227  1.00  0.00    -0.250 C  
BRANCH  17  18
HETATM   18  C   UNL     1     -10.660  11.303  65.190  1.00  0.00    -0.343 C  
BRANCH  18  19
HETATM   19  C   UNL     1     -10.655  12.027  63.834  1.00  0.00    -0.447 C  
BRANCH  19  20
HETATM   20  C   UNL     1     -11.978  12.691  63.472  1.00  0.00    -0.630 C  
BRANCH  20  21
HETATM   21  C   UNL     1     -12.395  13.669  64.525  1.00  0.00    -0.356 C  
HETATM   22  O   UNL     1     -13.385  13.588  65.241  1.00  0.00    -0.618 OA 
BRANCH  21  23
HETATM   23  O   UNL     1     -11.564  14.745  64.454  1.00  0.00    -0.364 OA 
BRANCH  23  24
HETATM   24  C   UNL     1     -11.360  15.288  65.742  1.00  0.00    -0.180 C  
BRANCH  24  25
HETATM   25  C   UNL     1     -10.086  16.098  65.843  1.00  0.00    -0.379 C  
BRANCH  25  26
HETATM   26  C   UNL     1      -9.431  16.007  67.219  1.00  0.00    -0.220 C  
BRANCH  26  27
HETATM   27  C   UNL     1      -8.158  16.849  67.389  1.00  0.00    -0.174 C  
BRANCH  27  28
HETATM   28  O   UNL     1      -8.492  18.215  67.275  1.00  0.00    -0.237 OA 
HETATM   29  N   UNL     1      -7.864  18.834  66.168  1.00  0.00    -0.268 N  
HETATM   30  O   UNL     1      -8.103  20.042  66.103  1.00  0.00    -0.326 OA 
HETATM   31  O   UNL     1      -7.180  18.128  65.438  1.00  0.00    -0.529 OA 
ENDBRANCH  27  28
ENDBRANCH  26  27
ENDBRANCH  25  26
ENDBRANCH  24  25
ENDBRANCH  23  24
ENDBRANCH  21  23
ENDBRANCH  20  21
ENDBRANCH  19  20
ENDBRANCH  18  19
ENDBRANCH  17  18
ENDBRANCH  15  16
ENDBRANCH   8  15
ENDBRANCH   5   6
ENDBRANCH   4   5
ENDBRANCH   2   4
BRANCH   2  32
HETATM   32  C   UNL     1     -11.677   6.786  71.104  1.00  0.00    -0.394 C  
BRANCH  32  33
HETATM   33  C   UNL     1     -10.676   5.790  70.531  1.00  0.00    -0.361 C  
BRANCH  33  34
HETATM   34  C   UNL     1     -10.246   6.246  69.176  1.00  0.00    -0.229 A  
HETATM   35  C   UNL     1      -8.570   7.256  67.756  1.00  0.00    -0.120 A  
HETATM   36  C   UNL     1     -10.767   6.746  66.880  1.00  0.00    -0.394 A  
HETATM   37  C   UNL     1      -8.951   6.755  68.998  1.00  0.00    -0.131 A  
HETATM   38  C   UNL     1     -11.153   6.244  68.117  1.00  0.00    -0.364 A  
HETATM   39  C   UNL     1      -9.477   7.251  66.699  1.00  0.00    -0.228 A  
ENDBRANCH  33  34
ENDBRANCH  32  33
ENDBRANCH   2  32
TORSDOF 18
ENDMDL
MODEL       64
REMARK 921   NORMALIZED FREE ENERGY PREDICTED BY IDOCK:   -5.08 KCAL/MOL
REMARK 922        TOTAL FREE ENERGY PREDICTED BY IDOCK:  -15.21 KCAL/MOL
REMARK 923 INTER-LIGAND FREE ENERGY PREDICTED BY IDOCK:  -11.24 KCAL/MOL
REMARK 924 INTRA-LIGAND FREE ENERGY PREDICTED BY IDOCK:   -3.97 KCAL/MOL
REMARK 927      BINDING AFFINITY PREDICTED BY RF-SCORE:    0.00 PKD
ROOT
HETATM    1  O   UNL     1     -12.131  12.391  67.834  1.00  0.00    -0.428 OA 
HETATM    2  C   UNL     1     -11.817  11.062  68.247  1.00  0.00    -0.148 C  
HETATM    3  H   UNL     1     -12.523  12.381  66.969  1.00  0.00     0.000 HD 
ENDROOT
BRANCH   2   4
HETATM    4  C   UNL     1     -11.181  11.077  69.651  1.00  0.00    -0.345 C  
BRANCH   4   5
HETATM    5  C   UNL     1     -11.989  10.361  70.739  1.00  0.00    -0.462 C  
BRANCH   5   6
HETATM    6  C   UNL     1     -11.526   8.931  71.103  1.00  0.00    -0.364 C  
HETATM    7  H   UNL     1     -10.340   5.413  69.557  1.00  0.00     0.000 HD 
HETATM    8  C   UNL     1     -11.066   7.966  69.929  1.00  0.00    -0.123 C  
HETATM    9  C   UNL     1     -12.705   8.185  71.740  1.00  0.00    -0.330 C  
HETATM   10  C   UNL     1     -12.280   6.746  71.700  1.00  0.00    -0.410 C  
HETATM   11  O   UNL     1     -12.938   8.578  73.080  1.00  0.00    -0.689 OA 
HETATM   12  O   UNL     1     -10.729   5.518  70.418  1.00  0.00    -0.285 OA 
HETATM   13  H   UNL     1     -13.668   8.115  73.475  1.00  0.00     0.000 HD 
HETATM   14  C   UNL     1     -11.661   6.578  70.329  1.00  0.00    -0.409 C  
BRANCH   8  15
HETATM   15  C   UNL     1      -9.534   7.963  69.622  1.00  0.00    -0.160 C  
BRANCH  15  16
HETATM   16  C   UNL     1      -8.675   8.782  70.568  1.00  0.00    -0.196 C  
HETATM   17  C   UNL     1      -7.690   9.674  70.338  1.00  0.00    -0.178 C  
BRANCH  17  18
HETATM   18  C   UNL     1      -7.118  10.131  69.026  1.00  0.00    -0.072 C  
BRANCH  18  19
HETATM   19  C   UNL     1      -7.663  11.503  68.599  1.00  0.00    -0.139 C  
BRANCH  19  20
HETATM   20  C   UNL     1      -7.051  12.049  67.315  1.00  0.00    -0.149 C  
BRANCH  20  21
HETATM   21  C   UNL     1      -6.646  13.481  67.479  1.00  0.00    -0.117 C  
HETATM   22  O   UNL     1      -5.516  13.935  67.350  1.00  0.00    -0.345 OA 
BRANCH  21  23
HETATM   23  O   UNL     1      -7.723  14.174  67.940  1.00  0.00    -0.127 OA 
BRANCH  23  24
HETATM   24  C   UNL     1      -7.600  15.541  67.606  1.00  0.00    -0.161 C  
BRANCH  24  25
HETATM   25  C   UNL     1      -8.726  16.031  66.721  1.00  0.00    -0.287 C  
BRANCH  25  26
HETATM   26  C   UNL     1      -9.594  14.898  66.181  1.00  0.00    -0.340 C  
BRANCH  26  27
HETATM   27  C   UNL     1     -11.009  15.312  65.750  1.00  0.00    -0.338 C  
BRANCH  27  28
HETATM   28  O   UNL     1     -11.232  14.877  64.427  1.00  0.00    -0.281 OA 
HETATM   29  N   UNL     1     -12.379  14.055  64.316  1.00  0.00    -0.398 N  
HETATM   30  O   UNL     1     -12.540  13.621  63.172  1.00  0.00    -0.792 OA 
HETATM   31  O   UNL     1     -13.045  13.873  65.327  1.00  0.00    -0.777 OA 
ENDBRANCH  27  28
ENDBRANCH  26  27
ENDBRANCH  25  26
ENDBRANCH  24  25
ENDBRANCH  23  24
ENDBRANCH  21  23
ENDBRANCH  20  21
ENDBRANCH  19  20
ENDBRANCH  18  19
ENDBRANCH  17  18
ENDBRANCH  15  16
ENDBRANCH   8  15
ENDBRANCH   5   6
ENDBRANCH   4   5
ENDBRANCH   2   4
BRANCH   2  32
HETATM   32  C   UNL     1     -10.861  10.495  67.207  1.00  0.00    -0.338 C  
BRANCH  32  33
HETATM   33  C   UNL     1     -10.706  11.431  66.014  1.00  0.00    -0.318 C  
BRANCH  33  34
HETATM   34  C   UNL     1      -9.874  10.764  64.968  1.00  0.00    -0.346 A  
HETATM   35  C   UNL     1      -9.240  10.541  62.646  1.00  0.00    -0.329 A  
HETATM   36  C   UNL     1      -8.389   8.993  64.300  1.00  0.00    -0.179 A  
HETATM   37  C   UNL     1      -9.950  11.208  63.640  1.00  0.00    -0.411 A  
HETATM   38  C   UNL     1      -9.096   9.655  65.296  1.00  0.00    -0.269 A  
HETATM   39  C   UNL     1      -8.460   9.434  62.976  1.00  0.00    -0.204 A  
ENDBRANCH  33  34
ENDBRANCH  32  33
ENDBRANCH   2  32
TORSDOF 18
ENDMDL
MODEL       65
REMARK 921   NORMALIZED FREE ENERGY PREDICTED BY IDOCK:   -5.08 KCAL/MOL
REMARK 922        TOTAL FREE ENERGY PREDICTED BY IDOCK:  -15.21 KCAL/MOL
REMARK 923 INTER-LIGAND FREE ENERGY PREDICTED BY IDOCK:  -13.24 KCAL/MOL
REMARK 924 INTRA-LIGAND FREE ENERGY PREDICTED BY IDOCK:   -1.97 KCAL/MOL
REMARK 927      BINDING AFFINITY PREDICTED BY RF-SCORE:    0.00 PKD
ROOT
HETATM    1  O   UNL     1     -12.770  11.021  69.326  1.00  0.00    -0.498 OA 
HETATM    2  C   UNL     1     -11.397  11.031  68.939  1.00  0.00    -0.280 C  
HETATM    3  H   UNL     1     -12.875  11.440  70.172  1.00  0.00     0.000 HD 
ENDROOT
BRANCH   2   4
HETATM    4  C   UNL     1     -11.226  10.351  67.567  1.00  0.00    -0.254 C  
BRANCH   4   5
HETATM    5  C   UNL     1     -10.056  10.870  66.724  1.00  0.00    -0.259 C  
BRANCH   5   6
HETATM    6  C   UNL     1     -10.392  11.976  65.698  1.00  0.00    -0.288 C  
HETATM    7  H   UNL     1     -13.280  14.488  64.462  1.00  0.00     0.000 HD 
HETATM    8  C   UNL     1     -11.798  12.706  65.808  1.00  0.00    -0.497 C  
HETATM    9  C   UNL     1     -10.422  11.350  64.298  1.00  0.00    -0.342 C  
HETATM   10  C   UNL     1     -11.111  12.385  63.457  1.00  0.00    -0.521 C  
HETATM   11  O   UNL     1      -9.126  11.102  63.784  1.00  0.00    -0.342 OA 
HETATM   12  O   UNL     1     -12.562  14.186  63.918  1.00  0.00    -0.752 OA 
HETATM   13  H   UNL     1      -9.145  10.714  62.917  1.00  0.00     0.000 HD 
HETATM   14  C   UNL     1     -12.256  12.866  64.323  1.00  0.00    -0.410 C  
BRANCH   8  15
HETATM   15  C   UNL     1     -11.807  14.024  66.647  1.00  0.00    -0.443 C  
BRANCH  15  16
HETATM   16  C   UNL     1     -10.676  14.172  67.648  1.00  0.00    -0.260 C  
HETATM   17  C   UNL     1     -10.430  15.105  68.589  1.00  0.00    -0.234 C  
BRANCH  17  18
HETATM   18  C   UNL     1     -11.224  16.334  68.931  1.00  0.00    -0.337 C  
BRANCH  18  19
HETATM   19  C   UNL     1     -10.597  17.613  68.354  1.00  0.00    -0.318 C  
BRANCH  19  20
HETATM   20  C   UNL     1     -10.680  17.723  66.837  1.00  0.00    -0.165 C  
BRANCH  20  21
HETATM   21  C   UNL     1      -9.907  18.905  66.340  1.00  0.00    -0.375 C  
HETATM   22  O   UNL     1     -10.372  19.904  65.804  1.00  0.00    -0.489 OA 
BRANCH  21  23
HETATM   23  O   UNL     1      -8.581  18.622  66.455  1.00  0.00    -0.291 OA 
BRANCH  23  24
HETATM   24  C   UNL     1      -7.824  19.814  66.427  1.00  0.00    -0.312 C  
BRANCH  24  25
HETATM   25  C   UNL     1      -7.489  20.328  67.810  1.00  0.00    -0.319 C  
BRANCH  25  26
HETATM   26  C   UNL     1      -5.988  20.506  68.030  1.00  0.00    -0.302 C  
BRANCH  26  27
HETATM   27  C   UNL     1      -5.579  20.841  69.471  1.00  0.00    -0.371 C  
BRANCH  27  28
HETATM   28  O   UNL     1      -5.222  19.649  70.136  1.00  0.00    -0.190 OA 
HETATM   29  N   UNL     1      -5.664  19.628  71.480  1.00  0.00    -0.281 N  
HETATM   30  O   UNL     1      -5.297  18.615  72.082  1.00  0.00    -0.691 OA 
HETATM   31  O   UNL     1      -6.324  20.580  71.874  1.00  0.00    -0.600 OA 
ENDBRANCH  27  28
ENDBRANCH  26  27
ENDBRANCH  25  26
ENDBRANCH  24  25
ENDBRANCH  23  24
ENDBRANCH  21  23
ENDBRANCH  20  21
ENDBRANCH  19  20
ENDBRANCH  18  19
ENDBRANCH  17  18
ENDBRANCH  15  16
ENDBRANCH   8  15
ENDBRANCH   5   6
ENDBRANCH   4   5
ENDBRANCH   2   4
BRANCH   2  32
HETATM   32  C   UNL     1     -10.630  10.292  70.027  1.00  0.00    -0.321 C  
BRANCH  32  33
HETATM   33  C   UNL     1     -11.544   9.864  71.170  1.00  0.00    -0.468 C  
BRANCH  33  34
HETATM   34  C   UNL     1     -11.375   8.401  71.416  1.00  0.00    -0.317 A  
HETATM   35  C   UNL     1     -10.876   6.593  72.941  1.00  0.00    -0.293 A  
HETATM   36  C   UNL     1     -11.153   6.156  70.577  1.00  0.00    -0.405 A  
HETATM   37  C   UNL     1     -11.114   7.946  72.717  1.00  0.00    -0.462 A  
HETATM   38  C   UNL     1     -11.391   7.506  70.347  1.00  0.00    -0.253 A  
HETATM   39  C   UNL     1     -10.895   5.700  71.872  1.00  0.00    -0.302 A  
ENDBRANCH  33  34
ENDBRANCH  32  33
ENDBRANCH   2  32
TORSDOF 18
ENDMDL
MODEL       66
REMARK 921   NORMALIZED FREE ENERGY PREDICTED BY IDOCK:   -5.07 KCAL/MOL
REMARK 922        TOTAL FREE ENERGY PREDICTED BY IDOCK:  -15.18 KCAL/MOL
REMARK 923 INTER-LIGAND FREE ENERGY PREDICTED BY IDOCK:  -12.01 KCAL/MOL
REMARK 924 INTRA-LIGAND FREE ENERGY PREDICTED BY IDOCK:   -3.17 KCAL/MOL
REMARK 927      BINDING AFFINITY PREDICTED BY RF-SCORE:    0.00 PKD
ROOT
HETATM    1  O   UNL     1     -11.915  16.076  63.594  1.00  0.00    -1.344 OA 
HETATM    2  C   UNL     1     -11.784  15.288  64.776  1.00  0.00    -0.276 C  
HETATM    3  H   UNL     1     -12.833  16.234  63.406  1.00  0.00     0.000 HD 
ENDROOT
BRANCH   2   4
HETATM    4  C   UNL     1     -10.295  15.032  65.082  1.00  0.00    -0.422 C  
BRANCH   4   5
HETATM    5  C   UNL     1      -9.583  16.160  65.837  1.00  0.00    -0.359 C  
BRANCH   5   6
HETATM    6  C   UNL     1      -9.610  16.070  67.381  1.00  0.00    -0.225 C  
HETATM    7  H   UNL     1     -11.394  14.258  70.496  1.00  0.00     0.000 HD 
HETATM    8  C   UNL     1     -10.557  14.992  68.058  1.00  0.00    -0.250 C  
HETATM    9  C   UNL     1     -10.127  17.403  67.938  1.00  0.00    -0.326 C  
HETATM   10  C   UNL     1     -10.469  17.086  69.364  1.00  0.00    -0.250 C  
HETATM   11  O   UNL     1      -9.151  18.427  67.895  1.00  0.00    -0.274 OA 
HETATM   12  O   UNL     1     -10.963  15.103  70.541  1.00  0.00    -0.273 OA 
HETATM   13  H   UNL     1      -9.472  19.252  68.240  1.00  0.00     0.000 HD 
HETATM   14  C   UNL     1     -11.155  15.738  69.293  1.00  0.00    -0.297 C  
BRANCH   8  15
HETATM   15  C   UNL     1      -9.889  13.616  68.379  1.00  0.00    -0.223 C  
BRANCH  15  16
HETATM   16  C   UNL     1      -8.512  13.401  67.777  1.00  0.00    -0.181 C  
HETATM   17  C   UNL     1      -7.555  12.488  68.038  1.00  0.00    -0.127 C  
BRANCH  17  18
HETATM   18  C   UNL     1      -7.559  11.378  69.050  1.00  0.00    -0.084 C  
BRANCH  18  19
HETATM   19  C   UNL     1      -8.439  10.195  68.615  1.00  0.00    -0.122 C  
BRANCH  19  20
HETATM   20  C   UNL     1      -8.591   9.106  69.669  1.00  0.00    -0.143 C  
BRANCH  20  21
HETATM   21  C   UNL     1      -9.785   8.248  69.387  1.00  0.00    -0.177 C  
HETATM   22  O   UNL     1     -10.456   8.250  68.362  1.00  0.00    -0.207 OA 
BRANCH  21  23
HETATM   23  O   UNL     1     -10.091   7.564  70.523  1.00  0.00    -0.188 OA 
BRANCH  23  24
HETATM   24  C   UNL     1     -11.421   7.094  70.465  1.00  0.00    -0.295 C  
BRANCH  24  25
HETATM   25  C   UNL     1     -12.168   7.281  71.768  1.00  0.00    -0.368 C  
BRANCH  25  26
HETATM   26  C   UNL     1     -13.230   8.376  71.692  1.00  0.00    -0.360 C  
BRANCH  26  27
HETATM   27  C   UNL     1     -12.701   9.770  71.325  1.00  0.00    -0.369 C  
BRANCH  27  28
HETATM   28  O   UNL     1     -13.402  10.739  72.073  1.00  0.00    -0.447 OA 
HETATM   29  N   UNL     1     -13.089  12.059  71.673  1.00  0.00    -0.397 N  
HETATM   30  O   UNL     1     -13.651  12.910  72.368  1.00  0.00    -0.579 OA 
HETATM   31  O   UNL     1     -12.324  12.198  70.728  1.00  0.00    -0.376 OA 
ENDBRANCH  27  28
ENDBRANCH  26  27
ENDBRANCH  25  26
ENDBRANCH  24  25
ENDBRANCH  23  24
ENDBRANCH  21  23
ENDBRANCH  20  21
ENDBRANCH  19  20
ENDBRANCH  18  19
ENDBRANCH  17  18
ENDBRANCH  15  16
ENDBRANCH   8  15
ENDBRANCH   5   6
ENDBRANCH   4   5
ENDBRANCH   2   4
BRANCH   2  32
HETATM   32  C   UNL     1     -12.532  13.988  64.520  1.00  0.00    -0.342 C  
BRANCH  32  33
HETATM   33  C   UNL     1     -12.202  12.931  65.567  1.00  0.00    -0.527 C  
BRANCH  33  34
HETATM   34  C   UNL     1     -11.260  11.931  64.980  1.00  0.00    -0.350 A  
HETATM   35  C   UNL     1      -9.666  10.141  65.294  1.00  0.00    -0.365 A  
HETATM   36  C   UNL     1     -10.034  11.077  63.093  1.00  0.00    -0.382 A  
HETATM   37  C   UNL     1     -10.605  11.022  65.823  1.00  0.00    -0.260 A  
HETATM   38  C   UNL     1     -10.972  11.959  63.616  1.00  0.00    -0.511 A  
HETATM   39  C   UNL     1      -9.382  10.169  63.931  1.00  0.00    -0.336 A  
ENDBRANCH  33  34
ENDBRANCH  32  33
ENDBRANCH   2  32
TORSDOF 18
ENDMDL
MODEL       67
REMARK 921   NORMALIZED FREE ENERGY PREDICTED BY IDOCK:   -5.06 KCAL/MOL
REMARK 922        TOTAL FREE ENERGY PREDICTED BY IDOCK:  -15.17 KCAL/MOL
REMARK 923 INTER-LIGAND FREE ENERGY PREDICTED BY IDOCK:  -12.73 KCAL/MOL
REMARK 924 INTRA-LIGAND FREE ENERGY PREDICTED BY IDOCK:   -2.44 KCAL/MOL
REMARK 927      BINDING AFFINITY PREDICTED BY RF-SCORE:    0.00 PKD
ROOT
HETATM    1  O   UNL     1     -11.908  10.473  67.865  1.00  0.00    -0.731 OA 
HETATM    2  C   UNL     1     -10.554  10.043  67.738  1.00  0.00    -0.261 C  
HETATM    3  H   UNL     1     -12.423  10.157  67.131  1.00  0.00     0.000 HD 
ENDROOT
BRANCH   2   4
HETATM    4  C   UNL     1      -9.720  10.555  68.928  1.00  0.00    -0.206 C  
BRANCH   4   5
HETATM    5  C   UNL     1      -9.813   9.706  70.201  1.00  0.00    -0.310 C  
BRANCH   5   6
HETATM    6  C   UNL     1     -10.978   8.691  70.260  1.00  0.00    -0.251 C  
HETATM    7  H   UNL     1     -14.062   7.418  72.506  1.00  0.00     0.000 HD 
HETATM    8  C   UNL     1     -11.989   8.774  71.481  1.00  0.00    -0.386 C  
HETATM    9  C   UNL     1     -10.388   7.279  70.378  1.00  0.00    -0.208 C  
HETATM   10  C   UNL     1     -11.556   6.438  70.804  1.00  0.00    -0.402 C  
HETATM   11  O   UNL     1      -9.875   6.799  69.149  1.00  0.00    -0.155 OA 
HETATM   12  O   UNL     1     -13.620   6.890  71.851  1.00  0.00    -0.277 OA 
HETATM   13  H   UNL     1      -9.510   5.925  69.222  1.00  0.00     0.000 HD 
HETATM   14  C   UNL     1     -12.261   7.280  71.847  1.00  0.00    -0.313 C  
BRANCH   8  15
HETATM   15  C   UNL     1     -13.269   9.635  71.236  1.00  0.00    -0.429 C  
BRANCH  15  16
HETATM   16  C   UNL     1     -13.276  11.001  71.898  1.00  0.00    -0.503 C  
HETATM   17  C   UNL     1     -12.812  12.198  71.487  1.00  0.00    -0.394 C  
BRANCH  17  18
HETATM   18  C   UNL     1     -12.109  12.548  70.206  1.00  0.00    -0.373 C  
BRANCH  18  19
HETATM   19  C   UNL     1     -12.317  14.018  69.810  1.00  0.00    -0.344 C  
BRANCH  19  20
HETATM   20  C   UNL     1     -11.119  14.658  69.121  1.00  0.00    -0.285 C  
BRANCH  20  21
HETATM   21  C   UNL     1     -11.080  16.134  69.370  1.00  0.00    -0.335 C  
HETATM   22  O   UNL     1     -11.305  16.697  70.435  1.00  0.00    -0.207 OA 
BRANCH  21  23
HETATM   23  O   UNL     1     -10.893  16.759  68.176  1.00  0.00    -0.350 OA 
BRANCH  23  24
HETATM   24  C   UNL     1     -10.367  18.054  68.382  1.00  0.00    -0.368 C  
BRANCH  24  25
HETATM   25  C   UNL     1     -10.764  19.028  67.294  1.00  0.00    -0.556 C  
BRANCH  25  26
HETATM   26  C   UNL     1      -9.723  20.122  67.067  1.00  0.00    -0.574 C  
BRANCH  26  27
HETATM   27  C   UNL     1      -8.267  19.689  67.291  1.00  0.00    -0.296 C  
BRANCH  27  28
HETATM   28  O   UNL     1      -7.496  20.074  66.174  1.00  0.00    -0.285 OA 
HETATM   29  N   UNL     1      -6.996  18.963  65.455  1.00  0.00    -0.185 N  
HETATM   30  O   UNL     1      -6.268  19.296  64.516  1.00  0.00    -0.403 OA 
HETATM   31  O   UNL     1      -7.324  17.847  65.837  1.00  0.00    -0.436 OA 
ENDBRANCH  27  28
ENDBRANCH  26  27
ENDBRANCH  25  26
ENDBRANCH  24  25
ENDBRANCH  23  24
ENDBRANCH  21  23
ENDBRANCH  20  21
ENDBRANCH  19  20
ENDBRANCH  18  19
ENDBRANCH  17  18
ENDBRANCH  15  16
ENDBRANCH   8  15
ENDBRANCH   5   6
ENDBRANCH   4   5
ENDBRANCH   2   4
BRANCH   2  32
HETATM   32  C   UNL     1     -10.041  10.597  66.417  1.00  0.00    -0.279 C  
BRANCH  32  33
HETATM   33  C   UNL     1      -9.524  12.023  66.566  1.00  0.00    -0.234 C  
BRANCH  33  34
HETATM   34  C   UNL     1     -10.464  12.964  65.887  1.00  0.00    -0.294 A  
HETATM   35  C   UNL     1     -12.573  13.350  64.770  1.00  0.00    -0.370 A  
HETATM   36  C   UNL     1     -10.911  15.105  64.884  1.00  0.00    -0.434 A  
HETATM   37  C   UNL     1     -11.723  12.503  65.475  1.00  0.00    -0.457 A  
HETATM   38  C   UNL     1     -10.059  14.264  65.588  1.00  0.00    -0.364 A  
HETATM   39  C   UNL     1     -12.167  14.650  64.475  1.00  0.00    -0.473 A  
ENDBRANCH  33  34
ENDBRANCH  32  33
ENDBRANCH   2  32
TORSDOF 18
ENDMDL
MODEL       68
REMARK 921   NORMALIZED FREE ENERGY PREDICTED BY IDOCK:   -5.05 KCAL/MOL
REMARK 922        TOTAL FREE ENERGY PREDICTED BY IDOCK:  -15.16 KCAL/MOL
REMARK 923 INTER-LIGAND FREE ENERGY PREDICTED BY IDOCK:  -11.93 KCAL/MOL
REMARK 924 INTRA-LIGAND FREE ENERGY PREDICTED BY IDOCK:   -3.22 KCAL/MOL
REMARK 927      BINDING AFFINITY PREDICTED BY RF-SCORE:    0.00 PKD
ROOT
HETATM    1  O   UNL     1     -11.135   6.381  66.561  1.00  0.00    -0.658 OA 
HETATM    2  C   UNL     1     -10.063   7.319  66.633  1.00  0.00    -0.168 C  
HETATM    3  H   UNL     1     -11.828   6.717  66.004  1.00  0.00     0.000 HD 
ENDROOT
BRANCH   2   4
HETATM    4  C   UNL     1      -8.939   6.773  67.535  1.00  0.00    -0.115 C  
BRANCH   4   5
HETATM    5  C   UNL     1      -9.387   5.752  68.587  1.00  0.00    -0.136 C  
BRANCH   5   6
HETATM    6  C   UNL     1      -9.756   6.322  69.977  1.00  0.00    -0.193 C  
HETATM    7  H   UNL     1      -8.990   6.024  73.914  1.00  0.00     0.000 HD 
HETATM    8  C   UNL     1      -8.951   5.803  71.243  1.00  0.00    -0.147 C  
HETATM    9  C   UNL     1     -11.207   5.936  70.292  1.00  0.00    -0.247 C  
HETATM   10  C   UNL     1     -11.333   6.191  71.766  1.00  0.00    -0.346 C  
HETATM   11  O   UNL     1     -12.146   6.726  69.587  1.00  0.00    -0.635 OA 
HETATM   12  O   UNL     1      -9.799   6.361  73.548  1.00  0.00    -0.161 OA 
HETATM   13  H   UNL     1     -13.045   6.488  69.782  1.00  0.00     0.000 HD 
HETATM   14  C   UNL     1     -10.043   5.653  72.349  1.00  0.00    -0.180 C  
BRANCH   8  15
HETATM   15  C   UNL     1      -7.713   6.664  71.651  1.00  0.00    -0.098 C  
BRANCH  15  16
HETATM   16  C   UNL     1      -7.573   7.993  70.931  1.00  0.00    -0.078 C  
HETATM   17  C   UNL     1      -8.382   9.069  70.873  1.00  0.00    -0.238 C  
BRANCH  17  18
HETATM   18  C   UNL     1      -9.723   9.278  71.517  1.00  0.00    -0.210 C  
BRANCH  18  19
HETATM   19  C   UNL     1     -10.742   9.906  70.552  1.00  0.00    -0.382 C  
BRANCH  19  20
HETATM   20  C   UNL     1     -12.103  10.191  71.174  1.00  0.00    -0.485 C  
BRANCH  20  21
HETATM   21  C   UNL     1     -12.436  11.648  71.095  1.00  0.00    -0.307 C  
HETATM   22  O   UNL     1     -11.989  12.453  70.287  1.00  0.00    -0.349 OA 
BRANCH  21  23
HETATM   23  O   UNL     1     -13.212  11.963  72.168  1.00  0.00    -0.494 OA 
BRANCH  23  24
HETATM   24  C   UNL     1     -13.719  13.275  72.034  1.00  0.00    -0.430 C  
BRANCH  24  25
HETATM   25  C   UNL     1     -13.111  14.242  73.027  1.00  0.00    -0.526 C  
BRANCH  25  26
HETATM   26  C   UNL     1     -13.061  15.676  72.506  1.00  0.00    -0.559 C  
BRANCH  26  27
HETATM   27  C   UNL     1     -11.922  15.969  71.519  1.00  0.00    -0.475 C  
BRANCH  27  28
HETATM   28  O   UNL     1     -12.368  15.700  70.208  1.00  0.00    -0.400 OA 
HETATM   29  N   UNL     1     -11.336  15.830  69.249  1.00  0.00    -0.324 N  
HETATM   30  O   UNL     1     -11.738  15.659  68.096  1.00  0.00    -0.331 OA 
HETATM   31  O   UNL     1     -10.213  16.093  69.659  1.00  0.00    -0.260 OA 
ENDBRANCH  27  28
ENDBRANCH  26  27
ENDBRANCH  25  26
ENDBRANCH  24  25
ENDBRANCH  23  24
ENDBRANCH  21  23
ENDBRANCH  20  21
ENDBRANCH  19  20
ENDBRANCH  18  19
ENDBRANCH  17  18
ENDBRANCH  15  16
ENDBRANCH   8  15
ENDBRANCH   5   6
ENDBRANCH   4   5
ENDBRANCH   2   4
BRANCH   2  32
HETATM   32  C   UNL     1     -10.648   8.609  67.189  1.00  0.00    -0.304 C  
BRANCH  32  33
HETATM   33  C   UNL     1      -9.729   9.799  66.937  1.00  0.00    -0.243 C  
BRANCH  33  34
HETATM   34  C   UNL     1     -10.445  10.809  66.101  1.00  0.00    -0.278 A  
HETATM   35  C   UNL     1     -12.048  12.611  65.936  1.00  0.00    -0.459 A  
HETATM   36  C   UNL     1     -11.048  11.678  63.940  1.00  0.00    -0.477 A  
HETATM   37  C   UNL     1     -11.316  11.721  66.716  1.00  0.00    -0.385 A  
HETATM   38  C   UNL     1     -10.315  10.787  64.713  1.00  0.00    -0.380 A  
HETATM   39  C   UNL     1     -11.914  12.589  64.549  1.00  0.00    -0.472 A  
ENDBRANCH  33  34
ENDBRANCH  32  33
ENDBRANCH   2  32
TORSDOF 18
ENDMDL
MODEL       69
REMARK 921   NORMALIZED FREE ENERGY PREDICTED BY IDOCK:   -5.05 KCAL/MOL
REMARK 922        TOTAL FREE ENERGY PREDICTED BY IDOCK:  -15.15 KCAL/MOL
REMARK 923 INTER-LIGAND FREE ENERGY PREDICTED BY IDOCK:  -10.78 KCAL/MOL
REMARK 924 INTRA-LIGAND FREE ENERGY PREDICTED BY IDOCK:   -4.37 KCAL/MOL
REMARK 927      BINDING AFFINITY PREDICTED BY RF-SCORE:    0.00 PKD
ROOT
HETATM    1  O   UNL     1     -10.119  13.511  64.859  1.00  0.00    -0.528 OA 
HETATM    2  C   UNL     1     -11.186  14.458  64.876  1.00  0.00    -0.389 C  
HETATM    3  H   UNL     1     -10.464  12.631  64.764  1.00  0.00     0.000 HD 
ENDROOT
BRANCH   2   4
HETATM    4  C   UNL     1     -10.628  15.886  65.030  1.00  0.00    -0.372 C  
BRANCH   4   5
HETATM    5  C   UNL     1     -10.795  16.502  66.423  1.00  0.00    -0.042 C  
BRANCH   5   6
HETATM    6  C   UNL     1      -9.778  17.602  66.809  1.00  0.00    -0.300 C  
HETATM    7  H   UNL     1      -7.482  18.990  69.805  1.00  0.00     0.000 HD 
HETATM    8  C   UNL     1      -9.101  17.533  68.244  1.00  0.00    -0.274 C  
HETATM    9  C   UNL     1     -10.502  18.954  66.818  1.00  0.00    -0.428 C  
HETATM   10  C   UNL     1      -9.558  19.860  67.554  1.00  0.00    -0.493 C  
HETATM   11  O   UNL     1     -10.732  19.458  65.516  1.00  0.00    -0.456 OA 
HETATM   12  O   UNL     1      -7.791  19.516  69.077  1.00  0.00    -0.363 OA 
HETATM   13  H   UNL     1     -11.180  20.296  65.522  1.00  0.00     0.000 HD 
HETATM   14  C   UNL     1      -9.065  19.022  68.715  1.00  0.00    -0.333 C  
BRANCH   8  15
HETATM   15  C   UNL     1      -7.729  16.789  68.305  1.00  0.00    -0.187 C  
BRANCH  15  16
HETATM   16  C   UNL     1      -7.526  15.702  67.265  1.00  0.00    -0.257 C  
HETATM   17  C   UNL     1      -7.850  14.393  67.263  1.00  0.00    -0.188 C  
BRANCH  17  18
HETATM   18  C   UNL     1      -8.522  13.585  68.337  1.00  0.00    -0.143 C  
BRANCH  18  19
HETATM   19  C   UNL     1      -8.316  12.075  68.145  1.00  0.00    -0.165 C  
BRANCH  19  20
HETATM   20  C   UNL     1      -7.213  11.711  67.159  1.00  0.00    -0.145 C  
BRANCH  20  21
HETATM   21  C   UNL     1      -7.689  10.695  66.169  1.00  0.00    -0.145 C  
HETATM   22  O   UNL     1      -7.002   9.852  65.605  1.00  0.00    -0.095 OA 
BRANCH  21  23
HETATM   23  O   UNL     1      -8.995  10.959  65.888  1.00  0.00    -0.180 OA 
BRANCH  23  24
HETATM   24  C   UNL     1      -9.682   9.760  65.597  1.00  0.00    -0.288 C  
BRANCH  24  25
HETATM   25  C   UNL     1     -10.140   9.031  66.841  1.00  0.00    -0.338 C  
BRANCH  25  26
HETATM   26  C   UNL     1      -9.853   7.532  66.791  1.00  0.00    -0.295 C  
BRANCH  26  27
HETATM   27  C   UNL     1      -9.781   6.838  68.159  1.00  0.00    -0.129 C  
BRANCH  27  28
HETATM   28  O   UNL     1     -10.069   7.781  69.168  1.00  0.00    -0.185 OA 
HETATM   29  N   UNL     1     -11.063   7.324  70.066  1.00  0.00    -0.260 N  
HETATM   30  O   UNL     1     -11.363   8.172  70.910  1.00  0.00    -0.264 OA 
HETATM   31  O   UNL     1     -11.496   6.191  69.901  1.00  0.00    -0.421 OA 
ENDBRANCH  27  28
ENDBRANCH  26  27
ENDBRANCH  25  26
ENDBRANCH  24  25
ENDBRANCH  23  24
ENDBRANCH  21  23
ENDBRANCH  20  21
ENDBRANCH  19  20
ENDBRANCH  18  19
ENDBRANCH  17  18
ENDBRANCH  15  16
ENDBRANCH   8  15
ENDBRANCH   5   6
ENDBRANCH   4   5
ENDBRANCH   2   4
BRANCH   2  32
HETATM   32  C   UNL     1     -12.087  14.081  66.043  1.00  0.00    -0.461 C  
BRANCH  32  33
HETATM   33  C   UNL     1     -11.707  12.729  66.636  1.00  0.00    -0.459 C  
BRANCH  33  34
HETATM   34  C   UNL     1     -11.901  12.766  68.116  1.00  0.00    -0.372 A  
HETATM   35  C   UNL     1     -12.295  11.591  70.192  1.00  0.00    -0.323 A  
HETATM   36  C   UNL     1     -12.296  14.010  70.138  1.00  0.00    -0.409 A  
HETATM   37  C   UNL     1     -12.034  11.563  68.825  1.00  0.00    -0.335 A  
HETATM   38  C   UNL     1     -12.035  13.988  68.773  1.00  0.00    -0.382 A  
HETATM   39  C   UNL     1     -12.426  12.814  70.847  1.00  0.00    -0.373 A  
ENDBRANCH  33  34
ENDBRANCH  32  33
ENDBRANCH   2  32
TORSDOF 18
ENDMDL
MODEL       70
REMARK 921   NORMALIZED FREE ENERGY PREDICTED BY IDOCK:   -5.04 KCAL/MOL
REMARK 922        TOTAL FREE ENERGY PREDICTED BY IDOCK:  -15.13 KCAL/MOL
REMARK 923 INTER-LIGAND FREE ENERGY PREDICTED BY IDOCK:  -12.12 KCAL/MOL
REMARK 924 INTRA-LIGAND FREE ENERGY PREDICTED BY IDOCK:   -3.01 KCAL/MOL
REMARK 927      BINDING AFFINITY PREDICTED BY RF-SCORE:    0.00 PKD
ROOT
HETATM    1  O   UNL     1     -11.852  14.231  66.094  1.00  0.00    -0.378 OA 
HETATM    2  C   UNL     1     -10.660  13.716  66.683  1.00  0.00    -0.277 C  
HETATM    3  H   UNL     1     -11.685  14.505  65.200  1.00  0.00     0.000 HD 
ENDROOT
BRANCH   2   4
HETATM    4  C   UNL     1     -10.931  13.272  68.134  1.00  0.00    -0.278 C  
BRANCH   4   5
HETATM    5  C   UNL     1     -12.151  13.923  68.795  1.00  0.00    -0.344 C  
BRANCH   5   6
HETATM    6  C   UNL     1     -12.021  14.241  70.303  1.00  0.00    -0.398 C  
HETATM    7  H   UNL     1     -14.018  14.285  73.794  1.00  0.00     0.000 HD 
HETATM    8  C   UNL     1     -13.255  13.923  71.250  1.00  0.00    -0.352 C  
HETATM    9  C   UNL     1     -11.822  15.753  70.467  1.00  0.00    -0.375 C  
HETATM   10  C   UNL     1     -12.087  15.992  71.925  1.00  0.00    -0.590 C  
HETATM   11  O   UNL     1     -10.508  16.168  70.145  1.00  0.00    -0.255 OA 
HETATM   12  O   UNL     1     -13.255  14.820  73.604  1.00  0.00    -0.482 OA 
HETATM   13  H   UNL     1     -10.384  17.104  70.247  1.00  0.00     0.000 HD 
HETATM   14  C   UNL     1     -13.302  15.141  72.228  1.00  0.00    -0.408 C  
BRANCH   8  15
HETATM   15  C   UNL     1     -13.229  12.523  71.942  1.00  0.00    -0.495 C  
BRANCH  15  16
HETATM   16  C   UNL     1     -12.670  11.388  71.103  1.00  0.00    -0.479 C  
HETATM   17  C   UNL     1     -12.854  10.054  71.165  1.00  0.00    -0.480 C  
BRANCH  17  18
HETATM   18  C   UNL     1     -13.688   9.260  72.130  1.00  0.00    -0.517 C  
BRANCH  18  19
HETATM   19  C   UNL     1     -13.811   7.785  71.718  1.00  0.00    -0.440 C  
BRANCH  19  20
HETATM   20  C   UNL     1     -12.580   7.224  71.018  1.00  0.00    -0.304 C  
BRANCH  20  21
HETATM   21  C   UNL     1     -11.636   6.605  72.001  1.00  0.00    -0.301 C  
HETATM   22  O   UNL     1     -11.806   5.555  72.610  1.00  0.00    -0.274 OA 
BRANCH  21  23
HETATM   23  O   UNL     1     -10.616   7.480  72.216  1.00  0.00    -0.214 OA 
BRANCH  23  24
HETATM   24  C   UNL     1     -10.002   7.822  70.991  1.00  0.00    -0.177 C  
BRANCH  24  25
HETATM   25  C   UNL     1      -9.273   9.147  71.050  1.00  0.00    -0.321 C  
BRANCH  25  26
HETATM   26  C   UNL     1      -9.418   9.963  69.768  1.00  0.00    -0.254 C  
BRANCH  26  27
HETATM   27  C   UNL     1     -10.360   9.359  68.717  1.00  0.00    -0.209 C  
BRANCH  27  28
HETATM   28  O   UNL     1      -9.648   9.174  67.513  1.00  0.00    -0.143 OA 
HETATM   29  N   UNL     1      -9.809   7.871  66.985  1.00  0.00    -0.203 N  
HETATM   30  O   UNL     1      -9.137   7.687  65.968  1.00  0.00    -0.166 OA 
HETATM   31  O   UNL     1     -10.560   7.109  67.580  1.00  0.00    -0.230 OA 
ENDBRANCH  27  28
ENDBRANCH  26  27
ENDBRANCH  25  26
ENDBRANCH  24  25
ENDBRANCH  23  24
ENDBRANCH  21  23
ENDBRANCH  20  21
ENDBRANCH  19  20
ENDBRANCH  18  19
ENDBRANCH  17  18
ENDBRANCH  15  16
ENDBRANCH   8  15
ENDBRANCH   5   6
ENDBRANCH   4   5
ENDBRANCH   2   4
BRANCH   2  32
HETATM   32  C   UNL     1      -9.627  14.833  66.625  1.00  0.00    -0.289 C  
BRANCH  32  33
HETATM   33  C   UNL     1     -10.228  16.131  66.098  1.00  0.00    -0.351 C  
BRANCH  33  34
HETATM   34  C   UNL     1      -9.834  17.258  66.996  1.00  0.00    -0.281 A  
HETATM   35  C   UNL     1     -10.345  19.403  67.987  1.00  0.00    -0.536 A  
HETATM   36  C   UNL     1      -8.168  18.397  68.306  1.00  0.00    -0.317 A  
HETATM   37  C   UNL     1     -10.734  18.310  67.217  1.00  0.00    -0.366 A  
HETATM   38  C   UNL     1      -8.551  17.304  67.538  1.00  0.00    -0.213 A  
HETATM   39  C   UNL     1      -9.063  19.445  68.530  1.00  0.00    -0.426 A  
ENDBRANCH  33  34
ENDBRANCH  32  33
ENDBRANCH   2  32
TORSDOF 18
ENDMDL
MODEL       71
REMARK 921   NORMALIZED FREE ENERGY PREDICTED BY IDOCK:   -5.03 KCAL/MOL
REMARK 922        TOTAL FREE ENERGY PREDICTED BY IDOCK:  -15.12 KCAL/MOL
REMARK 923 INTER-LIGAND FREE ENERGY PREDICTED BY IDOCK:  -12.53 KCAL/MOL
REMARK 924 INTRA-LIGAND FREE ENERGY PREDICTED BY IDOCK:   -2.59 KCAL/MOL
REMARK 927      BINDING AFFINITY PREDICTED BY RF-SCORE:    0.00 PKD
ROOT
HETATM    1  O   UNL     1      -8.524   8.417  66.093  1.00  0.00    -0.117 OA 
HETATM    2  C   UNL     1      -8.820   9.123  67.296  1.00  0.00    -0.124 C  
HETATM    3  H   UNL     1      -7.740   8.772  65.689  1.00  0.00     0.000 HD 
ENDROOT
BRANCH   2   4
HETATM    4  C   UNL     1     -10.091   8.547  67.951  1.00  0.00    -0.258 C  
BRANCH   4   5
HETATM    5  C   UNL     1     -10.806   7.461  67.139  1.00  0.00    -0.340 C  
BRANCH   5   6
HETATM    6  C   UNL     1     -10.830   6.047  67.763  1.00  0.00    -0.380 C  
HETATM    7  H   UNL     1      -9.363   3.795  70.755  1.00  0.00     0.000 HD 
HETATM    8  C   UNL     1     -10.041   5.807  69.120  1.00  0.00    -0.257 C  
HETATM    9  C   UNL     1     -10.165   5.071  66.784  1.00  0.00    -0.248 C  
HETATM   10  C   UNL     1      -9.901   3.851  67.618  1.00  0.00    -0.069 C  
HETATM   11  O   UNL     1     -11.005   4.734  65.696  1.00  0.00    -0.734 OA 
HETATM   12  O   UNL     1      -9.687   3.449  69.932  1.00  0.00    -0.161 OA 
HETATM   13  H   UNL     1     -10.593   4.130  65.090  1.00  0.00     0.000 HD 
HETATM   14  C   UNL     1      -9.386   4.402  68.931  1.00  0.00    -0.153 C  
BRANCH   8  15
HETATM   15  C   UNL     1     -10.882   5.972  70.426  1.00  0.00    -0.386 C  
BRANCH  15  16
HETATM   16  C   UNL     1     -10.206   6.738  71.548  1.00  0.00    -0.210 C  
HETATM   17  C   UNL     1     -10.646   7.734  72.344  1.00  0.00    -0.336 C  
BRANCH  17  18
HETATM   18  C   UNL     1     -11.982   8.419  72.348  1.00  0.00    -0.451 C  
BRANCH  18  19
HETATM   19  C   UNL     1     -12.001   9.666  71.449  1.00  0.00    -0.480 C  
BRANCH  19  20
HETATM   20  C   UNL     1     -13.102  10.664  71.784  1.00  0.00    -0.571 C  
BRANCH  20  21
HETATM   21  C   UNL     1     -12.699  12.056  71.407  1.00  0.00    -0.275 C  
HETATM   22  O   UNL     1     -12.138  12.395  70.373  1.00  0.00    -0.359 OA 
BRANCH  21  23
HETATM   23  O   UNL     1     -12.931  12.866  72.476  1.00  0.00    -0.247 OA 
BRANCH  23  24
HETATM   24  C   UNL     1     -14.157  13.547  72.313  1.00  0.00    -0.465 C  
BRANCH  24  25
HETATM   25  C   UNL     1     -13.976  14.986  71.881  1.00  0.00    -0.604 C  
BRANCH  25  26
HETATM   26  C   UNL     1     -12.743  15.641  72.498  1.00  0.00    -0.526 C  
BRANCH  26  27
HETATM   27  C   UNL     1     -11.578  15.878  71.526  1.00  0.00    -0.465 C  
BRANCH  27  28
HETATM   28  O   UNL     1     -12.076  15.891  70.206  1.00  0.00    -0.353 OA 
HETATM   29  N   UNL     1     -11.043  15.885  69.239  1.00  0.00    -0.288 N  
HETATM   30  O   UNL     1     -11.475  15.962  68.086  1.00  0.00    -0.350 OA 
HETATM   31  O   UNL     1      -9.890  15.815  69.643  1.00  0.00    -0.276 OA 
ENDBRANCH  27  28
ENDBRANCH  26  27
ENDBRANCH  25  26
ENDBRANCH  24  25
ENDBRANCH  23  24
ENDBRANCH  21  23
ENDBRANCH  20  21
ENDBRANCH  19  20
ENDBRANCH  18  19
ENDBRANCH  17  18
ENDBRANCH  15  16
ENDBRANCH   8  15
ENDBRANCH   5   6
ENDBRANCH   4   5
ENDBRANCH   2   4
BRANCH   2  32
HETATM   32  C   UNL     1      -9.004  10.584  66.912  1.00  0.00    -0.151 C  
BRANCH  32  33
HETATM   33  C   UNL     1     -10.431  11.058  67.162  1.00  0.00    -0.274 C  
BRANCH  33  34
HETATM   34  C   UNL     1     -10.985  11.641  65.904  1.00  0.00    -0.334 A  
HETATM   35  C   UNL     1     -12.707  12.918  64.786  1.00  0.00    -0.442 A  
HETATM   36  C   UNL     1     -10.982  11.808  63.503  1.00  0.00    -0.499 A  
HETATM   37  C   UNL     1     -12.139  12.437  65.962  1.00  0.00    -0.327 A  
HETATM   38  C   UNL     1     -10.410  11.325  64.674  1.00  0.00    -0.373 A  
HETATM   39  C   UNL     1     -12.129  12.603  63.558  1.00  0.00    -0.648 A  
ENDBRANCH  33  34
ENDBRANCH  32  33
ENDBRANCH   2  32
TORSDOF 18
ENDMDL
MODEL       72
REMARK 921   NORMALIZED FREE ENERGY PREDICTED BY IDOCK:   -5.03 KCAL/MOL
REMARK 922        TOTAL FREE ENERGY PREDICTED BY IDOCK:  -15.11 KCAL/MOL
REMARK 923 INTER-LIGAND FREE ENERGY PREDICTED BY IDOCK:  -10.47 KCAL/MOL
REMARK 924 INTRA-LIGAND FREE ENERGY PREDICTED BY IDOCK:   -4.65 KCAL/MOL
REMARK 927      BINDING AFFINITY PREDICTED BY RF-SCORE:    0.00 PKD
ROOT
HETATM    1  O   UNL     1     -12.081  14.018  63.328  1.00  0.00    -0.940 OA 
HETATM    2  C   UNL     1     -11.958  14.670  64.591  1.00  0.00    -0.462 C  
HETATM    3  H   UNL     1     -12.998  13.922  63.098  1.00  0.00     0.000 HD 
ENDROOT
BRANCH   2   4
HETATM    4  C   UNL     1     -10.471  14.828  64.965  1.00  0.00    -0.443 C  
BRANCH   4   5
HETATM    5  C   UNL     1     -10.098  16.172  65.598  1.00  0.00    -0.366 C  
BRANCH   5   6
HETATM    6  C   UNL     1      -8.867  16.168  66.534  1.00  0.00    -0.331 C  
HETATM    7  H   UNL     1      -7.697  15.726  70.356  1.00  0.00     0.000 HD 
HETATM    8  C   UNL     1      -9.082  15.800  68.063  1.00  0.00    -0.187 C  
HETATM    9  C   UNL     1      -8.288  17.588  66.584  1.00  0.00    -0.261 C  
HETATM   10  C   UNL     1      -7.373  17.559  67.774  1.00  0.00    -0.192 C  
HETATM   11  O   UNL     1      -7.552  17.918  65.422  1.00  0.00    -0.377 OA 
HETATM   12  O   UNL     1      -7.208  16.205  69.697  1.00  0.00    -0.185 OA 
HETATM   13  H   UNL     1      -7.193  18.797  65.453  1.00  0.00     0.000 HD 
HETATM   14  C   UNL     1      -8.151  16.796  68.825  1.00  0.00    -0.252 C  
BRANCH   8  15
HETATM   15  C   UNL     1      -8.877  14.295  68.428  1.00  0.00    -0.187 C  
BRANCH  15  16
HETATM   16  C   UNL     1      -8.229  13.443  67.352  1.00  0.00    -0.188 C  
HETATM   17  C   UNL     1      -7.692  12.207  67.392  1.00  0.00    -0.165 C  
BRANCH  17  18
HETATM   18  C   UNL     1      -7.556  11.274  68.562  1.00  0.00    -0.123 C  
BRANCH  18  19
HETATM   19  C   UNL     1      -7.679   9.799  68.148  1.00  0.00    -0.082 C  
BRANCH  19  20
HETATM   20  C   UNL     1      -7.634   9.562  66.644  1.00  0.00    -0.097 C  
BRANCH  20  21
HETATM   21  C   UNL     1      -8.297   8.270  66.283  1.00  0.00    -0.124 C  
HETATM   22  O   UNL     1      -8.442   7.819  65.153  1.00  0.00    -0.134 OA 
BRANCH  21  23
HETATM   23  O   UNL     1      -8.843   7.745  67.413  1.00  0.00    -0.126 OA 
BRANCH  23  24
HETATM   24  C   UNL     1     -10.088   7.146  67.119  1.00  0.00    -0.225 C  
BRANCH  24  25
HETATM   25  C   UNL     1     -10.838   6.713  68.360  1.00  0.00    -0.320 C  
BRANCH  25  26
HETATM   26  C   UNL     1     -10.061   6.978  69.647  1.00  0.00    -0.194 C  
BRANCH  26  27
HETATM   27  C   UNL     1     -10.848   6.732  70.943  1.00  0.00    -0.249 C  
BRANCH  27  28
HETATM   28  O   UNL     1     -12.164   7.212  70.779  1.00  0.00    -0.327 OA 
HETATM   29  N   UNL     1     -12.438   8.329  71.604  1.00  0.00    -0.309 N  
HETATM   30  O   UNL     1     -13.608   8.710  71.511  1.00  0.00    -0.354 OA 
HETATM   31  O   UNL     1     -11.523   8.763  72.291  1.00  0.00    -0.362 OA 
ENDBRANCH  27  28
ENDBRANCH  26  27
ENDBRANCH  25  26
ENDBRANCH  24  25
ENDBRANCH  23  24
ENDBRANCH  21  23
ENDBRANCH  20  21
ENDBRANCH  19  20
ENDBRANCH  18  19
ENDBRANCH  17  18
ENDBRANCH  15  16
ENDBRANCH   8  15
ENDBRANCH   5   6
ENDBRANCH   4   5
ENDBRANCH   2   4
BRANCH   2  32
HETATM   32  C   UNL     1     -12.699  13.809  65.603  1.00  0.00    -0.523 C  
BRANCH  32  33
HETATM   33  C   UNL     1     -12.224  14.075  67.026  1.00  0.00    -0.387 C  
BRANCH  33  34
HETATM   34  C   UNL     1     -11.912  12.775  67.694  1.00  0.00    -0.331 A  
HETATM   35  C   UNL     1     -11.590  11.507  69.727  1.00  0.00    -0.401 A  
HETATM   36  C   UNL     1     -11.130  10.503  67.573  1.00  0.00    -0.358 A  
HETATM   37  C   UNL     1     -11.957  12.690  69.093  1.00  0.00    -0.293 A  
HETATM   38  C   UNL     1     -11.496  11.682  66.936  1.00  0.00    -0.320 A  
HETATM   39  C   UNL     1     -11.177  10.414  68.967  1.00  0.00    -0.289 A  
ENDBRANCH  33  34
ENDBRANCH  32  33
ENDBRANCH   2  32
TORSDOF 18
ENDMDL
MODEL       73
REMARK 921   NORMALIZED FREE ENERGY PREDICTED BY IDOCK:   -5.02 KCAL/MOL
REMARK 922        TOTAL FREE ENERGY PREDICTED BY IDOCK:  -15.09 KCAL/MOL
REMARK 923 INTER-LIGAND FREE ENERGY PREDICTED BY IDOCK:  -12.03 KCAL/MOL
REMARK 924 INTRA-LIGAND FREE ENERGY PREDICTED BY IDOCK:   -3.06 KCAL/MOL
REMARK 927      BINDING AFFINITY PREDICTED BY RF-SCORE:    0.00 PKD
ROOT
HETATM    1  O   UNL     1     -13.477   9.744  70.611  1.00  0.00    -0.619 OA 
HETATM    2  C   UNL     1     -12.423   9.746  71.572  1.00  0.00    -0.403 C  
HETATM    3  H   UNL     1     -14.318   9.679  71.048  1.00  0.00     0.000 HD 
ENDROOT
BRANCH   2   4
HETATM    4  C   UNL     1     -11.058   9.851  70.864  1.00  0.00    -0.418 C  
BRANCH   4   5
HETATM    5  C   UNL     1      -9.904   9.126  71.565  1.00  0.00    -0.335 C  
BRANCH   5   6
HETATM    6  C   UNL     1      -8.579   9.029  70.775  1.00  0.00    -0.259 C  
HETATM    7  H   UNL     1      -6.893   7.556  67.434  1.00  0.00     0.000 HD 
HETATM    8  C   UNL     1      -8.600   8.334  69.348  1.00  0.00    -0.134 C  
HETATM    9  C   UNL     1      -7.594   8.169  71.578  1.00  0.00    -0.083 C  
HETATM   10  C   UNL     1      -6.522   7.829  70.584  1.00  0.00    -0.038 C  
HETATM   11  O   UNL     1      -7.029   8.866  72.672  1.00  0.00    -0.319 OA 
HETATM   12  O   UNL     1      -6.417   7.764  68.229  1.00  0.00    -0.053 OA 
HETATM   13  H   UNL     1      -6.419   8.333  73.169  1.00  0.00     0.000 HD 
HETATM   14  C   UNL     1      -7.281   7.498  69.316  1.00  0.00    -0.086 C  
BRANCH   8  15
HETATM   15  C   UNL     1      -8.800   9.297  68.134  1.00  0.00    -0.129 C  
BRANCH  15  16
HETATM   16  C   UNL     1      -9.810   8.843  67.096  1.00  0.00    -0.267 C  
HETATM   17  C   UNL     1     -10.066   9.277  65.846  1.00  0.00    -0.188 C  
BRANCH  17  18
HETATM   18  C   UNL     1      -9.413  10.394  65.082  1.00  0.00    -0.303 C  
BRANCH  18  19
HETATM   19  C   UNL     1     -10.180  10.749  63.799  1.00  0.00    -0.354 C  
BRANCH  19  20
HETATM   20  C   UNL     1     -10.758  12.158  63.782  1.00  0.00    -0.488 C  
BRANCH  20  21
HETATM   21  C   UNL     1     -12.209  12.149  64.154  1.00  0.00    -0.413 C  
HETATM   22  O   UNL     1     -13.157  12.145  63.378  1.00  0.00    -0.752 OA 
BRANCH  21  23
HETATM   23  O   UNL     1     -12.300  12.292  65.504  1.00  0.00    -0.602 OA 
BRANCH  23  24
HETATM   24  C   UNL     1     -12.644  13.622  65.830  1.00  0.00    -0.425 C  
BRANCH  24  25
HETATM   25  C   UNL     1     -12.033  14.083  67.136  1.00  0.00    -0.465 C  
BRANCH  25  26
HETATM   26  C   UNL     1     -10.683  14.772  66.951  1.00  0.00    -0.308 C  
BRANCH  26  27
HETATM   27  C   UNL     1     -10.630  15.801  65.813  1.00  0.00    -0.355 C  
BRANCH  27  28
HETATM   28  O   UNL     1      -9.309  16.282  65.690  1.00  0.00    -0.457 OA 
HETATM   29  N   UNL     1      -9.189  17.635  66.085  1.00  0.00    -0.177 N  
HETATM   30  O   UNL     1      -8.050  18.077  65.917  1.00  0.00    -0.519 OA 
HETATM   31  O   UNL     1     -10.191  18.188  66.521  1.00  0.00    -0.353 OA 
ENDBRANCH  27  28
ENDBRANCH  26  27
ENDBRANCH  25  26
ENDBRANCH  24  25
ENDBRANCH  23  24
ENDBRANCH  21  23
ENDBRANCH  20  21
ENDBRANCH  19  20
ENDBRANCH  18  19
ENDBRANCH  17  18
ENDBRANCH  15  16
ENDBRANCH   8  15
ENDBRANCH   5   6
ENDBRANCH   4   5
ENDBRANCH   2   4
BRANCH   2  32
HETATM   32  C   UNL     1     -12.546   8.449  72.359  1.00  0.00    -0.372 C  
BRANCH  32  33
HETATM   33  C   UNL     1     -13.040   7.303  71.484  1.00  0.00    -0.434 C  
BRANCH  33  34
HETATM   34  C   UNL     1     -11.872   6.497  71.019  1.00  0.00    -0.390 A  
HETATM   35  C   UNL     1     -10.578   5.570  69.200  1.00  0.00    -0.300 A  
HETATM   36  C   UNL     1     -10.063   4.981  71.490  1.00  0.00    -0.263 A  
HETATM   37  C   UNL     1     -11.615   6.384  69.645  1.00  0.00    -0.351 A  
HETATM   38  C   UNL     1     -11.098   5.793  71.940  1.00  0.00    -0.308 A  
HETATM   39  C   UNL     1      -9.803   4.869  70.122  1.00  0.00    -0.309 A  
ENDBRANCH  33  34
ENDBRANCH  32  33
ENDBRANCH   2  32
TORSDOF 18
ENDMDL
MODEL       74
REMARK 921   NORMALIZED FREE ENERGY PREDICTED BY IDOCK:   -5.02 KCAL/MOL
REMARK 922        TOTAL FREE ENERGY PREDICTED BY IDOCK:  -15.08 KCAL/MOL
REMARK 923 INTER-LIGAND FREE ENERGY PREDICTED BY IDOCK:  -10.85 KCAL/MOL
REMARK 924 INTRA-LIGAND FREE ENERGY PREDICTED BY IDOCK:   -4.23 KCAL/MOL
REMARK 927      BINDING AFFINITY PREDICTED BY RF-SCORE:    0.00 PKD
ROOT
HETATM    1  O   UNL     1      -6.378   8.731  68.674  1.00  0.00    -0.052 OA 
HETATM    2  C   UNL     1      -7.024   9.880  68.130  1.00  0.00    -0.076 C  
HETATM    3  H   UNL     1      -5.617   8.505  68.151  1.00  0.00     0.000 HD 
ENDROOT
BRANCH   2   4
HETATM    4  C   UNL     1      -8.257  10.247  68.978  1.00  0.00    -0.139 C  
BRANCH   4   5
HETATM    5  C   UNL     1      -8.413   9.451  70.278  1.00  0.00    -0.237 C  
BRANCH   5   6
HETATM    6  C   UNL     1      -9.510   8.361  70.284  1.00  0.00    -0.168 C  
HETATM    7  H   UNL     1     -12.725   7.001  72.281  1.00  0.00     0.000 HD 
HETATM    8  C   UNL     1     -10.648   8.440  71.388  1.00  0.00    -0.296 C  
HETATM    9  C   UNL     1      -8.846   7.003  70.550  1.00  0.00    -0.154 C  
HETATM   10  C   UNL     1      -9.996   6.107  70.908  1.00  0.00    -0.223 C  
HETATM   11  O   UNL     1      -8.176   6.492  69.413  1.00  0.00    -0.116 OA 
HETATM   12  O   UNL     1     -12.183   6.470  71.709  1.00  0.00    -0.344 OA 
HETATM   13  H   UNL     1      -7.766   5.651  69.577  1.00  0.00     0.000 HD 
HETATM   14  C   UNL     1     -10.859   6.954  71.819  1.00  0.00    -0.225 C  
BRANCH   8  15
HETATM   15  C   UNL     1     -11.948   9.194  70.960  1.00  0.00    -0.344 C  
BRANCH  15  16
HETATM   16  C   UNL     1     -11.821  10.702  70.837  1.00  0.00    -0.433 C  
HETATM   17  C   UNL     1     -11.733  11.508  69.760  1.00  0.00    -0.426 C  
BRANCH  17  18
HETATM   18  C   UNL     1     -11.721  11.139  68.304  1.00  0.00    -0.323 C  
BRANCH  18  19
HETATM   19  C   UNL     1     -11.585  12.369  67.392  1.00  0.00    -0.433 C  
BRANCH  19  20
HETATM   20  C   UNL     1     -11.524  12.044  65.905  1.00  0.00    -0.392 C  
BRANCH  20  21
HETATM   21  C   UNL     1     -12.647  12.701  65.164  1.00  0.00    -0.386 C  
HETATM   22  O   UNL     1     -13.319  12.200  64.271  1.00  0.00    -0.761 OA 
BRANCH  21  23
HETATM   23  O   UNL     1     -12.702  14.005  65.550  1.00  0.00    -0.520 OA 
BRANCH  23  24
HETATM   24  C   UNL     1     -12.126  14.830  64.559  1.00  0.00    -0.446 C  
BRANCH  24  25
HETATM   25  C   UNL     1     -10.672  15.148  64.832  1.00  0.00    -0.421 C  
BRANCH  25  26
HETATM   26  C   UNL     1     -10.473  15.981  66.096  1.00  0.00    -0.334 C  
BRANCH  26  27
HETATM   27  C   UNL     1     -10.564  17.500  65.895  1.00  0.00    -0.203 C  
BRANCH  27  28
HETATM   28  O   UNL     1      -9.344  18.090  66.289  1.00  0.00    -0.401 OA 
HETATM   29  N   UNL     1      -9.497  18.957  67.396  1.00  0.00    -0.295 N  
HETATM   30  O   UNL     1      -8.445  19.523  67.702  1.00  0.00    -0.295 OA 
HETATM   31  O   UNL     1     -10.611  19.046  67.895  1.00  0.00    -0.399 OA 
ENDBRANCH  27  28
ENDBRANCH  26  27
ENDBRANCH  25  26
ENDBRANCH  24  25
ENDBRANCH  23  24
ENDBRANCH  21  23
ENDBRANCH  20  21
ENDBRANCH  19  20
ENDBRANCH  18  19
ENDBRANCH  17  18
ENDBRANCH  15  16
ENDBRANCH   8  15
ENDBRANCH   5   6
ENDBRANCH   4   5
ENDBRANCH   2   4
BRANCH   2  32
HETATM   32  C   UNL     1      -7.414   9.528  66.702  1.00  0.00    -0.093 C  
BRANCH  32  33
HETATM   33  C   UNL     1      -8.927   9.510  66.518  1.00  0.00    -0.173 C  
BRANCH  33  34
HETATM   34  C   UNL     1      -9.404   8.094  66.486  1.00  0.00    -0.262 A  
HETATM   35  C   UNL     1     -11.033   6.433  67.144  1.00  0.00    -0.476 A  
HETATM   36  C   UNL     1      -9.020   5.775  65.973  1.00  0.00    -0.157 A  
HETATM   37  C   UNL     1     -10.621   7.762  67.100  1.00  0.00    -0.401 A  
HETATM   38  C   UNL     1      -8.604   7.100  65.926  1.00  0.00    -0.157 A  
HETATM   39  C   UNL     1     -10.233   5.441  66.581  1.00  0.00    -0.285 A  
ENDBRANCH  33  34
ENDBRANCH  32  33
ENDBRANCH   2  32
TORSDOF 18
ENDMDL
MODEL       75
REMARK 921   NORMALIZED FREE ENERGY PREDICTED BY IDOCK:   -5.01 KCAL/MOL
REMARK 922        TOTAL FREE ENERGY PREDICTED BY IDOCK:  -15.07 KCAL/MOL
REMARK 923 INTER-LIGAND FREE ENERGY PREDICTED BY IDOCK:  -11.77 KCAL/MOL
REMARK 924 INTRA-LIGAND FREE ENERGY PREDICTED BY IDOCK:   -3.31 KCAL/MOL
REMARK 927      BINDING AFFINITY PREDICTED BY RF-SCORE:    0.00 PKD
ROOT
HETATM    1  O   UNL     1     -11.351   5.887  66.316  1.00  0.00    -0.717 OA 
HETATM    2  C   UNL     1     -10.628   6.839  67.095  1.00  0.00    -0.331 C  
HETATM    3  H   UNL     1     -12.114   5.585  66.793  1.00  0.00     0.000 HD 
ENDROOT
BRANCH   2   4
HETATM    4  C   UNL     1      -9.390   7.330  66.319  1.00  0.00    -0.160 C  
BRANCH   4   5
HETATM    5  C   UNL     1      -8.870   8.711  66.731  1.00  0.00    -0.152 C  
BRANCH   5   6
HETATM    6  C   UNL     1      -8.800   9.776  65.612  1.00  0.00    -0.182 C  
HETATM    7  H   UNL     1     -10.980  12.424  63.511  1.00  0.00     0.000 HD 
HETATM    8  C   UNL     1     -10.107  10.618  65.289  1.00  0.00    -0.363 C  
HETATM    9  C   UNL     1      -8.493   9.069  64.285  1.00  0.00    -0.170 C  
HETATM   10  C   UNL     1      -8.819  10.101  63.246  1.00  0.00    -0.238 C  
HETATM   11  O   UNL     1      -7.134   8.689  64.172  1.00  0.00    -0.087 OA 
HETATM   12  O   UNL     1     -10.168  12.034  63.207  1.00  0.00    -0.438 OA 
HETATM   13  H   UNL     1      -6.943   8.252  63.351  1.00  0.00     0.000 HD 
HETATM   14  C   UNL     1     -10.112  10.722  63.730  1.00  0.00    -0.327 C  
BRANCH   8  15
HETATM   15  C   UNL     1     -10.230  11.982  66.041  1.00  0.00    -0.256 C  
BRANCH  15  16
HETATM   16  C   UNL     1     -11.469  12.146  66.903  1.00  0.00    -0.414 C  
HETATM   17  C   UNL     1     -11.835  11.565  68.062  1.00  0.00    -0.287 C  
BRANCH  17  18
HETATM   18  C   UNL     1     -11.106  10.532  68.873  1.00  0.00    -0.312 C  
BRANCH  18  19
HETATM   19  C   UNL     1     -11.334  10.707  70.382  1.00  0.00    -0.389 C  
BRANCH  19  20
HETATM   20  C   UNL     1     -12.414  11.719  70.741  1.00  0.00    -0.405 C  
BRANCH  20  21
HETATM   21  C   UNL     1     -13.253  11.230  71.881  1.00  0.00    -0.386 C  
HETATM   22  O   UNL     1     -13.540  10.064  72.123  1.00  0.00    -0.395 OA 
BRANCH  21  23
HETATM   23  O   UNL     1     -13.765  12.315  72.524  1.00  0.00    -0.272 OA 
BRANCH  23  24
HETATM   24  C   UNL     1     -13.400  13.499  71.847  1.00  0.00    -0.443 C  
BRANCH  24  25
HETATM   25  C   UNL     1     -13.139  14.656  72.787  1.00  0.00    -0.580 C  
BRANCH  25  26
HETATM   26  C   UNL     1     -12.339  15.782  72.137  1.00  0.00    -0.539 C  
BRANCH  26  27
HETATM   27  C   UNL     1     -12.032  15.583  70.646  1.00  0.00    -0.378 C  
BRANCH  27  28
HETATM   28  O   UNL     1     -10.802  16.204  70.343  1.00  0.00    -0.315 OA 
HETATM   29  N   UNL     1     -10.597  16.345  68.950  1.00  0.00    -0.285 N  
HETATM   30  O   UNL     1      -9.495  16.829  68.681  1.00  0.00    -0.239 OA 
HETATM   31  O   UNL     1     -11.497  15.977  68.206  1.00  0.00    -0.355 OA 
ENDBRANCH  27  28
ENDBRANCH  26  27
ENDBRANCH  25  26
ENDBRANCH  24  25
ENDBRANCH  23  24
ENDBRANCH  21  23
ENDBRANCH  20  21
ENDBRANCH  19  20
ENDBRANCH  18  19
ENDBRANCH  17  18
ENDBRANCH  15  16
ENDBRANCH   8  15
ENDBRANCH   5   6
ENDBRANCH   4   5
ENDBRANCH   2   4
BRANCH   2  32
HETATM   32  C   UNL     1     -10.236   6.138  68.387  1.00  0.00    -0.208 C  
BRANCH  32  33
HETATM   33  C   UNL     1     -11.342   6.221  69.433  1.00  0.00    -0.448 C  
BRANCH  33  34
HETATM   34  C   UNL     1     -10.844   6.978  70.620  1.00  0.00    -0.274 A  
HETATM   35  C   UNL     1      -9.024   8.075  71.773  1.00  0.00    -0.194 A  
HETATM   36  C   UNL     1     -11.162   7.780  72.867  1.00  0.00    -0.434 A  
HETATM   37  C   UNL     1      -9.520   7.441  70.638  1.00  0.00    -0.164 A  
HETATM   38  C   UNL     1     -11.663   7.146  71.736  1.00  0.00    -0.324 A  
HETATM   39  C   UNL     1      -9.845   8.245  72.886  1.00  0.00    -0.303 A  
ENDBRANCH  33  34
ENDBRANCH  32  33
ENDBRANCH   2  32
TORSDOF 18
ENDMDL
MODEL       76
REMARK 921   NORMALIZED FREE ENERGY PREDICTED BY IDOCK:   -5.01 KCAL/MOL
REMARK 922        TOTAL FREE ENERGY PREDICTED BY IDOCK:  -15.07 KCAL/MOL
REMARK 923 INTER-LIGAND FREE ENERGY PREDICTED BY IDOCK:  -11.87 KCAL/MOL
REMARK 924 INTRA-LIGAND FREE ENERGY PREDICTED BY IDOCK:   -3.20 KCAL/MOL
REMARK 927      BINDING AFFINITY PREDICTED BY RF-SCORE:    0.00 PKD
ROOT
HETATM    1  O   UNL     1     -12.124  15.985  63.618  1.00  0.00    -1.285 OA 
HETATM    2  C   UNL     1     -11.787  14.940  64.529  1.00  0.00    -0.396 C  
HETATM    3  H   UNL     1     -12.981  15.827  63.240  1.00  0.00     0.000 HD 
ENDROOT
BRANCH   2   4
HETATM    4  C   UNL     1     -10.396  15.197  65.142  1.00  0.00    -0.416 C  
BRANCH   4   5
HETATM    5  C   UNL     1     -10.350  16.290  66.214  1.00  0.00    -0.335 C  
BRANCH   5   6
HETATM    6  C   UNL     1     -10.330  15.806  67.682  1.00  0.00    -0.281 C  
HETATM    7  H   UNL     1     -12.167  13.401  70.331  1.00  0.00     0.000 HD 
HETATM    8  C   UNL     1     -11.351  14.671  68.116  1.00  0.00    -0.321 C  
HETATM    9  C   UNL     1     -10.699  16.987  68.590  1.00  0.00    -0.333 C  
HETATM   10  C   UNL     1     -11.019  16.339  69.906  1.00  0.00    -0.365 C  
HETATM   11  O   UNL     1      -9.633  17.903  68.754  1.00  0.00    -0.310 OA 
HETATM   12  O   UNL     1     -11.657  14.167  70.565  1.00  0.00    -0.245 OA 
HETATM   13  H   UNL     1      -9.861  18.633  69.316  1.00  0.00     0.000 HD 
HETATM   14  C   UNL     1     -11.832  15.118  69.533  1.00  0.00    -0.332 C  
BRANCH   8  15
HETATM   15  C   UNL     1     -10.805  13.209  68.036  1.00  0.00    -0.261 C  
BRANCH  15  16
HETATM   16  C   UNL     1      -9.358  13.073  67.600  1.00  0.00    -0.202 C  
HETATM   17  C   UNL     1      -8.375  12.244  68.004  1.00  0.00    -0.165 C  
BRANCH  17  18
HETATM   18  C   UNL     1      -8.416  11.175  69.059  1.00  0.00    -0.044 C  
BRANCH  18  19
HETATM   19  C   UNL     1      -9.686  10.315  68.969  1.00  0.00    -0.213 C  
BRANCH  19  20
HETATM   20  C   UNL     1      -9.929   9.424  70.181  1.00  0.00    -0.269 C  
BRANCH  20  21
HETATM   21  C   UNL     1     -11.171   9.832  70.909  1.00  0.00    -0.359 C  
HETATM   22  O   UNL     1     -11.861  10.816  70.673  1.00  0.00    -0.318 OA 
BRANCH  21  23
HETATM   23  O   UNL     1     -11.327   9.001  71.976  1.00  0.00    -0.364 OA 
BRANCH  23  24
HETATM   24  C   UNL     1     -12.623   8.440  71.969  1.00  0.00    -0.356 C  
BRANCH  24  25
HETATM   25  C   UNL     1     -12.710   7.175  71.143  1.00  0.00    -0.363 C  
BRANCH  25  26
HETATM   26  C   UNL     1     -11.577   6.194  71.436  1.00  0.00    -0.283 C  
BRANCH  26  27
HETATM   27  C   UNL     1     -10.606   5.956  70.271  1.00  0.00    -0.286 C  
BRANCH  27  28
HETATM   28  O   UNL     1     -11.228   6.349  69.067  1.00  0.00    -0.347 OA 
HETATM   29  N   UNL     1     -10.403   6.134  67.938  1.00  0.00    -0.178 N  
HETATM   30  O   UNL     1     -10.918   6.537  66.892  1.00  0.00    -0.373 OA 
HETATM   31  O   UNL     1      -9.316   5.603  68.125  1.00  0.00    -0.110 OA 
ENDBRANCH  27  28
ENDBRANCH  26  27
ENDBRANCH  25  26
ENDBRANCH  24  25
ENDBRANCH  23  24
ENDBRANCH  21  23
ENDBRANCH  20  21
ENDBRANCH  19  20
ENDBRANCH  18  19
ENDBRANCH  17  18
ENDBRANCH  15  16
ENDBRANCH   8  15
ENDBRANCH   5   6
ENDBRANCH   4   5
ENDBRANCH   2   4
BRANCH   2  32
HETATM   32  C   UNL     1     -11.817  13.642  63.736  1.00  0.00    -0.373 C  
BRANCH  32  33
HETATM   33  C   UNL     1     -11.999  12.430  64.643  1.00  0.00    -0.462 C  
BRANCH  33  34
HETATM   34  C   UNL     1     -10.833  11.511  64.481  1.00  0.00    -0.390 A  
HETATM   35  C   UNL     1      -9.120  10.555  63.068  1.00  0.00    -0.281 A  
HETATM   36  C   UNL     1      -9.441   9.738  65.323  1.00  0.00    -0.343 A  
HETATM   37  C   UNL     1     -10.156  11.466  63.253  1.00  0.00    -0.424 A  
HETATM   38  C   UNL     1     -10.476  10.645  65.513  1.00  0.00    -0.246 A  
HETATM   39  C   UNL     1      -8.763   9.692  64.102  1.00  0.00    -0.238 A  
ENDBRANCH  33  34
ENDBRANCH  32  33
ENDBRANCH   2  32
TORSDOF 18
ENDMDL
MODEL       77
REMARK 921   NORMALIZED FREE ENERGY PREDICTED BY IDOCK:   -5.01 KCAL/MOL
REMARK 922        TOTAL FREE ENERGY PREDICTED BY IDOCK:  -15.06 KCAL/MOL
REMARK 923 INTER-LIGAND FREE ENERGY PREDICTED BY IDOCK:  -11.55 KCAL/MOL
REMARK 924 INTRA-LIGAND FREE ENERGY PREDICTED BY IDOCK:   -3.51 KCAL/MOL
REMARK 927      BINDING AFFINITY PREDICTED BY RF-SCORE:    0.00 PKD
ROOT
HETATM    1  O   UNL     1     -12.545  14.335  63.196  1.00  0.00    -1.028 OA 
HETATM    2  C   UNL     1     -12.381  14.266  64.611  1.00  0.00    -0.415 C  
HETATM    3  H   UNL     1     -13.268  13.782  62.922  1.00  0.00     0.000 HD 
ENDROOT
BRANCH   2   4
HETATM    4  C   UNL     1     -11.210  15.164  65.055  1.00  0.00    -0.414 C  
BRANCH   4   5
HETATM    5  C   UNL     1     -10.126  14.459  65.878  1.00  0.00    -0.344 C  
BRANCH   5   6
HETATM    6  C   UNL     1     -10.162  14.703  67.404  1.00  0.00    -0.240 C  
HETATM    7  H   UNL     1     -12.607  15.362  70.529  1.00  0.00     0.000 HD 
HETATM    8  C   UNL     1     -11.576  14.796  68.121  1.00  0.00    -0.356 C  
HETATM    9  C   UNL     1      -9.522  16.067  67.696  1.00  0.00    -0.216 C  
HETATM   10  C   UNL     1      -9.943  16.366  69.105  1.00  0.00    -0.273 C  
HETATM   11  O   UNL     1      -8.109  16.035  67.614  1.00  0.00    -0.141 OA 
HETATM   12  O   UNL     1     -11.693  15.621  70.498  1.00  0.00    -0.305 OA 
HETATM   13  H   UNL     1      -7.713  16.879  67.795  1.00  0.00     0.000 HD 
HETATM   14  C   UNL     1     -11.399  15.953  69.155  1.00  0.00    -0.366 C  
BRANCH   8  15
HETATM   15  C   UNL     1     -12.117  13.457  68.716  1.00  0.00    -0.281 C  
BRANCH  15  16
HETATM   16  C   UNL     1     -11.085  12.360  68.908  1.00  0.00    -0.307 C  
HETATM   17  C   UNL     1     -11.171  11.139  69.471  1.00  0.00    -0.341 C  
BRANCH  17  18
HETATM   18  C   UNL     1     -12.356  10.477  70.114  1.00  0.00    -0.339 C  
BRANCH  18  19
HETATM   19  C   UNL     1     -11.987   9.770  71.428  1.00  0.00    -0.493 C  
BRANCH  19  20
HETATM   20  C   UNL     1     -10.619   9.100  71.418  1.00  0.00    -0.412 C  
BRANCH  20  21
HETATM   21  C   UNL     1     -10.650   7.801  72.160  1.00  0.00    -0.240 C  
HETATM   22  O   UNL     1     -11.184   7.595  73.243  1.00  0.00    -0.358 OA 
BRANCH  21  23
HETATM   23  O   UNL     1      -9.858   6.916  71.495  1.00  0.00    -0.171 OA 
BRANCH  23  24
HETATM   24  C   UNL     1     -10.569   5.722  71.242  1.00  0.00    -0.257 C  
BRANCH  24  25
HETATM   25  C   UNL     1     -10.469   5.274  69.800  1.00  0.00    -0.340 C  
BRANCH  25  26
HETATM   26  C   UNL     1     -11.155   6.235  68.830  1.00  0.00    -0.434 C  
BRANCH  26  27
HETATM   27  C   UNL     1     -10.204   7.055  67.947  1.00  0.00    -0.183 C  
BRANCH  27  28
HETATM   28  O   UNL     1      -8.909   6.500  68.028  1.00  0.00    -0.117 OA 
HETATM   29  N   UNL     1      -7.963   7.411  68.555  1.00  0.00    -0.122 N  
HETATM   30  O   UNL     1      -6.819   6.951  68.566  1.00  0.00    -0.065 OA 
HETATM   31  O   UNL     1      -8.374   8.507  68.916  1.00  0.00    -0.116 OA 
ENDBRANCH  27  28
ENDBRANCH  26  27
ENDBRANCH  25  26
ENDBRANCH  24  25
ENDBRANCH  23  24
ENDBRANCH  21  23
ENDBRANCH  20  21
ENDBRANCH  19  20
ENDBRANCH  18  19
ENDBRANCH  17  18
ENDBRANCH  15  16
ENDBRANCH   8  15
ENDBRANCH   5   6
ENDBRANCH   4   5
ENDBRANCH   2   4
BRANCH   2  32
HETATM   32  C   UNL     1     -12.124  12.805  64.950  1.00  0.00    -0.490 C  
BRANCH  32  33
HETATM   33  C   UNL     1     -11.664  12.015  63.731  1.00  0.00    -0.575 C  
BRANCH  33  34
HETATM   34  C   UNL     1     -10.557  11.094  64.127  1.00  0.00    -0.436 A  
HETATM   35  C   UNL     1      -8.759   9.609  63.490  1.00  0.00    -0.236 A  
HETATM   36  C   UNL     1      -9.409   9.815  65.811  1.00  0.00    -0.278 A  
HETATM   37  C   UNL     1      -9.741  10.530  63.135  1.00  0.00    -0.351 A  
HETATM   38  C   UNL     1     -10.391  10.734  65.463  1.00  0.00    -0.308 A  
HETATM   39  C   UNL     1      -8.594   9.252  64.826  1.00  0.00    -0.207 A  
ENDBRANCH  33  34
ENDBRANCH  32  33
ENDBRANCH   2  32
TORSDOF 18
ENDMDL
MODEL       78
REMARK 921   NORMALIZED FREE ENERGY PREDICTED BY IDOCK:   -5.00 KCAL/MOL
REMARK 922        TOTAL FREE ENERGY PREDICTED BY IDOCK:  -15.04 KCAL/MOL
REMARK 923 INTER-LIGAND FREE ENERGY PREDICTED BY IDOCK:  -11.01 KCAL/MOL
REMARK 924 INTRA-LIGAND FREE ENERGY PREDICTED BY IDOCK:   -4.04 KCAL/MOL
REMARK 927      BINDING AFFINITY PREDICTED BY RF-SCORE:    0.00 PKD
ROOT
HETATM    1  O   UNL     1     -10.268  14.182  64.859  1.00  0.00    -0.467 OA 
HETATM    2  C   UNL     1     -11.636  13.791  64.962  1.00  0.00    -0.341 C  
HETATM    3  H   UNL     1      -9.945  14.012  63.982  1.00  0.00     0.000 HD 
ENDROOT
BRANCH   2   4
HETATM    4  C   UNL     1     -12.162  14.066  66.384  1.00  0.00    -0.492 C  
BRANCH   4   5
HETATM    5  C   UNL     1     -11.085  14.403  67.422  1.00  0.00    -0.317 C  
BRANCH   5   6
HETATM    6  C   UNL     1     -11.103  13.564  68.721  1.00  0.00    -0.298 C  
HETATM    7  H   UNL     1     -12.419  10.129  70.348  1.00  0.00     0.000 HD 
HETATM    8  C   UNL     1     -11.765  12.121  68.678  1.00  0.00    -0.382 C  
HETATM    9  C   UNL     1     -11.935  14.310  69.772  1.00  0.00    -0.339 C  
HETATM   10  C   UNL     1     -12.202  13.270  70.821  1.00  0.00    -0.390 C  
HETATM   11  O   UNL     1     -11.238  15.400  70.345  1.00  0.00    -0.272 OA 
HETATM   12  O   UNL     1     -12.207  10.912  70.843  1.00  0.00    -0.335 OA 
HETATM   13  H   UNL     1     -11.754  15.862  70.996  1.00  0.00     0.000 HD 
HETATM   14  C   UNL     1     -12.538  12.022  70.032  1.00  0.00     0.128 C  
BRANCH   8  15
HETATM   15  C   UNL     1     -10.784  10.940  68.391  1.00  0.00    -0.240 C  
BRANCH  15  16
HETATM   16  C   UNL     1      -9.410  11.059  69.025  1.00  0.00    -0.105 C  
HETATM   17  C   UNL     1      -8.276  11.649  68.598  1.00  0.00    -0.110 C  
BRANCH  17  18
HETATM   18  C   UNL     1      -8.018  12.380  67.311  1.00  0.00    -0.178 C  
BRANCH  18  19
HETATM   19  C   UNL     1      -7.071  13.575  67.499  1.00  0.00    -0.159 C  
BRANCH  19  20
HETATM   20  C   UNL     1      -7.758  14.855  67.959  1.00  0.00    -0.128 C  
BRANCH  20  21
HETATM   21  C   UNL     1      -7.078  15.428  69.163  1.00  0.00    -0.161 C  
HETATM   22  O   UNL     1      -6.616  14.797  70.106  1.00  0.00    -0.172 OA 
BRANCH  21  23
HETATM   23  O   UNL     1      -7.188  16.783  69.105  1.00  0.00    -0.223 OA 
BRANCH  23  24
HETATM   24  C   UNL     1      -8.435  17.147  68.551  1.00  0.00    -0.262 C  
BRANCH  24  25
HETATM   25  C   UNL     1      -8.763  18.610  68.755  1.00  0.00    -0.290 C  
BRANCH  25  26
HETATM   26  C   UNL     1      -9.815  19.126  67.776  1.00  0.00    -0.412 C  
BRANCH  26  27
HETATM   27  C   UNL     1      -9.380  19.143  66.304  1.00  0.00    -0.315 C  
BRANCH  27  28
HETATM   28  O   UNL     1     -10.483  18.802  65.494  1.00  0.00    -0.569 OA 
HETATM   29  N   UNL     1     -10.465  17.443  65.100  1.00  0.00     0.107 N  
HETATM   30  O   UNL     1     -11.393  17.158  64.340  1.00  0.00    -1.115 OA 
HETATM   31  O   UNL     1      -9.562  16.740  65.537  1.00  0.00    -0.515 OA 
ENDBRANCH  27  28
ENDBRANCH  26  27
ENDBRANCH  25  26
ENDBRANCH  24  25
ENDBRANCH  23  24
ENDBRANCH  21  23
ENDBRANCH  20  21
ENDBRANCH  19  20
ENDBRANCH  18  19
ENDBRANCH  17  18
ENDBRANCH  15  16
ENDBRANCH   8  15
ENDBRANCH   5   6
ENDBRANCH   4   5
ENDBRANCH   2   4
BRANCH   2  32
HETATM   32  C   UNL     1     -11.694  12.308  64.623  1.00  0.00    -0.420 C  
BRANCH  32  33
HETATM   33  C   UNL     1     -10.829  11.972  63.413  1.00  0.00    -0.471 C  
BRANCH  33  34
HETATM   34  C   UNL     1      -9.993  10.773  63.721  1.00  0.00    -0.411 A  
HETATM   35  C   UNL     1      -9.050   9.259  65.354  1.00  0.00    -0.277 A  
HETATM   36  C   UNL     1      -8.418   9.092  63.024  1.00  0.00    -0.206 A  
HETATM   37  C   UNL     1      -9.890  10.326  65.047  1.00  0.00    -0.397 A  
HETATM   38  C   UNL     1      -9.255  10.157  62.712  1.00  0.00    -0.322 A  
HETATM   39  C   UNL     1      -8.315   8.643  64.343  1.00  0.00    -0.148 A  
ENDBRANCH  33  34
ENDBRANCH  32  33
ENDBRANCH   2  32
TORSDOF 18
ENDMDL
MODEL       79
REMARK 921   NORMALIZED FREE ENERGY PREDICTED BY IDOCK:   -4.98 KCAL/MOL
REMARK 922        TOTAL FREE ENERGY PREDICTED BY IDOCK:  -15.00 KCAL/MOL
REMARK 923 INTER-LIGAND FREE ENERGY PREDICTED BY IDOCK:  -10.84 KCAL/MOL
REMARK 924 INTRA-LIGAND FREE ENERGY PREDICTED BY IDOCK:   -4.16 KCAL/MOL
REMARK 927      BINDING AFFINITY PREDICTED BY RF-SCORE:    0.00 PKD
ROOT
HETATM    1  O   UNL     1     -12.613  14.216  63.189  1.00  0.00    -1.058 OA 
HETATM    2  C   UNL     1     -12.144  14.001  64.519  1.00  0.00    -0.459 C  
HETATM    3  H   UNL     1     -13.504  13.898  63.101  1.00  0.00     0.000 HD 
ENDROOT
BRANCH   2   4
HETATM    4  C   UNL     1     -10.698  14.516  64.662  1.00  0.00    -0.332 C  
BRANCH   4   5
HETATM    5  C   UNL     1     -10.542  15.789  65.501  1.00  0.00    -0.424 C  
BRANCH   5   6
HETATM    6  C   UNL     1      -9.372  15.800  66.512  1.00  0.00    -0.312 C  
HETATM    7  H   UNL     1      -8.389  15.089  70.347  1.00  0.00     0.000 HD 
HETATM    8  C   UNL     1      -9.640  15.267  67.983  1.00  0.00    -0.203 C  
HETATM    9  C   UNL     1      -8.931  17.253  66.732  1.00  0.00    -0.250 C  
HETATM   10  C   UNL     1      -8.088  17.187  67.972  1.00  0.00    -0.210 C  
HETATM   11  O   UNL     1      -8.162  17.758  65.656  1.00  0.00    -0.490 OA 
HETATM   12  O   UNL     1      -7.910  15.671  69.768  1.00  0.00    -0.164 OA 
HETATM   13  H   UNL     1      -7.890  18.658  65.793  1.00  0.00     0.000 HD 
HETATM   14  C   UNL     1      -8.852  16.261  68.894  1.00  0.00    -0.253 C  
BRANCH   8  15
HETATM   15  C   UNL     1      -9.317  13.757  68.221  1.00  0.00    -0.209 C  
BRANCH  15  16
HETATM   16  C   UNL     1      -8.189  13.188  67.379  1.00  0.00    -0.187 C  
HETATM   17  C   UNL     1      -7.202  12.319  67.675  1.00  0.00    -0.128 C  
BRANCH  17  18
HETATM   18  C   UNL     1      -6.903  11.639  68.981  1.00  0.00    -0.105 C  
BRANCH  18  19
HETATM   19  C   UNL     1      -7.335  10.164  68.983  1.00  0.00    -0.087 C  
BRANCH  19  20
HETATM   20  C   UNL     1      -7.537   9.572  70.372  1.00  0.00    -0.169 C  
BRANCH  20  21
HETATM   21  C   UNL     1      -8.923   9.028  70.528  1.00  0.00    -0.213 C  
HETATM   22  O   UNL     1      -9.960   9.565  70.159  1.00  0.00    -0.209 OA 
BRANCH  21  23
HETATM   23  O   UNL     1      -8.851   7.898  71.283  1.00  0.00    -0.129 OA 
BRANCH  23  24
HETATM   24  C   UNL     1      -9.070   8.207  72.644  1.00  0.00    -0.250 C  
BRANCH  24  25
HETATM   25  C   UNL     1     -10.142   7.346  73.276  1.00  0.00    -0.367 C  
BRANCH  25  26
HETATM   26  C   UNL     1     -11.532   7.611  72.701  1.00  0.00    -0.403 C  
BRANCH  26  27
HETATM   27  C   UNL     1     -12.127   6.455  71.885  1.00  0.00    -0.310 C  
BRANCH  27  28
HETATM   28  O   UNL     1     -12.146   6.818  70.521  1.00  0.00    -0.386 OA 
HETATM   29  N   UNL     1     -11.276   6.023  69.739  1.00  0.00    -0.411 N  
HETATM   30  O   UNL     1     -11.242   6.380  68.559  1.00  0.00    -0.328 OA 
HETATM   31  O   UNL     1     -10.677   5.116  70.303  1.00  0.00    -0.229 OA 
ENDBRANCH  27  28
ENDBRANCH  26  27
ENDBRANCH  25  26
ENDBRANCH  24  25
ENDBRANCH  23  24
ENDBRANCH  21  23
ENDBRANCH  20  21
ENDBRANCH  19  20
ENDBRANCH  18  19
ENDBRANCH  17  18
ENDBRANCH  15  16
ENDBRANCH   8  15
ENDBRANCH   5   6
ENDBRANCH   4   5
ENDBRANCH   2   4
BRANCH   2  32
HETATM   32  C   UNL     1     -12.231  12.503  64.776  1.00  0.00    -0.532 C  
BRANCH  32  33
HETATM   33  C   UNL     1     -11.660  12.131  66.140  1.00  0.00    -0.418 C  
BRANCH  33  34
HETATM   34  C   UNL     1     -10.664  11.031  65.976  1.00  0.00    -0.242 A  
HETATM   35  C   UNL     1      -8.925   9.979  64.667  1.00  0.00    -0.249 A  
HETATM   36  C   UNL     1      -9.776   8.901  66.660  1.00  0.00    -0.303 A  
HETATM   37  C   UNL     1      -9.801  11.041  64.870  1.00  0.00    -0.327 A  
HETATM   38  C   UNL     1     -10.652   9.959  66.868  1.00  0.00    -0.248 A  
HETATM   39  C   UNL     1      -8.913   8.910  65.561  1.00  0.00    -0.246 A  
ENDBRANCH  33  34
ENDBRANCH  32  33
ENDBRANCH   2  32
TORSDOF 18
ENDMDL
MODEL       80
REMARK 921   NORMALIZED FREE ENERGY PREDICTED BY IDOCK:   -4.97 KCAL/MOL
REMARK 922        TOTAL FREE ENERGY PREDICTED BY IDOCK:  -14.98 KCAL/MOL
REMARK 923 INTER-LIGAND FREE ENERGY PREDICTED BY IDOCK:  -10.86 KCAL/MOL
REMARK 924 INTRA-LIGAND FREE ENERGY PREDICTED BY IDOCK:   -4.13 KCAL/MOL
REMARK 927      BINDING AFFINITY PREDICTED BY RF-SCORE:    0.00 PKD
ROOT
HETATM    1  O   UNL     1      -8.846   8.892  68.090  1.00  0.00    -0.133 OA 
HETATM    2  C   UNL     1     -10.140   8.737  67.511  1.00  0.00    -0.222 C  
HETATM    3  H   UNL     1      -8.319   8.118  67.926  1.00  0.00     0.000 HD 
ENDROOT
BRANCH   2   4
HETATM    4  C   UNL     1     -10.995   9.992  67.775  1.00  0.00    -0.310 C  
BRANCH   4   5
HETATM    5  C   UNL     1     -10.776  10.652  69.141  1.00  0.00    -0.264 C  
BRANCH   5   6
HETATM    6  C   UNL     1     -12.031  11.251  69.818  1.00  0.00    -0.431 C  
HETATM    7  H   UNL     1     -13.382  14.371  71.967  1.00  0.00     0.000 HD 
HETATM    8  C   UNL     1     -11.917  12.690  70.479  1.00  0.00    -0.279 C  
HETATM    9  C   UNL     1     -12.429  10.348  70.993  1.00  0.00    -0.388 C  
HETATM   10  C   UNL     1     -13.383  11.193  71.787  1.00  0.00    -0.378 C  
HETATM   11  O   UNL     1     -13.077   9.161  70.573  1.00  0.00    -0.337 OA 
HETATM   12  O   UNL     1     -13.783  13.510  71.959  1.00  0.00    -0.441 OA 
HETATM   13  H   UNL     1     -13.324   8.602  71.300  1.00  0.00     0.000 HD 
HETATM   14  C   UNL     1     -12.743  12.565  71.799  1.00  0.00    -0.139 C  
BRANCH   8  15
HETATM   15  C   UNL     1     -12.322  13.886  69.558  1.00  0.00    -0.275 C  
BRANCH  15  16
HETATM   16  C   UNL     1     -11.880  13.777  68.110  1.00  0.00    -0.411 C  
HETATM   17  C   UNL     1     -10.661  13.844  67.539  1.00  0.00    -0.256 C  
BRANCH  17  18
HETATM   18  C   UNL     1      -9.325  14.068  68.189  1.00  0.00    -0.201 C  
BRANCH  18  19
HETATM   19  C   UNL     1      -8.159  13.609  67.299  1.00  0.00    -0.152 C  
BRANCH  19  20
HETATM   20  C   UNL     1      -7.396  12.406  67.836  1.00  0.00    -0.112 C  
BRANCH  20  21
HETATM   21  C   UNL     1      -6.941  11.516  66.722  1.00  0.00    -0.108 C  
HETATM   22  O   UNL     1      -5.803  11.432  66.276  1.00  0.00    -0.143 OA 
BRANCH  21  23
HETATM   23  O   UNL     1      -8.039  10.916  66.186  1.00  0.00    -0.161 OA 
BRANCH  23  24
HETATM   24  C   UNL     1      -7.681  10.191  65.028  1.00  0.00    -0.141 C  
BRANCH  24  25
HETATM   25  C   UNL     1      -8.878   9.793  64.191  1.00  0.00    -0.260 C  
BRANCH  25  26
HETATM   26  C   UNL     1      -9.547  10.983  63.507  1.00  0.00    -0.344 C  
BRANCH  26  27
HETATM   27  C   UNL     1     -10.845  11.467  64.169  1.00  0.00    -0.372 C  
BRANCH  27  28
HETATM   28  O   UNL     1     -10.987  12.853  63.944  1.00  0.00    -0.388 OA 
HETATM   29  N   UNL     1     -12.285  13.320  64.256  1.00  0.00    -0.399 N  
HETATM   30  O   UNL     1     -12.431  14.518  63.999  1.00  0.00    -0.778 OA 
HETATM   31  O   UNL     1     -13.081  12.513  64.717  1.00  0.00    -0.853 OA 
ENDBRANCH  27  28
ENDBRANCH  26  27
ENDBRANCH  25  26
ENDBRANCH  24  25
ENDBRANCH  23  24
ENDBRANCH  21  23
ENDBRANCH  20  21
ENDBRANCH  19  20
ENDBRANCH  18  19
ENDBRANCH  17  18
ENDBRANCH  15  16
ENDBRANCH   8  15
ENDBRANCH   5   6
ENDBRANCH   4   5
ENDBRANCH   2   4
BRANCH   2  32
HETATM   32  C   UNL     1     -10.757   7.498  68.145  1.00  0.00    -0.145 C  
BRANCH  32  33
HETATM   33  C   UNL     1      -9.761   6.766  69.038  1.00  0.00    -0.145 C  
BRANCH  33  34
HETATM   34  C   UNL     1     -10.162   6.935  70.467  1.00  0.00    -0.209 A  
HETATM   35  C   UNL     1     -11.651   6.380  72.289  1.00  0.00    -0.341 A  
HETATM   36  C   UNL     1      -9.981   8.110  72.560  1.00  0.00    -0.372 A  
HETATM   37  C   UNL     1     -11.220   6.172  70.982  1.00  0.00    -0.361 A  
HETATM   38  C   UNL     1      -9.546   7.906  71.256  1.00  0.00    -0.186 A  
HETATM   39  C   UNL     1     -11.032   7.349  73.076  1.00  0.00    -0.422 A  
ENDBRANCH  33  34
ENDBRANCH  32  33
ENDBRANCH   2  32
TORSDOF 18
ENDMDL
MODEL       81
REMARK 921   NORMALIZED FREE ENERGY PREDICTED BY IDOCK:   -4.97 KCAL/MOL
REMARK 922        TOTAL FREE ENERGY PREDICTED BY IDOCK:  -14.98 KCAL/MOL
REMARK 923 INTER-LIGAND FREE ENERGY PREDICTED BY IDOCK:  -12.08 KCAL/MOL
REMARK 924 INTRA-LIGAND FREE ENERGY PREDICTED BY IDOCK:   -2.90 KCAL/MOL
REMARK 927      BINDING AFFINITY PREDICTED BY RF-SCORE:    0.00 PKD
ROOT
HETATM    1  O   UNL     1      -9.575  13.821  69.137  1.00  0.00    -0.405 OA 
HETATM    2  C   UNL     1     -10.734  14.618  68.900  1.00  0.00    -0.248 C  
HETATM    3  H   UNL     1      -8.875  14.358  69.490  1.00  0.00     0.000 HD 
ENDROOT
BRANCH   2   4
HETATM    4  C   UNL     1     -11.870  13.747  68.328  1.00  0.00    -0.413 C  
BRANCH   4   5
HETATM    5  C   UNL     1     -12.138  13.930  66.830  1.00  0.00    -0.467 C  
BRANCH   5   6
HETATM    6  C   UNL     1     -11.847  12.706  65.931  1.00  0.00    -0.499 C  
HETATM    7  H   UNL     1      -9.319   9.632  65.351  1.00  0.00     0.000 HD 
HETATM    8  C   UNL     1     -10.645  11.747  66.326  1.00  0.00    -0.292 C  
HETATM    9  C   UNL     1     -11.461  13.209  64.534  1.00  0.00    -0.353 C  
HETATM   10  C   UNL     1     -10.846  12.006  63.878  1.00  0.00    -0.457 C  
HETATM   11  O   UNL     1     -12.579  13.644  63.783  1.00  0.00    -0.705 OA 
HETATM   12  O   UNL     1      -9.864  10.015  64.673  1.00  0.00    -0.318 OA 
HETATM   13  H   UNL     1     -12.339  13.955  62.918  1.00  0.00     0.000 HD 
HETATM   14  C   UNL     1      -9.978  11.395  64.958  1.00  0.00    -0.266 C  
BRANCH   8  15
HETATM   15  C   UNL     1     -11.029  10.516  67.209  1.00  0.00    -0.325 C  
BRANCH  15  16
HETATM   16  C   UNL     1     -10.385  10.469  68.582  1.00  0.00    -0.201 C  
HETATM   17  C   UNL     1     -10.914  10.517  69.821  1.00  0.00    -0.350 C  
BRANCH  17  18
HETATM   18  C   UNL     1     -12.354  10.653  70.228  1.00  0.00    -0.406 C  
BRANCH  18  19
HETATM   19  C   UNL     1     -12.626  10.056  71.618  1.00  0.00    -0.524 C  
BRANCH  19  20
HETATM   20  C   UNL     1     -12.987   8.576  71.605  1.00  0.00    -0.369 C  
BRANCH  20  21
HETATM   21  C   UNL     1     -11.885   7.748  72.189  1.00  0.00    -0.324 C  
HETATM   22  O   UNL     1     -11.062   8.115  73.018  1.00  0.00    -0.331 OA 
BRANCH  21  23
HETATM   23  O   UNL     1     -11.860   6.555  71.533  1.00  0.00    -0.314 OA 
BRANCH  23  24
HETATM   24  C   UNL     1     -12.048   6.758  70.148  1.00  0.00    -0.079 C  
BRANCH  24  25
HETATM   25  C   UNL     1     -10.744   6.893  69.392  1.00  0.00    -0.275 C  
BRANCH  25  26
HETATM   26  C   UNL     1      -9.596   6.128  70.047  1.00  0.00    -0.185 C  
BRANCH  26  27
HETATM   27  C   UNL     1      -8.324   6.952  70.294  1.00  0.00    -0.134 C  
BRANCH  27  28
HETATM   28  O   UNL     1      -8.067   6.996  71.681  1.00  0.00    -0.103 OA 
HETATM   29  N   UNL     1      -7.886   8.317  72.155  1.00  0.00    -0.121 N  
HETATM   30  O   UNL     1      -7.598   8.353  73.353  1.00  0.00    -0.263 OA 
HETATM   31  O   UNL     1      -8.024   9.230  71.351  1.00  0.00    -0.335 OA 
ENDBRANCH  27  28
ENDBRANCH  26  27
ENDBRANCH  25  26
ENDBRANCH  24  25
ENDBRANCH  23  24
ENDBRANCH  21  23
ENDBRANCH  20  21
ENDBRANCH  19  20
ENDBRANCH  18  19
ENDBRANCH  17  18
ENDBRANCH  15  16
ENDBRANCH   8  15
ENDBRANCH   5   6
ENDBRANCH   4   5
ENDBRANCH   2   4
BRANCH   2  32
HETATM   32  C   UNL     1     -10.321  15.710  67.923  1.00  0.00    -0.259 C  
BRANCH  32  33
HETATM   33  C   UNL     1     -10.887  17.068  68.322  1.00  0.00    -0.341 C  
BRANCH  33  34
HETATM   34  C   UNL     1     -10.091  18.147  67.664  1.00  0.00    -0.367 A  
HETATM   35  C   UNL     1      -8.013  18.890  66.676  1.00  0.00    -0.280 A  
HETATM   36  C   UNL     1      -9.825  20.455  67.034  1.00  0.00    -0.594 A  
HETATM   37  C   UNL     1      -8.791  17.870  67.216  1.00  0.00    -0.243 A  
HETATM   38  C   UNL     1     -10.605  19.440  67.575  1.00  0.00    -0.591 A  
HETATM   39  C   UNL     1      -8.531  20.181  66.585  1.00  0.00    -0.343 A  
ENDBRANCH  33  34
ENDBRANCH  32  33
ENDBRANCH   2  32
TORSDOF 18
ENDMDL
MODEL       82
REMARK 921   NORMALIZED FREE ENERGY PREDICTED BY IDOCK:   -4.97 KCAL/MOL
REMARK 922        TOTAL FREE ENERGY PREDICTED BY IDOCK:  -14.98 KCAL/MOL
REMARK 923 INTER-LIGAND FREE ENERGY PREDICTED BY IDOCK:  -11.59 KCAL/MOL
REMARK 924 INTRA-LIGAND FREE ENERGY PREDICTED BY IDOCK:   -3.38 KCAL/MOL
REMARK 927      BINDING AFFINITY PREDICTED BY RF-SCORE:    0.00 PKD
ROOT
HETATM    1  O   UNL     1     -11.516  16.431  63.737  1.00  0.00    -1.590 OA 
HETATM    2  C   UNL     1     -11.602  15.397  64.715  1.00  0.00    -0.286 C  
HETATM    3  H   UNL     1     -12.370  16.591  63.353  1.00  0.00     0.000 HD 
ENDROOT
BRANCH   2   4
HETATM    4  C   UNL     1     -10.217  15.138  65.339  1.00  0.00    -0.402 C  
BRANCH   4   5
HETATM    5  C   UNL     1      -9.866  16.025  66.537  1.00  0.00    -0.284 C  
BRANCH   5   6
HETATM    6  C   UNL     1     -10.267  15.483  67.929  1.00  0.00    -0.238 C  
HETATM    7  H   UNL     1     -12.191  12.498  69.817  1.00  0.00     0.000 HD 
HETATM    8  C   UNL     1     -11.000  14.077  68.008  1.00  0.00    -0.266 C  
HETATM    9  C   UNL     1     -11.279  16.451  68.557  1.00  0.00    -0.334 C  
HETATM   10  C   UNL     1     -11.873  15.663  69.688  1.00  0.00    -0.377 C  
HETATM   11  O   UNL     1     -10.670  17.625  69.059  1.00  0.00    -0.355 OA 
HETATM   12  O   UNL     1     -12.054  13.365  70.182  1.00  0.00    -0.333 OA 
HETATM   13  H   UNL     1     -11.296  18.224  69.448  1.00  0.00     0.000 HD 
HETATM   14  C   UNL     1     -12.091  14.282  69.107  1.00  0.00    -0.302 C  
BRANCH   8  15
HETATM   15  C   UNL     1     -10.067  12.843  68.228  1.00  0.00    -0.242 C  
BRANCH  15  16
HETATM   16  C   UNL     1      -8.582  13.104  68.045  1.00  0.00    -0.182 C  
HETATM   17  C   UNL     1      -7.545  12.267  67.846  1.00  0.00    -0.127 C  
BRANCH  17  18
HETATM   18  C   UNL     1      -7.545  10.768  67.756  1.00  0.00    -0.095 C  
BRANCH  18  19
HETATM   19  C   UNL     1      -7.315  10.102  69.122  1.00  0.00    -0.089 C  
BRANCH  19  20
HETATM   20  C   UNL     1      -8.545  10.073  70.021  1.00  0.00    -0.122 C  
BRANCH  20  21
HETATM   21  C   UNL     1      -8.708   8.733  70.667  1.00  0.00    -0.180 C  
HETATM   22  O   UNL     1      -8.212   7.679  70.289  1.00  0.00    -0.119 OA 
BRANCH  21  23
HETATM   23  O   UNL     1      -9.623   8.855  71.668  1.00  0.00    -0.275 OA 
BRANCH  23  24
HETATM   24  C   UNL     1      -9.206   8.122  72.800  1.00  0.00    -0.271 C  
BRANCH  24  25
HETATM   25  C   UNL     1     -10.364   7.530  73.575  1.00  0.00    -0.373 C  
BRANCH  25  26
HETATM   26  C   UNL     1     -10.416   6.006  73.494  1.00  0.00    -0.275 C  
BRANCH  26  27
HETATM   27  C   UNL     1     -11.407   5.445  72.465  1.00  0.00    -0.225 C  
BRANCH  27  28
HETATM   28  O   UNL     1     -10.862   5.593  71.173  1.00  0.00    -0.257 OA 
HETATM   29  N   UNL     1     -11.641   6.443  70.353  1.00  0.00    -0.399 N  
HETATM   30  O   UNL     1     -11.201   6.523  69.203  1.00  0.00    -0.318 OA 
HETATM   31  O   UNL     1     -12.623   6.971  70.857  1.00  0.00    -0.353 OA 
ENDBRANCH  27  28
ENDBRANCH  26  27
ENDBRANCH  25  26
ENDBRANCH  24  25
ENDBRANCH  23  24
ENDBRANCH  21  23
ENDBRANCH  20  21
ENDBRANCH  19  20
ENDBRANCH  18  19
ENDBRANCH  17  18
ENDBRANCH  15  16
ENDBRANCH   8  15
ENDBRANCH   5   6
ENDBRANCH   4   5
ENDBRANCH   2   4
BRANCH   2  32
HETATM   32  C   UNL     1     -12.132  14.162  64.000  1.00  0.00    -0.382 C  
BRANCH  32  33
HETATM   33  C   UNL     1     -12.250  12.971  64.944  1.00  0.00    -0.490 C  
BRANCH  33  34
HETATM   34  C   UNL     1     -11.234  11.942  64.570  1.00  0.00    -0.380 A  
HETATM   35  C   UNL     1      -9.859  10.054  65.195  1.00  0.00    -0.388 A  
HETATM   36  C   UNL     1      -9.597  11.091  63.025  1.00  0.00    -0.386 A  
HETATM   37  C   UNL     1     -10.863  10.967  65.507  1.00  0.00    -0.106 A  
HETATM   38  C   UNL     1     -10.599  12.005  63.331  1.00  0.00    -0.478 A  
HETATM   39  C   UNL     1      -9.227  10.117  63.955  1.00  0.00    -0.315 A  
ENDBRANCH  33  34
ENDBRANCH  32  33
ENDBRANCH   2  32
TORSDOF 18
ENDMDL
MODEL       83
REMARK 921   NORMALIZED FREE ENERGY PREDICTED BY IDOCK:   -4.96 KCAL/MOL
REMARK 922        TOTAL FREE ENERGY PREDICTED BY IDOCK:  -14.97 KCAL/MOL
REMARK 923 INTER-LIGAND FREE ENERGY PREDICTED BY IDOCK:  -12.53 KCAL/MOL
REMARK 924 INTRA-LIGAND FREE ENERGY PREDICTED BY IDOCK:   -2.44 KCAL/MOL
REMARK 927      BINDING AFFINITY PREDICTED BY RF-SCORE:    0.00 PKD
ROOT
HETATM    1  O   UNL     1      -9.237   7.987  65.572  1.00  0.00    -0.402 OA 
HETATM    2  C   UNL     1      -9.110   8.702  66.800  1.00  0.00    -0.149 C  
HETATM    3  H   UNL     1      -8.789   8.452  64.875  1.00  0.00     0.000 HD 
ENDROOT
BRANCH   2   4
HETATM    4  C   UNL     1      -9.836   7.948  67.932  1.00  0.00    -0.201 C  
BRANCH   4   5
HETATM    5  C   UNL     1     -10.911   6.959  67.469  1.00  0.00    -0.340 C  
BRANCH   5   6
HETATM    6  C   UNL     1     -10.546   5.460  67.565  1.00  0.00    -0.204 C  
HETATM    7  H   UNL     1      -7.801   2.871  68.958  1.00  0.00     0.000 HD 
HETATM    8  C   UNL     1      -9.266   5.047  68.409  1.00  0.00    -0.150 C  
HETATM    9  C   UNL     1     -10.227   4.944  66.155  1.00  0.00    -0.277 C  
HETATM   10  C   UNL     1      -9.536   3.635  66.401  1.00  0.00    -0.184 C  
HETATM   11  O   UNL     1     -11.390   4.733  65.377  1.00  0.00    -0.950 OA 
HETATM   12  O   UNL     1      -8.388   2.693  68.232  1.00  0.00    -0.066 OA 
HETATM   13  H   UNL     1     -11.193   4.414  64.504  1.00  0.00     0.000 HD 
HETATM   14  C   UNL     1      -8.602   3.918  67.558  1.00  0.00    -0.101 C  
BRANCH   8  15
HETATM   15  C   UNL     1      -9.536   4.676  69.902  1.00  0.00    -0.261 C  
BRANCH  15  16
HETATM   16  C   UNL     1      -9.246   5.771  70.912  1.00  0.00    -0.174 C  
HETATM   17  C   UNL     1     -10.059   6.480  71.722  1.00  0.00    -0.202 C  
BRANCH  17  18
HETATM   18  C   UNL     1     -11.552   6.405  71.861  1.00  0.00    -0.367 C  
BRANCH  18  19
HETATM   19  C   UNL     1     -12.274   7.424  70.966  1.00  0.00    -0.315 C  
BRANCH  19  20
HETATM   20  C   UNL     1     -12.475   8.791  71.608  1.00  0.00    -0.392 C  
BRANCH  20  21
HETATM   21  C   UNL     1     -11.664   9.838  70.909  1.00  0.00    -0.347 C  
HETATM   22  O   UNL     1     -10.461   9.793  70.681  1.00  0.00    -0.289 OA 
BRANCH  21  23
HETATM   23  O   UNL     1     -12.462  10.920  70.697  1.00  0.00    -0.322 OA 
BRANCH  23  24
HETATM   24  C   UNL     1     -12.956  11.409  71.927  1.00  0.00    -0.361 C  
BRANCH  24  25
HETATM   25  C   UNL     1     -13.248  12.893  71.893  1.00  0.00    -0.521 C  
BRANCH  25  26
HETATM   26  C   UNL     1     -12.331  13.658  70.942  1.00  0.00    -0.450 C  
BRANCH  26  27
HETATM   27  C   UNL     1     -12.717  15.125  70.707  1.00  0.00    -0.405 C  
BRANCH  27  28
HETATM   28  O   UNL     1     -13.654  15.516  71.687  1.00  0.00    -0.474 OA 
HETATM   29  N   UNL     1     -13.040  16.114  72.813  1.00  0.00    -0.392 N  
HETATM   30  O   UNL     1     -13.851  16.397  73.698  1.00  0.00    -0.438 OA 
HETATM   31  O   UNL     1     -11.826  16.265  72.781  1.00  0.00    -0.510 OA 
ENDBRANCH  27  28
ENDBRANCH  26  27
ENDBRANCH  25  26
ENDBRANCH  24  25
ENDBRANCH  23  24
ENDBRANCH  21  23
ENDBRANCH  20  21
ENDBRANCH  19  20
ENDBRANCH  18  19
ENDBRANCH  17  18
ENDBRANCH  15  16
ENDBRANCH   8  15
ENDBRANCH   5   6
ENDBRANCH   4   5
ENDBRANCH   2   4
BRANCH   2  32
HETATM   32  C   UNL     1      -9.716  10.079  66.569  1.00  0.00    -0.254 C  
BRANCH  32  33
HETATM   33  C   UNL     1     -10.057  10.306  65.101  1.00  0.00    -0.355 C  
BRANCH  33  34
HETATM   34  C   UNL     1     -10.863  11.557  64.968  1.00  0.00    -0.336 A  
HETATM   35  C   UNL     1     -12.099  13.354  66.011  1.00  0.00    -0.487 A  
HETATM   36  C   UNL     1     -12.087  13.115  63.603  1.00  0.00    -0.583 A  
HETATM   37  C   UNL     1     -11.281  12.234  66.124  1.00  0.00    -0.372 A  
HETATM   38  C   UNL     1     -11.269  11.997  63.710  1.00  0.00    -0.516 A  
HETATM   39  C   UNL     1     -12.502  13.793  64.752  1.00  0.00    -0.386 A  
ENDBRANCH  33  34
ENDBRANCH  32  33
ENDBRANCH   2  32
TORSDOF 18
ENDMDL
MODEL       84
REMARK 921   NORMALIZED FREE ENERGY PREDICTED BY IDOCK:   -4.96 KCAL/MOL
REMARK 922        TOTAL FREE ENERGY PREDICTED BY IDOCK:  -14.96 KCAL/MOL
REMARK 923 INTER-LIGAND FREE ENERGY PREDICTED BY IDOCK:  -11.28 KCAL/MOL
REMARK 924 INTRA-LIGAND FREE ENERGY PREDICTED BY IDOCK:   -3.68 KCAL/MOL
REMARK 927      BINDING AFFINITY PREDICTED BY RF-SCORE:    0.00 PKD
ROOT
HETATM    1  O   UNL     1     -12.471  14.523  68.688  1.00  0.00    -0.584 OA 
HETATM    2  C   UNL     1     -12.247  13.238  68.112  1.00  0.00    -0.061 C  
HETATM    3  H   UNL     1     -12.975  15.066  68.093  1.00  0.00     0.000 HD 
ENDROOT
BRANCH   2   4
HETATM    4  C   UNL     1     -11.429  12.357  69.077  1.00  0.00    -0.352 C  
BRANCH   4   5
HETATM    5  C   UNL     1     -11.810  10.873  69.085  1.00  0.00    -0.389 C  
BRANCH   5   6
HETATM    6  C   UNL     1     -11.655  10.136  70.435  1.00  0.00    -0.396 C  
HETATM    7  H   UNL     1     -11.249   6.508  72.124  1.00  0.00     0.000 HD 
HETATM    8  C   UNL     1     -11.419   8.566  70.415  1.00  0.00    -0.135 C  
HETATM    9  C   UNL     1     -12.959  10.292  71.229  1.00  0.00    -0.420 C  
HETATM   10  C   UNL     1     -12.847   9.255  72.308  1.00  0.00    -0.459 C  
HETATM   11  O   UNL     1     -13.092  11.576  71.810  1.00  0.00    -0.472 OA 
HETATM   12  O   UNL     1     -11.600   7.271  72.568  1.00  0.00    -0.282 OA 
HETATM   13  H   UNL     1     -13.899  11.673  72.301  1.00  0.00     0.000 HD 
HETATM   14  C   UNL     1     -12.288   8.039  71.601  1.00  0.00    -0.314 C  
BRANCH   8  15
HETATM   15  C   UNL     1      -9.925   8.110  70.439  1.00  0.00    -0.190 C  
BRANCH  15  16
HETATM   16  C   UNL     1      -9.186   8.216  69.118  1.00  0.00    -0.151 C  
HETATM   17  C   UNL     1      -8.361   9.162  68.626  1.00  0.00    -0.126 C  
BRANCH  17  18
HETATM   18  C   UNL     1      -7.922  10.452  69.258  1.00  0.00    -0.157 C  
BRANCH  18  19
HETATM   19  C   UNL     1      -7.888  11.613  68.252  1.00  0.00    -0.136 C  
BRANCH  19  20
HETATM   20  C   UNL     1      -6.544  12.325  68.159  1.00  0.00    -0.067 C  
BRANCH  20  21
HETATM   21  C   UNL     1      -6.717  13.744  67.715  1.00  0.00    -0.172 C  
HETATM   22  O   UNL     1      -5.821  14.549  67.490  1.00  0.00    -0.340 OA 
BRANCH  21  23
HETATM   23  O   UNL     1      -8.046  14.037  67.743  1.00  0.00    -0.139 OA 
BRANCH  23  24
HETATM   24  C   UNL     1      -8.244  15.420  67.537  1.00  0.00    -0.169 C  
BRANCH  24  25
HETATM   25  C   UNL     1      -9.236  16.021  68.509  1.00  0.00    -0.206 C  
BRANCH  25  26
HETATM   26  C   UNL     1      -9.250  17.548  68.475  1.00  0.00    -0.278 C  
BRANCH  26  27
HETATM   27  C   UNL     1     -10.484  18.172  67.808  1.00  0.00    -0.404 C  
BRANCH  27  28
HETATM   28  O   UNL     1     -10.906  17.338  66.751  1.00  0.00    -0.147 OA 
HETATM   29  N   UNL     1     -10.785  17.966  65.489  1.00  0.00    -0.180 N  
HETATM   30  O   UNL     1     -11.214  17.264  64.569  1.00  0.00    -1.083 OA 
HETATM   31  O   UNL     1     -10.298  19.088  65.459  1.00  0.00    -0.485 OA 
ENDBRANCH  27  28
ENDBRANCH  26  27
ENDBRANCH  25  26
ENDBRANCH  24  25
ENDBRANCH  23  24
ENDBRANCH  21  23
ENDBRANCH  20  21
ENDBRANCH  19  20
ENDBRANCH  18  19
ENDBRANCH  17  18
ENDBRANCH  15  16
ENDBRANCH   8  15
ENDBRANCH   5   6
ENDBRANCH   4   5
ENDBRANCH   2   4
BRANCH   2  32
HETATM   32  C   UNL     1     -11.506  13.468  66.803  1.00  0.00    -0.374 C  
BRANCH  32  33
HETATM   33  C   UNL     1     -12.123  12.675  65.657  1.00  0.00    -0.502 C  
BRANCH  33  34
HETATM   34  C   UNL     1     -11.082  11.794  65.048  1.00  0.00    -0.343 A  
HETATM   35  C   UNL     1      -9.796  11.125  63.113  1.00  0.00    -0.403 A  
HETATM   36  C   UNL     1      -9.644   9.868  65.175  1.00  0.00    -0.367 A  
HETATM   37  C   UNL     1     -10.706  11.992  63.711  1.00  0.00    -0.478 A  
HETATM   38  C   UNL     1     -10.552  10.730  65.778  1.00  0.00    -0.204 A  
HETATM   39  C   UNL     1      -9.266  10.064  63.845  1.00  0.00    -0.317 A  
ENDBRANCH  33  34
ENDBRANCH  32  33
ENDBRANCH   2  32
TORSDOF 18
ENDMDL
MODEL       85
REMARK 921   NORMALIZED FREE ENERGY PREDICTED BY IDOCK:   -4.96 KCAL/MOL
REMARK 922        TOTAL FREE ENERGY PREDICTED BY IDOCK:  -14.96 KCAL/MOL
REMARK 923 INTER-LIGAND FREE ENERGY PREDICTED BY IDOCK:  -12.29 KCAL/MOL
REMARK 924 INTRA-LIGAND FREE ENERGY PREDICTED BY IDOCK:   -2.67 KCAL/MOL
REMARK 927      BINDING AFFINITY PREDICTED BY RF-SCORE:    0.00 PKD
ROOT
HETATM    1  O   UNL     1     -10.861  14.690  70.537  1.00  0.00    -0.483 OA 
HETATM    2  C   UNL     1     -11.902  14.697  69.561  1.00  0.00    -0.330 C  
HETATM    3  H   UNL     1     -10.949  15.440  71.114  1.00  0.00     0.000 HD 
ENDROOT
BRANCH   2   4
HETATM    4  C   UNL     1     -11.760  13.481  68.625  1.00  0.00    -0.389 C  
BRANCH   4   5
HETATM    5  C   UNL     1     -10.889  13.711  67.386  1.00  0.00    -0.282 C  
BRANCH   5   6
HETATM    6  C   UNL     1     -11.240  12.868  66.138  1.00  0.00    -0.326 C  
HETATM    7  H   UNL     1      -9.663  10.805  63.067  1.00  0.00     0.000 HD 
HETATM    8  C   UNL     1     -10.055  12.190  65.328  1.00  0.00    -0.291 C  
HETATM    9  C   UNL     1     -11.905  13.784  65.102  1.00  0.00    -0.352 C  
HETATM   10  C   UNL     1     -11.853  12.985  63.833  1.00  0.00    -0.542 C  
HETATM   11  O   UNL     1     -13.250  14.084  65.424  1.00  0.00    -0.761 OA 
HETATM   12  O   UNL     1     -10.532  11.188  63.067  1.00  0.00    -0.261 OA 
HETATM   13  H   UNL     1     -13.662  14.651  64.783  1.00  0.00     0.000 HD 
HETATM   14  C   UNL     1     -10.467  12.375  63.832  1.00  0.00    -0.439 C  
BRANCH   8  15
HETATM   15  C   UNL     1      -9.711  10.723  65.741  1.00  0.00    -0.278 C  
BRANCH  15  16
HETATM   16  C   UNL     1     -10.505  10.168  66.910  1.00  0.00    -0.286 C  
HETATM   17  C   UNL     1     -10.613   8.920  67.406  1.00  0.00    -0.305 C  
BRANCH  17  18
HETATM   18  C   UNL     1      -9.966   7.653  66.923  1.00  0.00    -0.325 C  
BRANCH  18  19
HETATM   19  C   UNL     1     -10.818   6.410  67.227  1.00  0.00    -0.463 C  
BRANCH  19  20
HETATM   20  C   UNL     1     -10.148   5.399  68.148  1.00  0.00    -0.220 C  
BRANCH  20  21
HETATM   21  C   UNL     1     -10.418   5.719  69.585  1.00  0.00    -0.293 C  
HETATM   22  O   UNL     1      -9.632   5.598  70.517  1.00  0.00    -0.165 OA 
BRANCH  21  23
HETATM   23  O   UNL     1     -11.737   6.031  69.708  1.00  0.00    -0.213 OA 
BRANCH  23  24
HETATM   24  C   UNL     1     -11.967   6.705  70.927  1.00  0.00    -0.355 C  
BRANCH  24  25
HETATM   25  C   UNL     1     -11.901   8.210  70.787  1.00  0.00    -0.167 C  
BRANCH  25  26
HETATM   26  C   UNL     1     -11.179   8.885  71.951  1.00  0.00    -0.447 C  
BRANCH  26  27
HETATM   27  C   UNL     1      -9.652   8.725  71.948  1.00  0.00    -0.302 C  
BRANCH  27  28
HETATM   28  O   UNL     1      -9.174   8.892  70.631  1.00  0.00    -0.176 OA 
HETATM   29  N   UNL     1      -7.788   9.171  70.591  1.00  0.00    -0.132 N  
HETATM   30  O   UNL     1      -7.381   9.382  69.446  1.00  0.00    -0.072 OA 
HETATM   31  O   UNL     1      -7.181   9.179  71.654  1.00  0.00    -0.299 OA 
ENDBRANCH  27  28
ENDBRANCH  26  27
ENDBRANCH  25  26
ENDBRANCH  24  25
ENDBRANCH  23  24
ENDBRANCH  21  23
ENDBRANCH  20  21
ENDBRANCH  19  20
ENDBRANCH  18  19
ENDBRANCH  17  18
ENDBRANCH  15  16
ENDBRANCH   8  15
ENDBRANCH   5   6
ENDBRANCH   4   5
ENDBRANCH   2   4
BRANCH   2  32
HETATM   32  C   UNL     1     -11.776  16.007  68.797  1.00  0.00    -0.302 C  
BRANCH  32  33
HETATM   33  C   UNL     1     -10.571  16.817  69.260  1.00  0.00    -0.336 C  
BRANCH  33  34
HETATM   34  C   UNL     1     -10.317  17.924  68.289  1.00  0.00    -0.389 A  
HETATM   35  C   UNL     1      -9.729  20.232  67.875  1.00  0.00    -0.472 A  
HETATM   36  C   UNL     1     -10.425  18.802  66.051  1.00  0.00    -0.483 A  
HETATM   37  C   UNL     1      -9.890  19.173  68.764  1.00  0.00    -0.502 A  
HETATM   38  C   UNL     1     -10.587  17.741  66.934  1.00  0.00    -0.247 A  
HETATM   39  C   UNL     1      -9.997  20.046  66.520  1.00  0.00    -0.603 A  
ENDBRANCH  33  34
ENDBRANCH  32  33
ENDBRANCH   2  32
TORSDOF 18
ENDMDL
MODEL       86
REMARK 921   NORMALIZED FREE ENERGY PREDICTED BY IDOCK:   -4.94 KCAL/MOL
REMARK 922        TOTAL FREE ENERGY PREDICTED BY IDOCK:  -14.93 KCAL/MOL
REMARK 923 INTER-LIGAND FREE ENERGY PREDICTED BY IDOCK:  -11.94 KCAL/MOL
REMARK 924 INTRA-LIGAND FREE ENERGY PREDICTED BY IDOCK:   -2.99 KCAL/MOL
REMARK 927      BINDING AFFINITY PREDICTED BY RF-SCORE:    0.00 PKD
ROOT
HETATM    1  O   UNL     1     -11.822  10.002  68.273  1.00  0.00    -0.590 OA 
HETATM    2  C   UNL     1     -12.123  11.271  68.851  1.00  0.00    -0.224 C  
HETATM    3  H   UNL     1     -12.207   9.306  68.792  1.00  0.00     0.000 HD 
ENDROOT
BRANCH   2   4
HETATM    4  C   UNL     1     -11.499  12.401  68.009  1.00  0.00    -0.377 C  
BRANCH   4   5
HETATM    5  C   UNL     1     -10.309  13.115  68.659  1.00  0.00    -0.207 C  
BRANCH   5   6
HETATM    6  C   UNL     1      -9.972  14.520  68.109  1.00  0.00    -0.220 C  
HETATM    7  H   UNL     1      -7.202  17.436  68.132  1.00  0.00     0.000 HD 
HETATM    8  C   UNL     1      -8.548  15.139  68.441  1.00  0.00    -0.159 C  
HETATM    9  C   UNL     1     -10.953  15.530  68.718  1.00  0.00    -0.270 C  
HETATM   10  C   UNL     1     -10.319  16.860  68.433  1.00  0.00    -0.338 C  
HETATM   11  O   UNL     1     -12.235  15.473  68.120  1.00  0.00    -0.409 OA 
HETATM   12  O   UNL     1      -8.124  17.572  67.947  1.00  0.00    -0.219 OA 
HETATM   13  H   UNL     1     -12.842  16.099  68.497  1.00  0.00     0.000 HD 
HETATM   14  C   UNL     1      -8.849  16.644  68.729  1.00  0.00    -0.264 C  
BRANCH   8  15
HETATM   15  C   UNL     1      -7.438  14.882  67.372  1.00  0.00    -0.228 C  
BRANCH  15  16
HETATM   16  C   UNL     1      -6.304  13.973  67.811  1.00  0.00    -0.170 C  
HETATM   17  C   UNL     1      -6.046  12.675  67.555  1.00  0.00    -0.157 C  
BRANCH  17  18
HETATM   18  C   UNL     1      -6.843  11.698  66.738  1.00  0.00    -0.086 C  
BRANCH  18  19
HETATM   19  C   UNL     1      -7.266  10.465  67.553  1.00  0.00    -0.087 C  
BRANCH  19  20
HETATM   20  C   UNL     1      -8.712  10.037  67.340  1.00  0.00    -0.125 C  
BRANCH  20  21
HETATM   21  C   UNL     1      -8.934   9.570  65.935  1.00  0.00    -0.173 C  
HETATM   22  O   UNL     1      -8.136   8.956  65.239  1.00  0.00    -0.113 OA 
BRANCH  21  23
HETATM   23  O   UNL     1     -10.125  10.072  65.507  1.00  0.00    -0.298 OA 
BRANCH  23  24
HETATM   24  C   UNL     1      -9.912  11.217  64.708  1.00  0.00    -0.287 C  
BRANCH  24  25
HETATM   25  C   UNL     1     -11.176  11.708  64.037  1.00  0.00    -0.448 C  
BRANCH  25  26
HETATM   26  C   UNL     1     -12.025  12.594  64.945  1.00  0.00    -0.459 C  
BRANCH  26  27
HETATM   27  C   UNL     1     -12.146  14.057  64.496  1.00  0.00    -0.459 C  
BRANCH  27  28
HETATM   28  O   UNL     1     -11.199  14.833  65.198  1.00  0.00    -0.346 OA 
HETATM   29  N   UNL     1     -11.058  16.133  64.656  1.00  0.00    -0.411 N  
HETATM   30  O   UNL     1     -10.185  16.790  65.228  1.00  0.00    -0.607 OA 
HETATM   31  O   UNL     1     -11.784  16.436  63.718  1.00  0.00    -1.049 OA 
ENDBRANCH  27  28
ENDBRANCH  26  27
ENDBRANCH  25  26
ENDBRANCH  24  25
ENDBRANCH  23  24
ENDBRANCH  21  23
ENDBRANCH  20  21
ENDBRANCH  19  20
ENDBRANCH  18  19
ENDBRANCH  17  18
ENDBRANCH  15  16
ENDBRANCH   8  15
ENDBRANCH   5   6
ENDBRANCH   4   5
ENDBRANCH   2   4
BRANCH   2  32
HETATM   32  C   UNL     1     -11.561  11.252  70.265  1.00  0.00    -0.366 C  
BRANCH  32  33
HETATM   33  C   UNL     1     -12.611  10.826  71.284  1.00  0.00    -0.532 C  
BRANCH  33  34
HETATM   34  C   UNL     1     -12.558   9.343  71.458  1.00  0.00    -0.447 A  
HETATM   35  C   UNL     1     -13.716   7.235  71.703  1.00  0.00    -0.446 A  
HETATM   36  C   UNL     1     -11.310   7.343  71.943  1.00  0.00    -0.294 A  
HETATM   37  C   UNL     1     -13.750   8.605  71.462  1.00  0.00    -0.368 A  
HETATM   38  C   UNL     1     -11.339   8.711  71.702  1.00  0.00    -0.377 A  
HETATM   39  C   UNL     1     -12.496   6.605  71.944  1.00  0.00    -0.334 A  
ENDBRANCH  33  34
ENDBRANCH  32  33
ENDBRANCH   2  32
TORSDOF 18
ENDMDL
MODEL       87
REMARK 921   NORMALIZED FREE ENERGY PREDICTED BY IDOCK:   -4.94 KCAL/MOL
REMARK 922        TOTAL FREE ENERGY PREDICTED BY IDOCK:  -14.93 KCAL/MOL
REMARK 923 INTER-LIGAND FREE ENERGY PREDICTED BY IDOCK:  -11.90 KCAL/MOL
REMARK 924 INTRA-LIGAND FREE ENERGY PREDICTED BY IDOCK:   -3.03 KCAL/MOL
REMARK 927      BINDING AFFINITY PREDICTED BY RF-SCORE:    0.00 PKD
ROOT
HETATM    1  O   UNL     1     -11.852  11.273  67.838  1.00  0.00    -0.597 OA 
HETATM    2  C   UNL     1     -11.013  11.661  68.924  1.00  0.00    -0.233 C  
HETATM    3  H   UNL     1     -12.272  12.037  67.460  1.00  0.00     0.000 HD 
ENDROOT
BRANCH   2   4
HETATM    4  C   UNL     1     -10.331  10.422  69.537  1.00  0.00    -0.264 C  
BRANCH   4   5
HETATM    5  C   UNL     1     -11.127   9.723  70.644  1.00  0.00    -0.398 C  
BRANCH   5   6
HETATM    6  C   UNL     1     -10.665   8.296  71.020  1.00  0.00    -0.256 C  
HETATM    7  H   UNL     1     -11.878   4.476  71.361  1.00  0.00     0.000 HD 
HETATM    8  C   UNL     1     -11.689   7.097  70.832  1.00  0.00    -0.367 C  
HETATM    9  C   UNL     1     -10.349   8.265  72.521  1.00  0.00    -0.331 C  
HETATM   10  C   UNL     1     -10.287   6.801  72.844  1.00  0.00    -0.245 C  
HETATM   11  O   UNL     1      -9.109   8.876  72.829  1.00  0.00    -0.280 OA 
HETATM   12  O   UNL     1     -11.143   4.851  71.832  1.00  0.00    -0.001 OA 
HETATM   13  H   UNL     1      -8.913   8.857  73.758  1.00  0.00     0.000 HD 
HETATM   14  C   UNL     1     -11.458   6.204  72.093  1.00  0.00    -0.311 C  
BRANCH   8  15
HETATM   15  C   UNL     1     -11.600   6.344  69.466  1.00  0.00    -0.303 C  
BRANCH  15  16
HETATM   16  C   UNL     1     -10.231   6.336  68.810  1.00  0.00    -0.213 C  
HETATM   17  C   UNL     1      -9.731   7.037  67.773  1.00  0.00    -0.156 C  
BRANCH  17  18
HETATM   18  C   UNL     1     -10.410   8.064  66.913  1.00  0.00    -0.408 C  
BRANCH  18  19
HETATM   19  C   UNL     1      -9.486   8.607  65.812  1.00  0.00    -0.192 C  
BRANCH  19  20
HETATM   20  C   UNL     1      -8.945  10.006  66.079  1.00  0.00    -0.174 C  
BRANCH  20  21
HETATM   21  C   UNL     1      -9.566  11.008  65.157  1.00  0.00    -0.237 C  
HETATM   22  O   UNL     1      -9.496  11.011  63.934  1.00  0.00    -0.225 OA 
BRANCH  21  23
HETATM   23  O   UNL     1     -10.104  12.002  65.914  1.00  0.00    -0.224 OA 
BRANCH  23  24
HETATM   24  C   UNL     1      -9.269  13.141  65.886  1.00  0.00     0.188 C  
BRANCH  24  25
HETATM   25  C   UNL     1      -9.878  14.332  66.594  1.00  0.00    -0.288 C  
BRANCH  25  26
HETATM   26  C   UNL     1     -10.054  15.541  65.678  1.00  0.00    -0.406 C  
BRANCH  26  27
HETATM   27  C   UNL     1     -11.395  15.601  64.933  1.00  0.00    -0.315 C  
BRANCH  27  28
HETATM   28  O   UNL     1     -11.447  14.549  63.994  1.00  0.00    -0.130 OA 
HETATM   29  N   UNL     1     -12.511  13.652  64.247  1.00  0.00    -0.301 N  
HETATM   30  O   UNL     1     -12.520  12.696  63.467  1.00  0.00    -0.652 OA 
HETATM   31  O   UNL     1     -13.264  13.914  65.176  1.00  0.00    -0.768 OA 
ENDBRANCH  27  28
ENDBRANCH  26  27
ENDBRANCH  25  26
ENDBRANCH  24  25
ENDBRANCH  23  24
ENDBRANCH  21  23
ENDBRANCH  20  21
ENDBRANCH  19  20
ENDBRANCH  18  19
ENDBRANCH  17  18
ENDBRANCH  15  16
ENDBRANCH   8  15
ENDBRANCH   5   6
ENDBRANCH   4   5
ENDBRANCH   2   4
BRANCH   2  32
HETATM   32  C   UNL     1     -11.904  12.365  69.936  1.00  0.00    -0.376 C  
BRANCH  32  33
HETATM   33  C   UNL     1     -12.089  13.840  69.595  1.00  0.00    -0.392 C  
BRANCH  33  34
HETATM   34  C   UNL     1     -12.534  14.577  70.815  1.00  0.00    -0.420 A  
HETATM   35  C   UNL     1     -11.977  15.793  72.829  1.00  0.00    -0.598 A  
HETATM   36  C   UNL     1     -14.277  15.217  72.346  1.00  0.00    -0.540 A  
HETATM   37  C   UNL     1     -11.577  15.174  71.648  1.00  0.00    -0.463 A  
HETATM   38  C   UNL     1     -13.883  14.597  71.167  1.00  0.00    -0.340 A  
HETATM   39  C   UNL     1     -13.326  15.814  73.177  1.00  0.00    -0.685 A  
ENDBRANCH  33  34
ENDBRANCH  32  33
ENDBRANCH   2  32
TORSDOF 18
ENDMDL
MODEL       88
REMARK 921   NORMALIZED FREE ENERGY PREDICTED BY IDOCK:   -4.94 KCAL/MOL
REMARK 922        TOTAL FREE ENERGY PREDICTED BY IDOCK:  -14.92 KCAL/MOL
REMARK 923 INTER-LIGAND FREE ENERGY PREDICTED BY IDOCK:  -11.57 KCAL/MOL
REMARK 924 INTRA-LIGAND FREE ENERGY PREDICTED BY IDOCK:   -3.35 KCAL/MOL
REMARK 927      BINDING AFFINITY PREDICTED BY RF-SCORE:    0.00 PKD
ROOT
HETATM    1  O   UNL     1      -8.923   8.604  64.755  1.00  0.00    -0.405 OA 
HETATM    2  C   UNL     1      -9.114   8.358  66.147  1.00  0.00    -0.189 C  
HETATM    3  H   UNL     1      -8.704   9.517  64.611  1.00  0.00     0.000 HD 
ENDROOT
BRANCH   2   4
HETATM    4  C   UNL     1      -9.468   6.876  66.382  1.00  0.00    -0.170 C  
BRANCH   4   5
HETATM    5  C   UNL     1     -10.539   6.624  67.448  1.00  0.00    -0.370 C  
BRANCH   5   6
HETATM    6  C   UNL     1     -10.042   6.557  68.911  1.00  0.00    -0.183 C  
HETATM    7  H   UNL     1      -7.370   4.804  71.354  1.00  0.00     0.000 HD 
HETATM    8  C   UNL     1      -8.771   5.664  69.236  1.00  0.00    -0.108 C  
HETATM    9  C   UNL     1     -11.148   5.933  69.773  1.00  0.00    -0.352 C  
HETATM   10  C   UNL     1     -10.445   5.571  71.049  1.00  0.00    -0.314 C  
HETATM   11  O   UNL     1     -12.201   6.839  70.047  1.00  0.00    -0.641 OA 
HETATM   12  O   UNL     1      -8.197   5.176  71.640  1.00  0.00    -0.112 OA 
HETATM   13  H   UNL     1     -12.885   6.453  70.581  1.00  0.00     0.000 HD 
HETATM   14  C   UNL     1      -9.128   4.979  70.594  1.00  0.00    -0.133 C  
BRANCH   8  15
HETATM   15  C   UNL     1      -7.400   6.413  69.216  1.00  0.00    -0.092 C  
BRANCH  15  16
HETATM   16  C   UNL     1      -7.482   7.927  69.139  1.00  0.00    -0.093 C  
HETATM   17  C   UNL     1      -7.916   8.846  70.024  1.00  0.00    -0.109 C  
BRANCH  17  18
HETATM   18  C   UNL     1      -8.483   8.638  71.399  1.00  0.00    -0.240 C  
BRANCH  18  19
HETATM   19  C   UNL     1      -9.952   9.079  71.497  1.00  0.00    -0.391 C  
BRANCH  19  20
HETATM   20  C   UNL     1     -10.432   9.928  70.327  1.00  0.00    -0.348 C  
BRANCH  20  21
HETATM   21  C   UNL     1     -11.912  10.144  70.390  1.00  0.00    -0.267 C  
HETATM   22  O   UNL     1     -12.729   9.420  70.946  1.00  0.00    -0.236 OA 
BRANCH  21  23
HETATM   23  O   UNL     1     -12.218  11.209  69.600  1.00  0.00    -0.320 OA 
BRANCH  23  24
HETATM   24  C   UNL     1     -11.848  12.412  70.241  1.00  0.00    -0.232 C  
BRANCH  24  25
HETATM   25  C   UNL     1     -12.155  13.639  69.409  1.00  0.00    -0.364 C  
BRANCH  25  26
HETATM   26  C   UNL     1     -11.877  14.944  70.150  1.00  0.00    -0.357 C  
BRANCH  26  27
HETATM   27  C   UNL     1     -13.065  15.507  70.943  1.00  0.00    -0.448 C  
BRANCH  27  28
HETATM   28  O   UNL     1     -12.575  16.277  72.019  1.00  0.00    -0.386 OA 
HETATM   29  N   UNL     1     -13.184  15.934  73.249  1.00  0.00    -0.580 N  
HETATM   30  O   UNL     1     -12.805  16.649  74.180  1.00  0.00    -0.627 OA 
HETATM   31  O   UNL     1     -13.988  15.010  73.244  1.00  0.00    -0.247 OA 
ENDBRANCH  27  28
ENDBRANCH  26  27
ENDBRANCH  25  26
ENDBRANCH  24  25
ENDBRANCH  23  24
ENDBRANCH  21  23
ENDBRANCH  20  21
ENDBRANCH  19  20
ENDBRANCH  18  19
ENDBRANCH  17  18
ENDBRANCH  15  16
ENDBRANCH   8  15
ENDBRANCH   5   6
ENDBRANCH   4   5
ENDBRANCH   2   4
BRANCH   2  32
HETATM   32  C   UNL     1     -10.237   9.279  66.603  1.00  0.00    -0.323 C  
BRANCH  32  33
HETATM   33  C   UNL     1      -9.766  10.723  66.729  1.00  0.00    -0.221 C  
BRANCH  33  34
HETATM   34  C   UNL     1     -10.513  11.573  65.754  1.00  0.00    -0.308 A  
HETATM   35  C   UNL     1     -12.305  13.131  65.300  1.00  0.00    -0.532 A  
HETATM   36  C   UNL     1     -10.992  12.216  63.485  1.00  0.00    -0.521 A  
HETATM   37  C   UNL     1     -11.552  12.398  66.212  1.00  0.00    -0.449 A  
HETATM   38  C   UNL     1     -10.236  11.481  64.391  1.00  0.00    -0.350 A  
HETATM   39  C   UNL     1     -12.025  13.040  63.938  1.00  0.00    -0.551 A  
ENDBRANCH  33  34
ENDBRANCH  32  33
ENDBRANCH   2  32
TORSDOF 18
ENDMDL
MODEL       89
REMARK 921   NORMALIZED FREE ENERGY PREDICTED BY IDOCK:   -4.94 KCAL/MOL
REMARK 922        TOTAL FREE ENERGY PREDICTED BY IDOCK:  -14.91 KCAL/MOL
REMARK 923 INTER-LIGAND FREE ENERGY PREDICTED BY IDOCK:  -11.56 KCAL/MOL
REMARK 924 INTRA-LIGAND FREE ENERGY PREDICTED BY IDOCK:   -3.35 KCAL/MOL
REMARK 927      BINDING AFFINITY PREDICTED BY RF-SCORE:    0.00 PKD
ROOT
HETATM    1  O   UNL     1     -13.656  14.195  65.367  1.00  0.00    -0.600 OA 
HETATM    2  C   UNL     1     -12.543  13.305  65.428  1.00  0.00    -0.468 C  
HETATM    3  H   UNL     1     -14.327  13.843  64.795  1.00  0.00     0.000 HD 
ENDROOT
BRANCH   2   4
HETATM    4  C   UNL     1     -11.454  13.876  66.356  1.00  0.00    -0.354 C  
BRANCH   4   5
HETATM    5  C   UNL     1     -10.178  14.345  65.650  1.00  0.00    -0.371 C  
BRANCH   5   6
HETATM    6  C   UNL     1      -9.747  15.806  65.916  1.00  0.00    -0.389 C  
HETATM    7  H   UNL     1      -8.803  18.435  68.810  1.00  0.00     0.000 HD 
HETATM    8  C   UNL     1      -9.404  16.232  67.407  1.00  0.00    -0.224 C  
HETATM    9  C   UNL     1     -10.909  16.734  65.536  1.00  0.00    -0.129 C  
HETATM   10  C   UNL     1     -10.544  18.043  66.173  1.00  0.00    -0.269 C  
HETATM   11  O   UNL     1     -11.037  16.901  64.137  1.00  0.00    -1.266 OA 
HETATM   12  O   UNL     1      -9.129  18.676  67.951  1.00  0.00    -0.284 OA 
HETATM   13  H   UNL     1     -11.756  17.476  63.902  1.00  0.00     0.000 HD 
HETATM   14  C   UNL     1     -10.023  17.659  67.543  1.00  0.00    -0.322 C  
BRANCH   8  15
HETATM   15  C   UNL     1      -7.897  16.126  67.806  1.00  0.00    -0.157 C  
BRANCH  15  16
HETATM   16  C   UNL     1      -7.166  14.901  67.287  1.00  0.00    -0.142 C  
HETATM   17  C   UNL     1      -7.291  13.592  67.583  1.00  0.00    -0.185 C  
BRANCH  17  18
HETATM   18  C   UNL     1      -8.217  12.930  68.563  1.00  0.00    -0.065 C  
BRANCH  18  19
HETATM   19  C   UNL     1      -9.111  11.872  67.897  1.00  0.00    -0.183 C  
BRANCH  19  20
HETATM   20  C   UNL     1      -9.607  10.784  68.841  1.00  0.00    -0.204 C  
BRANCH  20  21
HETATM   21  C   UNL     1     -11.059  10.965  69.156  1.00  0.00    -0.245 C  
HETATM   22  O   UNL     1     -11.937  11.296  68.369  1.00  0.00    -0.555 OA 
BRANCH  21  23
HETATM   23  O   UNL     1     -11.217  10.842  70.503  1.00  0.00    -0.282 OA 
BRANCH  23  24
HETATM   24  C   UNL     1     -12.549  10.483  70.805  1.00  0.00    -0.382 C  
BRANCH  24  25
HETATM   25  C   UNL     1     -12.639   9.274  71.711  1.00  0.00    -0.461 C  
BRANCH  25  26
HETATM   26  C   UNL     1     -11.271   8.754  72.146  1.00  0.00    -0.408 C  
BRANCH  26  27
HETATM   27  C   UNL     1     -10.819   7.459  71.457  1.00  0.00    -0.224 C  
BRANCH  27  28
HETATM   28  O   UNL     1     -11.210   7.499  70.102  1.00  0.00    -0.259 OA 
HETATM   29  N   UNL     1     -11.198   6.219  69.498  1.00  0.00    -0.413 N  
HETATM   30  O   UNL     1     -11.477   6.260  68.297  1.00  0.00    -0.177 OA 
HETATM   31  O   UNL     1     -10.918   5.262  70.208  1.00  0.00    -0.166 OA 
ENDBRANCH  27  28
ENDBRANCH  26  27
ENDBRANCH  25  26
ENDBRANCH  24  25
ENDBRANCH  23  24
ENDBRANCH  21  23
ENDBRANCH  20  21
ENDBRANCH  19  20
ENDBRANCH  18  19
ENDBRANCH  17  18
ENDBRANCH  15  16
ENDBRANCH   8  15
ENDBRANCH   5   6
ENDBRANCH   4   5
ENDBRANCH   2   4
BRANCH   2  32
HETATM   32  C   UNL     1     -12.034  13.144  64.003  1.00  0.00    -0.524 C  
BRANCH  32  33
HETATM   33  C   UNL     1     -12.064  11.687  63.554  1.00  0.00    -0.355 C  
BRANCH  33  34
HETATM   34  C   UNL     1     -10.698  11.098  63.696  1.00  0.00    -0.381 A  
HETATM   35  C   UNL     1      -9.069   9.927  65.045  1.00  0.00    -0.264 A  
HETATM   36  C   UNL     1      -8.449  10.824  62.885  1.00  0.00    -0.168 A  
HETATM   37  C   UNL     1     -10.363  10.409  64.871  1.00  0.00    -0.238 A  
HETATM   38  C   UNL     1      -9.740  11.307  62.706  1.00  0.00    -0.289 A  
HETATM   39  C   UNL     1      -8.114  10.135  64.053  1.00  0.00    -0.158 A  
ENDBRANCH  33  34
ENDBRANCH  32  33
ENDBRANCH   2  32
TORSDOF 18
ENDMDL
MODEL       90
REMARK 921   NORMALIZED FREE ENERGY PREDICTED BY IDOCK:   -4.93 KCAL/MOL
REMARK 922        TOTAL FREE ENERGY PREDICTED BY IDOCK:  -14.91 KCAL/MOL
REMARK 923 INTER-LIGAND FREE ENERGY PREDICTED BY IDOCK:  -11.65 KCAL/MOL
REMARK 924 INTRA-LIGAND FREE ENERGY PREDICTED BY IDOCK:   -3.26 KCAL/MOL
REMARK 927      BINDING AFFINITY PREDICTED BY RF-SCORE:    0.00 PKD
ROOT
HETATM    1  O   UNL     1      -8.457  11.727  66.387  1.00  0.00    -0.292 OA 
HETATM    2  C   UNL     1      -9.836  11.416  66.202  1.00  0.00    -0.222 C  
HETATM    3  H   UNL     1      -8.035  11.860  65.545  1.00  0.00     0.000 HD 
ENDROOT
BRANCH   2   4
HETATM    4  C   UNL     1     -10.520  11.201  67.566  1.00  0.00    -0.239 C  
BRANCH   4   5
HETATM    5  C   UNL     1      -9.567  11.097  68.762  1.00  0.00    -0.180 C  
BRANCH   5   6
HETATM    6  C   UNL     1      -9.592   9.761  69.541  1.00  0.00    -0.225 C  
HETATM    7  H   UNL     1     -10.906   7.990  72.905  1.00  0.00     0.000 HD 
HETATM    8  C   UNL     1     -10.440   9.685  70.881  1.00  0.00    -0.359 C  
HETATM    9  C   UNL     1      -8.165   9.437  70.000  1.00  0.00    -0.162 C  
HETATM   10  C   UNL     1      -8.356   8.368  71.036  1.00  0.00    -0.155 C  
HETATM   11  O   UNL     1      -7.353   8.946  68.950  1.00  0.00    -0.072 OA 
HETATM   12  O   UNL     1     -10.159   7.693  72.397  1.00  0.00    -0.186 OA 
HETATM   13  H   UNL     1      -6.469   8.746  69.234  1.00  0.00     0.000 HD 
HETATM   14  C   UNL     1      -9.546   8.841  71.845  1.00  0.00    -0.302 C  
BRANCH   8  15
HETATM   15  C   UNL     1     -11.906   9.170  70.722  1.00  0.00    -0.280 C  
BRANCH  15  16
HETATM   16  C   UNL     1     -12.890   9.660  71.768  1.00  0.00    -0.514 C  
HETATM   17  C   UNL     1     -13.329  10.897  72.074  1.00  0.00    -0.394 C  
BRANCH  17  18
HETATM   18  C   UNL     1     -12.949  12.213  71.457  1.00  0.00    -0.398 C  
BRANCH  18  19
HETATM   19  C   UNL     1     -13.403  13.409  72.308  1.00  0.00    -0.641 C  
BRANCH  19  20
HETATM   20  C   UNL     1     -13.883  14.609  71.501  1.00  0.00    -0.508 C  
BRANCH  20  21
HETATM   21  C   UNL     1     -12.792  15.621  71.342  1.00  0.00    -0.482 C  
HETATM   22  O   UNL     1     -12.255  16.258  72.240  1.00  0.00    -0.482 OA 
BRANCH  21  23
HETATM   23  O   UNL     1     -12.594  15.823  70.010  1.00  0.00    -0.301 OA 
BRANCH  23  24
HETATM   24  C   UNL     1     -11.215  15.954  69.737  1.00  0.00    -0.339 C  
BRANCH  24  25
HETATM   25  C   UNL     1     -10.700  14.891  68.791  1.00  0.00    -0.252 C  
BRANCH  25  26
HETATM   26  C   UNL     1      -9.898  15.469  67.627  1.00  0.00    -0.213 C  
BRANCH  26  27
HETATM   27  C   UNL     1     -10.632  15.486  66.278  1.00  0.00    -0.307 C  
BRANCH  27  28
HETATM   28  O   UNL     1     -11.515  14.387  66.222  1.00  0.00    -0.342 OA 
HETATM   29  N   UNL     1     -12.274  14.366  65.028  1.00  0.00    -0.417 N  
HETATM   30  O   UNL     1     -13.093  13.443  65.005  1.00  0.00    -0.734 OA 
HETATM   31  O   UNL     1     -12.045  15.234  64.196  1.00  0.00    -0.554 OA 
ENDBRANCH  27  28
ENDBRANCH  26  27
ENDBRANCH  25  26
ENDBRANCH  24  25
ENDBRANCH  23  24
ENDBRANCH  21  23
ENDBRANCH  20  21
ENDBRANCH  19  20
ENDBRANCH  18  19
ENDBRANCH  17  18
ENDBRANCH  15  16
ENDBRANCH   8  15
ENDBRANCH   5   6
ENDBRANCH   4   5
ENDBRANCH   2   4
BRANCH   2  32
HETATM   32  C   UNL     1      -9.890  10.158  65.346  1.00  0.00    -0.375 C  
BRANCH  32  33
HETATM   33  C   UNL     1      -8.708   9.237  65.622  1.00  0.00    -0.193 C  
BRANCH  33  34
HETATM   34  C   UNL     1      -9.214   7.897  66.045  1.00  0.00    -0.162 A  
HETATM   35  C   UNL     1      -9.011   5.488  65.999  1.00  0.00    -0.154 A  
HETATM   36  C   UNL     1     -10.929   6.534  67.042  1.00  0.00    -0.466 A  
HETATM   37  C   UNL     1      -8.504   6.744  65.678  1.00  0.00    -0.142 A  
HETATM   38  C   UNL     1     -10.427   7.790  66.724  1.00  0.00    -0.318 A  
HETATM   39  C   UNL     1     -10.223   5.384  66.680  1.00  0.00    -0.285 A  
ENDBRANCH  33  34
ENDBRANCH  32  33
ENDBRANCH   2  32
TORSDOF 18
ENDMDL
MODEL       91
REMARK 921   NORMALIZED FREE ENERGY PREDICTED BY IDOCK:   -4.92 KCAL/MOL
REMARK 922        TOTAL FREE ENERGY PREDICTED BY IDOCK:  -14.89 KCAL/MOL
REMARK 923 INTER-LIGAND FREE ENERGY PREDICTED BY IDOCK:  -11.89 KCAL/MOL
REMARK 924 INTRA-LIGAND FREE ENERGY PREDICTED BY IDOCK:   -3.00 KCAL/MOL
REMARK 927      BINDING AFFINITY PREDICTED BY RF-SCORE:    0.00 PKD
ROOT
HETATM    1  O   UNL     1     -11.975   5.344  73.159  1.00  0.00    -0.546 OA 
HETATM    2  C   UNL     1     -10.576   5.235  72.905  1.00  0.00    -0.229 C  
HETATM    3  H   UNL     1     -12.344   4.486  73.332  1.00  0.00     0.000 HD 
ENDROOT
BRANCH   2   4
HETATM    4  C   UNL     1      -9.976   6.626  72.624  1.00  0.00    -0.185 C  
BRANCH   4   5
HETATM    5  C   UNL     1     -10.882   7.809  72.981  1.00  0.00    -0.451 C  
BRANCH   5   6
HETATM    6  C   UNL     1     -11.644   8.465  71.806  1.00  0.00    -0.372 C  
HETATM    7  H   UNL     1     -11.760  11.695  69.413  1.00  0.00     0.000 HD 
HETATM    8  C   UNL     1     -11.078   9.819  71.202  1.00  0.00    -0.414 C  
HETATM    9  C   UNL     1     -13.050   8.847  72.288  1.00  0.00    -0.436 C  
HETATM   10  C   UNL     1     -13.547   9.788  71.230  1.00  0.00    -0.285 C  
HETATM   11  O   UNL     1     -13.915   7.731  72.383  1.00  0.00    -0.530 OA 
HETATM   12  O   UNL     1     -12.507  11.139  69.602  1.00  0.00    -0.259 OA 
HETATM   13  H   UNL     1     -14.785   7.968  72.681  1.00  0.00     0.000 HD 
HETATM   14  C   UNL     1     -12.357  10.673  70.928  1.00  0.00    -0.401 C  
BRANCH   8  15
HETATM   15  C   UNL     1     -10.118   9.661  69.979  1.00  0.00    -0.293 C  
BRANCH  15  16
HETATM   16  C   UNL     1     -10.437   8.512  69.040  1.00  0.00    -0.216 C  
HETATM   17  C   UNL     1      -9.793   8.038  67.954  1.00  0.00    -0.204 C  
BRANCH  17  18
HETATM   18  C   UNL     1      -8.527   8.534  67.316  1.00  0.00    -0.123 C  
BRANCH  18  19
HETATM   19  C   UNL     1      -8.692   8.782  65.809  1.00  0.00    -0.209 C  
BRANCH  19  20
HETATM   20  C   UNL     1      -9.743   9.826  65.456  1.00  0.00    -0.382 C  
BRANCH  20  21
HETATM   21  C   UNL     1      -9.268  10.717  64.350  1.00  0.00    -0.234 C  
HETATM   22  O   UNL     1      -8.374  10.468  63.551  1.00  0.00    -0.164 OA 
BRANCH  21  23
HETATM   23  O   UNL     1      -9.900  11.916  64.472  1.00  0.00    -0.242 OA 
BRANCH  23  24
HETATM   24  C   UNL     1     -10.713  12.154  63.342  1.00  0.00    -0.409 C  
BRANCH  24  25
HETATM   25  C   UNL     1     -12.185  12.227  63.682  1.00  0.00    -0.665 C  
BRANCH  25  26
HETATM   26  C   UNL     1     -12.440  12.612  65.138  1.00  0.00    -0.531 C  
BRANCH  26  27
HETATM   27  C   UNL     1     -12.830  14.080  65.363  1.00  0.00    -0.410 C  
BRANCH  27  28
HETATM   28  O   UNL     1     -11.673  14.817  65.691  1.00  0.00    -0.335 OA 
HETATM   29  N   UNL     1     -11.409  15.850  64.759  1.00  0.00    -0.367 N  
HETATM   30  O   UNL     1     -10.363  16.454  65.007  1.00  0.00    -0.615 OA 
HETATM   31  O   UNL     1     -12.213  16.010  63.850  1.00  0.00    -0.883 OA 
ENDBRANCH  27  28
ENDBRANCH  26  27
ENDBRANCH  25  26
ENDBRANCH  24  25
ENDBRANCH  23  24
ENDBRANCH  21  23
ENDBRANCH  20  21
ENDBRANCH  19  20
ENDBRANCH  18  19
ENDBRANCH  17  18
ENDBRANCH  15  16
ENDBRANCH   8  15
ENDBRANCH   5   6
ENDBRANCH   4   5
ENDBRANCH   2   4
BRANCH   2  32
HETATM   32  C   UNL     1     -10.419   4.308  71.708  1.00  0.00    -0.026 C  
BRANCH  32  33
HETATM   33  C   UNL     1      -9.975   5.066  70.462  1.00  0.00    -0.312 C  
BRANCH  33  34
HETATM   34  C   UNL     1      -9.575   4.088  69.405  1.00  0.00    -0.257 A  
HETATM   35  C   UNL     1      -9.154   3.601  67.075  1.00  0.00    -0.186 A  
HETATM   36  C   UNL     1      -9.120   1.827  68.720  1.00  0.00    -0.182 A  
HETATM   37  C   UNL     1      -9.448   4.521  68.077  1.00  0.00    -0.197 A  
HETATM   38  C   UNL     1      -9.413   2.741  69.725  1.00  0.00    -0.155 A  
HETATM   39  C   UNL     1      -8.991   2.255  67.397  1.00  0.00    -0.180 A  
ENDBRANCH  33  34
ENDBRANCH  32  33
ENDBRANCH   2  32
TORSDOF 18
ENDMDL
MODEL       92
REMARK 921   NORMALIZED FREE ENERGY PREDICTED BY IDOCK:   -4.92 KCAL/MOL
REMARK 922        TOTAL FREE ENERGY PREDICTED BY IDOCK:  -14.89 KCAL/MOL
REMARK 923 INTER-LIGAND FREE ENERGY PREDICTED BY IDOCK:  -12.47 KCAL/MOL
REMARK 924 INTRA-LIGAND FREE ENERGY PREDICTED BY IDOCK:   -2.41 KCAL/MOL
REMARK 927      BINDING AFFINITY PREDICTED BY RF-SCORE:    0.00 PKD
ROOT
HETATM    1  O   UNL     1     -11.215  13.956  70.183  1.00  0.00    -0.477 OA 
HETATM    2  C   UNL     1     -11.825  14.628  69.083  1.00  0.00    -0.312 C  
HETATM    3  H   UNL     1     -11.629  14.218  70.997  1.00  0.00     0.000 HD 
ENDROOT
BRANCH   2   4
HETATM    4  C   UNL     1     -11.153  14.204  67.762  1.00  0.00    -0.292 C  
BRANCH   4   5
HETATM    5  C   UNL     1     -12.098  14.072  66.564  1.00  0.00    -0.488 C  
BRANCH   5   6
HETATM    6  C   UNL     1     -11.842  12.874  65.620  1.00  0.00    -0.464 C  
HETATM    7  H   UNL     1      -9.407   9.747  64.933  1.00  0.00     0.000 HD 
HETATM    8  C   UNL     1     -10.672  11.865  65.983  1.00  0.00    -0.326 C  
HETATM    9  C   UNL     1     -11.434  13.416  64.244  1.00  0.00    -0.393 C  
HETATM   10  C   UNL     1     -10.854  12.221  63.546  1.00  0.00    -0.508 C  
HETATM   11  O   UNL     1     -12.535  13.914  63.506  1.00  0.00    -0.981 OA 
HETATM   12  O   UNL     1      -9.937  10.172  64.268  1.00  0.00    -0.298 OA 
HETATM   13  H   UNL     1     -12.283  14.249  62.654  1.00  0.00     0.000 HD 
HETATM   14  C   UNL     1     -10.010  11.543  64.605  1.00  0.00    -0.261 C  
BRANCH   8  15
HETATM   15  C   UNL     1     -11.097  10.614  66.818  1.00  0.00    -0.103 C  
BRANCH  15  16
HETATM   16  C   UNL     1     -10.452  10.490  68.186  1.00  0.00    -0.217 C  
HETATM   17  C   UNL     1     -10.972  10.536  69.429  1.00  0.00    -0.297 C  
BRANCH  17  18
HETATM   18  C   UNL     1     -12.399  10.748  69.847  1.00  0.00    -0.340 C  
BRANCH  18  19
HETATM   19  C   UNL     1     -12.543  10.915  71.368  1.00  0.00    -0.508 C  
BRANCH  19  20
HETATM   20  C   UNL     1     -13.454   9.889  72.029  1.00  0.00    -0.478 C  
BRANCH  20  21
HETATM   21  C   UNL     1     -12.901   8.505  71.885  1.00  0.00    -0.363 C  
HETATM   22  O   UNL     1     -13.312   7.633  71.130  1.00  0.00    -0.243 OA 
BRANCH  21  23
HETATM   23  O   UNL     1     -11.950   8.329  72.844  1.00  0.00    -0.316 OA 
BRANCH  23  24
HETATM   24  C   UNL     1     -10.662   8.431  72.275  1.00  0.00    -0.347 C  
BRANCH  24  25
HETATM   25  C   UNL     1     -10.160   7.116  71.720  1.00  0.00    -0.197 C  
BRANCH  25  26
HETATM   26  C   UNL     1      -9.962   7.146  70.207  1.00  0.00    -0.191 C  
BRANCH  26  27
HETATM   27  C   UNL     1     -10.680   6.028  69.436  1.00  0.00    -0.334 C  
BRANCH  27  28
HETATM   28  O   UNL     1      -9.727   5.294  68.698  1.00  0.00    -0.128 OA 
HETATM   29  N   UNL     1      -9.401   4.062  69.314  1.00  0.00    -0.154 N  
HETATM   30  O   UNL     1      -8.521   3.448  68.705  1.00  0.00    -0.074 OA 
HETATM   31  O   UNL     1      -9.999   3.766  70.340  1.00  0.00    -0.137 OA 
ENDBRANCH  27  28
ENDBRANCH  26  27
ENDBRANCH  25  26
ENDBRANCH  24  25
ENDBRANCH  23  24
ENDBRANCH  21  23
ENDBRANCH  20  21
ENDBRANCH  19  20
ENDBRANCH  18  19
ENDBRANCH  17  18
ENDBRANCH  15  16
ENDBRANCH   8  15
ENDBRANCH   5   6
ENDBRANCH   4   5
ENDBRANCH   2   4
BRANCH   2  32
HETATM   32  C   UNL     1     -11.663  16.120  69.337  1.00  0.00    -0.213 C  
BRANCH  32  33
HETATM   33  C   UNL     1     -10.240  16.589  69.057  1.00  0.00    -0.285 C  
BRANCH  33  34
HETATM   34  C   UNL     1     -10.283  17.828  68.224  1.00  0.00    -0.382 A  
HETATM   35  C   UNL     1     -10.481  18.866  66.049  1.00  0.00    -0.507 A  
HETATM   36  C   UNL     1      -9.968  20.204  68.000  1.00  0.00    -0.519 A  
HETATM   37  C   UNL     1     -10.519  17.725  66.845  1.00  0.00    -0.308 A  
HETATM   38  C   UNL     1     -10.005  19.067  68.799  1.00  0.00    -0.475 A  
HETATM   39  C   UNL     1     -10.206  20.104  66.627  1.00  0.00    -0.556 A  
ENDBRANCH  33  34
ENDBRANCH  32  33
ENDBRANCH   2  32
TORSDOF 18
ENDMDL
MODEL       93
REMARK 921   NORMALIZED FREE ENERGY PREDICTED BY IDOCK:   -4.92 KCAL/MOL
REMARK 922        TOTAL FREE ENERGY PREDICTED BY IDOCK:  -14.87 KCAL/MOL
REMARK 923 INTER-LIGAND FREE ENERGY PREDICTED BY IDOCK:  -11.84 KCAL/MOL
REMARK 924 INTRA-LIGAND FREE ENERGY PREDICTED BY IDOCK:   -3.03 KCAL/MOL
REMARK 927      BINDING AFFINITY PREDICTED BY RF-SCORE:    0.00 PKD
ROOT
HETATM    1  O   UNL     1     -13.101   8.638  73.064  1.00  0.00    -0.732 OA 
HETATM    2  C   UNL     1     -13.042   8.426  71.655  1.00  0.00    -0.334 C  
HETATM    3  H   UNL     1     -14.000   8.779  73.337  1.00  0.00     0.000 HD 
ENDROOT
BRANCH   2   4
HETATM    4  C   UNL     1     -11.583   8.198  71.212  1.00  0.00    -0.305 C  
BRANCH   4   5
HETATM    5  C   UNL     1     -10.531   8.418  72.304  1.00  0.00    -0.407 C  
BRANCH   5   6
HETATM    6  C   UNL     1      -9.489   7.289  72.484  1.00  0.00    -0.180 C  
HETATM    7  H   UNL     1      -9.054   3.317  72.940  1.00  0.00     0.000 HD 
HETATM    8  C   UNL     1     -10.001   5.787  72.504  1.00  0.00    -0.194 C  
HETATM    9  C   UNL     1      -8.819   7.458  73.854  1.00  0.00    -0.226 C  
HETATM   10  C   UNL     1      -8.135   6.142  74.082  1.00  0.00    -0.105 C  
HETATM   11  O   UNL     1      -7.865   8.503  73.869  1.00  0.00    -0.367 OA 
HETATM   12  O   UNL     1      -8.421   3.964  73.228  1.00  0.00    -0.087 OA 
HETATM   13  H   UNL     1      -7.450   8.608  74.717  1.00  0.00     0.000 HD 
HETATM   14  C   UNL     1      -9.145   5.112  73.623  1.00  0.00    -0.123 C  
BRANCH   8  15
HETATM   15  C   UNL     1      -9.981   5.051  71.126  1.00  0.00    -0.276 C  
BRANCH  15  16
HETATM   16  C   UNL     1      -9.040   5.633  70.086  1.00  0.00    -0.159 C  
HETATM   17  C   UNL     1      -9.272   6.193  68.882  1.00  0.00    -0.125 C  
BRANCH  17  18
HETATM   18  C   UNL     1     -10.581   6.405  68.176  1.00  0.00    -0.314 C  
BRANCH  18  19
HETATM   19  C   UNL     1     -10.509   7.542  67.144  1.00  0.00    -0.407 C  
BRANCH  19  20
HETATM   20  C   UNL     1     -10.381   8.933  67.751  1.00  0.00    -0.301 C  
BRANCH  20  21
HETATM   21  C   UNL     1      -9.463   9.792  66.939  1.00  0.00    -0.160 C  
HETATM   22  O   UNL     1      -8.794   9.433  65.977  1.00  0.00    -0.142 OA 
BRANCH  21  23
HETATM   23  O   UNL     1      -9.382  11.011  67.539  1.00  0.00    -0.157 OA 
BRANCH  23  24
HETATM   24  C   UNL     1      -8.948  11.983  66.611  1.00  0.00    -0.204 C  
BRANCH  24  25
HETATM   25  C   UNL     1      -9.918  13.135  66.471  1.00  0.00    -0.268 C  
BRANCH  25  26
HETATM   26  C   UNL     1     -11.333  12.682  66.118  1.00  0.00    -0.375 C  
BRANCH  26  27
HETATM   27  C   UNL     1     -12.348  13.816  65.918  1.00  0.00    -0.476 C  
BRANCH  27  28
HETATM   28  O   UNL     1     -11.652  15.036  65.782  1.00  0.00    -0.292 OA 
HETATM   29  N   UNL     1     -11.757  15.574  64.477  1.00  0.00    -0.331 N  
HETATM   30  O   UNL     1     -11.097  16.607  64.338  1.00  0.00    -0.985 OA 
HETATM   31  O   UNL     1     -12.455  14.972  63.671  1.00  0.00    -0.667 OA 
ENDBRANCH  27  28
ENDBRANCH  26  27
ENDBRANCH  25  26
ENDBRANCH  24  25
ENDBRANCH  23  24
ENDBRANCH  21  23
ENDBRANCH  20  21
ENDBRANCH  19  20
ENDBRANCH  18  19
ENDBRANCH  17  18
ENDBRANCH  15  16
ENDBRANCH   8  15
ENDBRANCH   5   6
ENDBRANCH   4   5
ENDBRANCH   2   4
BRANCH   2  32
HETATM   32  C   UNL     1     -13.637   9.665  71.001  1.00  0.00    -0.161 C  
BRANCH  32  33
HETATM   33  C   UNL     1     -12.564  10.529  70.348  1.00  0.00    -0.364 C  
BRANCH  33  34
HETATM   34  C   UNL     1     -12.730  11.945  70.795  1.00  0.00    -0.242 A  
HETATM   35  C   UNL     1     -12.227  14.291  70.500  1.00  0.00    -0.427 A  
HETATM   36  C   UNL     1     -13.469  13.541  72.437  1.00  0.00    -0.685 A  
HETATM   37  C   UNL     1     -12.144  12.977  70.048  1.00  0.00    -0.367 A  
HETATM   38  C   UNL     1     -13.390  12.228  71.990  1.00  0.00    -0.491 A  
HETATM   39  C   UNL     1     -12.889  14.572  71.694  1.00  0.00    -0.409 A  
ENDBRANCH  33  34
ENDBRANCH  32  33
ENDBRANCH   2  32
TORSDOF 18
ENDMDL
MODEL       94
REMARK 921   NORMALIZED FREE ENERGY PREDICTED BY IDOCK:   -4.91 KCAL/MOL
REMARK 922        TOTAL FREE ENERGY PREDICTED BY IDOCK:  -14.87 KCAL/MOL
REMARK 923 INTER-LIGAND FREE ENERGY PREDICTED BY IDOCK:  -12.01 KCAL/MOL
REMARK 924 INTRA-LIGAND FREE ENERGY PREDICTED BY IDOCK:   -2.86 KCAL/MOL
REMARK 927      BINDING AFFINITY PREDICTED BY RF-SCORE:    0.00 PKD
ROOT
HETATM    1  O   UNL     1      -9.217   7.589  65.634  1.00  0.00    -0.388 OA 
HETATM    2  C   UNL     1      -9.012   8.890  66.180  1.00  0.00    -0.178 C  
HETATM    3  H   UNL     1      -9.276   7.637  64.687  1.00  0.00     0.000 HD 
ENDROOT
BRANCH   2   4
HETATM    4  C   UNL     1      -8.916   8.813  67.717  1.00  0.00    -0.140 C  
BRANCH   4   5
HETATM    5  C   UNL     1     -10.162   9.288  68.471  1.00  0.00    -0.225 C  
BRANCH   5   6
HETATM    6  C   UNL     1     -10.874   8.232  69.347  1.00  0.00    -0.095 C  
HETATM    7  H   UNL     1     -10.788   6.390  72.922  1.00  0.00     0.000 HD 
HETATM    8  C   UNL     1     -10.363   8.018  70.835  1.00  0.00    -0.221 C  
HETATM    9  C   UNL     1     -10.684   6.853  68.701  1.00  0.00    -0.216 C  
HETATM   10  C   UNL     1     -11.062   5.892  69.790  1.00  0.00    -0.422 C  
HETATM   11  O   UNL     1     -11.522   6.658  67.577  1.00  0.00    -0.721 OA 
HETATM   12  O   UNL     1     -11.188   6.028  72.140  1.00  0.00    -0.263 OA 
HETATM   13  H   UNL     1     -11.404   5.805  67.177  1.00  0.00     0.000 HD 
HETATM   14  C   UNL     1     -10.425   6.470  71.036  1.00  0.00    -0.222 C  
BRANCH   8  15
HETATM   15  C   UNL     1     -11.103   8.854  71.927  1.00  0.00    -0.442 C  
BRANCH  15  16
HETATM   16  C   UNL     1     -12.535   9.238  71.600  1.00  0.00    -0.448 C  
HETATM   17  C   UNL     1     -13.081  10.408  71.212  1.00  0.00    -0.494 C  
BRANCH  17  18
HETATM   18  C   UNL     1     -12.414  11.735  70.993  1.00  0.00    -0.411 C  
BRANCH  18  19
HETATM   19  C   UNL     1     -13.010  12.841  71.878  1.00  0.00    -0.400 C  
BRANCH  19  20
HETATM   20  C   UNL     1     -13.251  14.161  71.156  1.00  0.00    -0.369 C  
BRANCH  20  21
HETATM   21  C   UNL     1     -11.967  14.902  70.947  1.00  0.00    -0.316 C  
HETATM   22  O   UNL     1     -11.393  15.608  71.768  1.00  0.00    -0.397 OA 
BRANCH  21  23
HETATM   23  O   UNL     1     -11.615  14.776  69.638  1.00  0.00    -0.270 OA 
BRANCH  23  24
HETATM   24  C   UNL     1     -10.541  15.643  69.337  1.00  0.00    -0.253 C  
BRANCH  24  25
HETATM   25  C   UNL     1     -10.832  16.550  68.162  1.00  0.00    -0.345 C  
BRANCH  25  26
HETATM   26  C   UNL     1     -10.434  18.002  68.418  1.00  0.00    -0.326 C  
BRANCH  26  27
HETATM   27  C   UNL     1      -9.359  18.557  67.473  1.00  0.00    -0.279 C  
BRANCH  27  28
HETATM   28  O   UNL     1      -8.085  18.290  68.018  1.00  0.00    -0.255 OA 
HETATM   29  N   UNL     1      -7.223  19.409  67.947  1.00  0.00    -0.250 N  
HETATM   30  O   UNL     1      -6.089  19.160  68.364  1.00  0.00    -0.214 OA 
HETATM   31  O   UNL     1      -7.681  20.449  67.492  1.00  0.00    -0.298 OA 
ENDBRANCH  27  28
ENDBRANCH  26  27
ENDBRANCH  25  26
ENDBRANCH  24  25
ENDBRANCH  23  24
ENDBRANCH  21  23
ENDBRANCH  20  21
ENDBRANCH  19  20
ENDBRANCH  18  19
ENDBRANCH  17  18
ENDBRANCH  15  16
ENDBRANCH   8  15
ENDBRANCH   5   6
ENDBRANCH   4   5
ENDBRANCH   2   4
BRANCH   2  32
HETATM   32  C   UNL     1     -10.193   9.742  65.737  1.00  0.00    -0.222 C  
BRANCH  32  33
HETATM   33  C   UNL     1      -9.753  10.891  64.836  1.00  0.00    -0.318 C  
BRANCH  33  34
HETATM   34  C   UNL     1     -10.693  12.039  65.007  1.00  0.00    -0.341 A  
HETATM   35  C   UNL     1     -11.985  13.470  66.465  1.00  0.00    -0.460 A  
HETATM   36  C   UNL     1     -12.212  13.650  64.063  1.00  0.00    -0.443 A  
HETATM   37  C   UNL     1     -11.049  12.454  66.298  1.00  0.00    -0.344 A  
HETATM   38  C   UNL     1     -11.277  12.636  63.890  1.00  0.00    -0.497 A  
HETATM   39  C   UNL     1     -12.566  14.067  65.348  1.00  0.00    -0.529 A  
ENDBRANCH  33  34
ENDBRANCH  32  33
ENDBRANCH   2  32
TORSDOF 18
ENDMDL
MODEL       95
REMARK 921   NORMALIZED FREE ENERGY PREDICTED BY IDOCK:   -4.90 KCAL/MOL
REMARK 922        TOTAL FREE ENERGY PREDICTED BY IDOCK:  -14.85 KCAL/MOL
REMARK 923 INTER-LIGAND FREE ENERGY PREDICTED BY IDOCK:  -11.90 KCAL/MOL
REMARK 924 INTRA-LIGAND FREE ENERGY PREDICTED BY IDOCK:   -2.95 KCAL/MOL
REMARK 927      BINDING AFFINITY PREDICTED BY RF-SCORE:    0.00 PKD
ROOT
HETATM    1  O   UNL     1     -12.708  11.435  62.791  1.00  0.00    -0.927 OA 
HETATM    2  C   UNL     1     -11.791  12.279  63.485  1.00  0.00    -0.514 C  
HETATM    3  H   UNL     1     -13.562  11.848  62.744  1.00  0.00     0.000 HD 
ENDROOT
BRANCH   2   4
HETATM    4  C   UNL     1     -10.405  11.610  63.560  1.00  0.00    -0.488 C  
BRANCH   4   5
HETATM    5  C   UNL     1      -9.840  11.440  64.974  1.00  0.00    -0.304 C  
BRANCH   5   6
HETATM    6  C   UNL     1      -9.863  10.006  65.551  1.00  0.00    -0.373 C  
HETATM    7  H   UNL     1      -9.330   7.846  68.902  1.00  0.00     0.000 HD 
HETATM    8  C   UNL     1      -9.644   9.816  67.112  1.00  0.00    -0.211 C  
HETATM    9  C   UNL     1      -8.709   9.210  64.927  1.00  0.00    -0.182 C  
HETATM   10  C   UNL     1      -8.590   8.002  65.809  1.00  0.00    -0.174 C  
HETATM   11  O   UNL     1      -8.981   8.808  63.598  1.00  0.00    -0.417 OA 
HETATM   12  O   UNL     1      -9.238   7.502  68.020  1.00  0.00    -0.137 OA 
HETATM   13  H   UNL     1      -8.266   8.315  63.212  1.00  0.00     0.000 HD 
HETATM   14  C   UNL     1      -8.736   8.549  67.213  1.00  0.00    -0.130 C  
BRANCH   8  15
HETATM   15  C   UNL     1     -10.946   9.765  67.973  1.00  0.00    -0.236 C  
BRANCH  15  16
HETATM   16  C   UNL     1     -11.650  11.094  68.177  1.00  0.00    -0.350 C  
HETATM   17  C   UNL     1     -12.155  11.679  69.282  1.00  0.00    -0.323 C  
BRANCH  17  18
HETATM   18  C   UNL     1     -12.188  11.163  70.692  1.00  0.00    -0.492 C  
BRANCH  18  19
HETATM   19  C   UNL     1     -13.302  10.127  70.909  1.00  0.00    -0.272 C  
BRANCH  19  20
HETATM   20  C   UNL     1     -13.125   9.266  72.153  1.00  0.00    -0.520 C  
BRANCH  20  21
HETATM   21  C   UNL     1     -12.163   8.147  71.901  1.00  0.00    -0.331 C  
HETATM   22  O   UNL     1     -12.372   7.148  71.223  1.00  0.00    -0.344 OA 
BRANCH  21  23
HETATM   23  O   UNL     1     -11.061   8.356  72.672  1.00  0.00    -0.359 OA 
BRANCH  23  24
HETATM   24  C   UNL     1      -9.956   8.693  71.860  1.00  0.00    -0.322 C  
BRANCH  24  25
HETATM   25  C   UNL     1      -8.675   8.021  72.304  1.00  0.00    -0.220 C  
BRANCH  25  26
HETATM   26  C   UNL     1      -8.646   7.729  73.803  1.00  0.00    -0.306 C  
BRANCH  26  27
HETATM   27  C   UNL     1      -8.624   6.239  74.173  1.00  0.00    -0.121 C  
BRANCH  27  28
HETATM   28  O   UNL     1      -9.950   5.791  74.351  1.00  0.00    -0.205 OA 
HETATM   29  N   UNL     1     -10.387   4.964  73.289  1.00  0.00    -0.172 N  
HETATM   30  O   UNL     1     -11.567   4.624  73.410  1.00  0.00    -0.317 OA 
HETATM   31  O   UNL     1      -9.580   4.702  72.407  1.00  0.00    -0.141 OA 
ENDBRANCH  27  28
ENDBRANCH  26  27
ENDBRANCH  25  26
ENDBRANCH  24  25
ENDBRANCH  23  24
ENDBRANCH  21  23
ENDBRANCH  20  21
ENDBRANCH  19  20
ENDBRANCH  18  19
ENDBRANCH  17  18
ENDBRANCH  15  16
ENDBRANCH   8  15
ENDBRANCH   5   6
ENDBRANCH   4   5
ENDBRANCH   2   4
BRANCH   2  32
HETATM   32  C   UNL     1     -12.374  12.511  64.871  1.00  0.00    -0.539 C  
BRANCH  32  33
HETATM   33  C   UNL     1     -12.718  13.979  65.100  1.00  0.00    -0.419 C  
BRANCH  33  34
HETATM   34  C   UNL     1     -11.619  14.629  65.875  1.00  0.00    -0.327 A  
HETATM   35  C   UNL     1     -10.657  15.237  68.008  1.00  0.00    -0.261 A  
HETATM   36  C   UNL     1      -9.665  16.031  65.948  1.00  0.00    -0.378 A  
HETATM   37  C   UNL     1     -11.633  14.566  67.276  1.00  0.00    -0.405 A  
HETATM   38  C   UNL     1     -10.637  15.364  65.213  1.00  0.00    -0.450 A  
HETATM   39  C   UNL     1      -9.674  15.969  67.344  1.00  0.00    -0.232 A  
ENDBRANCH  33  34
ENDBRANCH  32  33
ENDBRANCH   2  32
TORSDOF 18
ENDMDL
MODEL       96
REMARK 921   NORMALIZED FREE ENERGY PREDICTED BY IDOCK:   -4.90 KCAL/MOL
REMARK 922        TOTAL FREE ENERGY PREDICTED BY IDOCK:  -14.85 KCAL/MOL
REMARK 923 INTER-LIGAND FREE ENERGY PREDICTED BY IDOCK:  -11.56 KCAL/MOL
REMARK 924 INTRA-LIGAND FREE ENERGY PREDICTED BY IDOCK:   -3.29 KCAL/MOL
REMARK 927      BINDING AFFINITY PREDICTED BY RF-SCORE:    0.00 PKD
ROOT
HETATM    1  O   UNL     1      -8.228   7.344  69.436  1.00  0.00    -0.127 OA 
HETATM    2  C   UNL     1      -8.073   8.556  68.699  1.00  0.00    -0.121 C  
HETATM    3  H   UNL     1      -7.562   6.717  69.180  1.00  0.00     0.000 HD 
ENDROOT
BRANCH   2   4
HETATM    4  C   UNL     1      -9.153   9.573  69.116  1.00  0.00    -0.152 C  
BRANCH   4   5
HETATM    5  C   UNL     1      -9.728   9.372  70.522  1.00  0.00    -0.331 C  
BRANCH   5   6
HETATM    6  C   UNL     1     -11.196   8.892  70.597  1.00  0.00    -0.308 C  
HETATM    7  H   UNL     1     -14.640   9.286  72.637  1.00  0.00     0.000 HD 
HETATM    8  C   UNL     1     -12.156   9.564  71.667  1.00  0.00    -0.474 C  
HETATM    9  C   UNL     1     -11.204   7.409  70.989  1.00  0.00    -0.264 C  
HETATM   10  C   UNL     1     -12.626   7.155  71.397  1.00  0.00    -0.432 C  
HETATM   11  O   UNL     1     -10.857   6.559  69.912  1.00  0.00    -0.233 OA 
HETATM   12  O   UNL     1     -14.404   8.523  72.122  1.00  0.00    -0.437 OA 
HETATM   13  H   UNL     1     -10.862   5.640  70.154  1.00  0.00     0.000 HD 
HETATM   14  C   UNL     1     -13.002   8.371  72.217  1.00  0.00    -0.301 C  
BRANCH   8  15
HETATM   15  C   UNL     1     -12.990  10.781  71.152  1.00  0.00    -0.467 C  
BRANCH  15  16
HETATM   16  C   UNL     1     -12.183  11.980  70.690  1.00  0.00    -0.409 C  
HETATM   17  C   UNL     1     -11.770  12.363  69.465  1.00  0.00    -0.388 C  
BRANCH  17  18
HETATM   18  C   UNL     1     -11.981  11.683  68.143  1.00  0.00    -0.214 C  
BRANCH  18  19
HETATM   19  C   UNL     1     -10.951  12.123  67.090  1.00  0.00    -0.316 C  
BRANCH  19  20
HETATM   20  C   UNL     1     -11.526  12.318  65.693  1.00  0.00    -0.416 C  
BRANCH  20  21
HETATM   21  C   UNL     1     -11.947  13.738  65.478  1.00  0.00    -0.384 C  
HETATM   22  O   UNL     1     -13.097  14.148  65.378  1.00  0.00    -0.743 OA 
BRANCH  21  23
HETATM   23  O   UNL     1     -10.828  14.483  65.266  1.00  0.00    -0.322 OA 
BRANCH  23  24
HETATM   24  C   UNL     1     -10.930  15.718  65.943  1.00  0.00    -0.191 C  
BRANCH  24  25
HETATM   25  C   UNL     1     -10.214  15.717  67.276  1.00  0.00    -0.266 C  
BRANCH  25  26
HETATM   26  C   UNL     1     -10.947  16.524  68.345  1.00  0.00    -0.348 C  
BRANCH  26  27
HETATM   27  C   UNL     1     -11.765  15.690  69.342  1.00  0.00    -0.383 C  
BRANCH  27  28
HETATM   28  O   UNL     1     -11.376  16.031  70.654  1.00  0.00    -0.360 OA 
HETATM   29  N   UNL     1     -12.462  16.006  71.562  1.00  0.00    -0.418 N  
HETATM   30  O   UNL     1     -12.138  16.367  72.696  1.00  0.00    -0.520 OA 
HETATM   31  O   UNL     1     -13.552  15.653  71.131  1.00  0.00    -0.582 OA 
ENDBRANCH  27  28
ENDBRANCH  26  27
ENDBRANCH  25  26
ENDBRANCH  24  25
ENDBRANCH  23  24
ENDBRANCH  21  23
ENDBRANCH  20  21
ENDBRANCH  19  20
ENDBRANCH  18  19
ENDBRANCH  17  18
ENDBRANCH  15  16
ENDBRANCH   8  15
ENDBRANCH   5   6
ENDBRANCH   4   5
ENDBRANCH   2   4
BRANCH   2  32
HETATM   32  C   UNL     1      -8.189   8.190  67.227  1.00  0.00    -0.121 C  
BRANCH  32  33
HETATM   33  C   UNL     1      -9.290   8.984  66.533  1.00  0.00    -0.246 C  
BRANCH  33  34
HETATM   34  C   UNL     1      -8.939   9.160  65.092  1.00  0.00    -0.238 A  
HETATM   35  C   UNL     1      -7.500   8.630  63.222  1.00  0.00    -0.106 A  
HETATM   36  C   UNL     1      -9.206  10.333  63.008  1.00  0.00    -0.312 A  
HETATM   37  C   UNL     1      -7.886   8.414  64.542  1.00  0.00    -0.136 A  
HETATM   38  C   UNL     1      -9.595  10.121  64.325  1.00  0.00    -0.354 A  
HETATM   39  C   UNL     1      -8.160   9.590  62.457  1.00  0.00    -0.137 A  
ENDBRANCH  33  34
ENDBRANCH  32  33
ENDBRANCH   2  32
TORSDOF 18
ENDMDL
MODEL       97
REMARK 921   NORMALIZED FREE ENERGY PREDICTED BY IDOCK:   -4.90 KCAL/MOL
REMARK 922        TOTAL FREE ENERGY PREDICTED BY IDOCK:  -14.84 KCAL/MOL
REMARK 923 INTER-LIGAND FREE ENERGY PREDICTED BY IDOCK:  -11.88 KCAL/MOL
REMARK 924 INTRA-LIGAND FREE ENERGY PREDICTED BY IDOCK:   -2.95 KCAL/MOL
REMARK 927      BINDING AFFINITY PREDICTED BY RF-SCORE:    0.00 PKD
ROOT
HETATM    1  O   UNL     1     -13.511   8.865  73.070  1.00  0.00    -0.897 OA 
HETATM    2  C   UNL     1     -12.955   8.852  71.757  1.00  0.00    -0.367 C  
HETATM    3  H   UNL     1     -14.273   9.433  73.098  1.00  0.00     0.000 HD 
ENDROOT
BRANCH   2   4
HETATM    4  C   UNL     1     -11.720   7.931  71.712  1.00  0.00    -0.329 C  
BRANCH   4   5
HETATM    5  C   UNL     1     -11.840   6.727  70.772  1.00  0.00    -0.446 C  
BRANCH   5   6
HETATM    6  C   UNL     1     -10.586   6.390  69.931  1.00  0.00    -0.298 C  
HETATM    7  H   UNL     1      -9.285   5.645  66.200  1.00  0.00     0.000 HD 
HETATM    8  C   UNL     1     -10.734   6.315  68.353  1.00  0.00    -0.356 C  
HETATM    9  C   UNL     1     -10.106   4.984  70.314  1.00  0.00    -0.269 C  
HETATM   10  C   UNL     1      -9.159   4.616  69.210  1.00  0.00    -0.159 C  
HETATM   11  O   UNL     1      -9.426   4.960  71.556  1.00  0.00    -0.144 OA 
HETATM   12  O   UNL     1      -8.849   5.348  66.990  1.00  0.00    -0.112 OA 
HETATM   13  H   UNL     1      -9.129   4.089  71.793  1.00  0.00     0.000 HD 
HETATM   14  C   UNL     1      -9.854   5.089  67.950  1.00  0.00    -0.151 C  
BRANCH   8  15
HETATM   15  C   UNL     1     -10.414   7.637  67.583  1.00  0.00    -0.313 C  
BRANCH  15  16
HETATM   16  C   UNL     1      -9.929   8.792  68.440  1.00  0.00    -0.200 C  
HETATM   17  C   UNL     1     -10.258  10.099  68.449  1.00  0.00    -0.192 C  
BRANCH  17  18
HETATM   18  C   UNL     1     -11.229  10.835  67.570  1.00  0.00    -0.346 C  
BRANCH  18  19
HETATM   19  C   UNL     1     -10.593  11.282  66.244  1.00  0.00    -0.315 C  
BRANCH  19  20
HETATM   20  C   UNL     1     -10.206  12.755  66.199  1.00  0.00    -0.286 C  
BRANCH  20  21
HETATM   21  C   UNL     1     -10.980  13.483  65.144  1.00  0.00    -0.320 C  
HETATM   22  O   UNL     1     -12.051  13.137  64.661  1.00  0.00    -0.370 OA 
BRANCH  21  23
HETATM   23  O   UNL     1     -10.221  14.524  64.706  1.00  0.00    -0.390 OA 
BRANCH  23  24
HETATM   24  C   UNL     1     -10.822  15.750  65.067  1.00  0.00    -0.443 C  
BRANCH  24  25
HETATM   25  C   UNL     1      -9.933  16.603  65.946  1.00  0.00    -0.320 C  
BRANCH  25  26
HETATM   26  C   UNL     1     -10.091  16.290  67.432  1.00  0.00    -0.260 C  
BRANCH  26  27
HETATM   27  C   UNL     1      -8.775  16.187  68.217  1.00  0.00    -0.180 C  
BRANCH  27  28
HETATM   28  O   UNL     1      -8.289  14.866  68.128  1.00  0.00    -0.136 OA 
HETATM   29  N   UNL     1      -7.079  14.784  67.399  1.00  0.00    -0.184 N  
HETATM   30  O   UNL     1      -6.686  13.623  67.264  1.00  0.00    -0.222 OA 
HETATM   31  O   UNL     1      -6.589  15.832  66.997  1.00  0.00    -0.284 OA 
ENDBRANCH  27  28
ENDBRANCH  26  27
ENDBRANCH  25  26
ENDBRANCH  24  25
ENDBRANCH  23  24
ENDBRANCH  21  23
ENDBRANCH  20  21
ENDBRANCH  19  20
ENDBRANCH  18  19
ENDBRANCH  17  18
ENDBRANCH  15  16
ENDBRANCH   8  15
ENDBRANCH   5   6
ENDBRANCH   4   5
ENDBRANCH   2   4
BRANCH   2  32
HETATM   32  C   UNL     1     -12.590  10.291  71.422  1.00  0.00    -0.539 C  
BRANCH  32  33
HETATM   33  C   UNL     1     -13.442  11.285  72.203  1.00  0.00    -0.197 C  
BRANCH  33  34
HETATM   34  C   UNL     1     -13.234  12.657  71.648  1.00  0.00    -0.394 A  
HETATM   35  C   UNL     1     -12.009  14.147  70.191  1.00  0.00    -0.400 A  
HETATM   36  C   UNL     1     -13.680  15.021  71.708  1.00  0.00    -0.551 A  
HETATM   37  C   UNL     1     -12.264  12.860  70.656  1.00  0.00    -0.386 A  
HETATM   38  C   UNL     1     -13.939  13.738  72.175  1.00  0.00    -0.638 A  
HETATM   39  C   UNL     1     -12.716  15.226  70.717  1.00  0.00    -0.491 A  
ENDBRANCH  33  34
ENDBRANCH  32  33
ENDBRANCH   2  32
TORSDOF 18
ENDMDL
MODEL       98
REMARK 921   NORMALIZED FREE ENERGY PREDICTED BY IDOCK:   -4.89 KCAL/MOL
REMARK 922        TOTAL FREE ENERGY PREDICTED BY IDOCK:  -14.82 KCAL/MOL
REMARK 923 INTER-LIGAND FREE ENERGY PREDICTED BY IDOCK:  -10.03 KCAL/MOL
REMARK 924 INTRA-LIGAND FREE ENERGY PREDICTED BY IDOCK:   -4.79 KCAL/MOL
REMARK 927      BINDING AFFINITY PREDICTED BY RF-SCORE:    0.00 PKD
ROOT
HETATM    1  O   UNL     1     -11.179   4.852  65.701  1.00  0.00    -0.860 OA 
HETATM    2  C   UNL     1     -10.290   5.398  66.673  1.00  0.00    -0.275 C  
HETATM    3  H   UNL     1     -10.865   4.004  65.409  1.00  0.00     0.000 HD 
ENDROOT
BRANCH   2   4
HETATM    4  C   UNL     1     -10.799   6.773  67.147  1.00  0.00    -0.462 C  
BRANCH   4   5
HETATM    5  C   UNL     1     -11.339   6.809  68.580  1.00  0.00    -0.076 C  
BRANCH   5   6
HETATM    6  C   UNL     1     -10.571   7.709  69.577  1.00  0.00    -0.227 C  
HETATM    7  H   UNL     1      -7.612  10.414  69.891  1.00  0.00     0.000 HD 
HETATM    8  C   UNL     1      -9.481   8.710  69.003  1.00  0.00    -0.153 C  
HETATM    9  C   UNL     1      -9.769   6.810  70.527  1.00  0.00    -0.176 C  
HETATM   10  C   UNL     1      -8.797   7.753  71.175  1.00  0.00    -0.143 C  
HETATM   11  O   UNL     1     -10.579   6.203  71.516  1.00  0.00    -0.224 OA 
HETATM   12  O   UNL     1      -7.915   9.863  70.604  1.00  0.00    -0.257 OA 
HETATM   13  H   UNL     1     -10.082   5.647  72.104  1.00  0.00     0.000 HD 
HETATM   14  C   UNL     1      -8.315   8.630  70.039  1.00  0.00    -0.124 C  
BRANCH   8  15
HETATM   15  C   UNL     1      -9.991  10.154  68.695  1.00  0.00    -0.181 C  
BRANCH  15  16
HETATM   16  C   UNL     1      -9.191  10.925  67.660  1.00  0.00    -0.155 C  
HETATM   17  C   UNL     1      -9.350  11.065  66.329  1.00  0.00    -0.206 C  
BRANCH  17  18
HETATM   18  C   UNL     1     -10.398  10.467  65.435  1.00  0.00    -0.270 C  
BRANCH  18  19
HETATM   19  C   UNL     1     -10.216  10.879  63.966  1.00  0.00    -0.422 C  
BRANCH  19  20
HETATM   20  C   UNL     1     -10.350  12.375  63.712  1.00  0.00    -0.454 C  
BRANCH  20  21
HETATM   21  C   UNL     1     -11.748  12.842  63.977  1.00  0.00    -0.434 C  
HETATM   22  O   UNL     1     -12.778  12.320  63.570  1.00  0.00    -0.729 OA 
BRANCH  21  23
HETATM   23  O   UNL     1     -11.677  14.034  64.630  1.00  0.00    -0.367 OA 
BRANCH  23  24
HETATM   24  C   UNL     1     -12.629  14.075  65.673  1.00  0.00    -0.512 C  
BRANCH  24  25
HETATM   25  C   UNL     1     -12.038  13.721  67.020  1.00  0.00    -0.436 C  
BRANCH  25  26
HETATM   26  C   UNL     1     -10.682  14.378  67.266  1.00  0.00    -0.285 C  
BRANCH  26  27
HETATM   27  C   UNL     1     -10.692  15.526  68.286  1.00  0.00    -0.271 C  
BRANCH  27  28
HETATM   28  O   UNL     1     -11.988  15.645  68.831  1.00  0.00    -0.367 OA 
HETATM   29  N   UNL     1     -11.989  15.555  70.244  1.00  0.00    -0.348 N  
HETATM   30  O   UNL     1     -13.126  15.593  70.719  1.00  0.00    -0.477 OA 
HETATM   31  O   UNL     1     -10.906  15.446  70.804  1.00  0.00    -0.323 OA 
ENDBRANCH  27  28
ENDBRANCH  26  27
ENDBRANCH  25  26
ENDBRANCH  24  25
ENDBRANCH  23  24
ENDBRANCH  21  23
ENDBRANCH  20  21
ENDBRANCH  19  20
ENDBRANCH  18  19
ENDBRANCH  17  18
ENDBRANCH  15  16
ENDBRANCH   8  15
ENDBRANCH   5   6
ENDBRANCH   4   5
ENDBRANCH   2   4
BRANCH   2  32
HETATM   32  C   UNL     1      -8.926   5.507  66.006  1.00  0.00    -0.154 C  
BRANCH  32  33
HETATM   33  C   UNL     1      -7.961   6.352  66.829  1.00  0.00    -0.109 C  
BRANCH  33  34
HETATM   34  C   UNL     1      -7.511   7.521  66.015  1.00  0.00    -0.083 A  
HETATM   35  C   UNL     1      -7.519   8.720  63.916  1.00  0.00    -0.117 A  
HETATM   36  C   UNL     1      -6.083   9.436  65.727  1.00  0.00    -0.056 A  
HETATM   37  C   UNL     1      -7.994   7.679  64.708  1.00  0.00    -0.137 A  
HETATM   38  C   UNL     1      -6.554   8.399  66.522  1.00  0.00    -0.056 A  
HETATM   39  C   UNL     1      -6.564   9.597  64.425  1.00  0.00    -0.107 A  
ENDBRANCH  33  34
ENDBRANCH  32  33
ENDBRANCH   2  32
TORSDOF 18
ENDMDL
MODEL       99
REMARK 921   NORMALIZED FREE ENERGY PREDICTED BY IDOCK:   -4.89 KCAL/MOL
REMARK 922        TOTAL FREE ENERGY PREDICTED BY IDOCK:  -14.82 KCAL/MOL
REMARK 923 INTER-LIGAND FREE ENERGY PREDICTED BY IDOCK:  -10.91 KCAL/MOL
REMARK 924 INTRA-LIGAND FREE ENERGY PREDICTED BY IDOCK:   -3.91 KCAL/MOL
REMARK 927      BINDING AFFINITY PREDICTED BY RF-SCORE:    0.00 PKD
ROOT
HETATM    1  O   UNL     1     -11.502   5.879  66.397  1.00  0.00    -0.661 OA 
HETATM    2  C   UNL     1     -10.386   6.303  67.178  1.00  0.00    -0.229 C  
HETATM    3  H   UNL     1     -11.522   6.348  65.571  1.00  0.00     0.000 HD 
ENDROOT
BRANCH   2   4
HETATM    4  C   UNL     1     -10.354   5.542  68.517  1.00  0.00    -0.247 C  
BRANCH   4   5
HETATM    5  C   UNL     1     -11.088   6.229  69.674  1.00  0.00    -0.479 C  
BRANCH   5   6
HETATM    6  C   UNL     1     -10.250   6.511  70.942  1.00  0.00    -0.220 C  
HETATM    7  H   UNL     1      -8.390   9.405  73.026  1.00  0.00     0.000 HD 
HETATM    8  C   UNL     1      -9.877   8.017  71.281  1.00  0.00    -0.200 C  
HETATM    9  C   UNL     1      -8.884   5.830  70.786  1.00  0.00    -0.137 C  
HETATM   10  C   UNL     1      -8.043   6.465  71.855  1.00  0.00    -0.109 C  
HETATM   11  O   UNL     1      -8.946   4.431  70.994  1.00  0.00    -0.109 OA 
HETATM   12  O   UNL     1      -8.165   8.482  73.069  1.00  0.00    -0.357 OA 
HETATM   13  H   UNL     1      -8.101   4.009  70.897  1.00  0.00     0.000 HD 
HETATM   14  C   UNL     1      -8.402   7.935  71.787  1.00  0.00    -0.118 C  
BRANCH   8  15
HETATM   15  C   UNL     1     -10.864   8.754  72.243  1.00  0.00    -0.328 C  
BRANCH  15  16
HETATM   16  C   UNL     1     -12.222   9.092  71.655  1.00  0.00    -0.418 C  
HETATM   17  C   UNL     1     -12.635  10.122  70.890  1.00  0.00    -0.454 C  
BRANCH  17  18
HETATM   18  C   UNL     1     -11.848  11.297  70.384  1.00  0.00    -0.443 C  
BRANCH  18  19
HETATM   19  C   UNL     1     -11.793  11.344  68.849  1.00  0.00    -0.413 C  
BRANCH  19  20
HETATM   20  C   UNL     1     -11.352  12.685  68.277  1.00  0.00    -0.337 C  
BRANCH  20  21
HETATM   21  C   UNL     1     -11.753  12.816  66.840  1.00  0.00    -0.380 C  
HETATM   22  O   UNL     1     -12.045  11.900  66.082  1.00  0.00    -0.519 OA 
BRANCH  21  23
HETATM   23  O   UNL     1     -11.599  14.118  66.476  1.00  0.00    -0.344 OA 
BRANCH  23  24
HETATM   24  C   UNL     1     -10.811  14.205  65.306  1.00  0.00    -0.349 C  
BRANCH  24  25
HETATM   25  C   UNL     1      -9.671  15.191  65.439  1.00  0.00    -0.239 C  
BRANCH  25  26
HETATM   26  C   UNL     1      -9.524  15.743  66.855  1.00  0.00    -0.244 C  
BRANCH  26  27
HETATM   27  C   UNL     1      -8.981  17.177  66.941  1.00  0.00    -0.235 C  
BRANCH  27  28
HETATM   28  O   UNL     1      -9.505  17.931  65.870  1.00  0.00    -0.522 OA 
HETATM   29  N   UNL     1     -10.427  18.913  66.301  1.00  0.00    -0.440 N  
HETATM   30  O   UNL     1     -10.935  19.530  65.362  1.00  0.00    -0.447 OA 
HETATM   31  O   UNL     1     -10.612  19.025  67.506  1.00  0.00    -0.428 OA 
ENDBRANCH  27  28
ENDBRANCH  26  27
ENDBRANCH  25  26
ENDBRANCH  24  25
ENDBRANCH  23  24
ENDBRANCH  21  23
ENDBRANCH  20  21
ENDBRANCH  19  20
ENDBRANCH  18  19
ENDBRANCH  17  18
ENDBRANCH  15  16
ENDBRANCH   8  15
ENDBRANCH   5   6
ENDBRANCH   4   5
ENDBRANCH   2   4
BRANCH   2  32
HETATM   32  C   UNL     1     -10.545   7.801  67.391  1.00  0.00    -0.345 C  
BRANCH  32  33
HETATM   33  C   UNL     1      -9.777   8.604  66.347  1.00  0.00    -0.333 C  
BRANCH  33  34
HETATM   34  C   UNL     1      -9.071   9.738  67.016  1.00  0.00    -0.157 A  
HETATM   35  C   UNL     1      -7.993  11.896  66.864  1.00  0.00    -0.132 A  
HETATM   36  C   UNL     1      -7.963  10.658  68.944  1.00  0.00    -0.132 A  
HETATM   37  C   UNL     1      -8.720  10.871  66.268  1.00  0.00    -0.175 A  
HETATM   38  C   UNL     1      -8.689   9.632  68.353  1.00  0.00    -0.120 A  
HETATM   39  C   UNL     1      -7.614  11.789  68.201  1.00  0.00    -0.117 A  
ENDBRANCH  33  34
ENDBRANCH  32  33
ENDBRANCH   2  32
TORSDOF 18
ENDMDL
MODEL      100
REMARK 921   NORMALIZED FREE ENERGY PREDICTED BY IDOCK:   -4.88 KCAL/MOL
REMARK 922        TOTAL FREE ENERGY PREDICTED BY IDOCK:  -14.80 KCAL/MOL
REMARK 923 INTER-LIGAND FREE ENERGY PREDICTED BY IDOCK:  -11.99 KCAL/MOL
REMARK 924 INTRA-LIGAND FREE ENERGY PREDICTED BY IDOCK:   -2.81 KCAL/MOL
REMARK 927      BINDING AFFINITY PREDICTED BY RF-SCORE:    0.00 PKD
ROOT
HETATM    1  O   UNL     1     -12.535  10.668  68.526  1.00  0.00    -0.719 OA 
HETATM    2  C   UNL     1     -11.196  11.109  68.740  1.00  0.00    -0.253 C  
HETATM    3  H   UNL     1     -13.072  10.869  69.284  1.00  0.00     0.000 HD 
ENDROOT
BRANCH   2   4
HETATM    4  C   UNL     1     -10.326  10.783  67.509  1.00  0.00    -0.244 C  
BRANCH   4   5
HETATM    5  C   UNL     1      -9.550  11.970  66.929  1.00  0.00    -0.209 C  
BRANCH   5   6
HETATM    6  C   UNL     1     -10.045  12.508  65.566  1.00  0.00    -0.282 C  
HETATM    7  H   UNL     1     -13.198  14.131  63.668  1.00  0.00     0.000 HD 
HETATM    8  C   UNL     1     -11.489  13.164  65.493  1.00  0.00    -0.343 C  
HETATM    9  C   UNL     1     -10.134  11.334  64.582  1.00  0.00    -0.290 C  
HETATM   10  C   UNL     1     -10.960  11.876  63.452  1.00  0.00    -0.470 C  
HETATM   11  O   UNL     1      -8.866  10.932  64.097  1.00  0.00    -0.300 OA 
HETATM   12  O   UNL     1     -12.502  13.647  63.238  1.00  0.00    -0.801 OA 
HETATM   13  H   UNL     1      -8.921  10.206  63.488  1.00  0.00     0.000 HD 
HETATM   14  C   UNL     1     -12.069  12.647  64.138  1.00  0.00    -0.439 C  
BRANCH   8  15
HETATM   15  C   UNL     1     -11.533  14.715  65.680  1.00  0.00    -0.340 C  
BRANCH  15  16
HETATM   16  C   UNL     1     -10.183  15.405  65.748  1.00  0.00    -0.378 C  
HETATM   17  C   UNL     1      -9.842  16.680  66.023  1.00  0.00    -0.335 C  
BRANCH  17  18
HETATM   18  C   UNL     1     -10.733  17.847  66.344  1.00  0.00    -0.114 C  
BRANCH  18  19
HETATM   19  C   UNL     1      -9.977  19.184  66.309  1.00  0.00    -0.462 C  
BRANCH  19  20
HETATM   20  C   UNL     1      -8.483  19.068  66.585  1.00  0.00    -0.311 C  
BRANCH  20  21
HETATM   21  C   UNL     1      -8.215  18.941  68.052  1.00  0.00    -0.293 C  
HETATM   22  O   UNL     1      -8.934  19.342  68.959  1.00  0.00    -0.349 OA 
BRANCH  21  23
HETATM   23  O   UNL     1      -6.963  18.432  68.210  1.00  0.00    -0.234 OA 
BRANCH  23  24
HETATM   24  C   UNL     1      -6.981  17.380  69.152  1.00  0.00    -0.209 C  
BRANCH  24  25
HETATM   25  C   UNL     1      -7.148  16.020  68.510  1.00  0.00    -0.132 C  
BRANCH  25  26
HETATM   26  C   UNL     1      -8.110  15.115  69.277  1.00  0.00    -0.217 C  
BRANCH  26  27
HETATM   27  C   UNL     1      -9.505  15.707  69.520  1.00  0.00    -0.275 C  
BRANCH  27  28
HETATM   28  O   UNL     1     -10.473  14.701  69.321  1.00  0.00    -0.243 OA 
HETATM   29  N   UNL     1     -11.698  14.995  69.964  1.00  0.00    -0.285 N  
HETATM   30  O   UNL     1     -12.525  14.087  69.845  1.00  0.00    -0.333 OA 
HETATM   31  O   UNL     1     -11.788  16.068  70.546  1.00  0.00    -0.359 OA 
ENDBRANCH  27  28
ENDBRANCH  26  27
ENDBRANCH  25  26
ENDBRANCH  24  25
ENDBRANCH  23  24
ENDBRANCH  21  23
ENDBRANCH  20  21
ENDBRANCH  19  20
ENDBRANCH  18  19
ENDBRANCH  17  18
ENDBRANCH  15  16
ENDBRANCH   8  15
ENDBRANCH   5   6
ENDBRANCH   4   5
ENDBRANCH   2   4
BRANCH   2  32
HETATM   32  C   UNL     1     -10.693  10.391  69.984  1.00  0.00    -0.321 C  
BRANCH  32  33
HETATM   33  C   UNL     1     -11.837  10.014  70.919  1.00  0.00    -0.459 C  
BRANCH  33  34
HETATM   34  C   UNL     1     -11.579   8.660  71.494  1.00  0.00    -0.368 A  
HETATM   35  C   UNL     1     -12.345   6.411  71.943  1.00  0.00    -0.279 A  
HETATM   36  C   UNL     1     -10.240   7.189  72.848  1.00  0.00    -0.266 A  
HETATM   37  C   UNL     1     -12.542   7.651  71.342  1.00  0.00    -0.359 A  
HETATM   38  C   UNL     1     -10.430   8.428  72.249  1.00  0.00    -0.407 A  
HETATM   39  C   UNL     1     -11.195   6.181  72.695  1.00  0.00    -0.312 A  
ENDBRANCH  33  34
ENDBRANCH  32  33
ENDBRANCH   2  32
TORSDOF 18
ENDMDL
MODEL      101
REMARK 921   NORMALIZED FREE ENERGY PREDICTED BY IDOCK:   -4.88 KCAL/MOL
REMARK 922        TOTAL FREE ENERGY PREDICTED BY IDOCK:  -14.80 KCAL/MOL
REMARK 923 INTER-LIGAND FREE ENERGY PREDICTED BY IDOCK:  -12.43 KCAL/MOL
REMARK 924 INTRA-LIGAND FREE ENERGY PREDICTED BY IDOCK:   -2.38 KCAL/MOL
REMARK 927      BINDING AFFINITY PREDICTED BY RF-SCORE:    0.00 PKD
ROOT
HETATM    1  O   UNL     1     -10.158  14.726  69.707  1.00  0.00    -0.429 OA 
HETATM    2  C   UNL     1     -10.584  14.873  68.353  1.00  0.00    -0.244 C  
HETATM    3  H   UNL     1      -9.776  15.537  70.020  1.00  0.00     0.000 HD 
ENDROOT
BRANCH   2   4
HETATM    4  C   UNL     1     -11.205  13.557  67.845  1.00  0.00    -0.302 C  
BRANCH   4   5
HETATM    5  C   UNL     1     -11.949  13.663  66.510  1.00  0.00    -0.465 C  
BRANCH   5   6
HETATM    6  C   UNL     1     -11.668  12.543  65.481  1.00  0.00    -0.457 C  
HETATM    7  H   UNL     1      -9.194   9.498  64.593  1.00  0.00     0.000 HD 
HETATM    8  C   UNL     1     -10.494  11.518  65.783  1.00  0.00    -0.308 C  
HETATM    9  C   UNL     1     -11.245  13.193  64.157  1.00  0.00    -0.397 C  
HETATM   10  C   UNL     1     -10.644  12.059  63.378  1.00  0.00    -0.478 C  
HETATM   11  O   UNL     1     -12.339  13.737  63.443  1.00  0.00    -1.001 OA 
HETATM   12  O   UNL     1      -9.718   9.969  63.955  1.00  0.00    -0.273 OA 
HETATM   13  H   UNL     1     -12.077  14.139  62.623  1.00  0.00     0.000 HD 
HETATM   14  C   UNL     1      -9.809  11.309  64.395  1.00  0.00    -0.269 C  
BRANCH   8  15
HETATM   15  C   UNL     1     -10.920  10.204  66.513  1.00  0.00     0.063 C  
BRANCH  15  16
HETATM   16  C   UNL     1     -10.914  10.265  68.029  1.00  0.00    -0.345 C  
HETATM   17  C   UNL     1     -10.290   9.508  68.954  1.00  0.00    -0.225 C  
BRANCH  17  18
HETATM   18  C   UNL     1      -9.389   8.323  68.751  1.00  0.00    -0.143 C  
BRANCH  18  19
HETATM   19  C   UNL     1      -8.943   7.696  70.081  1.00  0.00    -0.146 C  
BRANCH  19  20
HETATM   20  C   UNL     1     -10.036   7.626  71.140  1.00  0.00    -0.196 C  
BRANCH  20  21
HETATM   21  C   UNL     1     -10.879   6.401  70.964  1.00  0.00    -0.262 C  
HETATM   22  O   UNL     1     -10.516   5.242  71.118  1.00  0.00    -0.229 OA 
BRANCH  21  23
HETATM   23  O   UNL     1     -12.083   6.787  70.460  1.00  0.00    -0.386 OA 
BRANCH  23  24
HETATM   24  C   UNL     1     -12.895   7.312  71.489  1.00  0.00    -0.388 C  
BRANCH  24  25
HETATM   25  C   UNL     1     -13.455   8.678  71.156  1.00  0.00    -0.058 C  
BRANCH  25  26
HETATM   26  C   UNL     1     -12.845   9.793  72.002  1.00  0.00    -0.491 C  
BRANCH  26  27
HETATM   27  C   UNL     1     -12.916  11.194  71.379  1.00  0.00    -0.403 C  
BRANCH  27  28
HETATM   28  O   UNL     1     -13.483  12.085  72.315  1.00  0.00    -0.465 OA 
HETATM   29  N   UNL     1     -13.277  13.440  71.963  1.00  0.00    -0.425 N  
HETATM   30  O   UNL     1     -13.715  14.220  72.812  1.00  0.00    -0.596 OA 
HETATM   31  O   UNL     1     -12.706  13.669  70.905  1.00  0.00    -0.335 OA 
ENDBRANCH  27  28
ENDBRANCH  26  27
ENDBRANCH  25  26
ENDBRANCH  24  25
ENDBRANCH  23  24
ENDBRANCH  21  23
ENDBRANCH  20  21
ENDBRANCH  19  20
ENDBRANCH  18  19
ENDBRANCH  17  18
ENDBRANCH  15  16
ENDBRANCH   8  15
ENDBRANCH   5   6
ENDBRANCH   4   5
ENDBRANCH   2   4
BRANCH   2  32
HETATM   32  C   UNL     1      -9.351  15.257  67.547  1.00  0.00    -0.204 C  
BRANCH  32  33
HETATM   33  C   UNL     1      -8.633  16.458  68.152  1.00  0.00    -0.193 C  
BRANCH  33  34
HETATM   34  C   UNL     1      -9.060  17.699  67.440  1.00  0.00    -0.239 A  
HETATM   35  C   UNL     1      -8.807  20.075  67.069  1.00  0.00    -0.433 A  
HETATM   36  C   UNL     1     -10.626  18.863  66.031  1.00  0.00    -0.470 A  
HETATM   37  C   UNL     1      -8.366  18.897  67.666  1.00  0.00    -0.296 A  
HETATM   38  C   UNL     1     -10.190  17.684  66.625  1.00  0.00    -0.341 A  
HETATM   39  C   UNL     1      -9.936  20.057  66.253  1.00  0.00    -0.597 A  
ENDBRANCH  33  34
ENDBRANCH  32  33
ENDBRANCH   2  32
TORSDOF 18
ENDMDL
MODEL      102
REMARK 921   NORMALIZED FREE ENERGY PREDICTED BY IDOCK:   -4.88 KCAL/MOL
REMARK 922        TOTAL FREE ENERGY PREDICTED BY IDOCK:  -14.80 KCAL/MOL
REMARK 923 INTER-LIGAND FREE ENERGY PREDICTED BY IDOCK:  -10.74 KCAL/MOL
REMARK 924 INTRA-LIGAND FREE ENERGY PREDICTED BY IDOCK:   -4.06 KCAL/MOL
REMARK 927      BINDING AFFINITY PREDICTED BY RF-SCORE:    0.00 PKD
ROOT
HETATM    1  O   UNL     1      -6.536  11.583  65.850  1.00  0.00    -0.348 OA 
HETATM    2  C   UNL     1      -6.965  11.753  67.200  1.00  0.00    -0.145 C  
HETATM    3  H   UNL     1      -5.611  11.787  65.772  1.00  0.00     0.000 HD 
ENDROOT
BRANCH   2   4
HETATM    4  C   UNL     1      -8.465  11.422  67.326  1.00  0.00    -0.148 C  
BRANCH   4   5
HETATM    5  C   UNL     1      -9.177  11.115  66.004  1.00  0.00    -0.223 C  
BRANCH   5   6
HETATM    6  C   UNL     1     -10.080  12.236  65.439  1.00  0.00    -0.292 C  
HETATM    7  H   UNL     1     -13.605  14.114  65.915  1.00  0.00     0.000 HD 
HETATM    8  C   UNL     1     -11.426  12.580  66.207  1.00  0.00    -0.421 C  
HETATM    9  C   UNL     1     -10.561  11.818  64.043  1.00  0.00    -0.375 C  
HETATM   10  C   UNL     1     -11.695  12.758  63.759  1.00  0.00    -0.562 C  
HETATM   11  O   UNL     1      -9.558  11.964  63.055  1.00  0.00    -0.518 OA 
HETATM   12  O   UNL     1     -13.124  14.073  65.096  1.00  0.00    -0.776 OA 
HETATM   13  H   UNL     1      -9.855  11.705  62.191  1.00  0.00     0.000 HD 
HETATM   14  C   UNL     1     -12.461  12.824  65.063  1.00  0.00    -0.506 C  
BRANCH   8  15
HETATM   15  C   UNL     1     -11.324  13.730  67.260  1.00  0.00    -0.343 C  
BRANCH  15  16
HETATM   16  C   UNL     1     -12.133  13.529  68.530  1.00  0.00    -0.303 C  
HETATM   17  C   UNL     1     -12.111  12.554  69.460  1.00  0.00    -0.248 C  
BRANCH  17  18
HETATM   18  C   UNL     1     -11.257  11.319  69.513  1.00  0.00    -0.337 C  
BRANCH  18  19
HETATM   19  C   UNL     1     -11.919  10.186  70.314  1.00  0.00    -0.315 C  
BRANCH  19  20
HETATM   20  C   UNL     1     -11.072   9.649  71.460  1.00  0.00    -0.335 C  
BRANCH  20  21
HETATM   21  C   UNL     1     -11.632   8.365  71.987  1.00  0.00    -0.351 C  
HETATM   22  O   UNL     1     -11.448   7.896  73.104  1.00  0.00    -0.323 OA 
BRANCH  21  23
HETATM   23  O   UNL     1     -12.265   7.729  70.964  1.00  0.00    -0.293 OA 
BRANCH  23  24
HETATM   24  C   UNL     1     -11.698   6.452  70.759  1.00  0.00    -0.312 C  
BRANCH  24  25
HETATM   25  C   UNL     1     -11.210   6.247  69.341  1.00  0.00    -0.489 C  
BRANCH  25  26
HETATM   26  C   UNL     1      -9.866   6.920  69.072  1.00  0.00    -0.152 C  
BRANCH  26  27
HETATM   27  C   UNL     1      -8.748   6.556  70.060  1.00  0.00    -0.140 C  
BRANCH  27  28
HETATM   28  O   UNL     1      -8.286   7.733  70.685  1.00  0.00    -0.120 OA 
HETATM   29  N   UNL     1      -8.165   7.587  72.088  1.00  0.00    -0.100 N  
HETATM   30  O   UNL     1      -7.824   8.634  72.644  1.00  0.00    -0.346 OA 
HETATM   31  O   UNL     1      -8.411   6.488  72.565  1.00  0.00    -0.121 OA 
ENDBRANCH  27  28
ENDBRANCH  26  27
ENDBRANCH  25  26
ENDBRANCH  24  25
ENDBRANCH  23  24
ENDBRANCH  21  23
ENDBRANCH  20  21
ENDBRANCH  19  20
ENDBRANCH  18  19
ENDBRANCH  17  18
ENDBRANCH  15  16
ENDBRANCH   8  15
ENDBRANCH   5   6
ENDBRANCH   4   5
ENDBRANCH   2   4
BRANCH   2  32
HETATM   32  C   UNL     1      -6.680  13.201  67.571  1.00  0.00    -0.159 C  
BRANCH  32  33
HETATM   33  C   UNL     1      -7.691  13.735  68.578  1.00  0.00    -0.138 C  
BRANCH  33  34
HETATM   34  C   UNL     1      -8.312  14.983  68.041  1.00  0.00    -0.148 A  
HETATM   35  C   UNL     1      -9.615  16.984  68.415  1.00  0.00    -0.277 A  
HETATM   36  C   UNL     1      -8.967  16.349  66.172  1.00  0.00    -0.367 A  
HETATM   37  C   UNL     1      -8.965  15.861  68.918  1.00  0.00    -0.228 A  
HETATM   38  C   UNL     1      -8.317  15.227  66.669  1.00  0.00    -0.216 A  
HETATM   39  C   UNL     1      -9.616  17.228  67.043  1.00  0.00    -0.262 A  
ENDBRANCH  33  34
ENDBRANCH  32  33
ENDBRANCH   2  32
TORSDOF 18
ENDMDL
MODEL      103
REMARK 921   NORMALIZED FREE ENERGY PREDICTED BY IDOCK:   -4.88 KCAL/MOL
REMARK 922        TOTAL FREE ENERGY PREDICTED BY IDOCK:  -14.79 KCAL/MOL
REMARK 923 INTER-LIGAND FREE ENERGY PREDICTED BY IDOCK:  -10.85 KCAL/MOL
REMARK 924 INTRA-LIGAND FREE ENERGY PREDICTED BY IDOCK:   -3.95 KCAL/MOL
REMARK 927      BINDING AFFINITY PREDICTED BY RF-SCORE:    0.00 PKD
ROOT
HETATM    1  O   UNL     1     -11.626   6.528  68.167  1.00  0.00    -0.570 OA 
HETATM    2  C   UNL     1     -10.546   5.904  68.859  1.00  0.00    -0.288 C  
HETATM    3  H   UNL     1     -11.860   6.020  67.399  1.00  0.00     0.000 HD 
ENDROOT
BRANCH   2   4
HETATM    4  C   UNL     1     -10.166   6.727  70.105  1.00  0.00    -0.215 C  
BRANCH   4   5
HETATM    5  C   UNL     1     -11.318   7.007  71.076  1.00  0.00    -0.325 C  
BRANCH   5   6
HETATM    6  C   UNL     1     -12.127   8.299  70.821  1.00  0.00    -0.065 C  
HETATM    7  H   UNL     1     -12.116  12.289  71.329  1.00  0.00     0.000 HD 
HETATM    8  C   UNL     1     -11.468   9.691  71.207  1.00  0.00    -0.463 C  
HETATM    9  C   UNL     1     -13.400   8.255  71.678  1.00  0.00    -0.330 C  
HETATM   10  C   UNL     1     -13.898   9.671  71.652  1.00  0.00    -0.239 C  
HETATM   11  O   UNL     1     -14.385   7.391  71.144  1.00  0.00    -0.618 OA 
HETATM   12  O   UNL     1     -12.900  11.763  71.222  1.00  0.00    -0.386 OA 
HETATM   13  H   UNL     1     -15.173   7.364  71.674  1.00  0.00     0.000 HD 
HETATM   14  C   UNL     1     -12.648  10.509  71.823  1.00  0.00    -0.342 C  
BRANCH   8  15
HETATM   15  C   UNL     1     -10.697  10.412  70.056  1.00  0.00    -0.321 C  
BRANCH  15  16
HETATM   16  C   UNL     1     -11.080   9.994  68.648  1.00  0.00    -0.223 C  
HETATM   17  C   UNL     1     -10.924  10.609  67.458  1.00  0.00    -0.371 C  
BRANCH  17  18
HETATM   18  C   UNL     1     -10.313  11.948  67.160  1.00  0.00    -0.235 C  
BRANCH  18  19
HETATM   19  C   UNL     1     -10.449  12.335  65.679  1.00  0.00    -0.293 C  
BRANCH  19  20
HETATM   20  C   UNL     1     -11.850  12.773  65.272  1.00  0.00    -0.442 C  
BRANCH  20  21
HETATM   21  C   UNL     1     -11.818  14.098  64.574  1.00  0.00    -0.436 C  
HETATM   22  O   UNL     1     -12.730  14.601  63.929  1.00  0.00    -0.788 OA 
BRANCH  21  23
HETATM   23  O   UNL     1     -10.551  14.587  64.655  1.00  0.00    -0.405 OA 
BRANCH  23  24
HETATM   24  C   UNL     1     -10.560  15.862  65.264  1.00  0.00    -0.419 C  
BRANCH  24  25
HETATM   25  C   UNL     1      -9.414  16.057  66.233  1.00  0.00    -0.347 C  
BRANCH  25  26
HETATM   26  C   UNL     1      -9.878  16.482  67.624  1.00  0.00    -0.247 C  
BRANCH  26  27
HETATM   27  C   UNL     1     -10.081  15.331  68.620  1.00  0.00    -0.222 C  
BRANCH  27  28
HETATM   28  O   UNL     1     -11.457  15.206  68.906  1.00  0.00    -0.285 OA 
HETATM   29  N   UNL     1     -11.737  15.347  70.285  1.00  0.00    -0.298 N  
HETATM   30  O   UNL     1     -12.930  15.174  70.546  1.00  0.00    -0.367 OA 
HETATM   31  O   UNL     1     -10.799  15.605  71.029  1.00  0.00    -0.297 OA 
ENDBRANCH  27  28
ENDBRANCH  26  27
ENDBRANCH  25  26
ENDBRANCH  24  25
ENDBRANCH  23  24
ENDBRANCH  21  23
ENDBRANCH  20  21
ENDBRANCH  19  20
ENDBRANCH  18  19
ENDBRANCH  17  18
ENDBRANCH  15  16
ENDBRANCH   8  15
ENDBRANCH   5   6
ENDBRANCH   4   5
ENDBRANCH   2   4
BRANCH   2  32
HETATM   32  C   UNL     1      -9.389   5.814  67.875  1.00  0.00    -0.107 C  
BRANCH  32  33
HETATM   33  C   UNL     1      -9.704   6.532  66.567  1.00  0.00    -0.177 C  
BRANCH  33  34
HETATM   34  C   UNL     1      -8.833   7.739  66.444  1.00  0.00    -0.180 A  
HETATM   35  C   UNL     1      -7.359   9.354  67.476  1.00  0.00    -0.084 A  
HETATM   36  C   UNL     1      -8.056   9.630  65.175  1.00  0.00    -0.124 A  
HETATM   37  C   UNL     1      -8.110   8.185  67.560  1.00  0.00    -0.123 A  
HETATM   38  C   UNL     1      -8.807   8.464  65.253  1.00  0.00    -0.113 A  
HETATM   39  C   UNL     1      -7.332  10.076  66.284  1.00  0.00    -0.106 A  
ENDBRANCH  33  34
ENDBRANCH  32  33
ENDBRANCH   2  32
TORSDOF 18
ENDMDL
MODEL      104
REMARK 921   NORMALIZED FREE ENERGY PREDICTED BY IDOCK:   -4.86 KCAL/MOL
REMARK 922        TOTAL FREE ENERGY PREDICTED BY IDOCK:  -14.77 KCAL/MOL
REMARK 923 INTER-LIGAND FREE ENERGY PREDICTED BY IDOCK:  -10.56 KCAL/MOL
REMARK 924 INTRA-LIGAND FREE ENERGY PREDICTED BY IDOCK:   -4.20 KCAL/MOL
REMARK 927      BINDING AFFINITY PREDICTED BY RF-SCORE:    0.00 PKD
ROOT
HETATM    1  O   UNL     1     -12.377  14.337  67.974  1.00  0.00    -0.582 OA 
HETATM    2  C   UNL     1     -11.157  15.060  67.824  1.00  0.00    -0.310 C  
HETATM    3  H   UNL     1     -13.118  14.906  67.799  1.00  0.00     0.000 HD 
ENDROOT
BRANCH   2   4
HETATM    4  C   UNL     1      -9.955  14.138  68.109  1.00  0.00    -0.232 C  
BRANCH   4   5
HETATM    5  C   UNL     1      -9.244  13.593  66.865  1.00  0.00    -0.257 C  
BRANCH   5   6
HETATM    6  C   UNL     1      -9.567  12.131  66.480  1.00  0.00    -0.235 C  
HETATM    7  H   UNL     1      -7.999   8.754  64.958  1.00  0.00     0.000 HD 
HETATM    8  C   UNL     1      -8.380  11.203  65.979  1.00  0.00    -0.115 C  
HETATM    9  C   UNL     1     -10.539  12.142  65.293  1.00  0.00    -0.281 C  
HETATM   10  C   UNL     1     -10.483  10.736  64.772  1.00  0.00    -0.335 C  
HETATM   11  O   UNL     1     -11.864  12.458  65.678  1.00  0.00    -0.401 OA 
HETATM   12  O   UNL     1      -8.922   8.976  64.934  1.00  0.00    -0.194 OA 
HETATM   13  H   UNL     1     -12.466  12.465  64.943  1.00  0.00     0.000 HD 
HETATM   14  C   UNL     1      -9.012  10.382  64.810  1.00  0.00    -0.202 C  
BRANCH   8  15
HETATM   15  C   UNL     1      -7.682  10.347  67.084  1.00  0.00    -0.100 C  
BRANCH  15  16
HETATM   16  C   UNL     1      -8.395  10.300  68.423  1.00  0.00    -0.119 C  
HETATM   17  C   UNL     1      -9.428   9.553  68.861  1.00  0.00    -0.155 C  
BRANCH  17  18
HETATM   18  C   UNL     1     -10.223   8.514  68.122  1.00  0.00    -0.254 C  
BRANCH  18  19
HETATM   19  C   UNL     1      -9.640   7.102  68.295  1.00  0.00    -0.136 C  
BRANCH  19  20
HETATM   20  C   UNL     1      -8.980   6.856  69.646  1.00  0.00    -0.144 C  
BRANCH  20  21
HETATM   21  C   UNL     1      -9.961   6.302  70.631  1.00  0.00    -0.186 C  
HETATM   22  O   UNL     1     -10.493   5.199  70.585  1.00  0.00    -0.250 OA 
BRANCH  21  23
HETATM   23  O   UNL     1     -10.276   7.288  71.514  1.00  0.00    -0.194 OA 
BRANCH  23  24
HETATM   24  C   UNL     1     -11.557   7.059  72.063  1.00  0.00    -0.285 C  
BRANCH  24  25
HETATM   25  C   UNL     1     -12.614   7.977  71.490  1.00  0.00    -0.332 C  
BRANCH  25  26
HETATM   26  C   UNL     1     -12.936   9.157  72.404  1.00  0.00    -0.468 C  
BRANCH  26  27
HETATM   27  C   UNL     1     -12.805  10.540  71.751  1.00  0.00    -0.454 C  
BRANCH  27  28
HETATM   28  O   UNL     1     -12.625  10.377  70.361  1.00  0.00    -0.305 OA 
HETATM   29  N   UNL     1     -12.314  11.594  69.710  1.00  0.00    -0.186 N  
HETATM   30  O   UNL     1     -12.220  11.466  68.487  1.00  0.00    -0.557 OA 
HETATM   31  O   UNL     1     -12.187  12.592  70.408  1.00  0.00    -0.349 OA 
ENDBRANCH  27  28
ENDBRANCH  26  27
ENDBRANCH  25  26
ENDBRANCH  24  25
ENDBRANCH  23  24
ENDBRANCH  21  23
ENDBRANCH  20  21
ENDBRANCH  19  20
ENDBRANCH  18  19
ENDBRANCH  17  18
ENDBRANCH  15  16
ENDBRANCH   8  15
ENDBRANCH   5   6
ENDBRANCH   4   5
ENDBRANCH   2   4
BRANCH   2  32
HETATM   32  C   UNL     1     -11.213  16.222  68.805  1.00  0.00    -0.343 C  
BRANCH  32  33
HETATM   33  C   UNL     1      -9.837  16.840  69.027  1.00  0.00    -0.260 C  
BRANCH  33  34
HETATM   34  C   UNL     1      -9.652  17.985  68.086  1.00  0.00    -0.303 A  
HETATM   35  C   UNL     1     -10.617  19.696  66.678  1.00  0.00    -0.599 A  
HETATM   36  C   UNL     1      -8.227  19.315  66.674  1.00  0.00    -0.305 A  
HETATM   37  C   UNL     1     -10.775  18.681  67.617  1.00  0.00    -0.428 A  
HETATM   38  C   UNL     1      -8.379  18.301  67.612  1.00  0.00    -0.252 A  
HETATM   39  C   UNL     1      -9.344  20.012  66.207  1.00  0.00    -0.456 A  
ENDBRANCH  33  34
ENDBRANCH  32  33
ENDBRANCH   2  32
TORSDOF 18
ENDMDL
MODEL      105
REMARK 921   NORMALIZED FREE ENERGY PREDICTED BY IDOCK:   -4.85 KCAL/MOL
REMARK 922        TOTAL FREE ENERGY PREDICTED BY IDOCK:  -14.74 KCAL/MOL
REMARK 923 INTER-LIGAND FREE ENERGY PREDICTED BY IDOCK:  -11.23 KCAL/MOL
REMARK 924 INTRA-LIGAND FREE ENERGY PREDICTED BY IDOCK:   -3.51 KCAL/MOL
REMARK 927      BINDING AFFINITY PREDICTED BY RF-SCORE:    0.00 PKD
ROOT
HETATM    1  O   UNL     1      -8.688   8.268  64.047  1.00  0.00    -0.397 OA 
HETATM    2  C   UNL     1      -8.833   8.426  65.457  1.00  0.00    -0.130 C  
HETATM    3  H   UNL     1      -8.255   9.028  63.675  1.00  0.00     0.000 HD 
ENDROOT
BRANCH   2   4
HETATM    4  C   UNL     1      -9.535   7.193  66.060  1.00  0.00     0.031 C  
BRANCH   4   5
HETATM    5  C   UNL     1     -10.450   7.485  67.254  1.00  0.00    -0.391 C  
BRANCH   5   6
HETATM    6  C   UNL     1      -9.940   7.013  68.636  1.00  0.00    -0.156 C  
HETATM    7  H   UNL     1      -6.922   5.129  70.511  1.00  0.00     0.000 HD 
HETATM    8  C   UNL     1      -8.496   6.358  68.724  1.00  0.00    -0.121 C  
HETATM    9  C   UNL     1     -10.869   5.904  69.147  1.00  0.00    -0.336 C  
HETATM   10  C   UNL     1     -10.092   5.275  70.266  1.00  0.00    -0.329 C  
HETATM   11  O   UNL     1     -12.097   6.407  69.639  1.00  0.00    -0.430 OA 
HETATM   12  O   UNL     1      -7.809   5.189  70.847  1.00  0.00    -0.091 OA 
HETATM   13  H   UNL     1     -12.672   5.720  69.955  1.00  0.00     0.000 HD 
HETATM   14  C   UNL     1      -8.679   5.179  69.732  1.00  0.00    -0.099 C  
BRANCH   8  15
HETATM   15  C   UNL     1      -7.331   7.342  69.065  1.00  0.00    -0.091 C  
BRANCH  15  16
HETATM   16  C   UNL     1      -7.754   8.737  69.487  1.00  0.00    -0.089 C  
HETATM   17  C   UNL     1      -8.330   9.195  70.616  1.00  0.00    -0.239 C  
BRANCH  17  18
HETATM   18  C   UNL     1      -8.756   8.428  71.836  1.00  0.00    -0.258 C  
BRANCH  18  19
HETATM   19  C   UNL     1     -10.245   8.628  72.160  1.00  0.00    -0.394 C  
BRANCH  19  20
HETATM   20  C   UNL     1     -10.979   9.551  71.195  1.00  0.00    -0.438 C  
BRANCH  20  21
HETATM   21  C   UNL     1     -12.462   9.376  71.306  1.00  0.00    -0.335 C  
HETATM   22  O   UNL     1     -13.047   8.390  71.738  1.00  0.00    -0.331 OA 
BRANCH  21  23
HETATM   23  O   UNL     1     -13.059  10.444  70.710  1.00  0.00    -0.385 OA 
BRANCH  23  24
HETATM   24  C   UNL     1     -12.418  11.640  71.100  1.00  0.00    -0.307 C  
BRANCH  24  25
HETATM   25  C   UNL     1     -13.259  12.477  72.039  1.00  0.00    -0.524 C  
BRANCH  25  26
HETATM   26  C   UNL     1     -13.185  13.971  71.731  1.00  0.00    -0.454 C  
BRANCH  26  27
HETATM   27  C   UNL     1     -12.592  14.323  70.359  1.00  0.00    -0.343 C  
BRANCH  27  28
HETATM   28  O   UNL     1     -11.485  15.178  70.542  1.00  0.00    -0.265 OA 
HETATM   29  N   UNL     1     -11.141  15.877  69.361  1.00  0.00    -0.296 N  
HETATM   30  O   UNL     1     -10.135  16.576  69.501  1.00  0.00    -0.237 OA 
HETATM   31  O   UNL     1     -11.849  15.707  68.377  1.00  0.00    -0.346 OA 
ENDBRANCH  27  28
ENDBRANCH  26  27
ENDBRANCH  25  26
ENDBRANCH  24  25
ENDBRANCH  23  24
ENDBRANCH  21  23
ENDBRANCH  20  21
ENDBRANCH  19  20
ENDBRANCH  18  19
ENDBRANCH  17  18
ENDBRANCH  15  16
ENDBRANCH   8  15
ENDBRANCH   5   6
ENDBRANCH   4   5
ENDBRANCH   2   4
BRANCH   2  32
HETATM   32  C   UNL     1      -9.648   9.693  65.674  1.00  0.00    -0.338 C  
BRANCH  32  33
HETATM   33  C   UNL     1      -9.981  10.382  64.356  1.00  0.00    -0.388 C  
BRANCH  33  34
HETATM   34  C   UNL     1     -10.873  11.550  64.620  1.00  0.00    -0.372 A  
HETATM   35  C   UNL     1     -12.016  13.520  63.808  1.00  0.00    -0.475 A  
HETATM   36  C   UNL     1     -12.019  12.992  66.170  1.00  0.00    -0.488 A  
HETATM   37  C   UNL     1     -11.251  12.385  63.558  1.00  0.00    -0.540 A  
HETATM   38  C   UNL     1     -11.256  11.857  65.925  1.00  0.00    -0.373 A  
HETATM   39  C   UNL     1     -12.399  13.823  65.113  1.00  0.00    -0.476 A  
ENDBRANCH  33  34
ENDBRANCH  32  33
ENDBRANCH   2  32
TORSDOF 18
ENDMDL
MODEL      106
REMARK 921   NORMALIZED FREE ENERGY PREDICTED BY IDOCK:   -4.84 KCAL/MOL
REMARK 922        TOTAL FREE ENERGY PREDICTED BY IDOCK:  -14.71 KCAL/MOL
REMARK 923 INTER-LIGAND FREE ENERGY PREDICTED BY IDOCK:  -10.38 KCAL/MOL
REMARK 924 INTRA-LIGAND FREE ENERGY PREDICTED BY IDOCK:   -4.34 KCAL/MOL
REMARK 927      BINDING AFFINITY PREDICTED BY RF-SCORE:    0.00 PKD
ROOT
HETATM    1  O   UNL     1     -11.659   6.370  67.093  1.00  0.00    -0.708 OA 
HETATM    2  C   UNL     1     -10.390   6.357  67.742  1.00  0.00    -0.193 C  
HETATM    3  H   UNL     1     -11.575   6.726  66.216  1.00  0.00     0.000 HD 
ENDROOT
BRANCH   2   4
HETATM    4  C   UNL     1     -10.526   5.779  69.165  1.00  0.00    -0.346 C  
BRANCH   4   5
HETATM    5  C   UNL     1     -11.644   6.396  70.012  1.00  0.00    -0.446 C  
BRANCH   5   6
HETATM    6  C   UNL     1     -11.217   6.997  71.372  1.00  0.00    -0.283 C  
HETATM    7  H   UNL     1      -8.164   8.717  73.344  1.00  0.00     0.000 HD 
HETATM    8  C   UNL     1      -9.780   7.661  71.485  1.00  0.00    -0.191 C  
HETATM    9  C   UNL     1     -11.174   5.869  72.412  1.00  0.00    -0.291 C  
HETATM   10  C   UNL     1     -10.405   6.466  73.554  1.00  0.00    -0.281 C  
HETATM   11  O   UNL     1     -12.464   5.485  72.852  1.00  0.00    -0.500 OA 
HETATM   12  O   UNL     1      -8.879   8.251  73.762  1.00  0.00    -0.237 OA 
HETATM   13  H   UNL     1     -12.437   4.787  73.496  1.00  0.00     0.000 HD 
HETATM   14  C   UNL     1      -9.265   7.208  72.889  1.00  0.00    -0.142 C  
BRANCH   8  15
HETATM   15  C   UNL     1      -9.729   9.202  71.230  1.00  0.00    -0.351 C  
BRANCH  15  16
HETATM   16  C   UNL     1     -11.070   9.869  70.981  1.00  0.00    -0.401 C  
HETATM   17  C   UNL     1     -11.479  10.727  70.025  1.00  0.00    -0.412 C  
BRANCH  17  18
HETATM   18  C   UNL     1     -10.697  11.312  68.884  1.00  0.00    -0.246 C  
BRANCH  18  19
HETATM   19  C   UNL     1     -11.604  11.781  67.735  1.00  0.00    -0.374 C  
BRANCH  19  20
HETATM   20  C   UNL     1     -11.293  13.181  67.222  1.00  0.00    -0.344 C  
BRANCH  20  21
HETATM   21  C   UNL     1     -11.801  13.368  65.826  1.00  0.00    -0.377 C  
HETATM   22  O   UNL     1     -12.662  12.696  65.271  1.00  0.00    -0.652 OA 
BRANCH  21  23
HETATM   23  O   UNL     1     -11.041  14.323  65.224  1.00  0.00    -0.307 OA 
BRANCH  23  24
HETATM   24  C   UNL     1      -9.864  14.549  65.971  1.00  0.00    -0.318 C  
BRANCH  24  25
HETATM   25  C   UNL     1      -9.254  15.909  65.706  1.00  0.00    -0.241 C  
BRANCH  25  26
HETATM   26  C   UNL     1     -10.205  17.060  66.027  1.00  0.00    -0.337 C  
BRANCH  26  27
HETATM   27  C   UNL     1     -10.065  17.642  67.441  1.00  0.00    -0.331 C  
BRANCH  27  28
HETATM   28  O   UNL     1     -10.848  16.878  68.332  1.00  0.00    -0.356 OA 
HETATM   29  N   UNL     1     -10.061  16.155  69.259  1.00  0.00    -0.246 N  
HETATM   30  O   UNL     1     -10.740  15.437  69.997  1.00  0.00    -0.273 OA 
HETATM   31  O   UNL     1      -8.848  16.315  69.217  1.00  0.00    -0.237 OA 
ENDBRANCH  27  28
ENDBRANCH  26  27
ENDBRANCH  25  26
ENDBRANCH  24  25
ENDBRANCH  23  24
ENDBRANCH  21  23
ENDBRANCH  20  21
ENDBRANCH  19  20
ENDBRANCH  18  19
ENDBRANCH  17  18
ENDBRANCH  15  16
ENDBRANCH   8  15
ENDBRANCH   5   6
ENDBRANCH   4   5
ENDBRANCH   2   4
BRANCH   2  32
HETATM   32  C   UNL     1      -9.898   7.797  67.769  1.00  0.00    -0.200 C  
BRANCH  32  33
HETATM   33  C   UNL     1      -8.392   7.875  67.992  1.00  0.00    -0.123 C  
BRANCH  33  34
HETATM   34  C   UNL     1      -7.925   9.269  67.731  1.00  0.00    -0.100 A  
HETATM   35  C   UNL     1      -6.926  11.314  68.546  1.00  0.00    -0.078 A  
HETATM   36  C   UNL     1      -7.828  11.204  66.303  1.00  0.00    -0.109 A  
HETATM   37  C   UNL     1      -7.292   9.988  68.756  1.00  0.00    -0.078 A  
HETATM   38  C   UNL     1      -8.194   9.879  66.507  1.00  0.00    -0.121 A  
HETATM   39  C   UNL     1      -7.194  11.921  67.321  1.00  0.00    -0.147 A  
ENDBRANCH  33  34
ENDBRANCH  32  33
ENDBRANCH   2  32
TORSDOF 18
ENDMDL
MODEL      107
REMARK 921   NORMALIZED FREE ENERGY PREDICTED BY IDOCK:   -4.84 KCAL/MOL
REMARK 922        TOTAL FREE ENERGY PREDICTED BY IDOCK:  -14.71 KCAL/MOL
REMARK 923 INTER-LIGAND FREE ENERGY PREDICTED BY IDOCK:  -10.40 KCAL/MOL
REMARK 924 INTRA-LIGAND FREE ENERGY PREDICTED BY IDOCK:   -4.31 KCAL/MOL
REMARK 927      BINDING AFFINITY PREDICTED BY RF-SCORE:    0.00 PKD
ROOT
HETATM    1  O   UNL     1     -10.577  10.041  70.443  1.00  0.00    -0.286 OA 
HETATM    2  C   UNL     1     -11.864  10.468  70.001  1.00  0.00    -0.308 C  
HETATM    3  H   UNL     1     -10.638   9.664  71.313  1.00  0.00     0.000 HD 
ENDROOT
BRANCH   2   4
HETATM    4  C   UNL     1     -11.766  11.079  68.589  1.00  0.00    -0.367 C  
BRANCH   4   5
HETATM    5  C   UNL     1     -10.362  11.072  67.974  1.00  0.00    -0.209 C  
BRANCH   5   6
HETATM    6  C   UNL     1      -9.489  12.318  68.253  1.00  0.00    -0.209 C  
HETATM    7  H   UNL     1      -8.043  15.698  66.623  1.00  0.00     0.000 HD 
HETATM    8  C   UNL     1      -9.382  13.431  67.127  1.00  0.00    -0.240 C  
HETATM    9  C   UNL     1      -8.037  11.862  68.446  1.00  0.00    -0.155 C  
HETATM   10  C   UNL     1      -7.245  13.131  68.328  1.00  0.00    -0.107 C  
HETATM   11  O   UNL     1      -7.814  11.275  69.714  1.00  0.00    -0.307 OA 
HETATM   12  O   UNL     1      -7.644  15.241  67.354  1.00  0.00    -0.167 OA 
HETATM   13  H   UNL     1      -6.915  10.993  69.834  1.00  0.00     0.000 HD 
HETATM   14  C   UNL     1      -7.880  13.860  67.163  1.00  0.00    -0.012 C  
BRANCH   8  15
HETATM   15  C   UNL     1     -10.405  14.606  67.243  1.00  0.00    -0.256 C  
BRANCH  15  16
HETATM   16  C   UNL     1     -11.855  14.240  66.981  1.00  0.00    -0.455 C  
HETATM   17  C   UNL     1     -12.532  14.030  65.834  1.00  0.00    -0.513 C  
BRANCH  17  18
HETATM   18  C   UNL     1     -12.039  14.114  64.418  1.00  0.00    -0.486 C  
BRANCH  18  19
HETATM   19  C   UNL     1     -12.116  12.761  63.693  1.00  0.00    -0.624 C  
BRANCH  19  20
HETATM   20  C   UNL     1     -11.490  11.602  64.458  1.00  0.00    -0.272 C  
BRANCH  20  21
HETATM   21  C   UNL     1     -10.233  11.135  63.794  1.00  0.00    -0.377 C  
HETATM   22  O   UNL     1     -10.109  10.811  62.619  1.00  0.00    -0.154 OA 
BRANCH  21  23
HETATM   23  O   UNL     1      -9.277  10.991  64.752  1.00  0.00    -0.205 OA 
BRANCH  23  24
HETATM   24  C   UNL     1      -8.767   9.674  64.736  1.00  0.00    -0.193 C  
BRANCH  24  25
HETATM   25  C   UNL     1      -7.617   9.479  65.701  1.00  0.00    -0.101 C  
BRANCH  25  26
HETATM   26  C   UNL     1      -7.972   8.565  66.872  1.00  0.00    -0.095 C  
BRANCH  26  27
HETATM   27  C   UNL     1      -9.204   7.675  66.651  1.00  0.00    -0.170 C  
BRANCH  27  28
HETATM   28  O   UNL     1     -10.143   7.928  67.673  1.00  0.00    -0.175 OA 
HETATM   29  N   UNL     1     -10.178   6.897  68.641  1.00  0.00    -0.166 N  
HETATM   30  O   UNL     1     -11.044   7.084  69.500  1.00  0.00    -0.238 OA 
HETATM   31  O   UNL     1      -9.384   5.974  68.513  1.00  0.00    -0.117 OA 
ENDBRANCH  27  28
ENDBRANCH  26  27
ENDBRANCH  25  26
ENDBRANCH  24  25
ENDBRANCH  23  24
ENDBRANCH  21  23
ENDBRANCH  20  21
ENDBRANCH  19  20
ENDBRANCH  18  19
ENDBRANCH  17  18
ENDBRANCH  15  16
ENDBRANCH   8  15
ENDBRANCH   5   6
ENDBRANCH   4   5
ENDBRANCH   2   4
BRANCH   2  32
HETATM   32  C   UNL     1     -12.359  11.487  71.017  1.00  0.00    -0.434 C  
BRANCH  32  33
HETATM   33  C   UNL     1     -12.826  12.773  70.344  1.00  0.00     0.144 C  
BRANCH  33  34
HETATM   34  C   UNL     1     -12.622  13.921  71.277  1.00  0.00    -0.450 A  
HETATM   35  C   UNL     1     -13.238  15.090  73.302  1.00  0.00    -0.537 A  
HETATM   36  C   UNL     1     -11.644  16.065  71.765  1.00  0.00    -0.534 A  
HETATM   37  C   UNL     1     -13.363  13.984  72.466  1.00  0.00    -0.639 A  
HETATM   38  C   UNL     1     -11.765  14.964  70.927  1.00  0.00    -0.374 A  
HETATM   39  C   UNL     1     -12.379  16.130  72.951  1.00  0.00    -0.607 A  
ENDBRANCH  33  34
ENDBRANCH  32  33
ENDBRANCH   2  32
TORSDOF 18
ENDMDL
MODEL      108
REMARK 921   NORMALIZED FREE ENERGY PREDICTED BY IDOCK:   -4.82 KCAL/MOL
REMARK 922        TOTAL FREE ENERGY PREDICTED BY IDOCK:  -14.67 KCAL/MOL
REMARK 923 INTER-LIGAND FREE ENERGY PREDICTED BY IDOCK:  -11.84 KCAL/MOL
REMARK 924 INTRA-LIGAND FREE ENERGY PREDICTED BY IDOCK:   -2.84 KCAL/MOL
REMARK 927      BINDING AFFINITY PREDICTED BY RF-SCORE:    0.00 PKD
ROOT
HETATM    1  O   UNL     1     -11.410   5.525  66.095  1.00  0.00    -0.751 OA 
HETATM    2  C   UNL     1     -10.510   5.817  67.162  1.00  0.00    -0.273 C  
HETATM    3  H   UNL     1     -11.026   4.883  65.509  1.00  0.00     0.000 HD 
ENDROOT
BRANCH   2   4
HETATM    4  C   UNL     1     -11.133   6.859  68.112  1.00  0.00    -0.165 C  
BRANCH   4   5
HETATM    5  C   UNL     1     -11.504   6.331  69.503  1.00  0.00    -0.387 C  
BRANCH   5   6
HETATM    6  C   UNL     1     -10.820   7.028  70.702  1.00  0.00    -0.274 C  
HETATM    7  H   UNL     1      -8.072   9.783  71.719  1.00  0.00     0.000 HD 
HETATM    8  C   UNL     1      -9.798   8.206  70.407  1.00  0.00    -0.188 C  
HETATM    9  C   UNL     1      -9.969   5.992  71.447  1.00  0.00    -0.186 C  
HETATM   10  C   UNL     1      -9.079   6.824  72.324  1.00  0.00    -0.137 C  
HETATM   11  O   UNL     1     -10.747   5.119  72.245  1.00  0.00    -0.217 OA 
HETATM   12  O   UNL     1      -8.344   9.064  72.277  1.00  0.00    -0.354 OA 
HETATM   13  H   UNL     1     -10.220   4.478  72.707  1.00  0.00     0.000 HD 
HETATM   14  C   UNL     1      -8.644   7.969  71.434  1.00  0.00    -0.132 C  
BRANCH   8  15
HETATM   15  C   UNL     1     -10.407   9.644  70.420  1.00  0.00    -0.350 C  
BRANCH  15  16
HETATM   16  C   UNL     1     -11.758   9.777  71.100  1.00  0.00    -0.465 C  
HETATM   17  C   UNL     1     -12.585  10.832  71.249  1.00  0.00    -0.532 C  
BRANCH  17  18
HETATM   18  C   UNL     1     -12.403  12.248  70.783  1.00  0.00    -0.383 C  
BRANCH  18  19
HETATM   19  C   UNL     1     -12.834  13.272  71.844  1.00  0.00    -0.335 C  
BRANCH  19  20
HETATM   20  C   UNL     1     -13.075  14.675  71.302  1.00  0.00    -0.424 C  
BRANCH  20  21
HETATM   21  C   UNL     1     -11.877  15.547  71.514  1.00  0.00    -0.406 C  
HETATM   22  O   UNL     1     -11.667  16.269  72.481  1.00  0.00    -0.501 OA 
BRANCH  21  23
HETATM   23  O   UNL     1     -11.124  15.514  70.381  1.00  0.00    -0.285 OA 
BRANCH  23  24
HETATM   24  C   UNL     1     -11.897  15.921  69.271  1.00  0.00    -0.318 C  
BRANCH  24  25
HETATM   25  C   UNL     1     -11.285  15.514  67.949  1.00  0.00    -0.325 C  
BRANCH  25  26
HETATM   26  C   UNL     1     -10.286  14.367  68.084  1.00  0.00    -0.231 C  
BRANCH  26  27
HETATM   27  C   UNL     1     -10.108  13.510  66.823  1.00  0.00    -0.268 C  
BRANCH  27  28
HETATM   28  O   UNL     1     -11.187  13.750  65.947  1.00  0.00    -0.299 OA 
HETATM   29  N   UNL     1     -12.176  12.740  66.019  1.00  0.00    -0.391 N  
HETATM   30  O   UNL     1     -13.089  12.913  65.208  1.00  0.00    -0.682 OA 
HETATM   31  O   UNL     1     -12.011  11.844  66.838  1.00  0.00    -0.614 OA 
ENDBRANCH  27  28
ENDBRANCH  26  27
ENDBRANCH  25  26
ENDBRANCH  24  25
ENDBRANCH  23  24
ENDBRANCH  21  23
ENDBRANCH  20  21
ENDBRANCH  19  20
ENDBRANCH  18  19
ENDBRANCH  17  18
ENDBRANCH  15  16
ENDBRANCH   8  15
ENDBRANCH   5   6
ENDBRANCH   4   5
ENDBRANCH   2   4
BRANCH   2  32
HETATM   32  C   UNL     1      -9.230   6.339  66.525  1.00  0.00    -0.169 C  
BRANCH  32  33
HETATM   33  C   UNL     1      -8.972   7.796  66.888  1.00  0.00    -0.153 C  
BRANCH  33  34
HETATM   34  C   UNL     1      -9.010   8.629  65.648  1.00  0.00    -0.231 A  
HETATM   35  C   UNL     1      -9.982  10.456  64.399  1.00  0.00    -0.388 A  
HETATM   36  C   UNL     1      -8.349   9.000  63.364  1.00  0.00    -0.187 A  
HETATM   37  C   UNL     1      -9.883   9.724  65.579  1.00  0.00    -0.378 A  
HETATM   38  C   UNL     1      -8.246   8.267  64.540  1.00  0.00    -0.138 A  
HETATM   39  C   UNL     1      -9.216  10.094  63.293  1.00  0.00    -0.320 A  
ENDBRANCH  33  34
ENDBRANCH  32  33
ENDBRANCH   2  32
TORSDOF 18
ENDMDL
MODEL      109
REMARK 921   NORMALIZED FREE ENERGY PREDICTED BY IDOCK:   -4.82 KCAL/MOL
REMARK 922        TOTAL FREE ENERGY PREDICTED BY IDOCK:  -14.67 KCAL/MOL
REMARK 923 INTER-LIGAND FREE ENERGY PREDICTED BY IDOCK:  -11.76 KCAL/MOL
REMARK 924 INTRA-LIGAND FREE ENERGY PREDICTED BY IDOCK:   -2.90 KCAL/MOL
REMARK 927      BINDING AFFINITY PREDICTED BY RF-SCORE:    0.00 PKD
ROOT
HETATM    1  O   UNL     1     -12.846  10.533  69.975  1.00  0.00    -0.517 OA 
HETATM    2  C   UNL     1     -11.623  11.071  69.475  1.00  0.00    -0.313 C  
HETATM    3  H   UNL     1     -12.834  10.520  70.925  1.00  0.00     0.000 HD 
ENDROOT
BRANCH   2   4
HETATM    4  C   UNL     1     -11.642  11.092  67.934  1.00  0.00    -0.328 C  
BRANCH   4   5
HETATM    5  C   UNL     1     -10.377  11.652  67.276  1.00  0.00    -0.232 C  
BRANCH   5   6
HETATM    6  C   UNL     1     -10.556  12.271  65.870  1.00  0.00    -0.290 C  
HETATM    7  H   UNL     1     -13.284  13.635  63.248  1.00  0.00     0.000 HD 
HETATM    8  C   UNL     1     -12.013  12.716  65.421  1.00  0.00    -0.496 C  
HETATM    9  C   UNL     1     -10.161  11.223  64.821  1.00  0.00    -0.292 C  
HETATM   10  C   UNL     1     -10.720  11.771  63.540  1.00  0.00    -0.501 C  
HETATM   11  O   UNL     1      -8.759  11.070  64.705  1.00  0.00    -0.342 OA 
HETATM   12  O   UNL     1     -12.423  13.313  63.009  1.00  0.00    -0.606 OA 
HETATM   13  H   UNL     1      -8.515  10.421  64.056  1.00  0.00     0.000 HD 
HETATM   14  C   UNL     1     -12.092  12.285  63.922  1.00  0.00    -0.506 C  
BRANCH   8  15
HETATM   15  C   UNL     1     -12.375  14.210  65.698  1.00  0.00    -0.473 C  
BRANCH  15  16
HETATM   16  C   UNL     1     -11.261  15.211  65.454  1.00  0.00    -0.338 C  
HETATM   17  C   UNL     1     -10.464  15.888  66.304  1.00  0.00    -0.324 C  
BRANCH  17  18
HETATM   18  C   UNL     1     -10.449  15.865  67.806  1.00  0.00    -0.287 C  
BRANCH  18  19
HETATM   19  C   UNL     1      -9.023  15.818  68.375  1.00  0.00    -0.187 C  
BRANCH  19  20
HETATM   20  C   UNL     1      -8.218  14.596  67.951  1.00  0.00    -0.152 C  
BRANCH  20  21
HETATM   21  C   UNL     1      -6.750  14.833  68.122  1.00  0.00    -0.129 C  
HETATM   22  O   UNL     1      -6.061  14.468  69.067  1.00  0.00    -0.087 OA 
BRANCH  21  23
HETATM   23  O   UNL     1      -6.333  15.651  67.117  1.00  0.00    -0.308 OA 
BRANCH  23  24
HETATM   24  C   UNL     1      -5.485  16.657  67.629  1.00  0.00    -0.142 C  
BRANCH  24  25
HETATM   25  C   UNL     1      -5.998  18.054  67.353  1.00  0.00    -0.160 C  
BRANCH  25  26
HETATM   26  C   UNL     1      -6.931  18.116  66.146  1.00  0.00    -0.314 C  
BRANCH  26  27
HETATM   27  C   UNL     1      -7.798  19.381  66.060  1.00  0.00    -0.281 C  
BRANCH  27  28
HETATM   28  O   UNL     1      -9.158  19.005  66.049  1.00  0.00    -0.459 OA 
HETATM   29  N   UNL     1      -9.945  19.801  66.916  1.00  0.00    -0.384 N  
HETATM   30  O   UNL     1     -11.121  19.433  66.957  1.00  0.00    -0.420 OA 
HETATM   31  O   UNL     1      -9.386  20.717  67.504  1.00  0.00    -0.359 OA 
ENDBRANCH  27  28
ENDBRANCH  26  27
ENDBRANCH  25  26
ENDBRANCH  24  25
ENDBRANCH  23  24
ENDBRANCH  21  23
ENDBRANCH  20  21
ENDBRANCH  19  20
ENDBRANCH  18  19
ENDBRANCH  17  18
ENDBRANCH  15  16
ENDBRANCH   8  15
ENDBRANCH   5   6
ENDBRANCH   4   5
ENDBRANCH   2   4
BRANCH   2  32
HETATM   32  C   UNL     1     -10.506  10.184  70.007  1.00  0.00    -0.325 C  
BRANCH  32  33
HETATM   33  C   UNL     1     -10.636   8.751  69.505  1.00  0.00    -0.224 C  
BRANCH  33  34
HETATM   34  C   UNL     1     -10.777   7.830  70.672  1.00  0.00    -0.233 A  
HETATM   35  C   UNL     1     -10.839   7.502  73.067  1.00  0.00    -0.445 A  
HETATM   36  C   UNL     1     -10.861   5.599  71.572  1.00  0.00    -0.297 A  
HETATM   37  C   UNL     1     -10.789   8.359  71.971  1.00  0.00    -0.390 A  
HETATM   38  C   UNL     1     -10.811   6.450  70.474  1.00  0.00    -0.335 A  
HETATM   39  C   UNL     1     -10.875   6.123  72.866  1.00  0.00    -0.290 A  
ENDBRANCH  33  34
ENDBRANCH  32  33
ENDBRANCH   2  32
TORSDOF 18
ENDMDL
MODEL      110
REMARK 921   NORMALIZED FREE ENERGY PREDICTED BY IDOCK:   -4.81 KCAL/MOL
REMARK 922        TOTAL FREE ENERGY PREDICTED BY IDOCK:  -14.65 KCAL/MOL
REMARK 923 INTER-LIGAND FREE ENERGY PREDICTED BY IDOCK:  -11.28 KCAL/MOL
REMARK 924 INTRA-LIGAND FREE ENERGY PREDICTED BY IDOCK:   -3.37 KCAL/MOL
REMARK 927      BINDING AFFINITY PREDICTED BY RF-SCORE:    0.00 PKD
ROOT
HETATM    1  O   UNL     1      -8.871   8.411  67.935  1.00  0.00    -0.137 OA 
HETATM    2  C   UNL     1      -9.804   8.349  66.858  1.00  0.00    -0.245 C  
HETATM    3  H   UNL     1      -8.462   7.563  68.064  1.00  0.00     0.000 HD 
ENDROOT
BRANCH   2   4
HETATM    4  C   UNL     1     -10.468   9.724  66.650  1.00  0.00    -0.233 C  
BRANCH   4   5
HETATM    5  C   UNL     1      -9.660  10.715  65.805  1.00  0.00    -0.258 C  
BRANCH   5   6
HETATM    6  C   UNL     1     -10.444  11.915  65.225  1.00  0.00    -0.317 C  
HETATM    7  H   UNL     1     -13.563  14.370  65.869  1.00  0.00     0.000 HD 
HETATM    8  C   UNL     1     -11.622  12.535  66.089  1.00  0.00    -0.448 C  
HETATM    9  C   UNL     1     -11.143  11.464  63.936  1.00  0.00    -0.329 C  
HETATM   10  C   UNL     1     -12.148  12.548  63.676  1.00  0.00    -0.642 C  
HETATM   11  O   UNL     1     -10.253  11.363  62.840  1.00  0.00    -0.599 OA 
HETATM   12  O   UNL     1     -13.194  14.183  65.014  1.00  0.00    -0.691 OA 
HETATM   13  H   UNL     1     -10.686  11.084  62.042  1.00  0.00     0.000 HD 
HETATM   14  C   UNL     1     -12.736  12.846  65.039  1.00  0.00    -0.404 C  
BRANCH   8  15
HETATM   15  C   UNL     1     -11.225  13.737  67.004  1.00  0.00    -0.326 C  
BRANCH  15  16
HETATM   16  C   UNL     1     -11.982  13.841  68.315  1.00  0.00    -0.392 C  
HETATM   17  C   UNL     1     -12.029  13.027  69.389  1.00  0.00    -0.338 C  
BRANCH  17  18
HETATM   18  C   UNL     1     -11.330  11.716  69.610  1.00  0.00    -0.308 C  
BRANCH  18  19
HETATM   19  C   UNL     1     -12.309  10.587  69.968  1.00  0.00    -0.290 C  
BRANCH  19  20
HETATM   20  C   UNL     1     -12.868  10.665  71.383  1.00  0.00    -0.556 C  
BRANCH  20  21
HETATM   21  C   UNL     1     -13.328   9.321  71.855  1.00  0.00    -0.429 C  
HETATM   22  O   UNL     1     -14.160   9.103  72.727  1.00  0.00    -0.518 OA 
BRANCH  21  23
HETATM   23  O   UNL     1     -12.557   8.375  71.252  1.00  0.00    -0.292 OA 
BRANCH  23  24
HETATM   24  C   UNL     1     -12.182   7.384  72.186  1.00  0.00    -0.230 C  
BRANCH  24  25
HETATM   25  C   UNL     1     -10.682   7.235  72.312  1.00  0.00    -0.266 C  
BRANCH  25  26
HETATM   26  C   UNL     1      -9.961   8.573  72.452  1.00  0.00    -0.365 C  
BRANCH  26  27
HETATM   27  C   UNL     1      -8.432   8.503  72.329  1.00  0.00    -0.148 C  
BRANCH  27  28
HETATM   28  O   UNL     1      -8.084   8.417  70.964  1.00  0.00    -0.098 OA 
HETATM   29  N   UNL     1      -6.969   9.225  70.640  1.00  0.00    -0.089 N  
HETATM   30  O   UNL     1      -6.703   9.202  69.436  1.00  0.00    -0.047 OA 
HETATM   31  O   UNL     1      -6.425   9.833  71.553  1.00  0.00    -0.308 OA 
ENDBRANCH  27  28
ENDBRANCH  26  27
ENDBRANCH  25  26
ENDBRANCH  24  25
ENDBRANCH  23  24
ENDBRANCH  21  23
ENDBRANCH  20  21
ENDBRANCH  19  20
ENDBRANCH  18  19
ENDBRANCH  17  18
ENDBRANCH  15  16
ENDBRANCH   8  15
ENDBRANCH   5   6
ENDBRANCH   4   5
ENDBRANCH   2   4
BRANCH   2  32
HETATM   32  C   UNL     1     -10.828   7.285  67.228  1.00  0.00    -0.354 C  
BRANCH  32  33
HETATM   33  C   UNL     1     -10.688   6.847  68.681  1.00  0.00    -0.256 C  
BRANCH  33  34
HETATM   34  C   UNL     1     -10.181   5.443  68.728  1.00  0.00    -0.252 A  
HETATM   35  C   UNL     1      -9.574   3.412  67.565  1.00  0.00    -0.152 A  
HETATM   36  C   UNL     1      -9.608   3.473  69.985  1.00  0.00    -0.226 A  
HETATM   37  C   UNL     1      -9.969   4.746  67.529  1.00  0.00    -0.194 A  
HETATM   38  C   UNL     1     -10.002   4.805  69.954  1.00  0.00    -0.306 A  
HETATM   39  C   UNL     1      -9.394   2.777  68.792  1.00  0.00    -0.234 A  
ENDBRANCH  33  34
ENDBRANCH  32  33
ENDBRANCH   2  32
TORSDOF 18
ENDMDL
MODEL      111
REMARK 921   NORMALIZED FREE ENERGY PREDICTED BY IDOCK:   -4.80 KCAL/MOL
REMARK 922        TOTAL FREE ENERGY PREDICTED BY IDOCK:  -14.64 KCAL/MOL
REMARK 923 INTER-LIGAND FREE ENERGY PREDICTED BY IDOCK:  -10.61 KCAL/MOL
REMARK 924 INTRA-LIGAND FREE ENERGY PREDICTED BY IDOCK:   -4.02 KCAL/MOL
REMARK 927      BINDING AFFINITY PREDICTED BY RF-SCORE:    0.00 PKD
ROOT
HETATM    1  O   UNL     1     -12.052  12.296  70.953  1.00  0.00    -0.432 OA 
HETATM    2  C   UNL     1     -12.620  11.200  70.239  1.00  0.00    -0.210 C  
HETATM    3  H   UNL     1     -12.170  13.102  70.465  1.00  0.00     0.000 HD 
ENDROOT
BRANCH   2   4
HETATM    4  C   UNL     1     -12.428   9.892  71.031  1.00  0.00    -0.441 C  
BRANCH   4   5
HETATM    5  C   UNL     1     -10.981   9.575  71.422  1.00  0.00    -0.415 C  
BRANCH   5   6
HETATM    6  C   UNL     1     -10.528   8.108  71.231  1.00  0.00    -0.254 C  
HETATM    7  H   UNL     1     -10.224   5.129  68.546  1.00  0.00     0.000 HD 
HETATM    8  C   UNL     1     -10.581   7.486  69.771  1.00  0.00    -0.245 C  
HETATM    9  C   UNL     1     -11.462   7.200  72.042  1.00  0.00    -0.274 C  
HETATM   10  C   UNL     1     -11.187   5.828  71.499  1.00  0.00    -0.243 C  
HETATM   11  O   UNL     1     -11.181   7.231  73.429  1.00  0.00    -0.584 OA 
HETATM   12  O   UNL     1     -10.279   5.002  69.487  1.00  0.00    -0.234 OA 
HETATM   13  H   UNL     1     -11.759   6.669  73.932  1.00  0.00     0.000 HD 
HETATM   14  C   UNL     1     -11.100   6.031  70.001  1.00  0.00    -0.381 C  
BRANCH   8  15
HETATM   15  C   UNL     1      -9.259   7.592  68.947  1.00  0.00    -0.142 C  
BRANCH  15  16
HETATM   16  C   UNL     1      -9.238   8.668  67.876  1.00  0.00    -0.148 C  
HETATM   17  C   UNL     1      -8.750   9.925  67.880  1.00  0.00    -0.129 C  
BRANCH  17  18
HETATM   18  C   UNL     1      -8.068  10.670  68.992  1.00  0.00    -0.148 C  
BRANCH  18  19
HETATM   19  C   UNL     1      -7.039  11.684  68.470  1.00  0.00    -0.089 C  
BRANCH  19  20
HETATM   20  C   UNL     1      -6.481  12.618  69.535  1.00  0.00    -0.078 C  
BRANCH  20  21
HETATM   21  C   UNL     1      -6.295  14.002  68.994  1.00  0.00    -0.097 C  
HETATM   22  O   UNL     1      -5.574  14.324  68.058  1.00  0.00    -0.120 OA 
BRANCH  21  23
HETATM   23  O   UNL     1      -6.952  14.868  69.813  1.00  0.00    -0.172 OA 
BRANCH  23  24
HETATM   24  C   UNL     1      -7.710  15.781  69.047  1.00  0.00    -0.202 C  
BRANCH  24  25
HETATM   25  C   UNL     1      -9.040  15.211  68.603  1.00  0.00    -0.195 C  
BRANCH  25  26
HETATM   26  C   UNL     1     -10.059  16.291  68.246  1.00  0.00    -0.243 C  
BRANCH  26  27
HETATM   27  C   UNL     1     -11.278  16.367  69.176  1.00  0.00    -0.275 C  
BRANCH  27  28
HETATM   28  O   UNL     1     -10.942  15.797  70.422  1.00  0.00    -0.311 OA 
HETATM   29  N   UNL     1     -12.077  15.563  71.233  1.00  0.00    -0.347 N  
HETATM   30  O   UNL     1     -11.780  15.126  72.348  1.00  0.00    -0.406 OA 
HETATM   31  O   UNL     1     -13.175  15.820  70.757  1.00  0.00    -0.542 OA 
ENDBRANCH  27  28
ENDBRANCH  26  27
ENDBRANCH  25  26
ENDBRANCH  24  25
ENDBRANCH  23  24
ENDBRANCH  21  23
ENDBRANCH  20  21
ENDBRANCH  19  20
ENDBRANCH  18  19
ENDBRANCH  17  18
ENDBRANCH  15  16
ENDBRANCH   8  15
ENDBRANCH   5   6
ENDBRANCH   4   5
ENDBRANCH   2   4
BRANCH   2  32
HETATM   32  C   UNL     1     -11.915  11.145  68.891  1.00  0.00    -0.367 C  
BRANCH  32  33
HETATM   33  C   UNL     1     -11.396  12.515  68.469  1.00  0.00    -0.337 C  
BRANCH  33  34
HETATM   34  C   UNL     1     -11.649  12.711  67.010  1.00  0.00    -0.431 A  
HETATM   35  C   UNL     1     -11.283  12.015  64.724  1.00  0.00    -0.373 A  
HETATM   36  C   UNL     1     -12.490  14.057  65.201  1.00  0.00    -0.472 A  
HETATM   37  C   UNL     1     -11.120  11.795  66.089  1.00  0.00    -0.358 A  
HETATM   38  C   UNL     1     -12.330  13.843  66.565  1.00  0.00    -0.447 A  
HETATM   39  C   UNL     1     -11.967  13.145  64.281  1.00  0.00    -0.470 A  
ENDBRANCH  33  34
ENDBRANCH  32  33
ENDBRANCH   2  32
TORSDOF 18
ENDMDL
MODEL      112
REMARK 921   NORMALIZED FREE ENERGY PREDICTED BY IDOCK:   -4.80 KCAL/MOL
REMARK 922        TOTAL FREE ENERGY PREDICTED BY IDOCK:  -14.63 KCAL/MOL
REMARK 923 INTER-LIGAND FREE ENERGY PREDICTED BY IDOCK:  -12.11 KCAL/MOL
REMARK 924 INTRA-LIGAND FREE ENERGY PREDICTED BY IDOCK:   -2.52 KCAL/MOL
REMARK 927      BINDING AFFINITY PREDICTED BY RF-SCORE:    0.00 PKD
ROOT
HETATM    1  O   UNL     1     -10.377  13.376  69.369  1.00  0.00    -0.417 OA 
HETATM    2  C   UNL     1     -11.375  13.521  68.360  1.00  0.00    -0.292 C  
HETATM    3  H   UNL     1     -10.754  13.528  70.228  1.00  0.00     0.000 HD 
ENDROOT
BRANCH   2   4
HETATM    4  C   UNL     1     -10.763  13.274  66.967  1.00  0.00    -0.263 C  
BRANCH   4   5
HETATM    5  C   UNL     1     -11.628  12.442  66.016  1.00  0.00    -0.455 C  
BRANCH   5   6
HETATM    6  C   UNL     1     -10.903  11.318  65.239  1.00  0.00    -0.261 C  
HETATM    7  H   UNL     1      -7.368   9.456  64.775  1.00  0.00     0.000 HD 
HETATM    8  C   UNL     1      -9.399  10.986  65.624  1.00  0.00    -0.239 C  
HETATM    9  C   UNL     1     -10.814  11.724  63.763  1.00  0.00    -0.424 C  
HETATM   10  C   UNL     1      -9.791  10.784  63.194  1.00  0.00    -0.378 C  
HETATM   11  O   UNL     1     -12.043  11.565  63.079  1.00  0.00    -0.939 OA 
HETATM   12  O   UNL     1      -8.050   9.488  64.113  1.00  0.00    -0.129 OA 
HETATM   13  H   UNL     1     -11.988  11.816  62.165  1.00  0.00     0.000 HD 
HETATM   14  C   UNL     1      -8.705  10.733  64.247  1.00  0.00    -0.075 C  
BRANCH   8  15
HETATM   15  C   UNL     1      -9.210   9.846  66.676  1.00  0.00    -0.185 C  
BRANCH  15  16
HETATM   16  C   UNL     1     -10.382   8.894  66.828  1.00  0.00    -0.317 C  
HETATM   17  C   UNL     1     -10.475   7.670  67.385  1.00  0.00    -0.367 C  
BRANCH  17  18
HETATM   18  C   UNL     1      -9.400   6.844  68.034  1.00  0.00    -0.123 C  
BRANCH  18  19
HETATM   19  C   UNL     1      -9.168   7.239  69.501  1.00  0.00    -0.149 C  
BRANCH  19  20
HETATM   20  C   UNL     1      -8.718   6.091  70.396  1.00  0.00    -0.144 C  
BRANCH  20  21
HETATM   21  C   UNL     1      -8.799   6.472  71.841  1.00  0.00    -0.134 C  
HETATM   22  O   UNL     1      -8.046   7.234  72.435  1.00  0.00    -0.098 OA 
BRANCH  21  23
HETATM   23  O   UNL     1      -9.769   5.715  72.424  1.00  0.00    -0.156 OA 
BRANCH  23  24
HETATM   24  C   UNL     1     -10.825   6.538  72.872  1.00  0.00    -0.258 C  
BRANCH  24  25
HETATM   25  C   UNL     1     -12.122   6.280  72.136  1.00  0.00    -0.304 C  
BRANCH  25  26
HETATM   26  C   UNL     1     -12.548   7.451  71.254  1.00  0.00    -0.376 C  
BRANCH  26  27
HETATM   27  C   UNL     1     -11.793   8.764  71.508  1.00  0.00    -0.311 C  
BRANCH  27  28
HETATM   28  O   UNL     1     -12.661   9.679  72.138  1.00  0.00    -0.362 OA 
HETATM   29  N   UNL     1     -12.685  10.936  71.488  1.00  0.00    -0.426 N  
HETATM   30  O   UNL     1     -13.393  11.758  72.075  1.00  0.00    -0.487 OA 
HETATM   31  O   UNL     1     -12.021  11.057  70.467  1.00  0.00    -0.326 OA 
ENDBRANCH  27  28
ENDBRANCH  26  27
ENDBRANCH  25  26
ENDBRANCH  24  25
ENDBRANCH  23  24
ENDBRANCH  21  23
ENDBRANCH  20  21
ENDBRANCH  19  20
ENDBRANCH  18  19
ENDBRANCH  17  18
ENDBRANCH  15  16
ENDBRANCH   8  15
ENDBRANCH   5   6
ENDBRANCH   4   5
ENDBRANCH   2   4
BRANCH   2  32
HETATM   32  C   UNL     1     -11.921  14.936  68.487  1.00  0.00    -0.275 C  
BRANCH  32  33
HETATM   33  C   UNL     1     -11.223  15.713  69.597  1.00  0.00    -0.310 C  
BRANCH  33  34
HETATM   34  C   UNL     1     -12.089  15.721  70.814  1.00  0.00    -0.448 A  
HETATM   35  C   UNL     1     -12.331  16.087  73.192  1.00  0.00    -0.637 A  
HETATM   36  C   UNL     1     -14.158  15.157  71.906  1.00  0.00    -0.649 A  
HETATM   37  C   UNL     1     -11.556  16.153  72.038  1.00  0.00    -0.477 A  
HETATM   38  C   UNL     1     -13.389  15.221  70.751  1.00  0.00    -0.402 A  
HETATM   39  C   UNL     1     -13.631  15.590  73.126  1.00  0.00    -0.514 A  
ENDBRANCH  33  34
ENDBRANCH  32  33
ENDBRANCH   2  32
TORSDOF 18
ENDMDL
MODEL      113
REMARK 921   NORMALIZED FREE ENERGY PREDICTED BY IDOCK:   -4.80 KCAL/MOL
REMARK 922        TOTAL FREE ENERGY PREDICTED BY IDOCK:  -14.63 KCAL/MOL
REMARK 923 INTER-LIGAND FREE ENERGY PREDICTED BY IDOCK:  -10.62 KCAL/MOL
REMARK 924 INTRA-LIGAND FREE ENERGY PREDICTED BY IDOCK:   -4.01 KCAL/MOL
REMARK 927      BINDING AFFINITY PREDICTED BY RF-SCORE:    0.00 PKD
ROOT
HETATM    1  O   UNL     1     -13.348   9.866  70.624  1.00  0.00    -0.617 OA 
HETATM    2  C   UNL     1     -12.009   9.956  71.106  1.00  0.00    -0.384 C  
HETATM    3  H   UNL     1     -13.952   9.769  71.350  1.00  0.00     0.000 HD 
ENDROOT
BRANCH   2   4
HETATM    4  C   UNL     1     -11.028  10.112  69.928  1.00  0.00    -0.344 C  
BRANCH   4   5
HETATM    5  C   UNL     1      -9.664   9.441  70.123  1.00  0.00    -0.274 C  
BRANCH   5   6
HETATM    6  C   UNL     1      -8.669   9.563  68.946  1.00  0.00    -0.133 C  
HETATM    7  H   UNL     1      -6.547   7.454  66.258  1.00  0.00     0.000 HD 
HETATM    8  C   UNL     1      -8.251   8.242  68.171  1.00  0.00    -0.128 C  
HETATM    9  C   UNL     1      -7.336  10.097  69.488  1.00  0.00    -0.123 C  
HETATM   10  C   UNL     1      -6.363   9.820  68.379  1.00  0.00    -0.054 C  
HETATM   11  O   UNL     1      -7.375  11.486  69.755  1.00  0.00    -0.356 OA 
HETATM   12  O   UNL     1      -6.321   8.327  66.554  1.00  0.00    -0.052 OA 
HETATM   13  H   UNL     1      -6.550  11.817  70.090  1.00  0.00     0.000 HD 
HETATM   14  C   UNL     1      -6.723   8.427  67.906  1.00  0.00    -0.066 C  
BRANCH   8  15
HETATM   15  C   UNL     1      -9.103   7.908  66.904  1.00  0.00    -0.172 C  
BRANCH  15  16
HETATM   16  C   UNL     1     -10.304   8.806  66.667  1.00  0.00    -0.298 C  
HETATM   17  C   UNL     1     -10.465   9.898  65.893  1.00  0.00    -0.072 C  
BRANCH  17  18
HETATM   18  C   UNL     1      -9.463  10.588  65.013  1.00  0.00    -0.296 C  
BRANCH  18  19
HETATM   19  C   UNL     1      -9.951  11.967  64.542  1.00  0.00    -0.239 C  
BRANCH  19  20
HETATM   20  C   UNL     1     -11.160  11.923  63.617  1.00  0.00    -0.517 C  
BRANCH  20  21
HETATM   21  C   UNL     1     -12.246  12.829  64.107  1.00  0.00    -0.429 C  
HETATM   22  O   UNL     1     -13.270  12.489  64.688  1.00  0.00    -0.848 OA 
BRANCH  21  23
HETATM   23  O   UNL     1     -11.974  14.089  63.670  1.00  0.00    -0.300 OA 
BRANCH  23  24
HETATM   24  C   UNL     1     -12.028  15.001  64.747  1.00  0.00    -0.311 C  
BRANCH  24  25
HETATM   25  C   UNL     1     -10.888  15.996  64.731  1.00  0.00    -0.315 C  
BRANCH  25  26
HETATM   26  C   UNL     1     -10.514  16.495  66.125  1.00  0.00    -0.301 C  
BRANCH  26  27
HETATM   27  C   UNL     1     -10.943  15.578  67.279  1.00  0.00    -0.303 C  
BRANCH  27  28
HETATM   28  O   UNL     1      -9.874  14.716  67.604  1.00  0.00    -0.216 OA 
HETATM   29  N   UNL     1     -10.290  13.371  67.747  1.00  0.00    -0.237 N  
HETATM   30  O   UNL     1      -9.370  12.627  68.094  1.00  0.00    -0.202 OA 
HETATM   31  O   UNL     1     -11.467  13.116  67.526  1.00  0.00    -0.291 OA 
ENDBRANCH  27  28
ENDBRANCH  26  27
ENDBRANCH  25  26
ENDBRANCH  24  25
ENDBRANCH  23  24
ENDBRANCH  21  23
ENDBRANCH  20  21
ENDBRANCH  19  20
ENDBRANCH  18  19
ENDBRANCH  17  18
ENDBRANCH  15  16
ENDBRANCH   8  15
ENDBRANCH   5   6
ENDBRANCH   4   5
ENDBRANCH   2   4
BRANCH   2  32
HETATM   32  C   UNL     1     -11.740   8.679  71.891  1.00  0.00    -0.422 C  
BRANCH  32  33
HETATM   33  C   UNL     1     -12.435   7.476  71.266  1.00  0.00    -0.354 C  
BRANCH  33  34
HETATM   34  C   UNL     1     -11.409   6.473  70.850  1.00  0.00    -0.393 A  
HETATM   35  C   UNL     1     -10.313   5.225  69.093  1.00  0.00    -0.264 A  
HETATM   36  C   UNL     1      -9.824   4.753  71.415  1.00  0.00    -0.255 A  
HETATM   37  C   UNL     1     -11.210   6.215  69.486  1.00  0.00    -0.482 A  
HETATM   38  C   UNL     1     -10.717   5.740  71.813  1.00  0.00    -0.305 A  
HETATM   39  C   UNL     1      -9.622   4.495  70.057  1.00  0.00    -0.267 A  
ENDBRANCH  33  34
ENDBRANCH  32  33
ENDBRANCH   2  32
TORSDOF 18
ENDMDL
MODEL      114
REMARK 921   NORMALIZED FREE ENERGY PREDICTED BY IDOCK:   -4.79 KCAL/MOL
REMARK 922        TOTAL FREE ENERGY PREDICTED BY IDOCK:  -14.62 KCAL/MOL
REMARK 923 INTER-LIGAND FREE ENERGY PREDICTED BY IDOCK:  -10.30 KCAL/MOL
REMARK 924 INTRA-LIGAND FREE ENERGY PREDICTED BY IDOCK:   -4.33 KCAL/MOL
REMARK 927      BINDING AFFINITY PREDICTED BY RF-SCORE:    0.00 PKD
ROOT
HETATM    1  O   UNL     1     -13.418   7.709  70.674  1.00  0.00    -0.379 OA 
HETATM    2  C   UNL     1     -12.886   8.726  71.522  1.00  0.00    -0.325 C  
HETATM    3  H   UNL     1     -13.980   7.128  71.173  1.00  0.00     0.000 HD 
ENDROOT
BRANCH   2   4
HETATM    4  C   UNL     1     -11.973   9.668  70.713  1.00  0.00    -0.356 C  
BRANCH   4   5
HETATM    5  C   UNL     1     -10.485   9.598  71.071  1.00  0.00    -0.327 C  
BRANCH   5   6
HETATM    6  C   UNL     1      -9.548   9.016  69.987  1.00  0.00    -0.203 C  
HETATM    7  H   UNL     1      -7.239   5.861  69.047  1.00  0.00     0.000 HD 
HETATM    8  C   UNL     1      -8.979   7.549  70.190  1.00  0.00    -0.147 C  
HETATM    9  C   UNL     1      -8.285   9.885  69.917  1.00  0.00    -0.184 C  
HETATM   10  C   UNL     1      -7.315   9.042  69.142  1.00  0.00    -0.072 C  
HETATM   11  O   UNL     1      -8.502  11.109  69.241  1.00  0.00    -0.372 OA 
HETATM   12  O   UNL     1      -7.124   6.735  68.693  1.00  0.00    -0.077 OA 
HETATM   13  H   UNL     1      -7.720  11.646  69.197  1.00  0.00     0.000 HD 
HETATM   14  C   UNL     1      -7.497   7.648  69.706  1.00  0.00    -0.090 C  
BRANCH   8  15
HETATM   15  C   UNL     1      -9.813   6.406  69.528  1.00  0.00    -0.176 C  
BRANCH  15  16
HETATM   16  C   UNL     1     -10.784   6.846  68.446  1.00  0.00    -0.259 C  
HETATM   17  C   UNL     1     -10.612   7.073  67.129  1.00  0.00    -0.412 C  
BRANCH  17  18
HETATM   18  C   UNL     1      -9.358   6.969  66.308  1.00  0.00    -0.146 C  
BRANCH  18  19
HETATM   19  C   UNL     1      -9.017   8.287  65.595  1.00  0.00    -0.157 C  
BRANCH  19  20
HETATM   20  C   UNL     1      -9.928   9.452  65.959  1.00  0.00    -0.352 C  
BRANCH  20  21
HETATM   21  C   UNL     1      -9.222  10.761  65.790  1.00  0.00    -0.189 C  
HETATM   22  O   UNL     1      -8.099  11.038  66.191  1.00  0.00    -0.164 OA 
BRANCH  21  23
HETATM   23  O   UNL     1     -10.098  11.645  65.238  1.00  0.00    -0.244 OA 
BRANCH  23  24
HETATM   24  C   UNL     1     -10.450  11.232  63.934  1.00  0.00    -0.391 C  
BRANCH  24  25
HETATM   25  C   UNL     1     -11.646  11.979  63.385  1.00  0.00    -0.495 C  
BRANCH  25  26
HETATM   26  C   UNL     1     -12.397  12.767  64.456  1.00  0.00    -0.515 C  
BRANCH  26  27
HETATM   27  C   UNL     1     -12.283  14.294  64.338  1.00  0.00    -0.447 C  
BRANCH  27  28
HETATM   28  O   UNL     1     -11.572  14.788  65.452  1.00  0.00    -0.343 OA 
HETATM   29  N   UNL     1     -11.054  16.086  65.229  1.00  0.00    -0.261 N  
HETATM   30  O   UNL     1     -10.377  16.495  66.176  1.00  0.00    -0.319 OA 
HETATM   31  O   UNL     1     -11.321  16.626  64.163  1.00  0.00    -1.141 OA 
ENDBRANCH  27  28
ENDBRANCH  26  27
ENDBRANCH  25  26
ENDBRANCH  24  25
ENDBRANCH  23  24
ENDBRANCH  21  23
ENDBRANCH  20  21
ENDBRANCH  19  20
ENDBRANCH  18  19
ENDBRANCH  17  18
ENDBRANCH  15  16
ENDBRANCH   8  15
ENDBRANCH   5   6
ENDBRANCH   4   5
ENDBRANCH   2   4
BRANCH   2  32
HETATM   32  C   UNL     1     -12.116   8.016  72.626  1.00  0.00    -0.283 C  
BRANCH  32  33
HETATM   33  C   UNL     1     -12.013   6.517  72.369  1.00  0.00    -0.199 C  
BRANCH  33  34
HETATM   34  C   UNL     1     -10.797   5.981  73.050  1.00  0.00    -0.290 A  
HETATM   35  C   UNL     1      -8.817   6.371  74.381  1.00  0.00    -0.164 A  
HETATM   36  C   UNL     1      -9.241   4.185  73.434  1.00  0.00    -0.110 A  
HETATM   37  C   UNL     1      -9.994   6.845  73.809  1.00  0.00    -0.345 A  
HETATM   38  C   UNL     1     -10.418   4.652  72.862  1.00  0.00    -0.254 A  
HETATM   39  C   UNL     1      -8.441   5.043  74.193  1.00  0.00    -0.109 A  
ENDBRANCH  33  34
ENDBRANCH  32  33
ENDBRANCH   2  32
TORSDOF 18
ENDMDL
MODEL      115
REMARK 921   NORMALIZED FREE ENERGY PREDICTED BY IDOCK:   -4.79 KCAL/MOL
REMARK 922        TOTAL FREE ENERGY PREDICTED BY IDOCK:  -14.61 KCAL/MOL
REMARK 923 INTER-LIGAND FREE ENERGY PREDICTED BY IDOCK:  -10.73 KCAL/MOL
REMARK 924 INTRA-LIGAND FREE ENERGY PREDICTED BY IDOCK:   -3.88 KCAL/MOL
REMARK 927      BINDING AFFINITY PREDICTED BY RF-SCORE:    0.00 PKD
ROOT
HETATM    1  O   UNL     1      -8.418   7.563  69.954  1.00  0.00    -0.135 OA 
HETATM    2  C   UNL     1      -9.005   7.552  68.654  1.00  0.00    -0.132 C  
HETATM    3  H   UNL     1      -9.024   7.199  70.589  1.00  0.00     0.000 HD 
ENDROOT
BRANCH   2   4
HETATM    4  C   UNL     1      -8.023   8.143  67.623  1.00  0.00    -0.122 C  
BRANCH   4   5
HETATM    5  C   UNL     1      -6.771   8.796  68.217  1.00  0.00    -0.065 C  
BRANCH   5   6
HETATM    6  C   UNL     1      -6.948  10.227  68.777  1.00  0.00    -0.067 C  
HETATM    7  H   UNL     1      -6.206  14.112  68.049  1.00  0.00     0.000 HD 
HETATM    8  C   UNL     1      -6.482  11.451  67.881  1.00  0.00    -0.058 C  
HETATM    9  C   UNL     1      -6.093  10.364  70.044  1.00  0.00    -0.083 C  
HETATM   10  C   UNL     1      -6.034  11.845  70.278  1.00  0.00    -0.150 C  
HETATM   11  O   UNL     1      -6.674   9.725  71.165  1.00  0.00    -0.298 OA 
HETATM   12  O   UNL     1      -6.343  13.744  68.914  1.00  0.00    -0.085 OA 
HETATM   13  H   UNL     1      -6.145   9.810  71.950  1.00  0.00     0.000 HD 
HETATM   14  C   UNL     1      -5.817  12.432  68.899  1.00  0.00    -0.066 C  
BRANCH   8  15
HETATM   15  C   UNL     1      -7.590  12.086  66.982  1.00  0.00    -0.111 C  
BRANCH  15  16
HETATM   16  C   UNL     1      -9.018  11.721  67.345  1.00  0.00    -0.173 C  
HETATM   17  C   UNL     1     -10.008  11.156  66.625  1.00  0.00    -0.244 C  
BRANCH  17  18
HETATM   18  C   UNL     1      -9.999  10.715  65.189  1.00  0.00    -0.366 C  
BRANCH  18  19
HETATM   19  C   UNL     1     -10.862  11.620  64.296  1.00  0.00    -0.418 C  
BRANCH  19  20
HETATM   20  C   UNL     1     -10.639  13.111  64.510  1.00  0.00    -0.425 C  
BRANCH  20  21
HETATM   21  C   UNL     1     -11.941  13.845  64.584  1.00  0.00    -0.419 C  
HETATM   22  O   UNL     1     -12.672  14.126  63.641  1.00  0.00    -0.790 OA 
BRANCH  21  23
HETATM   23  O   UNL     1     -12.110  14.278  65.863  1.00  0.00    -0.398 OA 
BRANCH  23  24
HETATM   24  C   UNL     1     -10.879  14.723  66.393  1.00  0.00    -0.322 C  
BRANCH  24  25
HETATM   25  C   UNL     1     -11.013  15.298  67.787  1.00  0.00    -0.312 C  
BRANCH  25  26
HETATM   26  C   UNL     1     -11.601  14.303  68.785  1.00  0.00    -0.357 C  
BRANCH  26  27
HETATM   27  C   UNL     1     -12.355  14.936  69.964  1.00  0.00    -0.312 C  
BRANCH  27  28
HETATM   28  O   UNL     1     -12.989  13.915  70.704  1.00  0.00    -0.264 OA 
HETATM   29  N   UNL     1     -13.643  14.412  71.857  1.00  0.00    -0.369 N  
HETATM   30  O   UNL     1     -14.143  13.514  72.540  1.00  0.00    -0.731 OA 
HETATM   31  O   UNL     1     -13.628  15.622  72.038  1.00  0.00    -0.464 OA 
ENDBRANCH  27  28
ENDBRANCH  26  27
ENDBRANCH  25  26
ENDBRANCH  24  25
ENDBRANCH  23  24
ENDBRANCH  21  23
ENDBRANCH  20  21
ENDBRANCH  19  20
ENDBRANCH  18  19
ENDBRANCH  17  18
ENDBRANCH  15  16
ENDBRANCH   8  15
ENDBRANCH   5   6
ENDBRANCH   4   5
ENDBRANCH   2   4
BRANCH   2  32
HETATM   32  C   UNL     1     -10.282   8.375  68.743  1.00  0.00    -0.223 C  
BRANCH  32  33
HETATM   33  C   UNL     1     -10.232   9.371  69.896  1.00  0.00    -0.247 C  
BRANCH  33  34
HETATM   34  C   UNL     1     -11.462   9.223  70.730  1.00  0.00    -0.351 A  
HETATM   35  C   UNL     1     -13.093   7.790  71.794  1.00  0.00    -0.353 A  
HETATM   36  C   UNL     1     -13.396  10.191  71.786  1.00  0.00    -0.485 A  
HETATM   37  C   UNL     1     -11.905   7.940  71.085  1.00  0.00    -0.307 A  
HETATM   38  C   UNL     1     -12.210  10.346  71.079  1.00  0.00    -0.498 A  
HETATM   39  C   UNL     1     -13.838   8.915  72.143  1.00  0.00    -0.531 A  
ENDBRANCH  33  34
ENDBRANCH  32  33
ENDBRANCH   2  32
TORSDOF 18
ENDMDL
MODEL      116
REMARK 921   NORMALIZED FREE ENERGY PREDICTED BY IDOCK:   -4.78 KCAL/MOL
REMARK 922        TOTAL FREE ENERGY PREDICTED BY IDOCK:  -14.60 KCAL/MOL
REMARK 923 INTER-LIGAND FREE ENERGY PREDICTED BY IDOCK:  -10.56 KCAL/MOL
REMARK 924 INTRA-LIGAND FREE ENERGY PREDICTED BY IDOCK:   -4.04 KCAL/MOL
REMARK 927      BINDING AFFINITY PREDICTED BY RF-SCORE:    0.00 PKD
ROOT
HETATM    1  O   UNL     1     -13.719   9.542  72.465  1.00  0.00    -0.658 OA 
HETATM    2  C   UNL     1     -12.348   9.520  72.075  1.00  0.00    -0.329 C  
HETATM    3  H   UNL     1     -13.801   9.325  73.387  1.00  0.00     0.000 HD 
ENDROOT
BRANCH   2   4
HETATM    4  C   UNL     1     -12.215   9.872  70.580  1.00  0.00    -0.325 C  
BRANCH   4   5
HETATM    5  C   UNL     1     -11.039  10.790  70.231  1.00  0.00    -0.248 C  
BRANCH   5   6
HETATM    6  C   UNL     1      -9.984  10.209  69.261  1.00  0.00    -0.234 C  
HETATM    7  H   UNL     1      -9.492   7.895  66.008  1.00  0.00     0.000 HD 
HETATM    8  C   UNL     1     -10.489   9.376  68.007  1.00  0.00    -0.278 C  
HETATM    9  C   UNL     1      -9.113   9.207  70.031  1.00  0.00    -0.192 C  
HETATM   10  C   UNL     1      -8.404   8.445  68.949  1.00  0.00    -0.119 C  
HETATM   11  O   UNL     1      -8.166   9.840  70.870  1.00  0.00    -0.377 OA 
HETATM   12  O   UNL     1      -8.820   8.053  66.662  1.00  0.00    -0.132 OA 
HETATM   13  H   UNL     1      -7.627   9.220  71.346  1.00  0.00     0.000 HD 
HETATM   14  C   UNL     1      -9.474   8.193  67.908  1.00  0.00    -0.146 C  
BRANCH   8  15
HETATM   15  C   UNL     1     -10.680  10.193  66.690  1.00  0.00    -0.156 C  
BRANCH  15  16
HETATM   16  C   UNL     1      -9.910  11.499  66.611  1.00  0.00    -0.228 C  
HETATM   17  C   UNL     1     -10.299  12.749  66.292  1.00  0.00    -0.271 C  
BRANCH  17  18
HETATM   18  C   UNL     1     -11.660  13.241  65.890  1.00  0.00    -0.380 C  
BRANCH  18  19
HETATM   19  C   UNL     1     -12.221  14.277  66.877  1.00  0.00    -0.366 C  
BRANCH  19  20
HETATM   20  C   UNL     1     -11.987  13.939  68.344  1.00  0.00    -0.391 C  
BRANCH  20  21
HETATM   21  C   UNL     1     -11.763  15.178  69.153  1.00  0.00    -0.325 C  
HETATM   22  O   UNL     1     -12.322  15.470  70.204  1.00  0.00    -0.373 OA 
BRANCH  21  23
HETATM   23  O   UNL     1     -10.937  15.999  68.450  1.00  0.00    -0.298 OA 
BRANCH  23  24
HETATM   24  C   UNL     1      -9.593  15.768  68.817  1.00  0.00    -0.216 C  
BRANCH  24  25
HETATM   25  C   UNL     1      -8.663  15.696  67.625  1.00  0.00    -0.182 C  
BRANCH  25  26
HETATM   26  C   UNL     1      -9.140  16.543  66.448  1.00  0.00    -0.332 C  
BRANCH  26  27
HETATM   27  C   UNL     1      -8.687  18.010  66.478  1.00  0.00    -0.260 C  
BRANCH  27  28
HETATM   28  O   UNL     1      -9.741  18.806  66.976  1.00  0.00    -0.293 OA 
HETATM   29  N   UNL     1      -9.457  19.339  68.255  1.00  0.00    -0.339 N  
HETATM   30  O   UNL     1     -10.402  19.981  68.720  1.00  0.00    -0.433 OA 
HETATM   31  O   UNL     1      -8.355  19.103  68.735  1.00  0.00    -0.359 OA 
ENDBRANCH  27  28
ENDBRANCH  26  27
ENDBRANCH  25  26
ENDBRANCH  24  25
ENDBRANCH  23  24
ENDBRANCH  21  23
ENDBRANCH  20  21
ENDBRANCH  19  20
ENDBRANCH  18  19
ENDBRANCH  17  18
ENDBRANCH  15  16
ENDBRANCH   8  15
ENDBRANCH   5   6
ENDBRANCH   4   5
ENDBRANCH   2   4
BRANCH   2  32
HETATM   32  C   UNL     1     -11.833   8.117  72.366  1.00  0.00    -0.448 C  
BRANCH  32  33
HETATM   33  C   UNL     1     -12.266   7.123  71.294  1.00  0.00    -0.403 C  
BRANCH  33  34
HETATM   34  C   UNL     1     -11.127   6.210  70.978  1.00  0.00    -0.359 A  
HETATM   35  C   UNL     1      -9.039   5.186  71.637  1.00  0.00    -0.163 A  
HETATM   36  C   UNL     1      -9.893   4.886  69.392  1.00  0.00    -0.281 A  
HETATM   37  C   UNL     1     -10.144   5.971  71.950  1.00  0.00    -0.223 A  
HETATM   38  C   UNL     1     -10.999   5.669  69.700  1.00  0.00    -0.292 A  
HETATM   39  C   UNL     1      -8.914   4.644  70.359  1.00  0.00    -0.147 A  
ENDBRANCH  33  34
ENDBRANCH  32  33
ENDBRANCH   2  32
TORSDOF 18
ENDMDL
MODEL      117
REMARK 921   NORMALIZED FREE ENERGY PREDICTED BY IDOCK:   -4.78 KCAL/MOL
REMARK 922        TOTAL FREE ENERGY PREDICTED BY IDOCK:  -14.60 KCAL/MOL
REMARK 923 INTER-LIGAND FREE ENERGY PREDICTED BY IDOCK:  -12.38 KCAL/MOL
REMARK 924 INTRA-LIGAND FREE ENERGY PREDICTED BY IDOCK:   -2.22 KCAL/MOL
REMARK 927      BINDING AFFINITY PREDICTED BY RF-SCORE:    0.00 PKD
ROOT
HETATM    1  O   UNL     1     -10.691  11.928  69.633  1.00  0.00    -0.442 OA 
HETATM    2  C   UNL     1     -10.339  11.010  68.600  1.00  0.00    -0.193 C  
HETATM    3  H   UNL     1     -10.077  11.861  70.355  1.00  0.00     0.000 HD 
ENDROOT
BRANCH   2   4
HETATM    4  C   UNL     1     -11.335  11.119  67.430  1.00  0.00    -0.329 C  
BRANCH   4   5
HETATM    5  C   UNL     1     -10.713  11.010  66.033  1.00  0.00    -0.242 C  
BRANCH   5   6
HETATM    6  C   UNL     1     -10.788  12.279  65.152  1.00  0.00    -0.340 C  
HETATM    7  H   UNL     1     -11.803  16.170  65.144  1.00  0.00     0.000 HD 
HETATM    8  C   UNL     1     -11.222  13.646  65.832  1.00  0.00    -0.311 C  
HETATM    9  C   UNL     1     -11.855  12.061  64.072  1.00  0.00    -0.408 C  
HETATM   10  C   UNL     1     -12.110  13.440  63.537  1.00  0.00    -0.497 C  
HETATM   11  O   UNL     1     -11.409  11.217  63.027  1.00  0.00    -0.812 OA 
HETATM   12  O   UNL     1     -11.778  15.620  64.370  1.00  0.00    -0.382 OA 
HETATM   13  H   UNL     1     -12.070  11.082  62.359  1.00  0.00     0.000 HD 
HETATM   14  C   UNL     1     -12.151  14.317  64.771  1.00  0.00    -0.446 C  
BRANCH   8  15
HETATM   15  C   UNL     1     -10.050  14.544  66.344  1.00  0.00    -0.293 C  
BRANCH  15  16
HETATM   16  C   UNL     1      -8.828  13.800  66.853  1.00  0.00    -0.203 C  
HETATM   17  C   UNL     1      -7.775  14.207  67.589  1.00  0.00    -0.186 C  
BRANCH  17  18
HETATM   18  C   UNL     1      -7.476  15.575  68.134  1.00  0.00    -0.119 C  
BRANCH  18  19
HETATM   19  C   UNL     1      -6.614  16.410  67.174  1.00  0.00    -0.234 C  
BRANCH  19  20
HETATM   20  C   UNL     1      -7.405  17.143  66.097  1.00  0.00    -0.281 C  
BRANCH  20  21
HETATM   21  C   UNL     1      -6.915  18.548  65.933  1.00  0.00    -0.273 C  
HETATM   22  O   UNL     1      -6.998  19.232  64.920  1.00  0.00    -0.391 OA 
BRANCH  21  23
HETATM   23  O   UNL     1      -6.229  18.890  67.057  1.00  0.00    -0.183 OA 
BRANCH  23  24
HETATM   24  C   UNL     1      -6.740  20.093  67.591  1.00  0.00    -0.249 C  
BRANCH  24  25
HETATM   25  C   UNL     1      -7.342  19.914  68.968  1.00  0.00    -0.242 C  
BRANCH  25  26
HETATM   26  C   UNL     1      -8.480  18.896  68.991  1.00  0.00    -0.174 C  
BRANCH  26  27
HETATM   27  C   UNL     1      -9.887  19.491  68.830  1.00  0.00    -0.451 C  
BRANCH  27  28
HETATM   28  O   UNL     1      -9.923  20.274  67.657  1.00  0.00    -0.409 OA 
HETATM   29  N   UNL     1     -10.367  19.540  66.532  1.00  0.00    -0.442 N  
HETATM   30  O   UNL     1     -10.338  20.204  65.492  1.00  0.00    -0.378 OA 
HETATM   31  O   UNL     1     -10.707  18.378  66.712  1.00  0.00    -0.357 OA 
ENDBRANCH  27  28
ENDBRANCH  26  27
ENDBRANCH  25  26
ENDBRANCH  24  25
ENDBRANCH  23  24
ENDBRANCH  21  23
ENDBRANCH  20  21
ENDBRANCH  19  20
ENDBRANCH  18  19
ENDBRANCH  17  18
ENDBRANCH  15  16
ENDBRANCH   8  15
ENDBRANCH   5   6
ENDBRANCH   4   5
ENDBRANCH   2   4
BRANCH   2  32
HETATM   32  C   UNL     1     -10.359   9.622  69.223  1.00  0.00    -0.223 C  
BRANCH  32  33
HETATM   33  C   UNL     1     -10.419   9.687  70.745  1.00  0.00    -0.375 C  
BRANCH  33  34
HETATM   34  C   UNL     1     -11.712   9.105  71.213  1.00  0.00    -0.396 A  
HETATM   35  C   UNL     1     -13.126   7.171  71.539  1.00  0.00    -0.427 A  
HETATM   36  C   UNL     1     -13.983   9.396  71.956  1.00  0.00    -0.334 A  
HETATM   37  C   UNL     1     -11.896   7.715  71.180  1.00  0.00    -0.314 A  
HETATM   38  C   UNL     1     -12.757   9.944  71.599  1.00  0.00    -0.527 A  
HETATM   39  C   UNL     1     -14.168   8.011  71.926  1.00  0.00    -0.514 A  
ENDBRANCH  33  34
ENDBRANCH  32  33
ENDBRANCH   2  32
TORSDOF 18
ENDMDL
MODEL      118
REMARK 921   NORMALIZED FREE ENERGY PREDICTED BY IDOCK:   -4.77 KCAL/MOL
REMARK 922        TOTAL FREE ENERGY PREDICTED BY IDOCK:  -14.58 KCAL/MOL
REMARK 923 INTER-LIGAND FREE ENERGY PREDICTED BY IDOCK:  -10.25 KCAL/MOL
REMARK 924 INTRA-LIGAND FREE ENERGY PREDICTED BY IDOCK:   -4.33 KCAL/MOL
REMARK 927      BINDING AFFINITY PREDICTED BY RF-SCORE:    0.00 PKD
ROOT
HETATM    1  O   UNL     1     -11.216   5.162  72.693  1.00  0.00    -0.246 OA 
HETATM    2  C   UNL     1      -9.880   5.271  72.206  1.00  0.00    -0.168 C  
HETATM    3  H   UNL     1     -11.497   4.255  72.679  1.00  0.00     0.000 HD 
ENDROOT
BRANCH   2   4
HETATM    4  C   UNL     1      -9.423   6.743  72.228  1.00  0.00    -0.149 C  
BRANCH   4   5
HETATM    5  C   UNL     1     -10.467   7.739  72.743  1.00  0.00    -0.390 C  
BRANCH   5   6
HETATM    6  C   UNL     1     -11.438   8.318  71.687  1.00  0.00    -0.333 C  
HETATM    7  H   UNL     1     -12.555  11.695  69.810  1.00  0.00     0.000 HD 
HETATM    8  C   UNL     1     -11.295   9.848  71.289  1.00  0.00    -0.404 C  
HETATM    9  C   UNL     1     -12.868   8.220  72.234  1.00  0.00    -0.277 C  
HETATM   10  C   UNL     1     -13.657   9.126  71.334  1.00  0.00    -0.348 C  
HETATM   11  O   UNL     1     -13.389   6.906  72.166  1.00  0.00    -0.544 OA 
HETATM   12  O   UNL     1     -13.111  10.932  69.920  1.00  0.00    -0.049 OA 
HETATM   13  H   UNL     1     -14.274   6.846  72.505  1.00  0.00     0.000 HD 
HETATM   14  C   UNL     1     -12.771  10.342  71.159  1.00  0.00    -0.415 C  
BRANCH   8  15
HETATM   15  C   UNL     1     -10.391  10.139  70.048  1.00  0.00    -0.301 C  
BRANCH  15  16
HETATM   16  C   UNL     1     -10.801   9.444  68.762  1.00  0.00    -0.147 C  
HETATM   17  C   UNL     1     -10.278   9.481  67.520  1.00  0.00    -0.283 C  
BRANCH  17  18
HETATM   18  C   UNL     1      -9.099  10.261  67.014  1.00  0.00    -0.154 C  
BRANCH  18  19
HETATM   19  C   UNL     1      -9.271  10.696  65.550  1.00  0.00    -0.228 C  
BRANCH  19  20
HETATM   20  C   UNL     1     -10.718  10.764  65.082  1.00  0.00    -0.159 C  
BRANCH  20  21
HETATM   21  C   UNL     1     -11.047  12.123  64.547  1.00  0.00    -0.325 C  
HETATM   22  O   UNL     1     -11.694  12.369  63.536  1.00  0.00    -0.455 OA 
BRANCH  21  23
HETATM   23  O   UNL     1     -10.382  13.044  65.296  1.00  0.00    -0.294 OA 
BRANCH  23  24
HETATM   24  C   UNL     1     -11.262  14.075  65.694  1.00  0.00    -0.310 C  
BRANCH  24  25
HETATM   25  C   UNL     1     -12.053  13.724  66.935  1.00  0.00    -0.454 C  
BRANCH  25  26
HETATM   26  C   UNL     1     -11.167  13.297  68.103  1.00  0.00    -0.302 C  
BRANCH  26  27
HETATM   27  C   UNL     1     -11.152  14.265  69.295  1.00  0.00    -0.265 C  
BRANCH  27  28
HETATM   28  O   UNL     1     -12.479  14.501  69.712  1.00  0.00    -0.303 OA 
HETATM   29  N   UNL     1     -12.574  15.575  70.628  1.00  0.00    -0.442 N  
HETATM   30  O   UNL     1     -13.723  15.741  71.044  1.00  0.00    -0.539 OA 
HETATM   31  O   UNL     1     -11.545  16.182  70.896  1.00  0.00    -0.400 OA 
ENDBRANCH  27  28
ENDBRANCH  26  27
ENDBRANCH  25  26
ENDBRANCH  24  25
ENDBRANCH  23  24
ENDBRANCH  21  23
ENDBRANCH  20  21
ENDBRANCH  19  20
ENDBRANCH  18  19
ENDBRANCH  17  18
ENDBRANCH  15  16
ENDBRANCH   8  15
ENDBRANCH   5   6
ENDBRANCH   4   5
ENDBRANCH   2   4
BRANCH   2  32
HETATM   32  C   UNL     1      -9.883   4.709  70.791  1.00  0.00    -0.284 C  
BRANCH  32  33
HETATM   33  C   UNL     1     -10.786   5.515  69.866  1.00  0.00    -0.298 C  
BRANCH  33  34
HETATM   34  C   UNL     1     -10.032   5.873  68.627  1.00  0.00    -0.188 A  
HETATM   35  C   UNL     1      -9.931   5.987  66.214  1.00  0.00    -0.085 A  
HETATM   36  C   UNL     1      -7.980   6.514  67.546  1.00  0.00    -0.114 A  
HETATM   37  C   UNL     1     -10.652   5.732  67.377  1.00  0.00    -0.340 A  
HETATM   38  C   UNL     1      -8.696   6.261  68.710  1.00  0.00    -0.121 A  
HETATM   39  C   UNL     1      -8.596   6.377  66.299  1.00  0.00    -0.140 A  
ENDBRANCH  33  34
ENDBRANCH  32  33
ENDBRANCH   2  32
TORSDOF 18
ENDMDL
MODEL      119
REMARK 921   NORMALIZED FREE ENERGY PREDICTED BY IDOCK:   -4.77 KCAL/MOL
REMARK 922        TOTAL FREE ENERGY PREDICTED BY IDOCK:  -14.57 KCAL/MOL
REMARK 923 INTER-LIGAND FREE ENERGY PREDICTED BY IDOCK:  -10.91 KCAL/MOL
REMARK 924 INTRA-LIGAND FREE ENERGY PREDICTED BY IDOCK:   -3.66 KCAL/MOL
REMARK 927      BINDING AFFINITY PREDICTED BY RF-SCORE:    0.00 PKD
ROOT
HETATM    1  O   UNL     1      -9.880   7.822  72.277  1.00  0.00    -0.169 OA 
HETATM    2  C   UNL     1      -9.955   8.854  71.295  1.00  0.00    -0.288 C  
HETATM    3  H   UNL     1      -9.039   7.385  72.228  1.00  0.00     0.000 HD 
ENDROOT
BRANCH   2   4
HETATM    4  C   UNL     1     -11.321   9.565  71.373  1.00  0.00    -0.462 C  
BRANCH   4   5
HETATM    5  C   UNL     1     -11.740  10.312  70.102  1.00  0.00    -0.364 C  
BRANCH   5   6
HETATM    6  C   UNL     1     -12.498  11.643  70.312  1.00  0.00    -0.261 C  
HETATM    7  H   UNL     1     -12.145  15.644  70.116  1.00  0.00     0.000 HD 
HETATM    8  C   UNL     1     -11.762  12.998  69.933  1.00  0.00    -0.326 C  
HETATM    9  C   UNL     1     -12.798  11.803  71.808  1.00  0.00    -0.298 C  
HETATM   10  C   UNL     1     -13.175  13.250  71.944  1.00  0.00    -0.523 C  
HETATM   11  O   UNL     1     -13.872  10.987  72.238  1.00  0.00    -0.339 OA 
HETATM   12  O   UNL     1     -12.776  15.186  70.660  1.00  0.00    -0.361 OA 
HETATM   13  H   UNL     1     -14.058  11.086  73.164  1.00  0.00     0.000 HD 
HETATM   14  C   UNL     1     -12.169  13.980  71.078  1.00  0.00    -0.353 C  
BRANCH   8  15
HETATM   15  C   UNL     1     -12.027  13.526  68.487  1.00  0.00    -0.379 C  
BRANCH  15  16
HETATM   16  C   UNL     1     -11.962  12.482  67.386  1.00  0.00    -0.283 C  
HETATM   17  C   UNL     1     -12.031  12.591  66.044  1.00  0.00    -0.456 C  
BRANCH  17  18
HETATM   18  C   UNL     1     -12.216  13.823  65.205  1.00  0.00    -0.461 C  
BRANCH  18  19
HETATM   19  C   UNL     1     -10.877  14.454  64.793  1.00  0.00    -0.415 C  
BRANCH  19  20
HETATM   20  C   UNL     1     -10.684  15.887  65.272  1.00  0.00    -0.442 C  
BRANCH  20  21
HETATM   21  C   UNL     1      -9.521  15.989  66.209  1.00  0.00    -0.315 C  
HETATM   22  O   UNL     1      -9.405  15.420  67.288  1.00  0.00    -0.204 OA 
BRANCH  21  23
HETATM   23  O   UNL     1      -8.672  16.937  65.727  1.00  0.00    -0.512 OA 
BRANCH  23  24
HETATM   24  C   UNL     1      -7.498  16.984  66.511  1.00  0.00    -0.292 C  
BRANCH  24  25
HETATM   25  C   UNL     1      -7.113  18.392  66.909  1.00  0.00    -0.219 C  
BRANCH  25  26
HETATM   26  C   UNL     1      -7.326  18.669  68.395  1.00  0.00    -0.309 C  
BRANCH  26  27
HETATM   27  C   UNL     1      -8.668  19.326  68.748  1.00  0.00    -0.346 C  
BRANCH  27  28
HETATM   28  O   UNL     1      -9.225  19.889  67.581  1.00  0.00    -0.326 OA 
HETATM   29  N   UNL     1     -10.493  19.344  67.271  1.00  0.00    -0.437 N  
HETATM   30  O   UNL     1     -10.954  19.788  66.216  1.00  0.00    -0.365 OA 
HETATM   31  O   UNL     1     -10.962  18.524  68.049  1.00  0.00    -0.224 OA 
ENDBRANCH  27  28
ENDBRANCH  26  27
ENDBRANCH  25  26
ENDBRANCH  24  25
ENDBRANCH  23  24
ENDBRANCH  21  23
ENDBRANCH  20  21
ENDBRANCH  19  20
ENDBRANCH  18  19
ENDBRANCH  17  18
ENDBRANCH  15  16
ENDBRANCH   8  15
ENDBRANCH   5   6
ENDBRANCH   4   5
ENDBRANCH   2   4
BRANCH   2  32
HETATM   32  C   UNL     1      -9.750   8.187  69.942  1.00  0.00    -0.176 C  
BRANCH  32  33
HETATM   33  C   UNL     1      -8.354   8.449  69.390  1.00  0.00    -0.120 C  
BRANCH  33  34
HETATM   34  C   UNL     1      -8.383   9.670  68.530  1.00  0.00    -0.117 A  
HETATM   35  C   UNL     1      -8.182  12.070  68.319  1.00  0.00    -0.161 A  
HETATM   36  C   UNL     1      -8.895  10.732  66.432  1.00  0.00    -0.174 A  
HETATM   37  C   UNL     1      -8.079  10.918  69.093  1.00  0.00    -0.104 A  
HETATM   38  C   UNL     1      -8.793   9.579  67.201  1.00  0.00    -0.141 A  
HETATM   39  C   UNL     1      -8.590  11.976  66.990  1.00  0.00    -0.185 A  
ENDBRANCH  33  34
ENDBRANCH  32  33
ENDBRANCH   2  32
TORSDOF 18
ENDMDL
MODEL      120
REMARK 921   NORMALIZED FREE ENERGY PREDICTED BY IDOCK:   -4.77 KCAL/MOL
REMARK 922        TOTAL FREE ENERGY PREDICTED BY IDOCK:  -14.57 KCAL/MOL
REMARK 923 INTER-LIGAND FREE ENERGY PREDICTED BY IDOCK:   -9.76 KCAL/MOL
REMARK 924 INTRA-LIGAND FREE ENERGY PREDICTED BY IDOCK:   -4.80 KCAL/MOL
REMARK 927      BINDING AFFINITY PREDICTED BY RF-SCORE:    0.00 PKD
ROOT
HETATM    1  O   UNL     1     -13.674   9.475  70.929  1.00  0.00    -0.570 OA 
HETATM    2  C   UNL     1     -12.414   8.979  71.378  1.00  0.00    -0.317 C  
HETATM    3  H   UNL     1     -14.381   8.973  71.317  1.00  0.00     0.000 HD 
ENDROOT
BRANCH   2   4
HETATM    4  C   UNL     1     -11.267   9.794  70.749  1.00  0.00    -0.419 C  
BRANCH   4   5
HETATM    5  C   UNL     1      -9.860   9.248  71.013  1.00  0.00    -0.355 C  
BRANCH   5   6
HETATM    6  C   UNL     1      -8.994   8.960  69.765  1.00  0.00    -0.149 C  
HETATM    7  H   UNL     1      -6.659   6.202  68.000  1.00  0.00     0.000 HD 
HETATM    8  C   UNL     1      -8.359   7.514  69.603  1.00  0.00    -0.131 C  
HETATM    9  C   UNL     1      -7.771   9.887  69.796  1.00  0.00    -0.155 C  
HETATM   10  C   UNL     1      -6.838   9.281  68.789  1.00  0.00    -0.060 C  
HETATM   11  O   UNL     1      -8.085  11.215  69.419  1.00  0.00    -0.369 OA 
HETATM   12  O   UNL     1      -6.603   7.136  67.837  1.00  0.00    -0.049 OA 
HETATM   13  H   UNL     1      -7.328  11.789  69.438  1.00  0.00     0.000 HD 
HETATM   14  C   UNL     1      -6.926   7.791  69.048  1.00  0.00    -0.069 C  
BRANCH   8  15
HETATM   15  C   UNL     1      -9.204   6.498  68.769  1.00  0.00    -0.131 C  
BRANCH  15  16
HETATM   16  C   UNL     1     -10.395   7.085  68.033  1.00  0.00    -0.234 C  
HETATM   17  C   UNL     1     -10.475   7.838  66.918  1.00  0.00    -0.388 C  
BRANCH  17  18
HETATM   18  C   UNL     1      -9.367   8.353  66.044  1.00  0.00    -0.244 C  
BRANCH  18  19
HETATM   19  C   UNL     1      -9.245   9.884  66.099  1.00  0.00    -0.211 C  
BRANCH  19  20
HETATM   20  C   UNL     1     -10.456  10.590  66.695  1.00  0.00    -0.290 C  
BRANCH  20  21
HETATM   21  C   UNL     1     -10.231  12.067  66.777  1.00  0.00    -0.202 C  
HETATM   22  O   UNL     1      -9.336  12.633  67.394  1.00  0.00    -0.178 OA 
BRANCH  21  23
HETATM   23  O   UNL     1     -11.278  12.689  66.169  1.00  0.00    -0.284 OA 
BRANCH  23  24
HETATM   24  C   UNL     1     -12.159  13.218  67.137  1.00  0.00    -0.298 C  
BRANCH  24  25
HETATM   25  C   UNL     1     -11.927  14.691  67.398  1.00  0.00    -0.309 C  
BRANCH  25  26
HETATM   26  C   UNL     1     -11.863  15.027  68.886  1.00  0.00    -0.337 C  
BRANCH  26  27
HETATM   27  C   UNL     1     -12.339  13.910  69.826  1.00  0.00    -0.275 C  
BRANCH  27  28
HETATM   28  O   UNL     1     -12.941  14.491  70.962  1.00  0.00    -0.332 OA 
HETATM   29  N   UNL     1     -13.443  13.521  71.862  1.00  0.00    -0.429 N  
HETATM   30  O   UNL     1     -14.027  14.026  72.824  1.00  0.00    -0.669 OA 
HETATM   31  O   UNL     1     -13.254  12.343  71.587  1.00  0.00    -0.400 OA 
ENDBRANCH  27  28
ENDBRANCH  26  27
ENDBRANCH  25  26
ENDBRANCH  24  25
ENDBRANCH  23  24
ENDBRANCH  21  23
ENDBRANCH  20  21
ENDBRANCH  19  20
ENDBRANCH  18  19
ENDBRANCH  17  18
ENDBRANCH  15  16
ENDBRANCH   8  15
ENDBRANCH   5   6
ENDBRANCH   4   5
ENDBRANCH   2   4
BRANCH   2  32
HETATM   32  C   UNL     1     -12.349   7.515  70.967  1.00  0.00    -0.265 C  
BRANCH  32  33
HETATM   33  C   UNL     1     -12.417   6.587  72.175  1.00  0.00    -0.205 C  
BRANCH  33  34
HETATM   34  C   UNL     1     -11.031   6.268  72.632  1.00  0.00    -0.285 A  
HETATM   35  C   UNL     1      -9.089   6.855  73.946  1.00  0.00    -0.211 A  
HETATM   36  C   UNL     1      -9.016   4.968  72.433  1.00  0.00    -0.139 A  
HETATM   37  C   UNL     1     -10.408   7.098  73.576  1.00  0.00    -0.412 A  
HETATM   38  C   UNL     1     -10.333   5.206  72.059  1.00  0.00    -0.274 A  
HETATM   39  C   UNL     1      -8.394   5.791  73.375  1.00  0.00    -0.115 A  
ENDBRANCH  33  34
ENDBRANCH  32  33
ENDBRANCH   2  32
TORSDOF 18
ENDMDL
MODEL      121
REMARK 921   NORMALIZED FREE ENERGY PREDICTED BY IDOCK:   -4.74 KCAL/MOL
REMARK 922        TOTAL FREE ENERGY PREDICTED BY IDOCK:  -14.51 KCAL/MOL
REMARK 923 INTER-LIGAND FREE ENERGY PREDICTED BY IDOCK:   -9.88 KCAL/MOL
REMARK 924 INTRA-LIGAND FREE ENERGY PREDICTED BY IDOCK:   -4.64 KCAL/MOL
REMARK 927      BINDING AFFINITY PREDICTED BY RF-SCORE:    0.00 PKD
ROOT
HETATM    1  O   UNL     1     -11.865  14.253  66.237  1.00  0.00    -0.380 OA 
HETATM    2  C   UNL     1     -11.784  12.954  65.654  1.00  0.00    -0.387 C  
HETATM    3  H   UNL     1     -11.951  14.912  65.558  1.00  0.00     0.000 HD 
ENDROOT
BRANCH   2   4
HETATM    4  C   UNL     1     -11.645  11.885  66.756  1.00  0.00    -0.341 C  
BRANCH   4   5
HETATM    5  C   UNL     1     -10.816  12.309  67.973  1.00  0.00    -0.253 C  
BRANCH   5   6
HETATM    6  C   UNL     1     -10.553  11.216  69.034  1.00  0.00    -0.251 C  
HETATM    7  H   UNL     1      -9.665   7.325  69.535  1.00  0.00     0.000 HD 
HETATM    8  C   UNL     1     -10.117   9.772  68.538  1.00  0.00    -0.185 C  
HETATM    9  C   UNL     1     -11.857  10.954  69.799  1.00  0.00    -0.345 C  
HETATM   10  C   UNL     1     -11.601   9.657  70.510  1.00  0.00    -0.341 C  
HETATM   11  O   UNL     1     -12.148  11.968  70.743  1.00  0.00    -0.415 OA 
HETATM   12  O   UNL     1     -10.106   7.863  70.182  1.00  0.00    -0.190 OA 
HETATM   13  H   UNL     1     -12.955  11.806  71.217  1.00  0.00     0.000 HD 
HETATM   14  C   UNL     1     -10.898   8.799  69.478  1.00  0.00    -0.142 C  
BRANCH   8  15
HETATM   15  C   UNL     1      -8.577   9.523  68.465  1.00  0.00    -0.119 C  
BRANCH  15  16
HETATM   16  C   UNL     1      -7.729  10.380  69.388  1.00  0.00    -0.158 C  
HETATM   17  C   UNL     1      -6.893  11.408  69.138  1.00  0.00    -0.111 C  
BRANCH  17  18
HETATM   18  C   UNL     1      -6.525  12.026  67.819  1.00  0.00    -0.087 C  
BRANCH  18  19
HETATM   19  C   UNL     1      -6.689  13.554  67.825  1.00  0.00    -0.173 C  
BRANCH  19  20
HETATM   20  C   UNL     1      -7.925  14.056  67.089  1.00  0.00    -0.083 C  
BRANCH  20  21
HETATM   21  C   UNL     1      -8.268  15.452  67.505  1.00  0.00    -0.169 C  
HETATM   22  O   UNL     1      -7.477  16.331  67.822  1.00  0.00    -0.125 OA 
BRANCH  21  23
HETATM   23  O   UNL     1      -9.622  15.539  67.612  1.00  0.00    -0.209 OA 
BRANCH  23  24
HETATM   24  C   UNL     1     -10.000  16.860  67.941  1.00  0.00    -0.274 C  
BRANCH  24  25
HETATM   25  C   UNL     1     -10.620  16.967  69.318  1.00  0.00    -0.276 C  
BRANCH  25  26
HETATM   26  C   UNL     1     -11.299  15.675  69.766  1.00  0.00    -0.327 C  
BRANCH  26  27
HETATM   27  C   UNL     1     -12.323  15.838  70.898  1.00  0.00    -0.404 C  
BRANCH  27  28
HETATM   28  O   UNL     1     -12.909  14.584  71.173  1.00  0.00    -0.304 OA 
HETATM   29  N   UNL     1     -13.617  14.576  72.398  1.00  0.00    -0.426 N  
HETATM   30  O   UNL     1     -14.075  13.464  72.672  1.00  0.00    -0.767 OA 
HETATM   31  O   UNL     1     -13.682  15.628  73.020  1.00  0.00    -0.541 OA 
ENDBRANCH  27  28
ENDBRANCH  26  27
ENDBRANCH  25  26
ENDBRANCH  24  25
ENDBRANCH  23  24
ENDBRANCH  21  23
ENDBRANCH  20  21
ENDBRANCH  19  20
ENDBRANCH  18  19
ENDBRANCH  17  18
ENDBRANCH  15  16
ENDBRANCH   8  15
ENDBRANCH   5   6
ENDBRANCH   4   5
ENDBRANCH   2   4
BRANCH   2  32
HETATM   32  C   UNL     1     -10.575  12.963  64.730  1.00  0.00    -0.362 C  
BRANCH  32  33
HETATM   33  C   UNL     1     -10.720  11.949  63.601  1.00  0.00    -0.502 C  
BRANCH  33  34
HETATM   34  C   UNL     1      -9.559  11.009  63.629  1.00  0.00    -0.324 A  
HETATM   35  C   UNL     1      -8.140   9.423  62.482  1.00  0.00    -0.141 A  
HETATM   36  C   UNL     1      -7.899   9.780  64.863  1.00  0.00    -0.133 A  
HETATM   37  C   UNL     1      -9.169  10.360  62.448  1.00  0.00    -0.304 A  
HETATM   38  C   UNL     1      -8.925  10.716  64.835  1.00  0.00    -0.218 A  
HETATM   39  C   UNL     1      -7.506   9.134  63.688  1.00  0.00    -0.106 A  
ENDBRANCH  33  34
ENDBRANCH  32  33
ENDBRANCH   2  32
TORSDOF 18
ENDMDL
MODEL      122
REMARK 921   NORMALIZED FREE ENERGY PREDICTED BY IDOCK:   -4.73 KCAL/MOL
REMARK 922        TOTAL FREE ENERGY PREDICTED BY IDOCK:  -14.50 KCAL/MOL
REMARK 923 INTER-LIGAND FREE ENERGY PREDICTED BY IDOCK:  -11.57 KCAL/MOL
REMARK 924 INTRA-LIGAND FREE ENERGY PREDICTED BY IDOCK:   -2.93 KCAL/MOL
REMARK 927      BINDING AFFINITY PREDICTED BY RF-SCORE:    0.00 PKD
ROOT
HETATM    1  O   UNL     1     -11.173  14.462  70.378  1.00  0.00    -0.464 OA 
HETATM    2  C   UNL     1     -11.945  14.420  69.180  1.00  0.00    -0.322 C  
HETATM    3  H   UNL     1     -11.492  15.150  70.950  1.00  0.00     0.000 HD 
ENDROOT
BRANCH   2   4
HETATM    4  C   UNL     1     -11.428  13.304  68.251  1.00  0.00    -0.351 C  
BRANCH   4   5
HETATM    5  C   UNL     1     -11.875  13.414  66.790  1.00  0.00    -0.452 C  
BRANCH   5   6
HETATM    6  C   UNL     1     -11.448  12.257  65.856  1.00  0.00    -0.428 C  
HETATM    7  H   UNL     1      -8.286  10.519  64.080  1.00  0.00     0.000 HD 
HETATM    8  C   UNL     1      -9.899  12.029  65.598  1.00  0.00    -0.265 C  
HETATM    9  C   UNL     1     -12.009  12.529  64.455  1.00  0.00    -0.404 C  
HETATM   10  C   UNL     1     -11.242  11.588  63.573  1.00  0.00    -0.412 C  
HETATM   11  O   UNL     1     -13.394  12.253  64.359  1.00  0.00    -0.786 OA 
HETATM   12  O   UNL     1      -9.180  10.460  63.764  1.00  0.00    -0.221 OA 
HETATM   13  H   UNL     1     -13.741  12.422  63.491  1.00  0.00     0.000 HD 
HETATM   14  C   UNL     1      -9.817  11.682  64.077  1.00  0.00    -0.257 C  
BRANCH   8  15
HETATM   15  C   UNL     1      -9.203  11.000  66.547  1.00  0.00    -0.187 C  
BRANCH  15  16
HETATM   16  C   UNL     1     -10.109   9.931  67.130  1.00  0.00    -0.270 C  
HETATM   17  C   UNL     1     -10.177   8.602  66.916  1.00  0.00    -0.367 C  
BRANCH  17  18
HETATM   18  C   UNL     1      -9.356   7.751  65.989  1.00  0.00    -0.102 C  
BRANCH  18  19
HETATM   19  C   UNL     1      -8.068   7.240  66.654  1.00  0.00    -0.113 C  
BRANCH  19  20
HETATM   20  C   UNL     1      -8.274   6.066  67.603  1.00  0.00    -0.109 C  
BRANCH  20  21
HETATM   21  C   UNL     1      -7.605   6.314  68.919  1.00  0.00    -0.092 C  
HETATM   22  O   UNL     1      -7.055   5.476  69.623  1.00  0.00    -0.060 OA 
BRANCH  21  23
HETATM   23  O   UNL     1      -7.836   7.607  69.273  1.00  0.00    -0.115 OA 
BRANCH  23  24
HETATM   24  C   UNL     1      -8.071   7.696  70.663  1.00  0.00    -0.108 C  
BRANCH  24  25
HETATM   25  C   UNL     1      -9.540   7.814  71.004  1.00  0.00    -0.170 C  
BRANCH  25  26
HETATM   26  C   UNL     1     -10.047   9.254  70.958  1.00  0.00    -0.373 C  
BRANCH  26  27
HETATM   27  C   UNL     1     -11.506   9.414  70.505  1.00  0.00    -0.262 C  
BRANCH  27  28
HETATM   28  O   UNL     1     -11.951  10.711  70.838  1.00  0.00    -0.332 OA 
HETATM   29  N   UNL     1     -12.930  10.699  71.859  1.00  0.00    -0.469 N  
HETATM   30  O   UNL     1     -13.368  11.825  72.107  1.00  0.00    -0.497 OA 
HETATM   31  O   UNL     1     -13.223   9.617  72.350  1.00  0.00    -0.422 OA 
ENDBRANCH  27  28
ENDBRANCH  26  27
ENDBRANCH  25  26
ENDBRANCH  24  25
ENDBRANCH  23  24
ENDBRANCH  21  23
ENDBRANCH  20  21
ENDBRANCH  19  20
ENDBRANCH  18  19
ENDBRANCH  17  18
ENDBRANCH  15  16
ENDBRANCH   8  15
ENDBRANCH   5   6
ENDBRANCH   4   5
ENDBRANCH   2   4
BRANCH   2  32
HETATM   32  C   UNL     1     -11.818  15.791  68.530  1.00  0.00    -0.233 C  
BRANCH  32  33
HETATM   33  C   UNL     1     -10.396  16.332  68.628  1.00  0.00    -0.263 C  
BRANCH  33  34
HETATM   34  C   UNL     1     -10.310  17.629  67.893  1.00  0.00    -0.371 A  
HETATM   35  C   UNL     1     -10.113  20.038  67.943  1.00  0.00    -0.559 A  
HETATM   36  C   UNL     1     -10.505  18.887  65.851  1.00  0.00    -0.450 A  
HETATM   37  C   UNL     1     -10.114  18.818  68.612  1.00  0.00    -0.432 A  
HETATM   38  C   UNL     1     -10.507  17.666  66.513  1.00  0.00    -0.283 A  
HETATM   39  C   UNL     1     -10.308  20.072  66.563  1.00  0.00    -0.572 A  
ENDBRANCH  33  34
ENDBRANCH  32  33
ENDBRANCH   2  32
TORSDOF 18
ENDMDL
MODEL      123
REMARK 921   NORMALIZED FREE ENERGY PREDICTED BY IDOCK:   -4.73 KCAL/MOL
REMARK 922        TOTAL FREE ENERGY PREDICTED BY IDOCK:  -14.50 KCAL/MOL
REMARK 923 INTER-LIGAND FREE ENERGY PREDICTED BY IDOCK:  -11.80 KCAL/MOL
REMARK 924 INTRA-LIGAND FREE ENERGY PREDICTED BY IDOCK:   -2.70 KCAL/MOL
REMARK 927      BINDING AFFINITY PREDICTED BY RF-SCORE:    0.00 PKD
ROOT
HETATM    1  O   UNL     1     -13.118   9.784  72.717  1.00  0.00    -0.422 OA 
HETATM    2  C   UNL     1     -13.022   9.840  71.295  1.00  0.00    -0.380 C  
HETATM    3  H   UNL     1     -13.901  10.236  73.010  1.00  0.00     0.000 HD 
ENDROOT
BRANCH   2   4
HETATM    4  C   UNL     1     -11.753   9.106  70.819  1.00  0.00    -0.308 C  
BRANCH   4   5
HETATM    5  C   UNL     1     -10.517   9.302  71.704  1.00  0.00    -0.328 C  
BRANCH   5   6
HETATM    6  C   UNL     1      -9.918   8.023  72.334  1.00  0.00    -0.317 C  
HETATM    7  H   UNL     1     -10.793   4.776  74.539  1.00  0.00     0.000 HD 
HETATM    8  C   UNL     1     -10.899   7.011  73.064  1.00  0.00    -0.342 C  
HETATM    9  C   UNL     1      -8.940   8.437  73.441  1.00  0.00    -0.096 C  
HETATM   10  C   UNL     1      -8.720   7.170  74.215  1.00  0.00    -0.242 C  
HETATM   11  O   UNL     1      -7.706   8.907  72.931  1.00  0.00    -0.365 OA 
HETATM   12  O   UNL     1      -9.927   5.161  74.469  1.00  0.00    -0.184 OA 
HETATM   13  H   UNL     1      -7.101   9.163  73.616  1.00  0.00     0.000 HD 
HETATM   14  C   UNL     1     -10.100   6.557  74.327  1.00  0.00    -0.356 C  
BRANCH   8  15
HETATM   15  C   UNL     1     -11.447   5.848  72.177  1.00  0.00    -0.333 C  
BRANCH  15  16
HETATM   16  C   UNL     1     -10.470   5.280  71.164  1.00  0.00    -0.275 C  
HETATM   17  C   UNL     1     -10.385   5.420  69.826  1.00  0.00    -0.375 C  
BRANCH  17  18
HETATM   18  C   UNL     1     -11.276   6.198  68.900  1.00  0.00    -0.338 C  
BRANCH  18  19
HETATM   19  C   UNL     1     -10.807   6.122  67.438  1.00  0.00    -0.431 C  
BRANCH  19  20
HETATM   20  C   UNL     1     -10.626   7.476  66.765  1.00  0.00    -0.269 C  
BRANCH  20  21
HETATM   21  C   UNL     1      -9.403   8.173  67.276  1.00  0.00    -0.141 C  
HETATM   22  O   UNL     1      -9.151   8.431  68.447  1.00  0.00    -0.136 OA 
BRANCH  21  23
HETATM   23  O   UNL     1      -8.683   8.602  66.205  1.00  0.00    -0.138 OA 
BRANCH  23  24
HETATM   24  C   UNL     1      -9.507   9.342  65.329  1.00  0.00    -0.227 C  
BRANCH  24  25
HETATM   25  C   UNL     1      -8.956  10.719  65.028  1.00  0.00    -0.211 C  
BRANCH  25  26
HETATM   26  C   UNL     1      -8.470  11.451  66.276  1.00  0.00    -0.138 C  
BRANCH  26  27
HETATM   27  C   UNL     1      -9.580  11.925  67.225  1.00  0.00    -0.177 C  
BRANCH  27  28
HETATM   28  O   UNL     1     -10.378  12.879  66.559  1.00  0.00    -0.257 OA 
HETATM   29  N   UNL     1     -11.756  12.716  66.834  1.00  0.00    -0.375 N  
HETATM   30  O   UNL     1     -12.461  13.507  66.203  1.00  0.00    -0.417 OA 
HETATM   31  O   UNL     1     -12.075  11.840  67.628  1.00  0.00    -0.598 OA 
ENDBRANCH  27  28
ENDBRANCH  26  27
ENDBRANCH  25  26
ENDBRANCH  24  25
ENDBRANCH  23  24
ENDBRANCH  21  23
ENDBRANCH  20  21
ENDBRANCH  19  20
ENDBRANCH  18  19
ENDBRANCH  17  18
ENDBRANCH  15  16
ENDBRANCH   8  15
ENDBRANCH   5   6
ENDBRANCH   4   5
ENDBRANCH   2   4
BRANCH   2  32
HETATM   32  C   UNL     1     -12.989  11.313  70.916  1.00  0.00    -0.237 C  
BRANCH  32  33
HETATM   33  C   UNL     1     -13.525  12.196  72.037  1.00  0.00    -0.388 C  
BRANCH  33  34
HETATM   34  C   UNL     1     -12.951  13.568  71.903  1.00  0.00    -0.431 A  
HETATM   35  C   UNL     1     -11.582  15.139  70.677  1.00  0.00    -0.351 A  
HETATM   36  C   UNL     1     -12.496  15.740  72.835  1.00  0.00    -0.566 A  
HETATM   37  C   UNL     1     -12.187  13.889  70.771  1.00  0.00    -0.441 A  
HETATM   38  C   UNL     1     -13.102  14.494  72.935  1.00  0.00    -0.614 A  
HETATM   39  C   UNL     1     -11.737  16.063  71.708  1.00  0.00    -0.593 A  
ENDBRANCH  33  34
ENDBRANCH  32  33
ENDBRANCH   2  32
TORSDOF 18
ENDMDL
MODEL      124
REMARK 921   NORMALIZED FREE ENERGY PREDICTED BY IDOCK:   -4.73 KCAL/MOL
REMARK 922        TOTAL FREE ENERGY PREDICTED BY IDOCK:  -14.49 KCAL/MOL
REMARK 923 INTER-LIGAND FREE ENERGY PREDICTED BY IDOCK:  -12.09 KCAL/MOL
REMARK 924 INTRA-LIGAND FREE ENERGY PREDICTED BY IDOCK:   -2.41 KCAL/MOL
REMARK 927      BINDING AFFINITY PREDICTED BY RF-SCORE:    0.00 PKD
ROOT
HETATM    1  O   UNL     1     -13.046   7.060  70.577  1.00  0.00    -0.512 OA 
HETATM    2  C   UNL     1     -12.538   7.048  71.909  1.00  0.00    -0.295 C  
HETATM    3  H   UNL     1     -13.278   6.179  70.307  1.00  0.00     0.000 HD 
ENDROOT
BRANCH   2   4
HETATM    4  C   UNL     1     -12.161   8.477  72.347  1.00  0.00    -0.432 C  
BRANCH   4   5
HETATM    5  C   UNL     1     -10.733   8.909  71.998  1.00  0.00    -0.389 C  
BRANCH   5   6
HETATM    6  C   UNL     1     -10.572   9.766  70.721  1.00  0.00    -0.371 C  
HETATM    7  H   UNL     1     -12.594  11.801  67.903  1.00  0.00     0.000 HD 
HETATM    8  C   UNL     1     -11.871  10.417  70.081  1.00  0.00    -0.379 C  
HETATM    9  C   UNL     1     -10.028   8.872  69.599  1.00  0.00    -0.191 C  
HETATM   10  C   UNL     1     -10.269   9.675  68.354  1.00  0.00    -0.214 C  
HETATM   11  O   UNL     1      -8.645   8.605  69.737  1.00  0.00    -0.125 OA 
HETATM   12  O   UNL     1     -11.723  11.441  67.784  1.00  0.00    -0.533 OA 
HETATM   13  H   UNL     1      -8.309   8.051  69.043  1.00  0.00     0.000 HD 
HETATM   14  C   UNL     1     -11.657  10.250  68.543  1.00  0.00    -0.003 C  
BRANCH   8  15
HETATM   15  C   UNL     1     -12.192  11.873  70.547  1.00  0.00    -0.426 C  
BRANCH  15  16
HETATM   16  C   UNL     1     -13.081  11.988  71.773  1.00  0.00    -0.460 C  
HETATM   17  C   UNL     1     -13.652  13.054  72.367  1.00  0.00    -0.628 C  
BRANCH  17  18
HETATM   18  C   UNL     1     -13.565  14.505  71.989  1.00  0.00    -0.509 C  
BRANCH  18  19
HETATM   19  C   UNL     1     -12.147  15.070  72.167  1.00  0.00    -0.456 C  
BRANCH  19  20
HETATM   20  C   UNL     1     -11.803  16.212  71.220  1.00  0.00    -0.458 C  
BRANCH  20  21
HETATM   21  C   UNL     1     -11.160  15.698  69.969  1.00  0.00    -0.324 C  
HETATM   22  O   UNL     1     -10.329  14.801  69.895  1.00  0.00    -0.101 OA 
BRANCH  21  23
HETATM   23  O   UNL     1     -11.547  16.496  68.937  1.00  0.00    -0.231 OA 
BRANCH  23  24
HETATM   24  C   UNL     1     -10.493  16.634  68.007  1.00  0.00    -0.320 C  
BRANCH  24  25
HETATM   25  C   UNL     1     -10.784  15.956  66.685  1.00  0.00    -0.270 C  
BRANCH  25  26
HETATM   26  C   UNL     1     -10.094  14.601  66.548  1.00  0.00    -0.286 C  
BRANCH  26  27
HETATM   27  C   UNL     1     -10.389  13.851  65.241  1.00  0.00    -0.378 C  
BRANCH  27  28
HETATM   28  O   UNL     1     -11.784  13.680  65.115  1.00  0.00    -0.314 OA 
HETATM   29  N   UNL     1     -12.123  12.459  64.486  1.00  0.00    -0.411 N  
HETATM   30  O   UNL     1     -13.338  12.336  64.316  1.00  0.00    -0.777 OA 
HETATM   31  O   UNL     1     -11.207  11.702  64.188  1.00  0.00    -0.352 OA 
ENDBRANCH  27  28
ENDBRANCH  26  27
ENDBRANCH  25  26
ENDBRANCH  24  25
ENDBRANCH  23  24
ENDBRANCH  21  23
ENDBRANCH  20  21
ENDBRANCH  19  20
ENDBRANCH  18  19
ENDBRANCH  17  18
ENDBRANCH  15  16
ENDBRANCH   8  15
ENDBRANCH   5   6
ENDBRANCH   4   5
ENDBRANCH   2   4
BRANCH   2  32
HETATM   32  C   UNL     1     -11.326   6.127  71.907  1.00  0.00    -0.350 C  
BRANCH  32  33
HETATM   33  C   UNL     1     -11.301   5.223  73.134  1.00  0.00    -0.358 C  
BRANCH  33  34
HETATM   34  C   UNL     1     -10.597   3.950  72.796  1.00  0.00    -0.206 A  
HETATM   35  C   UNL     1      -9.225   2.676  71.268  1.00  0.00    -0.193 A  
HETATM   36  C   UNL     1     -10.188   1.616  73.219  1.00  0.00    -0.169 A  
HETATM   37  C   UNL     1      -9.818   3.881  71.632  1.00  0.00    -0.247 A  
HETATM   38  C   UNL     1     -10.783   2.817  73.587  1.00  0.00    -0.277 A  
HETATM   39  C   UNL     1      -9.410   1.545  72.061  1.00  0.00    -0.139 A  
ENDBRANCH  33  34
ENDBRANCH  32  33
ENDBRANCH   2  32
TORSDOF 18
ENDMDL
MODEL      125
REMARK 921   NORMALIZED FREE ENERGY PREDICTED BY IDOCK:   -4.72 KCAL/MOL
REMARK 922        TOTAL FREE ENERGY PREDICTED BY IDOCK:  -14.47 KCAL/MOL
REMARK 923 INTER-LIGAND FREE ENERGY PREDICTED BY IDOCK:  -11.40 KCAL/MOL
REMARK 924 INTRA-LIGAND FREE ENERGY PREDICTED BY IDOCK:   -3.07 KCAL/MOL
REMARK 927      BINDING AFFINITY PREDICTED BY RF-SCORE:    0.00 PKD
ROOT
HETATM    1  O   UNL     1      -9.657   8.627  65.352  1.00  0.00    -0.435 OA 
HETATM    2  C   UNL     1      -9.857   8.009  66.621  1.00  0.00    -0.252 C  
HETATM    3  H   UNL     1     -10.137   8.158  64.679  1.00  0.00     0.000 HD 
ENDROOT
BRANCH   2   4
HETATM    4  C   UNL     1      -9.079   8.771  67.712  1.00  0.00    -0.143 C  
BRANCH   4   5
HETATM    5  C   UNL     1      -9.500   8.455  69.152  1.00  0.00    -0.155 C  
BRANCH   5   6
HETATM    6  C   UNL     1     -10.889   8.975  69.587  1.00  0.00    -0.196 C  
HETATM    7  H   UNL     1     -12.771  11.863  71.658  1.00  0.00     0.000 HD 
HETATM    8  C   UNL     1     -10.967  10.345  70.384  1.00  0.00    -0.320 C  
HETATM    9  C   UNL     1     -11.508   7.960  70.557  1.00  0.00    -0.195 C  
HETATM   10  C   UNL     1     -12.637   8.717  71.194  1.00  0.00    -0.176 C  
HETATM   11  O   UNL     1     -12.012   6.813  69.898  1.00  0.00    -0.651 OA 
HETATM   12  O   UNL     1     -13.135  11.003  71.484  1.00  0.00    -0.418 OA 
HETATM   13  H   UNL     1     -12.395   6.185  70.498  1.00  0.00     0.000 HD 
HETATM   14  C   UNL     1     -12.057  10.088  71.472  1.00  0.00    -0.387 C  
BRANCH   8  15
HETATM   15  C   UNL     1     -11.196  11.620  69.510  1.00  0.00    -0.282 C  
BRANCH  15  16
HETATM   16  C   UNL     1     -11.736  11.368  68.113  1.00  0.00    -0.355 C  
HETATM   17  C   UNL     1     -11.200  11.582  66.895  1.00  0.00    -0.363 C  
BRANCH  17  18
HETATM   18  C   UNL     1      -9.864  12.169  66.540  1.00  0.00    -0.232 C  
BRANCH  18  19
HETATM   19  C   UNL     1      -9.839  13.698  66.694  1.00  0.00    -0.284 C  
BRANCH  19  20
HETATM   20  C   UNL     1     -10.836  14.434  65.809  1.00  0.00    -0.308 C  
BRANCH  20  21
HETATM   21  C   UNL     1     -10.614  15.914  65.863  1.00  0.00    -0.337 C  
HETATM   22  O   UNL     1     -10.875  16.720  64.979  1.00  0.00    -0.653 OA 
BRANCH  21  23
HETATM   23  O   UNL     1      -9.935  16.197  67.008  1.00  0.00    -0.247 OA 
BRANCH  23  24
HETATM   24  C   UNL     1     -10.809  16.762  67.964  1.00  0.00    -0.341 C  
BRANCH  24  25
HETATM   25  C   UNL     1     -10.386  16.474  69.388  1.00  0.00    -0.298 C  
BRANCH  25  26
HETATM   26  C   UNL     1     -11.092  15.257  69.982  1.00  0.00    -0.303 C  
BRANCH  26  27
HETATM   27  C   UNL     1     -12.536  15.504  70.442  1.00  0.00    -0.402 C  
BRANCH  27  28
HETATM   28  O   UNL     1     -13.040  14.323  71.027  1.00  0.00    -0.345 OA 
HETATM   29  N   UNL     1     -13.798  14.580  72.194  1.00  0.00    -0.434 N  
HETATM   30  O   UNL     1     -14.185  13.546  72.743  1.00  0.00    -0.692 OA 
HETATM   31  O   UNL     1     -13.966  15.750  72.513  1.00  0.00    -0.545 OA 
ENDBRANCH  27  28
ENDBRANCH  26  27
ENDBRANCH  25  26
ENDBRANCH  24  25
ENDBRANCH  23  24
ENDBRANCH  21  23
ENDBRANCH  20  21
ENDBRANCH  19  20
ENDBRANCH  18  19
ENDBRANCH  17  18
ENDBRANCH  15  16
ENDBRANCH   8  15
ENDBRANCH   5   6
ENDBRANCH   4   5
ENDBRANCH   2   4
BRANCH   2  32
HETATM   32  C   UNL     1      -9.373   6.572  66.490  1.00  0.00    -0.188 C  
BRANCH  32  33
HETATM   33  C   UNL     1     -10.446   5.574  66.909  1.00  0.00    -0.348 C  
BRANCH  33  34
HETATM   34  C   UNL     1      -9.815   4.472  67.697  1.00  0.00    -0.181 A  
HETATM   35  C   UNL     1      -9.018   2.193  67.813  1.00  0.00    -0.190 A  
HETATM   36  C   UNL     1      -9.079   3.570  69.802  1.00  0.00    -0.196 A  
HETATM   37  C   UNL     1      -9.531   3.251  67.068  1.00  0.00    -0.161 A  
HETATM   38  C   UNL     1      -9.591   4.629  69.064  1.00  0.00    -0.242 A  
HETATM   39  C   UNL     1      -8.792   2.353  69.179  1.00  0.00    -0.149 A  
ENDBRANCH  33  34
ENDBRANCH  32  33
ENDBRANCH   2  32
TORSDOF 18
ENDMDL
MODEL      126
REMARK 921   NORMALIZED FREE ENERGY PREDICTED BY IDOCK:   -4.71 KCAL/MOL
REMARK 922        TOTAL FREE ENERGY PREDICTED BY IDOCK:  -14.46 KCAL/MOL
REMARK 923 INTER-LIGAND FREE ENERGY PREDICTED BY IDOCK:  -11.44 KCAL/MOL
REMARK 924 INTRA-LIGAND FREE ENERGY PREDICTED BY IDOCK:   -3.02 KCAL/MOL
REMARK 927      BINDING AFFINITY PREDICTED BY RF-SCORE:    0.00 PKD
ROOT
HETATM    1  O   UNL     1      -7.912  13.992  69.410  1.00  0.00    -0.338 OA 
HETATM    2  C   UNL     1      -9.041  14.576  68.764  1.00  0.00    -0.158 C  
HETATM    3  H   UNL     1      -7.338  14.671  69.746  1.00  0.00     0.000 HD 
ENDROOT
BRANCH   2   4
HETATM    4  C   UNL     1      -9.971  13.475  68.219  1.00  0.00    -0.237 C  
BRANCH   4   5
HETATM    5  C   UNL     1     -11.041  13.956  67.233  1.00  0.00    -0.312 C  
BRANCH   5   6
HETATM    6  C   UNL     1     -11.416  12.974  66.099  1.00  0.00    -0.381 C  
HETATM    7  H   UNL     1      -9.899  10.618  63.214  1.00  0.00     0.000 HD 
HETATM    8  C   UNL     1     -10.244  12.235  65.324  1.00  0.00    -0.305 C  
HETATM    9  C   UNL     1     -12.139  13.756  64.995  1.00  0.00    -0.403 C  
HETATM   10  C   UNL     1     -12.113  12.824  63.820  1.00  0.00    -0.596 C  
HETATM   11  O   UNL     1     -13.479  14.063  65.333  1.00  0.00    -0.679 OA 
HETATM   12  O   UNL     1     -10.777  10.980  63.205  1.00  0.00    -0.271 OA 
HETATM   13  H   UNL     1     -13.927  14.547  64.650  1.00  0.00     0.000 HD 
HETATM   14  C   UNL     1     -10.713  12.245  63.834  1.00  0.00    -0.420 C  
BRANCH   8  15
HETATM   15  C   UNL     1      -9.850  10.829  65.881  1.00  0.00    -0.290 C  
BRANCH  15  16
HETATM   16  C   UNL     1     -10.935  10.105  66.658  1.00  0.00     0.007 C  
HETATM   17  C   UNL     1     -11.000   9.708  67.944  1.00  0.00    -0.205 C  
BRANCH  17  18
HETATM   18  C   UNL     1      -9.974   9.855  69.031  1.00  0.00    -0.193 C  
BRANCH  18  19
HETATM   19  C   UNL     1     -10.566  10.456  70.316  1.00  0.00    -0.184 C  
BRANCH  19  20
HETATM   20  C   UNL     1     -11.944  11.081  70.139  1.00  0.00    -0.443 C  
BRANCH  20  21
HETATM   21  C   UNL     1     -12.780  10.897  71.367  1.00  0.00    -0.434 C  
HETATM   22  O   UNL     1     -13.527  11.729  71.868  1.00  0.00    -0.371 OA 
BRANCH  21  23
HETATM   23  O   UNL     1     -12.459   9.696  71.921  1.00  0.00    -0.376 OA 
BRANCH  23  24
HETATM   24  C   UNL     1     -13.575   8.831  71.885  1.00  0.00    -0.424 C  
BRANCH  24  25
HETATM   25  C   UNL     1     -13.186   7.377  71.725  1.00  0.00    -0.371 C  
BRANCH  25  26
HETATM   26  C   UNL     1     -11.794   7.198  71.123  1.00  0.00    -0.363 C  
BRANCH  26  27
HETATM   27  C   UNL     1     -11.088   5.888  71.501  1.00  0.00    -0.250 C  
BRANCH  27  28
HETATM   28  O   UNL     1     -10.949   5.828  72.903  1.00  0.00    -0.241 OA 
HETATM   29  N   UNL     1      -9.595   5.833  73.313  1.00  0.00    -0.143 N  
HETATM   30  O   UNL     1      -9.470   5.716  74.535  1.00  0.00    -0.134 OA 
HETATM   31  O   UNL     1      -8.741   5.941  72.442  1.00  0.00    -0.127 OA 
ENDBRANCH  27  28
ENDBRANCH  26  27
ENDBRANCH  25  26
ENDBRANCH  24  25
ENDBRANCH  23  24
ENDBRANCH  21  23
ENDBRANCH  20  21
ENDBRANCH  19  20
ENDBRANCH  18  19
ENDBRANCH  17  18
ENDBRANCH  15  16
ENDBRANCH   8  15
ENDBRANCH   5   6
ENDBRANCH   4   5
ENDBRANCH   2   4
BRANCH   2  32
HETATM   32  C   UNL     1      -8.498  15.453  67.644  1.00  0.00    -0.173 C  
BRANCH  32  33
HETATM   33  C   UNL     1      -8.059  16.819  68.159  1.00  0.00    -0.197 C  
BRANCH  33  34
HETATM   34  C   UNL     1      -8.922  17.876  67.552  1.00  0.00    -0.248 A  
HETATM   35  C   UNL     1      -9.759  20.144  67.576  1.00  0.00    -0.557 A  
HETATM   36  C   UNL     1     -10.660  18.525  66.019  1.00  0.00    -0.368 A  
HETATM   37  C   UNL     1      -8.900  19.174  68.083  1.00  0.00    -0.360 A  
HETATM   38  C   UNL     1      -9.804  17.553  66.522  1.00  0.00    -0.315 A  
HETATM   39  C   UNL     1     -10.638  19.819  66.545  1.00  0.00    -0.580 A  
ENDBRANCH  33  34
ENDBRANCH  32  33
ENDBRANCH   2  32
TORSDOF 18
ENDMDL
MODEL      127
REMARK 921   NORMALIZED FREE ENERGY PREDICTED BY IDOCK:   -4.71 KCAL/MOL
REMARK 922        TOTAL FREE ENERGY PREDICTED BY IDOCK:  -14.46 KCAL/MOL
REMARK 923 INTER-LIGAND FREE ENERGY PREDICTED BY IDOCK:  -11.80 KCAL/MOL
REMARK 924 INTRA-LIGAND FREE ENERGY PREDICTED BY IDOCK:   -2.65 KCAL/MOL
REMARK 927      BINDING AFFINITY PREDICTED BY RF-SCORE:    0.00 PKD
ROOT
HETATM    1  O   UNL     1     -12.631  11.023  68.925  1.00  0.00    -0.633 OA 
HETATM    2  C   UNL     1     -11.217  11.102  69.095  1.00  0.00    -0.264 C  
HETATM    3  H   UNL     1     -13.073  11.302  69.719  1.00  0.00     0.000 HD 
ENDROOT
BRANCH   2   4
HETATM    4  C   UNL     1     -10.501  10.649  67.808  1.00  0.00    -0.258 C  
BRANCH   4   5
HETATM    5  C   UNL     1      -9.593  11.703  67.164  1.00  0.00    -0.185 C  
BRANCH   5   6
HETATM    6  C   UNL     1     -10.069  12.280  65.811  1.00  0.00    -0.274 C  
HETATM    7  H   UNL     1     -13.279  13.672  63.827  1.00  0.00     0.000 HD 
HETATM    8  C   UNL     1     -11.573  12.773  65.689  1.00  0.00    -0.410 C  
HETATM    9  C   UNL     1      -9.964  11.180  64.747  1.00  0.00    -0.287 C  
HETATM   10  C   UNL     1     -10.784  11.707  63.606  1.00  0.00    -0.500 C  
HETATM   11  O   UNL     1      -8.633  10.961  64.320  1.00  0.00    -0.350 OA 
HETATM   12  O   UNL     1     -12.508  13.303  63.411  1.00  0.00    -0.741 OA 
HETATM   13  H   UNL     1      -8.568  10.279  63.661  1.00  0.00     0.000 HD 
HETATM   14  C   UNL     1     -12.012  12.294  64.268  1.00  0.00    -0.407 C  
BRANCH   8  15
HETATM   15  C   UNL     1     -11.810  14.290  65.976  1.00  0.00    -0.399 C  
BRANCH  15  16
HETATM   16  C   UNL     1     -10.703  15.223  65.518  1.00  0.00    -0.385 C  
HETATM   17  C   UNL     1     -10.123  16.284  66.115  1.00  0.00    -0.362 C  
BRANCH  17  18
HETATM   18  C   UNL     1     -10.419  16.891  67.456  1.00  0.00    -0.328 C  
BRANCH  18  19
HETATM   19  C   UNL     1     -10.519  18.424  67.393  1.00  0.00    -0.443 C  
BRANCH  19  20
HETATM   20  C   UNL     1      -9.938  19.039  66.127  1.00  0.00    -0.413 C  
BRANCH  20  21
HETATM   21  C   UNL     1      -8.566  19.584  66.374  1.00  0.00    -0.360 C  
HETATM   22  O   UNL     1      -8.281  20.543  67.081  1.00  0.00    -0.335 OA 
BRANCH  21  23
HETATM   23  O   UNL     1      -7.696  18.922  65.563  1.00  0.00    -0.434 OA 
BRANCH  23  24
HETATM   24  C   UNL     1      -6.562  18.511  66.298  1.00  0.00    -0.214 C  
BRANCH  24  25
HETATM   25  C   UNL     1      -6.621  17.053  66.700  1.00  0.00    -0.272 C  
BRANCH  25  26
HETATM   26  C   UNL     1      -6.544  16.851  68.212  1.00  0.00    -0.147 C  
BRANCH  26  27
HETATM   27  C   UNL     1      -7.099  15.511  68.717  1.00  0.00    -0.124 C  
BRANCH  27  28
HETATM   28  O   UNL     1      -6.559  15.241  69.992  1.00  0.00    -0.170 OA 
HETATM   29  N   UNL     1      -6.358  13.857  70.210  1.00  0.00    -0.111 N  
HETATM   30  O   UNL     1      -5.946  13.613  71.347  1.00  0.00    -0.288 OA 
HETATM   31  O   UNL     1      -6.612  13.096  69.286  1.00  0.00    -0.106 OA 
ENDBRANCH  27  28
ENDBRANCH  26  27
ENDBRANCH  25  26
ENDBRANCH  24  25
ENDBRANCH  23  24
ENDBRANCH  21  23
ENDBRANCH  20  21
ENDBRANCH  19  20
ENDBRANCH  18  19
ENDBRANCH  17  18
ENDBRANCH  15  16
ENDBRANCH   8  15
ENDBRANCH   5   6
ENDBRANCH   4   5
ENDBRANCH   2   4
BRANCH   2  32
HETATM   32  C   UNL     1     -10.868  10.204  70.273  1.00  0.00    -0.370 C  
BRANCH  32  33
HETATM   33  C   UNL     1     -10.998   8.728  69.915  1.00  0.00    -0.184 C  
BRANCH  33  34
HETATM   34  C   UNL     1     -10.921   7.908  71.162  1.00  0.00    -0.262 A  
HETATM   35  C   UNL     1     -10.020   7.578  73.381  1.00  0.00    -0.378 A  
HETATM   36  C   UNL     1     -11.384   5.866  72.348  1.00  0.00    -0.358 A  
HETATM   37  C   UNL     1     -10.162   8.372  72.247  1.00  0.00    -0.396 A  
HETATM   38  C   UNL     1     -11.529   6.655  71.213  1.00  0.00    -0.360 A  
HETATM   39  C   UNL     1     -10.631   6.326  73.431  1.00  0.00    -0.293 A  
ENDBRANCH  33  34
ENDBRANCH  32  33
ENDBRANCH   2  32
TORSDOF 18
ENDMDL
MODEL      128
REMARK 921   NORMALIZED FREE ENERGY PREDICTED BY IDOCK:   -4.71 KCAL/MOL
REMARK 922        TOTAL FREE ENERGY PREDICTED BY IDOCK:  -14.44 KCAL/MOL
REMARK 923 INTER-LIGAND FREE ENERGY PREDICTED BY IDOCK:  -11.78 KCAL/MOL
REMARK 924 INTRA-LIGAND FREE ENERGY PREDICTED BY IDOCK:   -2.67 KCAL/MOL
REMARK 927      BINDING AFFINITY PREDICTED BY RF-SCORE:    0.00 PKD
ROOT
HETATM    1  O   UNL     1     -11.734   9.967  68.249  1.00  0.00    -0.649 OA 
HETATM    2  C   UNL     1     -10.440   9.473  67.912  1.00  0.00    -0.241 C  
HETATM    3  H   UNL     1     -12.394   9.557  67.702  1.00  0.00     0.000 HD 
ENDROOT
BRANCH   2   4
HETATM    4  C   UNL     1      -9.369  10.139  68.799  1.00  0.00    -0.168 C  
BRANCH   4   5
HETATM    5  C   UNL     1      -8.936   9.320  70.020  1.00  0.00    -0.216 C  
BRANCH   5   6
HETATM    6  C   UNL     1      -9.043   7.783  69.885  1.00  0.00    -0.147 C  
HETATM    7  H   UNL     1     -10.694   4.491  71.499  1.00  0.00     0.000 HD 
HETATM    8  C   UNL     1     -10.022   7.006  70.864  1.00  0.00    -0.200 C  
HETATM    9  C   UNL     1      -7.670   7.170  70.189  1.00  0.00    -0.095 C  
HETATM   10  C   UNL     1      -7.967   5.715  70.402  1.00  0.00    -0.104 C  
HETATM   11  O   UNL     1      -6.757   7.320  69.117  1.00  0.00    -0.046 OA 
HETATM   12  O   UNL     1      -9.900   4.493  70.976  1.00  0.00    -0.176 OA 
HETATM   13  H   UNL     1      -5.907   6.940  69.306  1.00  0.00     0.000 HD 
HETATM   14  C   UNL     1      -9.232   5.711  71.236  1.00  0.00    -0.146 C  
BRANCH   8  15
HETATM   15  C   UNL     1     -11.465   6.764  70.318  1.00  0.00    -0.414 C  
BRANCH  15  16
HETATM   16  C   UNL     1     -12.593   7.112  71.272  1.00  0.00    -0.421 C  
HETATM   17  C   UNL     1     -12.912   8.261  71.901  1.00  0.00    -0.371 C  
BRANCH  17  18
HETATM   18  C   UNL     1     -12.210   9.588  71.854  1.00  0.00    -0.432 C  
BRANCH  18  19
HETATM   19  C   UNL     1     -13.190  10.762  71.698  1.00  0.00    -0.487 C  
BRANCH  19  20
HETATM   20  C   UNL     1     -12.617  11.965  70.961  1.00  0.00    -0.381 C  
BRANCH  20  21
HETATM   21  C   UNL     1     -12.968  13.242  71.660  1.00  0.00    -0.349 C  
HETATM   22  O   UNL     1     -13.763  13.370  72.583  1.00  0.00    -0.687 OA 
BRANCH  21  23
HETATM   23  O   UNL     1     -12.361  14.265  71.000  1.00  0.00    -0.317 OA 
BRANCH  23  24
HETATM   24  C   UNL     1     -12.102  13.896  69.661  1.00  0.00    -0.349 C  
BRANCH  24  25
HETATM   25  C   UNL     1     -10.963  14.680  69.046  1.00  0.00    -0.269 C  
BRANCH  25  26
HETATM   26  C   UNL     1     -11.361  16.103  68.662  1.00  0.00    -0.365 C  
BRANCH  26  27
HETATM   27  C   UNL     1     -10.229  17.138  68.741  1.00  0.00    -0.332 C  
BRANCH  27  28
HETATM   28  O   UNL     1     -10.686  18.360  68.206  1.00  0.00    -0.280 OA 
HETATM   29  N   UNL     1     -10.355  18.508  66.838  1.00  0.00    -0.378 N  
HETATM   30  O   UNL     1     -10.696  19.603  66.384  1.00  0.00    -0.458 OA 
HETATM   31  O   UNL     1      -9.786  17.573  66.290  1.00  0.00    -0.317 OA 
ENDBRANCH  27  28
ENDBRANCH  26  27
ENDBRANCH  25  26
ENDBRANCH  24  25
ENDBRANCH  23  24
ENDBRANCH  21  23
ENDBRANCH  20  21
ENDBRANCH  19  20
ENDBRANCH  18  19
ENDBRANCH  17  18
ENDBRANCH  15  16
ENDBRANCH   8  15
ENDBRANCH   5   6
ENDBRANCH   4   5
ENDBRANCH   2   4
BRANCH   2  32
HETATM   32  C   UNL     1     -10.220   9.791  66.440  1.00  0.00    -0.288 C  
BRANCH  32  33
HETATM   33  C   UNL     1      -9.598  11.169  66.246  1.00  0.00    -0.234 C  
BRANCH  33  34
HETATM   34  C   UNL     1     -10.569  12.054  65.536  1.00  0.00    -0.313 A  
HETATM   35  C   UNL     1     -11.473  12.906  63.462  1.00  0.00    -0.470 A  
HETATM   36  C   UNL     1     -12.187  13.834  65.580  1.00  0.00    -0.470 A  
HETATM   37  C   UNL     1     -10.628  12.028  64.135  1.00  0.00    -0.398 A  
HETATM   38  C   UNL     1     -11.346  12.959  66.256  1.00  0.00    -0.364 A  
HETATM   39  C   UNL     1     -12.251  13.809  64.184  1.00  0.00    -0.443 A  
ENDBRANCH  33  34
ENDBRANCH  32  33
ENDBRANCH   2  32
TORSDOF 18
ENDMDL
MODEL      129
REMARK 921   NORMALIZED FREE ENERGY PREDICTED BY IDOCK:   -4.70 KCAL/MOL
REMARK 922        TOTAL FREE ENERGY PREDICTED BY IDOCK:  -14.42 KCAL/MOL
REMARK 923 INTER-LIGAND FREE ENERGY PREDICTED BY IDOCK:   -9.87 KCAL/MOL
REMARK 924 INTRA-LIGAND FREE ENERGY PREDICTED BY IDOCK:   -4.55 KCAL/MOL
REMARK 927      BINDING AFFINITY PREDICTED BY RF-SCORE:    0.00 PKD
ROOT
HETATM    1  O   UNL     1      -8.289   7.599  66.362  1.00  0.00    -0.117 OA 
HETATM    2  C   UNL     1      -9.671   7.279  66.508  1.00  0.00    -0.140 C  
HETATM    3  H   UNL     1      -7.791   6.817  66.154  1.00  0.00     0.000 HD 
ENDROOT
BRANCH   2   4
HETATM    4  C   UNL     1     -10.478   8.548  66.845  1.00  0.00    -0.345 C  
BRANCH   4   5
HETATM    5  C   UNL     1      -9.637   9.788  67.163  1.00  0.00    -0.211 C  
BRANCH   5   6
HETATM    6  C   UNL     1      -9.284  10.010  68.652  1.00  0.00    -0.152 C  
HETATM    7  H   UNL     1      -7.151   8.549  71.734  1.00  0.00     0.000 HD 
HETATM    8  C   UNL     1      -8.207   9.054  69.323  1.00  0.00    -0.117 C  
HETATM    9  C   UNL     1     -10.545   9.775  69.493  1.00  0.00    -0.233 C  
HETATM   10  C   UNL     1     -10.022   9.638  70.893  1.00  0.00    -0.211 C  
HETATM   11  O   UNL     1     -11.455  10.857  69.425  1.00  0.00    -0.251 OA 
HETATM   12  O   UNL     1      -7.927   9.090  71.826  1.00  0.00    -0.343 OA 
HETATM   13  H   UNL     1     -12.236  10.712  69.946  1.00  0.00     0.000 HD 
HETATM   14  C   UNL     1      -8.785   8.776  70.747  1.00  0.00    -0.189 C  
BRANCH   8  15
HETATM   15  C   UNL     1      -6.736   9.578  69.299  1.00  0.00    -0.049 C  
BRANCH  15  16
HETATM   16  C   UNL     1      -6.513  10.936  69.940  1.00  0.00    -0.144 C  
HETATM   17  C   UNL     1      -6.700  12.187  69.473  1.00  0.00    -0.017 C  
BRANCH  17  18
HETATM   18  C   UNL     1      -7.188  12.628  68.123  1.00  0.00    -0.109 C  
BRANCH  18  19
HETATM   19  C   UNL     1      -8.106  13.858  68.208  1.00  0.00    -0.150 C  
BRANCH  19  20
HETATM   20  C   UNL     1      -8.788  14.224  66.896  1.00  0.00    -0.234 C  
BRANCH  20  21
HETATM   21  C   UNL     1      -9.976  13.349  66.644  1.00  0.00    -0.277 C  
HETATM   22  O   UNL     1     -10.283  12.830  65.578  1.00  0.00    -0.275 OA 
BRANCH  21  23
HETATM   23  O   UNL     1     -10.742  13.344  67.769  1.00  0.00    -0.242 OA 
BRANCH  23  24
HETATM   24  C   UNL     1     -11.820  14.246  67.627  1.00  0.00    -0.385 C  
BRANCH  24  25
HETATM   25  C   UNL     1     -11.772  15.380  68.629  1.00  0.00    -0.371 C  
BRANCH  25  26
HETATM   26  C   UNL     1     -11.317  14.929  70.015  1.00  0.00    -0.310 C  
BRANCH  26  27
HETATM   27  C   UNL     1     -12.433  14.389  70.921  1.00  0.00    -0.354 C  
BRANCH  27  28
HETATM   28  O   UNL     1     -12.363  12.980  70.945  1.00  0.00    -0.366 OA 
HETATM   29  N   UNL     1     -13.162  12.418  71.969  1.00  0.00    -0.469 N  
HETATM   30  O   UNL     1     -13.052  11.191  72.034  1.00  0.00    -0.492 OA 
HETATM   31  O   UNL     1     -13.833  13.184  72.647  1.00  0.00    -0.691 OA 
ENDBRANCH  27  28
ENDBRANCH  26  27
ENDBRANCH  25  26
ENDBRANCH  24  25
ENDBRANCH  23  24
ENDBRANCH  21  23
ENDBRANCH  20  21
ENDBRANCH  19  20
ENDBRANCH  18  19
ENDBRANCH  17  18
ENDBRANCH  15  16
ENDBRANCH   8  15
ENDBRANCH   5   6
ENDBRANCH   4   5
ENDBRANCH   2   4
BRANCH   2  32
HETATM   32  C   UNL     1      -9.765   6.245  67.621  1.00  0.00    -0.126 C  
BRANCH  32  33
HETATM   33  C   UNL     1     -11.153   6.219  68.251  1.00  0.00    -0.364 C  
BRANCH  33  34
HETATM   34  C   UNL     1     -11.025   5.977  69.719  1.00  0.00    -0.471 A  
HETATM   35  C   UNL     1     -11.738   6.464  71.977  1.00  0.00    -0.376 A  
HETATM   36  C   UNL     1      -9.828   5.032  71.581  1.00  0.00    -0.239 A  
HETATM   37  C   UNL     1     -11.902   6.621  70.604  1.00  0.00    -0.443 A  
HETATM   38  C   UNL     1      -9.987   5.185  70.209  1.00  0.00    -0.320 A  
HETATM   39  C   UNL     1     -10.702   5.670  72.465  1.00  0.00    -0.285 A  
ENDBRANCH  33  34
ENDBRANCH  32  33
ENDBRANCH   2  32
TORSDOF 18
ENDMDL
MODEL      130
REMARK 921   NORMALIZED FREE ENERGY PREDICTED BY IDOCK:   -4.68 KCAL/MOL
REMARK 922        TOTAL FREE ENERGY PREDICTED BY IDOCK:  -14.39 KCAL/MOL
REMARK 923 INTER-LIGAND FREE ENERGY PREDICTED BY IDOCK:  -11.64 KCAL/MOL
REMARK 924 INTRA-LIGAND FREE ENERGY PREDICTED BY IDOCK:   -2.75 KCAL/MOL
REMARK 927      BINDING AFFINITY PREDICTED BY RF-SCORE:    0.00 PKD
ROOT
HETATM    1  O   UNL     1      -9.301   7.462  65.591  1.00  0.00    -0.386 OA 
HETATM    2  C   UNL     1      -8.891   8.772  65.979  1.00  0.00    -0.175 C  
HETATM    3  H   UNL     1      -9.328   7.394  64.644  1.00  0.00     0.000 HD 
ENDROOT
BRANCH   2   4
HETATM    4  C   UNL     1      -8.847   8.883  67.515  1.00  0.00    -0.135 C  
BRANCH   4   5
HETATM    5  C   UNL     1     -10.158   9.327  68.173  1.00  0.00    -0.222 C  
BRANCH   5   6
HETATM    6  C   UNL     1     -10.781   8.341  69.188  1.00  0.00    -0.117 C  
HETATM    7  H   UNL     1     -10.408   6.837  72.899  1.00  0.00     0.000 HD 
HETATM    8  C   UNL     1     -10.167   8.275  70.650  1.00  0.00    -0.214 C  
HETATM    9  C   UNL     1     -10.597   6.913  68.656  1.00  0.00    -0.223 C  
HETATM   10  C   UNL     1     -10.877   6.049  69.851  1.00  0.00    -0.434 C  
HETATM   11  O   UNL     1     -11.503   6.599  67.615  1.00  0.00    -0.687 OA 
HETATM   12  O   UNL     1     -10.850   6.396  72.182  1.00  0.00    -0.220 OA 
HETATM   13  H   UNL     1     -11.389   5.715  67.286  1.00  0.00     0.000 HD 
HETATM   14  C   UNL     1     -10.174   6.751  70.993  1.00  0.00    -0.197 C  
BRANCH   8  15
HETATM   15  C   UNL     1     -10.855   9.192  71.711  1.00  0.00    -0.416 C  
BRANCH  15  16
HETATM   16  C   UNL     1     -12.356   9.364  71.554  1.00  0.00    -0.452 C  
HETATM   17  C   UNL     1     -13.115  10.459  71.356  1.00  0.00    -0.512 C  
BRANCH  17  18
HETATM   18  C   UNL     1     -12.690  11.895  71.241  1.00  0.00    -0.401 C  
BRANCH  18  19
HETATM   19  C   UNL     1     -13.431  12.805  72.234  1.00  0.00    -0.591 C  
BRANCH  19  20
HETATM   20  C   UNL     1     -13.655  14.227  71.736  1.00  0.00    -0.479 C  
BRANCH  20  21
HETATM   21  C   UNL     1     -12.359  14.876  71.361  1.00  0.00    -0.335 C  
HETATM   22  O   UNL     1     -11.459  15.198  72.128  1.00  0.00    -0.420 OA 
BRANCH  21  23
HETATM   23  O   UNL     1     -12.408  15.182  70.036  1.00  0.00    -0.330 OA 
BRANCH  23  24
HETATM   24  C   UNL     1     -11.441  16.164  69.727  1.00  0.00    -0.282 C  
BRANCH  24  25
HETATM   25  C   UNL     1     -10.529  15.753  68.592  1.00  0.00    -0.231 C  
BRANCH  25  26
HETATM   26  C   UNL     1      -9.099  16.259  68.765  1.00  0.00    -0.245 C  
BRANCH  26  27
HETATM   27  C   UNL     1      -8.065  15.178  69.113  1.00  0.00    -0.214 C  
BRANCH  27  28
HETATM   28  O   UNL     1      -7.088  15.133  68.097  1.00  0.00    -0.103 OA 
HETATM   29  N   UNL     1      -6.319  13.945  68.140  1.00  0.00    -0.111 N  
HETATM   30  O   UNL     1      -5.422  13.932  67.293  1.00  0.00    -0.310 OA 
HETATM   31  O   UNL     1      -6.618  13.109  68.982  1.00  0.00    -0.096 OA 
ENDBRANCH  27  28
ENDBRANCH  26  27
ENDBRANCH  25  26
ENDBRANCH  24  25
ENDBRANCH  23  24
ENDBRANCH  21  23
ENDBRANCH  20  21
ENDBRANCH  19  20
ENDBRANCH  18  19
ENDBRANCH  17  18
ENDBRANCH  15  16
ENDBRANCH   8  15
ENDBRANCH   5   6
ENDBRANCH   4   5
ENDBRANCH   2   4
BRANCH   2  32
HETATM   32  C   UNL     1      -9.898   9.742  65.377  1.00  0.00    -0.365 C  
BRANCH  32  33
HETATM   33  C   UNL     1      -9.211  10.947  64.744  1.00  0.00    -0.227 C  
BRANCH  33  34
HETATM   34  C   UNL     1     -10.228  12.008  64.472  1.00  0.00    -0.318 A  
HETATM   35  C   UNL     1     -11.126  14.200  64.956  1.00  0.00    -0.372 A  
HETATM   36  C   UNL     1     -12.285  12.710  63.441  1.00  0.00    -0.610 A  
HETATM   37  C   UNL     1     -10.139  13.236  65.143  1.00  0.00    -0.249 A  
HETATM   38  C   UNL     1     -11.302  11.745  63.624  1.00  0.00    -0.525 A  
HETATM   39  C   UNL     1     -12.198  13.936  64.106  1.00  0.00    -0.436 A  
ENDBRANCH  33  34
ENDBRANCH  32  33
ENDBRANCH   2  32
TORSDOF 18
ENDMDL
MODEL      131
REMARK 921   NORMALIZED FREE ENERGY PREDICTED BY IDOCK:   -4.68 KCAL/MOL
REMARK 922        TOTAL FREE ENERGY PREDICTED BY IDOCK:  -14.38 KCAL/MOL
REMARK 923 INTER-LIGAND FREE ENERGY PREDICTED BY IDOCK:  -11.28 KCAL/MOL
REMARK 924 INTRA-LIGAND FREE ENERGY PREDICTED BY IDOCK:   -3.10 KCAL/MOL
REMARK 927      BINDING AFFINITY PREDICTED BY RF-SCORE:    0.00 PKD
ROOT
HETATM    1  O   UNL     1      -8.262   6.268  68.347  1.00  0.00    -0.114 OA 
HETATM    2  C   UNL     1      -9.667   6.277  68.103  1.00  0.00    -0.122 C  
HETATM    3  H   UNL     1      -7.925   5.382  68.288  1.00  0.00     0.000 HD 
ENDROOT
BRANCH   2   4
HETATM    4  C   UNL     1     -10.214   7.715  68.198  1.00  0.00    -0.236 C  
BRANCH   4   5
HETATM    5  C   UNL     1     -10.219   8.317  69.607  1.00  0.00    -0.209 C  
BRANCH   5   6
HETATM    6  C   UNL     1     -11.510   9.055  70.030  1.00  0.00    -0.005 C  
HETATM    7  H   UNL     1     -12.914  12.334  71.888  1.00  0.00     0.000 HD 
HETATM    8  C   UNL     1     -11.375  10.485  70.706  1.00  0.00    -0.295 C  
HETATM    9  C   UNL     1     -12.222   8.218  71.101  1.00  0.00    -0.233 C  
HETATM   10  C   UNL     1     -13.216   9.171  71.697  1.00  0.00    -0.438 C  
HETATM   11  O   UNL     1     -12.898   7.099  70.558  1.00  0.00    -0.601 OA 
HETATM   12  O   UNL     1     -13.395  11.520  71.799  1.00  0.00    -0.403 OA 
HETATM   13  H   UNL     1     -13.339   6.581  71.220  1.00  0.00     0.000 HD 
HETATM   14  C   UNL     1     -12.450  10.469  71.839  1.00  0.00    -0.145 C  
BRANCH   8  15
HETATM   15  C   UNL     1     -11.465  11.701  69.730  1.00  0.00    -0.339 C  
BRANCH  15  16
HETATM   16  C   UNL     1     -11.884  11.371  68.308  1.00  0.00    -0.320 C  
HETATM   17  C   UNL     1     -11.530  11.909  67.124  1.00  0.00    -0.386 C  
BRANCH  17  18
HETATM   18  C   UNL     1     -10.592  13.048  66.846  1.00  0.00    -0.260 C  
BRANCH  18  19
HETATM   19  C   UNL     1     -11.265  14.178  66.052  1.00  0.00    -0.319 C  
BRANCH  19  20
HETATM   20  C   UNL     1     -10.296  15.077  65.294  1.00  0.00    -0.424 C  
BRANCH  20  21
HETATM   21  C   UNL     1     -10.951  16.365  64.902  1.00  0.00    -0.263 C  
HETATM   22  O   UNL     1     -11.607  16.568  63.888  1.00  0.00    -1.175 OA 
BRANCH  21  23
HETATM   23  O   UNL     1     -10.573  17.319  65.796  1.00  0.00    -0.438 OA 
BRANCH  23  24
HETATM   24  C   UNL     1      -9.222  17.134  66.163  1.00  0.00    -0.184 C  
BRANCH  24  25
HETATM   25  C   UNL     1      -8.975  17.378  67.636  1.00  0.00    -0.233 C  
BRANCH  25  26
HETATM   26  C   UNL     1     -10.259  17.366  68.464  1.00  0.00    -0.369 C  
BRANCH  26  27
HETATM   27  C   UNL     1     -10.597  16.020  69.119  1.00  0.00    -0.260 C  
BRANCH  27  28
HETATM   28  O   UNL     1     -11.982  15.973  69.386  1.00  0.00    -0.311 OA 
HETATM   29  N   UNL     1     -12.260  15.765  70.757  1.00  0.00    -0.408 N  
HETATM   30  O   UNL     1     -13.468  15.659  70.983  1.00  0.00    -0.575 OA 
HETATM   31  O   UNL     1     -11.309  15.709  71.525  1.00  0.00    -0.381 OA 
ENDBRANCH  27  28
ENDBRANCH  26  27
ENDBRANCH  25  26
ENDBRANCH  24  25
ENDBRANCH  23  24
ENDBRANCH  21  23
ENDBRANCH  20  21
ENDBRANCH  19  20
ENDBRANCH  18  19
ENDBRANCH  17  18
ENDBRANCH  15  16
ENDBRANCH   8  15
ENDBRANCH   5   6
ENDBRANCH   4   5
ENDBRANCH   2   4
BRANCH   2  32
HETATM   32  C   UNL     1     -10.298   5.369  69.148  1.00  0.00    -0.300 C  
BRANCH  32  33
HETATM   33  C   UNL     1      -9.270   4.867  70.154  1.00  0.00    -0.185 C  
BRANCH  33  34
HETATM   34  C   UNL     1      -9.622   5.371  71.515  1.00  0.00    -0.195 A  
HETATM   35  C   UNL     1     -11.134   5.381  73.402  1.00  0.00    -0.326 A  
HETATM   36  C   UNL     1      -9.268   6.920  73.323  1.00  0.00    -0.162 A  
HETATM   37  C   UNL     1     -10.753   4.860  72.169  1.00  0.00    -0.193 A  
HETATM   38  C   UNL     1      -8.883   6.403  72.092  1.00  0.00    -0.136 A  
HETATM   39  C   UNL     1     -10.392   6.411  73.978  1.00  0.00    -0.340 A  
ENDBRANCH  33  34
ENDBRANCH  32  33
ENDBRANCH   2  32
TORSDOF 18
ENDMDL
MODEL      132
REMARK 921   NORMALIZED FREE ENERGY PREDICTED BY IDOCK:   -4.66 KCAL/MOL
REMARK 922        TOTAL FREE ENERGY PREDICTED BY IDOCK:  -14.34 KCAL/MOL
REMARK 923 INTER-LIGAND FREE ENERGY PREDICTED BY IDOCK:  -10.95 KCAL/MOL
REMARK 924 INTRA-LIGAND FREE ENERGY PREDICTED BY IDOCK:   -3.39 KCAL/MOL
REMARK 927      BINDING AFFINITY PREDICTED BY RF-SCORE:    0.00 PKD
ROOT
HETATM    1  O   UNL     1     -12.163  13.012  66.340  1.00  0.00    -0.387 OA 
HETATM    2  C   UNL     1     -11.503  14.065  67.039  1.00  0.00    -0.351 C  
HETATM    3  H   UNL     1     -13.105  13.113  66.410  1.00  0.00     0.000 HD 
ENDROOT
BRANCH   2   4
HETATM    4  C   UNL     1      -9.974  13.902  66.926  1.00  0.00    -0.264 C  
BRANCH   4   5
HETATM    5  C   UNL     1      -9.306  13.195  68.110  1.00  0.00    -0.217 C  
BRANCH   5   6
HETATM    6  C   UNL     1      -8.668  11.819  67.812  1.00  0.00    -0.155 C  
HETATM    7  H   UNL     1      -8.130   8.108  69.266  1.00  0.00     0.000 HD 
HETATM    8  C   UNL     1      -8.922  10.632  68.835  1.00  0.00    -0.172 C  
HETATM    9  C   UNL     1      -7.142  11.977  67.817  1.00  0.00    -0.108 C  
HETATM   10  C   UNL     1      -6.637  10.566  67.901  1.00  0.00    -0.061 C  
HETATM   11  O   UNL     1      -6.654  12.591  66.639  1.00  0.00    -0.428 OA 
HETATM   12  O   UNL     1      -7.561   8.522  68.627  1.00  0.00    -0.094 OA 
HETATM   13  H   UNL     1      -5.709  12.689  66.643  1.00  0.00     0.000 HD 
HETATM   14  C   UNL     1      -7.542   9.905  68.919  1.00  0.00    -0.083 C  
BRANCH   8  15
HETATM   15  C   UNL     1     -10.135   9.705  68.502  1.00  0.00    -0.195 C  
BRANCH  15  16
HETATM   16  C   UNL     1     -11.499  10.371  68.543  1.00  0.00    -0.231 C  
HETATM   17  C   UNL     1     -12.263  10.783  69.574  1.00  0.00    -0.292 C  
BRANCH  17  18
HETATM   18  C   UNL     1     -11.990  10.689  71.048  1.00  0.00    -0.442 C  
BRANCH  18  19
HETATM   19  C   UNL     1     -13.189  10.129  71.829  1.00  0.00    -0.542 C  
BRANCH  19  20
HETATM   20  C   UNL     1     -13.426   8.637  71.630  1.00  0.00    -0.392 C  
BRANCH  20  21
HETATM   21  C   UNL     1     -12.186   7.851  71.921  1.00  0.00    -0.314 C  
HETATM   22  O   UNL     1     -11.649   7.720  73.014  1.00  0.00    -0.330 OA 
BRANCH  21  23
HETATM   23  O   UNL     1     -11.670   7.423  70.737  1.00  0.00    -0.294 OA 
BRANCH  23  24
HETATM   24  C   UNL     1     -10.637   6.487  70.966  1.00  0.00    -0.231 C  
BRANCH  24  25
HETATM   25  C   UNL     1     -10.243   5.729  69.717  1.00  0.00    -0.303 C  
BRANCH  25  26
HETATM   26  C   UNL     1     -11.001   6.196  68.476  1.00  0.00    -0.404 C  
BRANCH  26  27
HETATM   27  C   UNL     1     -10.341   5.831  67.138  1.00  0.00    -0.240 C  
BRANCH  27  28
HETATM   28  O   UNL     1      -8.996   5.477  67.370  1.00  0.00    -0.110 OA 
HETATM   29  N   UNL     1      -8.695   4.171  66.914  1.00  0.00    -0.112 N  
HETATM   30  O   UNL     1      -7.537   3.835  67.174  1.00  0.00    -0.078 OA 
HETATM   31  O   UNL     1      -9.585   3.552  66.346  1.00  0.00    -0.175 OA 
ENDBRANCH  27  28
ENDBRANCH  26  27
ENDBRANCH  25  26
ENDBRANCH  24  25
ENDBRANCH  23  24
ENDBRANCH  21  23
ENDBRANCH  20  21
ENDBRANCH  19  20
ENDBRANCH  18  19
ENDBRANCH  17  18
ENDBRANCH  15  16
ENDBRANCH   8  15
ENDBRANCH   5   6
ENDBRANCH   4   5
ENDBRANCH   2   4
BRANCH   2  32
HETATM   32  C   UNL     1     -11.967  13.987  68.487  1.00  0.00    -0.383 C  
BRANCH  32  33
HETATM   33  C   UNL     1     -11.821  15.327  69.200  1.00  0.00    -0.345 C  
BRANCH  33  34
HETATM   34  C   UNL     1     -12.251  15.179  70.622  1.00  0.00    -0.401 A  
HETATM   35  C   UNL     1     -12.106  15.902  72.924  1.00  0.00    -0.612 A  
HETATM   36  C   UNL     1     -13.379  13.929  72.341  1.00  0.00    -0.629 A  
HETATM   37  C   UNL     1     -11.774  16.081  71.585  1.00  0.00    -0.583 A  
HETATM   38  C   UNL     1     -13.051  14.102  71.002  1.00  0.00    -0.370 A  
HETATM   39  C   UNL     1     -12.908  14.827  73.302  1.00  0.00    -0.621 A  
ENDBRANCH  33  34
ENDBRANCH  32  33
ENDBRANCH   2  32
TORSDOF 18
ENDMDL
MODEL      133
REMARK 921   NORMALIZED FREE ENERGY PREDICTED BY IDOCK:   -4.65 KCAL/MOL
REMARK 922        TOTAL FREE ENERGY PREDICTED BY IDOCK:  -14.33 KCAL/MOL
REMARK 923 INTER-LIGAND FREE ENERGY PREDICTED BY IDOCK:  -11.51 KCAL/MOL
REMARK 924 INTRA-LIGAND FREE ENERGY PREDICTED BY IDOCK:   -2.82 KCAL/MOL
REMARK 927      BINDING AFFINITY PREDICTED BY RF-SCORE:    0.00 PKD
ROOT
HETATM    1  O   UNL     1     -12.245  10.741  68.557  1.00  0.00    -0.824 OA 
HETATM    2  C   UNL     1     -11.911  12.107  68.318  1.00  0.00    -0.301 C  
HETATM    3  H   UNL     1     -13.080  10.682  69.006  1.00  0.00     0.000 HD 
ENDROOT
BRANCH   2   4
HETATM    4  C   UNL     1     -10.556  12.202  67.589  1.00  0.00    -0.236 C  
BRANCH   4   5
HETATM    5  C   UNL     1     -10.305  11.116  66.538  1.00  0.00    -0.290 C  
BRANCH   5   6
HETATM    6  C   UNL     1      -9.240  10.053  66.895  1.00  0.00    -0.169 C  
HETATM    7  H   UNL     1      -5.300   9.249  66.806  1.00  0.00     0.000 HD 
HETATM    8  C   UNL     1      -7.710  10.417  66.681  1.00  0.00    -0.117 C  
HETATM    9  C   UNL     1      -9.448   8.832  65.990  1.00  0.00    -0.233 C  
HETATM   10  C   UNL     1      -8.175   8.052  66.144  1.00  0.00    -0.116 C  
HETATM   11  O   UNL     1     -10.548   8.037  66.392  1.00  0.00    -0.373 OA 
HETATM   12  O   UNL     1      -5.983   8.589  66.828  1.00  0.00    -0.050 OA 
HETATM   13  H   UNL     1     -10.676   7.281  65.832  1.00  0.00     0.000 HD 
HETATM   14  C   UNL     1      -7.086   9.104  66.109  1.00  0.00    -0.087 C  
BRANCH   8  15
HETATM   15  C   UNL     1      -6.978  11.005  67.930  1.00  0.00    -0.073 C  
BRANCH  15  16
HETATM   16  C   UNL     1      -6.128  12.236  67.673  1.00  0.00    -0.120 C  
HETATM   17  C   UNL     1      -6.359  13.546  67.893  1.00  0.00    -0.155 C  
BRANCH  17  18
HETATM   18  C   UNL     1      -7.580  14.205  68.468  1.00  0.00    -0.129 C  
BRANCH  18  19
HETATM   19  C   UNL     1      -8.301  15.093  67.442  1.00  0.00    -0.206 C  
BRANCH  19  20
HETATM   20  C   UNL     1      -9.356  16.015  68.041  1.00  0.00    -0.202 C  
BRANCH  20  21
HETATM   21  C   UNL     1     -10.384  16.392  67.020  1.00  0.00    -0.293 C  
HETATM   22  O   UNL     1     -10.761  15.703  66.080  1.00  0.00    -0.311 OA 
BRANCH  21  23
HETATM   23  O   UNL     1     -10.727  17.693  67.227  1.00  0.00    -0.325 OA 
BRANCH  23  24
HETATM   24  C   UNL     1     -10.408  18.467  66.090  1.00  0.00    -0.426 C  
BRANCH  24  25
HETATM   25  C   UNL     1     -10.530  19.955  66.339  1.00  0.00    -0.589 C  
BRANCH  25  26
HETATM   26  C   UNL     1      -9.625  20.444  67.468  1.00  0.00    -0.560 C  
BRANCH  26  27
HETATM   27  C   UNL     1      -8.121  20.271  67.215  1.00  0.00    -0.338 C  
BRANCH  27  28
HETATM   28  O   UNL     1      -7.506  19.810  68.398  1.00  0.00    -0.314 OA 
HETATM   29  N   UNL     1      -6.810  18.593  68.206  1.00  0.00    -0.236 N  
HETATM   30  O   UNL     1      -6.326  18.155  69.253  1.00  0.00    -0.241 OA 
HETATM   31  O   UNL     1      -6.777  18.133  67.072  1.00  0.00    -0.178 OA 
ENDBRANCH  27  28
ENDBRANCH  26  27
ENDBRANCH  25  26
ENDBRANCH  24  25
ENDBRANCH  23  24
ENDBRANCH  21  23
ENDBRANCH  20  21
ENDBRANCH  19  20
ENDBRANCH  18  19
ENDBRANCH  17  18
ENDBRANCH  15  16
ENDBRANCH   8  15
ENDBRANCH   5   6
ENDBRANCH   4   5
ENDBRANCH   2   4
BRANCH   2  32
HETATM   32  C   UNL     1     -11.863  12.789  69.677  1.00  0.00    -0.384 C  
BRANCH  32  33
HETATM   33  C   UNL     1     -12.017  14.301  69.555  1.00  0.00    -0.384 C  
BRANCH  33  34
HETATM   34  C   UNL     1     -12.412  14.866  70.880  1.00  0.00    -0.395 A  
HETATM   35  C   UNL     1     -14.150  15.459  72.453  1.00  0.00    -0.645 A  
HETATM   36  C   UNL     1     -11.848  16.062  72.891  1.00  0.00    -0.555 A  
HETATM   37  C   UNL     1     -13.763  14.863  71.256  1.00  0.00    -0.505 A  
HETATM   38  C   UNL     1     -11.456  15.468  71.697  1.00  0.00    -0.496 A  
HETATM   39  C   UNL     1     -13.192  16.058  73.269  1.00  0.00    -0.651 A  
ENDBRANCH  33  34
ENDBRANCH  32  33
ENDBRANCH   2  32
TORSDOF 18
ENDMDL
MODEL      134
REMARK 921   NORMALIZED FREE ENERGY PREDICTED BY IDOCK:   -4.64 KCAL/MOL
REMARK 922        TOTAL FREE ENERGY PREDICTED BY IDOCK:  -14.31 KCAL/MOL
REMARK 923 INTER-LIGAND FREE ENERGY PREDICTED BY IDOCK:  -10.99 KCAL/MOL
REMARK 924 INTRA-LIGAND FREE ENERGY PREDICTED BY IDOCK:   -3.32 KCAL/MOL
REMARK 927      BINDING AFFINITY PREDICTED BY RF-SCORE:    0.00 PKD
ROOT
HETATM    1  O   UNL     1     -12.662  11.269  62.703  1.00  0.00    -0.801 OA 
HETATM    2  C   UNL     1     -12.024  11.852  63.838  1.00  0.00    -0.402 C  
HETATM    3  H   UNL     1     -12.501  10.333  62.683  1.00  0.00     0.000 HD 
ENDROOT
BRANCH   2   4
HETATM    4  C   UNL     1     -12.284  13.371  63.872  1.00  0.00    -0.478 C  
BRANCH   4   5
HETATM    5  C   UNL     1     -12.600  13.946  65.257  1.00  0.00    -0.508 C  
BRANCH   5   6
HETATM    6  C   UNL     1     -11.413  14.579  66.020  1.00  0.00    -0.348 C  
HETATM    7  H   UNL     1     -10.139  15.738  69.654  1.00  0.00     0.000 HD 
HETATM    8  C   UNL     1     -11.503  14.685  67.601  1.00  0.00    -0.364 C  
HETATM    9  C   UNL     1     -11.267  16.038  65.570  1.00  0.00     0.008 C  
HETATM   10  C   UNL     1     -10.373  16.646  66.612  1.00  0.00    -0.296 C  
HETATM   11  O   UNL     1     -10.664  16.158  64.295  1.00  0.00    -0.825 OA 
HETATM   12  O   UNL     1      -9.813  16.089  68.834  1.00  0.00    -0.210 OA 
HETATM   13  H   UNL     1     -10.574  17.061  64.016  1.00  0.00     0.000 HD 
HETATM   14  C   UNL     1     -10.892  16.087  67.920  1.00  0.00    -0.333 C  
BRANCH   8  15
HETATM   15  C   UNL     1     -10.871  13.495  68.392  1.00  0.00    -0.286 C  
BRANCH  15  16
HETATM   16  C   UNL     1     -11.636  12.186  68.329  1.00  0.00    -0.382 C  
HETATM   17  C   UNL     1     -12.156  11.405  69.297  1.00  0.00    -0.356 C  
BRANCH  17  18
HETATM   18  C   UNL     1     -12.120  11.598  70.786  1.00  0.00    -0.383 C  
BRANCH  18  19
HETATM   19  C   UNL     1     -12.670  10.380  71.546  1.00  0.00    -0.564 C  
BRANCH  19  20
HETATM   20  C   UNL     1     -12.138   9.040  71.052  1.00  0.00    -0.304 C  
BRANCH  20  21
HETATM   21  C   UNL     1     -10.697   8.866  71.417  1.00  0.00    -0.312 C  
HETATM   22  O   UNL     1     -10.241   8.766  72.550  1.00  0.00    -0.251 OA 
BRANCH  21  23
HETATM   23  O   UNL     1      -9.957   8.983  70.281  1.00  0.00    -0.176 OA 
BRANCH  23  24
HETATM   24  C   UNL     1      -8.613   9.275  70.604  1.00  0.00    -0.225 C  
BRANCH  24  25
HETATM   25  C   UNL     1      -7.629   8.377  69.886  1.00  0.00    -0.076 C  
BRANCH  25  26
HETATM   26  C   UNL     1      -7.013   7.320  70.799  1.00  0.00    -0.056 C  
BRANCH  26  27
HETATM   27  C   UNL     1      -7.567   5.900  70.615  1.00  0.00    -0.092 C  
BRANCH  27  28
HETATM   28  O   UNL     1      -8.912   5.873  71.040  1.00  0.00    -0.140 OA 
HETATM   29  N   UNL     1      -9.804   5.549  69.991  1.00  0.00    -0.183 N  
HETATM   30  O   UNL     1     -10.985   5.588  70.345  1.00  0.00    -0.253 OA 
HETATM   31  O   UNL     1      -9.319   5.285  68.898  1.00  0.00    -0.114 OA 
ENDBRANCH  27  28
ENDBRANCH  26  27
ENDBRANCH  25  26
ENDBRANCH  24  25
ENDBRANCH  23  24
ENDBRANCH  21  23
ENDBRANCH  20  21
ENDBRANCH  19  20
ENDBRANCH  18  19
ENDBRANCH  17  18
ENDBRANCH  15  16
ENDBRANCH   8  15
ENDBRANCH   5   6
ENDBRANCH   4   5
ENDBRANCH   2   4
BRANCH   2  32
HETATM   32  C   UNL     1     -10.539  11.544  63.711  1.00  0.00    -0.465 C  
BRANCH  32  33
HETATM   33  C   UNL     1      -9.858  11.475  65.073  1.00  0.00    -0.294 C  
BRANCH  33  34
HETATM   34  C   UNL     1      -9.589  10.047  65.420  1.00  0.00    -0.342 A  
HETATM   35  C   UNL     1      -9.975   8.151  66.868  1.00  0.00    -0.343 A  
HETATM   36  C   UNL     1      -8.300   8.037  65.125  1.00  0.00    -0.139 A  
HETATM   37  C   UNL     1     -10.278   9.455  66.488  1.00  0.00    -0.308 A  
HETATM   38  C   UNL     1      -8.598   9.338  64.742  1.00  0.00    -0.207 A  
HETATM   39  C   UNL     1      -8.986   7.443  66.187  1.00  0.00    -0.182 A  
ENDBRANCH  33  34
ENDBRANCH  32  33
ENDBRANCH   2  32
TORSDOF 18
ENDMDL
MODEL      135
REMARK 921   NORMALIZED FREE ENERGY PREDICTED BY IDOCK:   -4.64 KCAL/MOL
REMARK 922        TOTAL FREE ENERGY PREDICTED BY IDOCK:  -14.31 KCAL/MOL
REMARK 923 INTER-LIGAND FREE ENERGY PREDICTED BY IDOCK:  -10.77 KCAL/MOL
REMARK 924 INTRA-LIGAND FREE ENERGY PREDICTED BY IDOCK:   -3.53 KCAL/MOL
REMARK 927      BINDING AFFINITY PREDICTED BY RF-SCORE:    0.00 PKD
ROOT
HETATM    1  O   UNL     1     -11.892  12.153  70.714  1.00  0.00    -0.451 OA 
HETATM    2  C   UNL     1     -12.297  11.040  69.919  1.00  0.00    -0.288 C  
HETATM    3  H   UNL     1     -12.202  12.963  70.326  1.00  0.00     0.000 HD 
ENDROOT
BRANCH   2   4
HETATM    4  C   UNL     1     -11.794   9.726  70.548  1.00  0.00    -0.316 C  
BRANCH   4   5
HETATM    5  C   UNL     1     -10.301   9.443  70.357  1.00  0.00    -0.318 C  
BRANCH   5   6
HETATM    6  C   UNL     1      -9.944   8.231  69.464  1.00  0.00    -0.187 C  
HETATM    7  H   UNL     1      -9.357   7.064  65.661  1.00  0.00     0.000 HD 
HETATM    8  C   UNL     1      -9.754   8.472  67.907  1.00  0.00    -0.193 C  
HETATM    9  C   UNL     1     -11.095   7.219  69.533  1.00  0.00    -0.107 C  
HETATM   10  C   UNL     1     -10.833   6.301  68.376  1.00  0.00    -0.394 C  
HETATM   11  O   UNL     1     -11.099   6.480  70.740  1.00  0.00    -0.263 OA 
HETATM   12  O   UNL     1      -9.610   6.483  66.368  1.00  0.00    -0.163 OA 
HETATM   13  H   UNL     1     -11.812   5.853  70.783  1.00  0.00     0.000 HD 
HETATM   14  C   UNL     1     -10.429   7.227  67.248  1.00  0.00    -0.310 C  
BRANCH   8  15
HETATM   15  C   UNL     1      -8.288   8.749  67.443  1.00  0.00    -0.109 C  
BRANCH  15  16
HETATM   16  C   UNL     1      -8.131   9.795  66.355  1.00  0.00    -0.116 C  
HETATM   17  C   UNL     1      -8.003  11.136  66.414  1.00  0.00    -0.147 C  
BRANCH  17  18
HETATM   18  C   UNL     1      -7.991  12.031  67.620  1.00  0.00    -0.150 C  
BRANCH  18  19
HETATM   19  C   UNL     1      -6.649  12.759  67.793  1.00  0.00    -0.134 C  
BRANCH  19  20
HETATM   20  C   UNL     1      -6.677  13.894  68.809  1.00  0.00    -0.102 C  
BRANCH  20  21
HETATM   21  C   UNL     1      -7.569  15.006  68.350  1.00  0.00    -0.115 C  
HETATM   22  O   UNL     1      -7.548  15.547  67.251  1.00  0.00    -0.181 OA 
BRANCH  21  23
HETATM   23  O   UNL     1      -8.314  15.415  69.413  1.00  0.00    -0.238 OA 
BRANCH  23  24
HETATM   24  C   UNL     1      -9.185  16.457  69.024  1.00  0.00    -0.247 C  
BRANCH  24  25
HETATM   25  C   UNL     1     -10.573  15.963  68.680  1.00  0.00    -0.250 C  
BRANCH  25  26
HETATM   26  C   UNL     1     -11.581  16.193  69.804  1.00  0.00    -0.244 C  
BRANCH  26  27
HETATM   27  C   UNL     1     -11.246  15.495  71.130  1.00  0.00    -0.370 C  
BRANCH  27  28
HETATM   28  O   UNL     1     -11.761  16.261  72.196  1.00  0.00    -0.495 OA 
HETATM   29  N   UNL     1     -12.757  15.570  72.925  1.00  0.00    -0.393 N  
HETATM   30  O   UNL     1     -13.256  16.261  73.817  1.00  0.00    -0.680 OA 
HETATM   31  O   UNL     1     -13.003  14.417  72.594  1.00  0.00    -0.406 OA 
ENDBRANCH  27  28
ENDBRANCH  26  27
ENDBRANCH  25  26
ENDBRANCH  24  25
ENDBRANCH  23  24
ENDBRANCH  21  23
ENDBRANCH  20  21
ENDBRANCH  19  20
ENDBRANCH  18  19
ENDBRANCH  17  18
ENDBRANCH  15  16
ENDBRANCH   8  15
ENDBRANCH   5   6
ENDBRANCH   4   5
ENDBRANCH   2   4
BRANCH   2  32
HETATM   32  C   UNL     1     -11.708  11.256  68.532  1.00  0.00    -0.378 C  
BRANCH  32  33
HETATM   33  C   UNL     1     -11.732  12.726  68.132  1.00  0.00    -0.392 C  
BRANCH  33  34
HETATM   34  C   UNL     1     -11.695  12.834  66.643  1.00  0.00    -0.459 A  
HETATM   35  C   UNL     1     -12.206  14.079  64.634  1.00  0.00    -0.460 A  
HETATM   36  C   UNL     1     -11.326  11.829  64.487  1.00  0.00    -0.349 A  
HETATM   37  C   UNL     1     -12.163  14.002  66.023  1.00  0.00    -0.484 A  
HETATM   38  C   UNL     1     -11.280  11.748  65.874  1.00  0.00    -0.345 A  
HETATM   39  C   UNL     1     -11.788  12.993  63.868  1.00  0.00    -0.542 A  
ENDBRANCH  33  34
ENDBRANCH  32  33
ENDBRANCH   2  32
TORSDOF 18
ENDMDL
MODEL      136
REMARK 921   NORMALIZED FREE ENERGY PREDICTED BY IDOCK:   -4.64 KCAL/MOL
REMARK 922        TOTAL FREE ENERGY PREDICTED BY IDOCK:  -14.30 KCAL/MOL
REMARK 923 INTER-LIGAND FREE ENERGY PREDICTED BY IDOCK:  -10.12 KCAL/MOL
REMARK 924 INTRA-LIGAND FREE ENERGY PREDICTED BY IDOCK:   -4.18 KCAL/MOL
REMARK 927      BINDING AFFINITY PREDICTED BY RF-SCORE:    0.00 PKD
ROOT
HETATM    1  O   UNL     1     -12.275  10.402  68.687  1.00  0.00    -0.750 OA 
HETATM    2  C   UNL     1     -11.866  11.750  68.462  1.00  0.00    -0.303 C  
HETATM    3  H   UNL     1     -13.137  10.384  69.088  1.00  0.00     0.000 HD 
ENDROOT
BRANCH   2   4
HETATM    4  C   UNL     1     -10.468  11.778  67.812  1.00  0.00    -0.219 C  
BRANCH   4   5
HETATM    5  C   UNL     1     -10.330  10.952  66.529  1.00  0.00    -0.299 C  
BRANCH   5   6
HETATM    6  C   UNL     1      -9.377   9.736  66.600  1.00  0.00    -0.200 C  
HETATM    7  H   UNL     1      -6.635   7.638  64.536  1.00  0.00     0.000 HD 
HETATM    8  C   UNL     1      -8.395   9.476  65.380  1.00  0.00    -0.144 C  
HETATM    9  C   UNL     1     -10.221   8.457  66.661  1.00  0.00    -0.265 C  
HETATM   10  C   UNL     1      -9.240   7.366  66.346  1.00  0.00    -0.203 C  
HETATM   11  O   UNL     1     -10.786   8.238  67.940  1.00  0.00    -0.464 OA 
HETATM   12  O   UNL     1      -7.153   7.288  65.252  1.00  0.00    -0.058 OA 
HETATM   13  H   UNL     1     -11.309   7.446  67.978  1.00  0.00     0.000 HD 
HETATM   14  C   UNL     1      -8.415   7.923  65.205  1.00  0.00    -0.104 C  
BRANCH   8  15
HETATM   15  C   UNL     1      -6.972  10.106  65.514  1.00  0.00    -0.131 C  
BRANCH  15  16
HETATM   16  C   UNL     1      -6.789  11.069  66.673  1.00  0.00    -0.137 C  
HETATM   17  C   UNL     1      -6.085  10.968  67.819  1.00  0.00    -0.047 C  
BRANCH  17  18
HETATM   18  C   UNL     1      -5.251   9.822  68.316  1.00  0.00    -0.036 C  
BRANCH  18  19
HETATM   19  C   UNL     1      -6.108   8.677  68.877  1.00  0.00    -0.044 C  
BRANCH  19  20
HETATM   20  C   UNL     1      -6.805   9.001  70.193  1.00  0.00    -0.045 C  
BRANCH  20  21
HETATM   21  C   UNL     1      -8.288   8.836  70.070  1.00  0.00    -0.127 C  
HETATM   22  O   UNL     1      -9.132   9.707  70.240  1.00  0.00    -0.235 OA 
BRANCH  21  23
HETATM   23  O   UNL     1      -8.551   7.515  69.880  1.00  0.00    -0.137 OA 
BRANCH  23  24
HETATM   24  C   UNL     1      -8.614   6.847  71.122  1.00  0.00    -0.131 C  
BRANCH  24  25
HETATM   25  C   UNL     1      -9.829   5.954  71.248  1.00  0.00    -0.215 C  
BRANCH  25  26
HETATM   26  C   UNL     1     -11.005   6.643  71.937  1.00  0.00    -0.277 C  
BRANCH  26  27
HETATM   27  C   UNL     1     -12.134   7.094  70.999  1.00  0.00    -0.350 C  
BRANCH  27  28
HETATM   28  O   UNL     1     -12.157   8.503  70.952  1.00  0.00    -0.253 OA 
HETATM   29  N   UNL     1     -13.353   9.042  71.484  1.00  0.00    -0.350 N  
HETATM   30  O   UNL     1     -13.403  10.270  71.385  1.00  0.00    -0.357 OA 
HETATM   31  O   UNL     1     -14.166   8.257  71.954  1.00  0.00    -0.410 OA 
ENDBRANCH  27  28
ENDBRANCH  26  27
ENDBRANCH  25  26
ENDBRANCH  24  25
ENDBRANCH  23  24
ENDBRANCH  21  23
ENDBRANCH  20  21
ENDBRANCH  19  20
ENDBRANCH  18  19
ENDBRANCH  17  18
ENDBRANCH  15  16
ENDBRANCH   8  15
ENDBRANCH   5   6
ENDBRANCH   4   5
ENDBRANCH   2   4
BRANCH   2  32
HETATM   32  C   UNL     1     -11.865  12.439  69.819  1.00  0.00    -0.387 C  
BRANCH  32  33
HETATM   33  C   UNL     1     -11.838  13.957  69.680  1.00  0.00    -0.385 C  
BRANCH  33  34
HETATM   34  C   UNL     1     -12.247  14.579  70.975  1.00  0.00    -0.407 A  
HETATM   35  C   UNL     1     -13.930  14.924  72.676  1.00  0.00    -0.457 A  
HETATM   36  C   UNL     1     -11.839  16.140  72.760  1.00  0.00    -0.577 A  
HETATM   37  C   UNL     1     -13.509  14.287  71.512  1.00  0.00    -0.426 A  
HETATM   38  C   UNL     1     -11.415  15.507  71.599  1.00  0.00    -0.496 A  
HETATM   39  C   UNL     1     -13.095  15.850  73.299  1.00  0.00    -0.694 A  
ENDBRANCH  33  34
ENDBRANCH  32  33
ENDBRANCH   2  32
TORSDOF 18
ENDMDL
MODEL      137
REMARK 921   NORMALIZED FREE ENERGY PREDICTED BY IDOCK:   -4.63 KCAL/MOL
REMARK 922        TOTAL FREE ENERGY PREDICTED BY IDOCK:  -14.29 KCAL/MOL
REMARK 923 INTER-LIGAND FREE ENERGY PREDICTED BY IDOCK:  -11.09 KCAL/MOL
REMARK 924 INTRA-LIGAND FREE ENERGY PREDICTED BY IDOCK:   -3.21 KCAL/MOL
REMARK 927      BINDING AFFINITY PREDICTED BY RF-SCORE:    0.00 PKD
ROOT
HETATM    1  O   UNL     1     -11.051  19.258  67.448  1.00  0.00    -0.444 OA 
HETATM    2  C   UNL     1     -10.567  18.902  66.154  1.00  0.00    -0.407 C  
HETATM    3  H   UNL     1     -11.130  20.202  67.520  1.00  0.00     0.000 HD 
ENDROOT
BRANCH   2   4
HETATM    4  C   UNL     1     -10.438  17.370  66.038  1.00  0.00    -0.278 C  
BRANCH   4   5
HETATM    5  C   UNL     1     -10.640  16.599  67.347  1.00  0.00    -0.295 C  
BRANCH   5   6
HETATM    6  C   UNL     1     -10.612  15.057  67.241  1.00  0.00    -0.279 C  
HETATM    7  H   UNL     1     -12.928  11.776  67.019  1.00  0.00     0.000 HD 
HETATM    8  C   UNL     1     -11.990  14.287  67.075  1.00  0.00    -0.463 C  
HETATM    9  C   UNL     1     -10.039  14.489  68.546  1.00  0.00    -0.242 C  
HETATM   10  C   UNL     1     -10.404  13.034  68.494  1.00  0.00    -0.247 C  
HETATM   11  O   UNL     1      -8.633  14.627  68.629  1.00  0.00    -0.165 OA 
HETATM   12  O   UNL     1     -12.034  11.782  67.340  1.00  0.00    -0.617 OA 
HETATM   13  H   UNL     1      -8.278  14.276  69.437  1.00  0.00     0.000 HD 
HETATM   14  C   UNL     1     -11.828  13.025  67.982  1.00  0.00    -0.347 C  
BRANCH   8  15
HETATM   15  C   UNL     1     -12.421  13.990  65.603  1.00  0.00    -0.531 C  
BRANCH  15  16
HETATM   16  C   UNL     1     -11.290  13.895  64.595  1.00  0.00    -0.380 C  
HETATM   17  C   UNL     1     -10.759  12.841  63.943  1.00  0.00    -0.443 C  
BRANCH  17  18
HETATM   18  C   UNL     1     -11.131  11.389  64.033  1.00  0.00    -0.400 C  
BRANCH  18  19
HETATM   19  C   UNL     1      -9.903  10.480  64.193  1.00  0.00    -0.401 C  
BRANCH  19  20
HETATM   20  C   UNL     1      -9.257  10.533  65.572  1.00  0.00    -0.223 C  
BRANCH  20  21
HETATM   21  C   UNL     1      -9.593   9.312  66.370  1.00  0.00    -0.238 C  
HETATM   22  O   UNL     1     -10.710   8.837  66.536  1.00  0.00    -0.112 OA 
BRANCH  21  23
HETATM   23  O   UNL     1      -8.463   8.898  67.005  1.00  0.00    -0.111 OA 
BRANCH  23  24
HETATM   24  C   UNL     1      -8.215   9.707  68.135  1.00  0.00    -0.106 C  
BRANCH  24  25
HETATM   25  C   UNL     1      -8.269   8.933  69.434  1.00  0.00    -0.107 C  
BRANCH  25  26
HETATM   26  C   UNL     1      -9.263   9.519  70.434  1.00  0.00    -0.305 C  
BRANCH  26  27
HETATM   27  C   UNL     1     -10.742   9.317  70.074  1.00  0.00    -0.232 C  
BRANCH  27  28
HETATM   28  O   UNL     1     -11.493  10.390  70.599  1.00  0.00    -0.317 OA 
HETATM   29  N   UNL     1     -12.393   9.974  71.609  1.00  0.00    -0.399 N  
HETATM   30  O   UNL     1     -13.097  10.898  72.024  1.00  0.00    -0.491 OA 
HETATM   31  O   UNL     1     -12.375   8.794  71.933  1.00  0.00    -0.316 OA 
ENDBRANCH  27  28
ENDBRANCH  26  27
ENDBRANCH  25  26
ENDBRANCH  24  25
ENDBRANCH  23  24
ENDBRANCH  21  23
ENDBRANCH  20  21
ENDBRANCH  19  20
ENDBRANCH  18  19
ENDBRANCH  17  18
ENDBRANCH  15  16
ENDBRANCH   8  15
ENDBRANCH   5   6
ENDBRANCH   4   5
ENDBRANCH   2   4
BRANCH   2  32
HETATM   32  C   UNL     1      -9.219  19.589  65.987  1.00  0.00    -0.256 C  
BRANCH  32  33
HETATM   33  C   UNL     1      -8.722  20.183  67.300  1.00  0.00    -0.429 C  
BRANCH  33  34
HETATM   34  C   UNL     1      -7.632  19.322  67.851  1.00  0.00    -0.312 A  
HETATM   35  C   UNL     1      -6.174  17.409  67.614  1.00  0.00    -0.164 A  
HETATM   36  C   UNL     1      -6.221  18.661  69.684  1.00  0.00    -0.255 A  
HETATM   37  C   UNL     1      -7.132  18.264  67.078  1.00  0.00    -0.215 A  
HETATM   38  C   UNL     1      -7.178  19.518  69.154  1.00  0.00    -0.382 A  
HETATM   39  C   UNL     1      -5.719  17.607  68.916  1.00  0.00    -0.178 A  
ENDBRANCH  33  34
ENDBRANCH  32  33
ENDBRANCH   2  32
TORSDOF 18
ENDMDL
MODEL      138
REMARK 921   NORMALIZED FREE ENERGY PREDICTED BY IDOCK:   -4.63 KCAL/MOL
REMARK 922        TOTAL FREE ENERGY PREDICTED BY IDOCK:  -14.29 KCAL/MOL
REMARK 923 INTER-LIGAND FREE ENERGY PREDICTED BY IDOCK:  -10.04 KCAL/MOL
REMARK 924 INTRA-LIGAND FREE ENERGY PREDICTED BY IDOCK:   -4.25 KCAL/MOL
REMARK 927      BINDING AFFINITY PREDICTED BY RF-SCORE:    0.00 PKD
ROOT
HETATM    1  O   UNL     1      -7.387   7.342  70.704  1.00  0.00    -0.067 OA 
HETATM    2  C   UNL     1      -7.114   8.635  70.167  1.00  0.00    -0.044 C  
HETATM    3  H   UNL     1      -6.582   6.842  70.778  1.00  0.00     0.000 HD 
ENDROOT
BRANCH   2   4
HETATM    4  C   UNL     1      -8.419   9.447  70.046  1.00  0.00    -0.202 C  
BRANCH   4   5
HETATM    5  C   UNL     1      -9.375   9.322  71.237  1.00  0.00    -0.200 C  
BRANCH   5   6
HETATM    6  C   UNL     1     -10.797   8.805  70.920  1.00  0.00    -0.293 C  
HETATM    7  H   UNL     1     -14.694   9.282  71.792  1.00  0.00     0.000 HD 
HETATM    8  C   UNL     1     -12.035   9.545  71.583  1.00  0.00    -0.474 C  
HETATM    9  C   UNL     1     -10.919   7.366  71.439  1.00  0.00    -0.235 C  
HETATM   10  C   UNL     1     -12.398   7.107  71.429  1.00  0.00    -0.415 C  
HETATM   11  O   UNL     1     -10.264   6.429  70.605  1.00  0.00    -0.184 OA 
HETATM   12  O   UNL     1     -14.314   8.481  71.450  1.00  0.00    -0.405 OA 
HETATM   13  H   UNL     1     -10.340   5.538  70.927  1.00  0.00     0.000 HD 
HETATM   14  C   UNL     1     -13.004   8.384  71.973  1.00  0.00    -0.358 C  
BRANCH   8  15
HETATM   15  C   UNL     1     -12.679  10.680  70.723  1.00  0.00    -0.468 C  
BRANCH  15  16
HETATM   16  C   UNL     1     -11.708  11.693  70.142  1.00  0.00    -0.381 C  
HETATM   17  C   UNL     1     -11.118  11.775  68.933  1.00  0.00    -0.297 C  
BRANCH  17  18
HETATM   18  C   UNL     1     -11.236  10.846  67.759  1.00  0.00    -0.384 C  
BRANCH  18  19
HETATM   19  C   UNL     1      -9.940  10.776  66.937  1.00  0.00    -0.240 C  
BRANCH  19  20
HETATM   20  C   UNL     1      -9.959   9.739  65.822  1.00  0.00    -0.349 C  
BRANCH  20  21
HETATM   21  C   UNL     1      -9.735  10.380  64.487  1.00  0.00    -0.330 C  
HETATM   22  O   UNL     1      -9.341   9.822  63.470  1.00  0.00    -0.253 OA 
BRANCH  21  23
HETATM   23  O   UNL     1      -9.906  11.722  64.630  1.00  0.00    -0.244 OA 
BRANCH  23  24
HETATM   24  C   UNL     1     -10.469  12.269  63.456  1.00  0.00    -0.424 C  
BRANCH  24  25
HETATM   25  C   UNL     1     -11.959  12.504  63.575  1.00  0.00    -0.629 C  
BRANCH  25  26
HETATM   26  C   UNL     1     -12.404  12.788  65.008  1.00  0.00    -0.559 C  
BRANCH  26  27
HETATM   27  C   UNL     1     -12.376  14.268  65.416  1.00  0.00    -0.415 C  
BRANCH  27  28
HETATM   28  O   UNL     1     -11.124  14.561  65.995  1.00  0.00    -0.317 OA 
HETATM   29  N   UNL     1     -10.426  15.571  65.291  1.00  0.00    -0.398 N  
HETATM   30  O   UNL     1      -9.304  15.783  65.757  1.00  0.00    -0.329 OA 
HETATM   31  O   UNL     1     -10.991  16.087  64.335  1.00  0.00    -0.554 OA 
ENDBRANCH  27  28
ENDBRANCH  26  27
ENDBRANCH  25  26
ENDBRANCH  24  25
ENDBRANCH  23  24
ENDBRANCH  21  23
ENDBRANCH  20  21
ENDBRANCH  19  20
ENDBRANCH  18  19
ENDBRANCH  17  18
ENDBRANCH  15  16
ENDBRANCH   8  15
ENDBRANCH   5   6
ENDBRANCH   4   5
ENDBRANCH   2   4
BRANCH   2  32
HETATM   32  C   UNL     1      -6.465   8.417  68.808  1.00  0.00    -0.053 C  
BRANCH  32  33
HETATM   33  C   UNL     1      -6.419   9.703  67.991  1.00  0.00    -0.057 C  
BRANCH  33  34
HETATM   34  C   UNL     1      -6.308   9.363  66.540  1.00  0.00    -0.066 A  
HETATM   35  C   UNL     1      -5.947  10.078  64.259  1.00  0.00    -0.130 A  
HETATM   36  C   UNL     1      -6.592   7.795  64.737  1.00  0.00    -0.044 A  
HETATM   37  C   UNL     1      -5.973  10.368  65.620  1.00  0.00    -0.118 A  
HETATM   38  C   UNL     1      -6.620   8.079  66.097  1.00  0.00    -0.047 A  
HETATM   39  C   UNL     1      -6.256   8.792  63.819  1.00  0.00    -0.076 A  
ENDBRANCH  33  34
ENDBRANCH  32  33
ENDBRANCH   2  32
TORSDOF 18
ENDMDL
MODEL      139
REMARK 921   NORMALIZED FREE ENERGY PREDICTED BY IDOCK:   -4.63 KCAL/MOL
REMARK 922        TOTAL FREE ENERGY PREDICTED BY IDOCK:  -14.28 KCAL/MOL
REMARK 923 INTER-LIGAND FREE ENERGY PREDICTED BY IDOCK:  -10.54 KCAL/MOL
REMARK 924 INTRA-LIGAND FREE ENERGY PREDICTED BY IDOCK:   -3.74 KCAL/MOL
REMARK 927      BINDING AFFINITY PREDICTED BY RF-SCORE:    0.00 PKD
ROOT
HETATM    1  O   UNL     1     -10.050   5.854  65.775  1.00  0.00    -0.381 OA 
HETATM    2  C   UNL     1      -9.602   6.531  66.947  1.00  0.00    -0.158 C  
HETATM    3  H   UNL     1     -10.032   6.443  65.029  1.00  0.00     0.000 HD 
ENDROOT
BRANCH   2   4
HETATM    4  C   UNL     1      -9.630   5.576  68.156  1.00  0.00    -0.144 C  
BRANCH   4   5
HETATM    5  C   UNL     1     -10.737   5.853  69.179  1.00  0.00    -0.394 C  
BRANCH   5   6
HETATM    6  C   UNL     1     -10.318   5.809  70.667  1.00  0.00    -0.310 C  
HETATM    7  H   UNL     1      -8.306   7.789  73.532  1.00  0.00     0.000 HD 
HETATM    8  C   UNL     1      -9.545   7.057  71.270  1.00  0.00    -0.164 C  
HETATM    9  C   UNL     1      -9.334   4.649  70.863  1.00  0.00    -0.150 C  
HETATM   10  C   UNL     1      -8.716   4.926  72.202  1.00  0.00    -0.133 C  
HETATM   11  O   UNL     1      -9.976   3.387  70.883  1.00  0.00    -0.115 OA 
HETATM   12  O   UNL     1      -8.468   6.852  73.538  1.00  0.00    -0.124 OA 
HETATM   13  H   UNL     1      -9.367   2.669  71.005  1.00  0.00     0.000 HD 
HETATM   14  C   UNL     1      -8.459   6.418  72.193  1.00  0.00    -0.111 C  
BRANCH   8  15
HETATM   15  C   UNL     1     -10.442   8.136  71.958  1.00  0.00    -0.329 C  
BRANCH  15  16
HETATM   16  C   UNL     1     -11.896   7.748  72.158  1.00  0.00    -0.370 C  
HETATM   17  C   UNL     1     -13.023   8.488  72.191  1.00  0.00    -0.403 C  
BRANCH  17  18
HETATM   18  C   UNL     1     -13.181   9.975  72.050  1.00  0.00    -0.545 C  
BRANCH  18  19
HETATM   19  C   UNL     1     -13.020  10.442  70.595  1.00  0.00    -0.357 C  
BRANCH  19  20
HETATM   20  C   UNL     1     -12.154  11.684  70.426  1.00  0.00    -0.462 C  
BRANCH  20  21
HETATM   21  C   UNL     1     -11.763  11.876  68.994  1.00  0.00    -0.331 C  
HETATM   22  O   UNL     1     -12.252  11.310  68.025  1.00  0.00    -0.621 OA 
BRANCH  21  23
HETATM   23  O   UNL     1     -10.668  12.684  68.960  1.00  0.00    -0.195 OA 
BRANCH  23  24
HETATM   24  C   UNL     1     -10.971  13.888  68.288  1.00  0.00    -0.255 C  
BRANCH  24  25
HETATM   25  C   UNL     1     -10.039  14.164  67.128  1.00  0.00    -0.258 C  
BRANCH  25  26
HETATM   26  C   UNL     1     -10.431  15.408  66.334  1.00  0.00    -0.307 C  
BRANCH  26  27
HETATM   27  C   UNL     1     -11.036  15.130  64.950  1.00  0.00    -0.419 C  
BRANCH  27  28
HETATM   28  O   UNL     1     -10.527  13.908  64.463  1.00  0.00    -0.431 OA 
HETATM   29  N   UNL     1     -11.531  13.099  63.880  1.00  0.00    -0.406 N  
HETATM   30  O   UNL     1     -11.101  12.003  63.512  1.00  0.00    -0.409 OA 
HETATM   31  O   UNL     1     -12.664  13.560  63.819  1.00  0.00    -0.682 OA 
ENDBRANCH  27  28
ENDBRANCH  26  27
ENDBRANCH  25  26
ENDBRANCH  24  25
ENDBRANCH  23  24
ENDBRANCH  21  23
ENDBRANCH  20  21
ENDBRANCH  19  20
ENDBRANCH  18  19
ENDBRANCH  17  18
ENDBRANCH  15  16
ENDBRANCH   8  15
ENDBRANCH   5   6
ENDBRANCH   4   5
ENDBRANCH   2   4
BRANCH   2  32
HETATM   32  C   UNL     1     -10.534   7.717  67.151  1.00  0.00    -0.412 C  
BRANCH  32  33
HETATM   33  C   UNL     1     -10.027   8.962  66.433  1.00  0.00    -0.354 C  
BRANCH  33  34
HETATM   34  C   UNL     1      -9.156   9.746  67.358  1.00  0.00    -0.148 A  
HETATM   35  C   UNL     1      -7.469  11.447  67.684  1.00  0.00    -0.103 A  
HETATM   36  C   UNL     1      -8.213  10.092  69.545  1.00  0.00    -0.173 A  
HETATM   37  C   UNL     1      -8.343  10.766  66.842  1.00  0.00    -0.132 A  
HETATM   38  C   UNL     1      -9.088   9.409  68.709  1.00  0.00    -0.132 A  
HETATM   39  C   UNL     1      -7.404  11.110  69.035  1.00  0.00    -0.120 A  
ENDBRANCH  33  34
ENDBRANCH  32  33
ENDBRANCH   2  32
TORSDOF 18
ENDMDL
MODEL      140
REMARK 921   NORMALIZED FREE ENERGY PREDICTED BY IDOCK:   -4.61 KCAL/MOL
REMARK 922        TOTAL FREE ENERGY PREDICTED BY IDOCK:  -14.25 KCAL/MOL
REMARK 923 INTER-LIGAND FREE ENERGY PREDICTED BY IDOCK:   -9.75 KCAL/MOL
REMARK 924 INTRA-LIGAND FREE ENERGY PREDICTED BY IDOCK:   -4.50 KCAL/MOL
REMARK 927      BINDING AFFINITY PREDICTED BY RF-SCORE:    0.00 PKD
ROOT
HETATM    1  O   UNL     1     -12.386  10.375  69.379  1.00  0.00    -0.590 OA 
HETATM    2  C   UNL     1     -11.377  10.192  70.370  1.00  0.00    -0.326 C  
HETATM    3  H   UNL     1     -13.087  10.918  69.721  1.00  0.00     0.000 HD 
ENDROOT
BRANCH   2   4
HETATM    4  C   UNL     1     -10.241   9.311  69.815  1.00  0.00    -0.225 C  
BRANCH   4   5
HETATM    5  C   UNL     1      -8.865   9.549  70.446  1.00  0.00    -0.279 C  
BRANCH   5   6
HETATM    6  C   UNL     1      -7.951   8.309  70.580  1.00  0.00    -0.099 C  
HETATM    7  H   UNL     1      -7.855   4.300  70.273  1.00  0.00     0.000 HD 
HETATM    8  C   UNL     1      -8.544   6.889  70.191  1.00  0.00    -0.141 C  
HETATM    9  C   UNL     1      -7.565   8.145  72.056  1.00  0.00    -0.106 C  
HETATM   10  C   UNL     1      -7.020   6.748  72.129  1.00  0.00    -0.067 C  
HETATM   11  O   UNL     1      -6.573   9.068  72.465  1.00  0.00    -0.294 OA 
HETATM   12  O   UNL     1      -7.255   4.813  70.803  1.00  0.00    -0.046 OA 
HETATM   13  H   UNL     1      -6.333   8.966  73.378  1.00  0.00     0.000 HD 
HETATM   14  C   UNL     1      -7.975   5.931  71.285  1.00  0.00    -0.113 C  
BRANCH   8  15
HETATM   15  C   UNL     1      -8.289   6.434  68.718  1.00  0.00    -0.121 C  
BRANCH  15  16
HETATM   16  C   UNL     1      -7.517   7.414  67.854  1.00  0.00    -0.101 C  
HETATM   17  C   UNL     1      -7.910   8.224  66.850  1.00  0.00    -0.096 C  
BRANCH  17  18
HETATM   18  C   UNL     1      -9.279   8.393  66.254  1.00  0.00    -0.263 C  
BRANCH  18  19
HETATM   19  C   UNL     1      -9.540   9.836  65.794  1.00  0.00    -0.318 C  
BRANCH  19  20
HETATM   20  C   UNL     1      -8.842  10.899  66.632  1.00  0.00    -0.164 C  
BRANCH  20  21
HETATM   21  C   UNL     1      -9.811  11.943  67.093  1.00  0.00    -0.194 C  
HETATM   22  O   UNL     1      -9.532  12.995  67.655  1.00  0.00    -0.189 OA 
BRANCH  21  23
HETATM   23  O   UNL     1     -11.070  11.460  66.912  1.00  0.00    -0.285 OA 
BRANCH  23  24
HETATM   24  C   UNL     1     -11.887  12.443  66.312  1.00  0.00    -0.364 C  
BRANCH  24  25
HETATM   25  C   UNL     1     -12.063  12.232  64.823  1.00  0.00    -0.436 C  
BRANCH  25  26
HETATM   26  C   UNL     1     -12.132  13.541  64.041  1.00  0.00    -0.494 C  
BRANCH  26  27
HETATM   27  C   UNL     1     -12.020  14.814  64.893  1.00  0.00    -0.358 C  
BRANCH  27  28
HETATM   28  O   UNL     1     -10.752  15.396  64.685  1.00  0.00    -0.367 OA 
HETATM   29  N   UNL     1     -10.280  16.085  65.828  1.00  0.00    -0.356 N  
HETATM   30  O   UNL     1      -9.202  16.650  65.628  1.00  0.00    -0.491 OA 
HETATM   31  O   UNL     1     -10.973  16.048  66.837  1.00  0.00    -0.254 OA 
ENDBRANCH  27  28
ENDBRANCH  26  27
ENDBRANCH  25  26
ENDBRANCH  24  25
ENDBRANCH  23  24
ENDBRANCH  21  23
ENDBRANCH  20  21
ENDBRANCH  19  20
ENDBRANCH  18  19
ENDBRANCH  17  18
ENDBRANCH  15  16
ENDBRANCH   8  15
ENDBRANCH   5   6
ENDBRANCH   4   5
ENDBRANCH   2   4
BRANCH   2  32
HETATM   32  C   UNL     1     -12.053   9.541  71.568  1.00  0.00    -0.468 C  
BRANCH  32  33
HETATM   33  C   UNL     1     -12.427   8.090  71.286  1.00  0.00    -0.270 C  
BRANCH  33  34
HETATM   34  C   UNL     1     -11.645   7.194  72.189  1.00  0.00    -0.317 A  
HETATM   35  C   UNL     1     -11.124   4.964  72.964  1.00  0.00    -0.368 A  
HETATM   36  C   UNL     1     -10.186   6.896  74.079  1.00  0.00    -0.384 A  
HETATM   37  C   UNL     1     -11.787   5.804  72.074  1.00  0.00    -0.109 A  
HETATM   38  C   UNL     1     -10.846   7.738  73.193  1.00  0.00    -0.401 A  
HETATM   39  C   UNL     1     -10.324   5.510  73.965  1.00  0.00    -0.297 A  
ENDBRANCH  33  34
ENDBRANCH  32  33
ENDBRANCH   2  32
TORSDOF 18
ENDMDL
MODEL      141
REMARK 921   NORMALIZED FREE ENERGY PREDICTED BY IDOCK:   -4.61 KCAL/MOL
REMARK 922        TOTAL FREE ENERGY PREDICTED BY IDOCK:  -14.25 KCAL/MOL
REMARK 923 INTER-LIGAND FREE ENERGY PREDICTED BY IDOCK:   -9.65 KCAL/MOL
REMARK 924 INTRA-LIGAND FREE ENERGY PREDICTED BY IDOCK:   -4.59 KCAL/MOL
REMARK 927      BINDING AFFINITY PREDICTED BY RF-SCORE:    0.00 PKD
ROOT
HETATM    1  O   UNL     1      -8.126   5.113  67.168  1.00  0.00    -0.103 OA 
HETATM    2  C   UNL     1      -8.923   5.577  66.080  1.00  0.00    -0.145 C  
HETATM    3  H   UNL     1      -8.369   4.223  67.396  1.00  0.00     0.000 HD 
ENDROOT
BRANCH   2   4
HETATM    4  C   UNL     1      -8.530   7.021  65.710  1.00  0.00    -0.154 C  
BRANCH   4   5
HETATM    5  C   UNL     1      -7.281   7.556  66.419  1.00  0.00    -0.075 C  
BRANCH   5   6
HETATM    6  C   UNL     1      -7.529   8.488  67.628  1.00  0.00    -0.094 C  
HETATM    7  H   UNL     1      -6.817  12.166  69.091  1.00  0.00     0.000 HD 
HETATM    8  C   UNL     1      -7.024   9.990  67.540  1.00  0.00    -0.086 C  
HETATM    9  C   UNL     1      -6.774   7.926  68.840  1.00  0.00    -0.049 C  
HETATM   10  C   UNL     1      -6.764   9.066  69.815  1.00  0.00    -0.049 C  
HETATM   11  O   UNL     1      -7.424   6.808  69.416  1.00  0.00    -0.089 OA 
HETATM   12  O   UNL     1      -7.010  11.403  69.625  1.00  0.00    -0.108 OA 
HETATM   13  H   UNL     1      -6.957   6.460  70.166  1.00  0.00     0.000 HD 
HETATM   14  C   UNL     1      -6.457  10.281  68.966  1.00  0.00    -0.045 C  
BRANCH   8  15
HETATM   15  C   UNL     1      -8.075  11.024  67.024  1.00  0.00    -0.136 C  
BRANCH  15  16
HETATM   16  C   UNL     1      -9.438  10.455  66.676  1.00  0.00    -0.199 C  
HETATM   17  C   UNL     1     -10.026  10.200  65.490  1.00  0.00    -0.363 C  
BRANCH  17  18
HETATM   18  C   UNL     1      -9.492  10.427  64.104  1.00  0.00    -0.353 C  
BRANCH  18  19
HETATM   19  C   UNL     1     -10.440  11.280  63.246  1.00  0.00    -0.370 C  
BRANCH  19  20
HETATM   20  C   UNL     1     -10.897  12.572  63.911  1.00  0.00    -0.472 C  
BRANCH  20  21
HETATM   21  C   UNL     1     -12.387  12.609  64.047  1.00  0.00    -0.443 C  
HETATM   22  O   UNL     1     -13.195  11.988  63.367  1.00  0.00    -0.687 OA 
BRANCH  21  23
HETATM   23  O   UNL     1     -12.704  13.564  64.964  1.00  0.00    -0.621 OA 
BRANCH  23  24
HETATM   24  C   UNL     1     -12.284  13.161  66.251  1.00  0.00    -0.355 C  
BRANCH  24  25
HETATM   25  C   UNL     1     -11.919  14.329  67.141  1.00  0.00    -0.449 C  
BRANCH  25  26
HETATM   26  C   UNL     1     -10.456  14.310  67.577  1.00  0.00    -0.252 C  
BRANCH  26  27
HETATM   27  C   UNL     1      -9.436  14.409  66.433  1.00  0.00    -0.285 C  
BRANCH  27  28
HETATM   28  O   UNL     1      -9.384  15.743  65.978  1.00  0.00    -0.317 OA 
HETATM   29  N   UNL     1      -8.125  16.345  66.214  1.00  0.00    -0.321 N  
HETATM   30  O   UNL     1      -8.098  17.531  65.876  1.00  0.00    -0.536 OA 
HETATM   31  O   UNL     1      -7.250  15.649  66.713  1.00  0.00    -0.172 OA 
ENDBRANCH  27  28
ENDBRANCH  26  27
ENDBRANCH  25  26
ENDBRANCH  24  25
ENDBRANCH  23  24
ENDBRANCH  21  23
ENDBRANCH  20  21
ENDBRANCH  19  20
ENDBRANCH  18  19
ENDBRANCH  17  18
ENDBRANCH  15  16
ENDBRANCH   8  15
ENDBRANCH   5   6
ENDBRANCH   4   5
ENDBRANCH   2   4
BRANCH   2  32
HETATM   32  C   UNL     1     -10.374   5.493  66.534  1.00  0.00    -0.309 C  
BRANCH  32  33
HETATM   33  C   UNL     1     -10.909   6.853  66.967  1.00  0.00    -0.436 C  
BRANCH  33  34
HETATM   34  C   UNL     1     -10.846   6.958  68.455  1.00  0.00    -0.234 A  
HETATM   35  C   UNL     1     -10.496   8.306  70.431  1.00  0.00    -0.223 A  
HETATM   36  C   UNL     1     -10.767   5.909  70.619  1.00  0.00    -0.353 A  
HETATM   37  C   UNL     1     -10.637   8.211  69.050  1.00  0.00    -0.167 A  
HETATM   38  C   UNL     1     -10.908   5.808  69.241  1.00  0.00    -0.374 A  
HETATM   39  C   UNL     1     -10.561   7.156  71.215  1.00  0.00    -0.230 A  
ENDBRANCH  33  34
ENDBRANCH  32  33
ENDBRANCH   2  32
TORSDOF 18
ENDMDL
MODEL      142
REMARK 921   NORMALIZED FREE ENERGY PREDICTED BY IDOCK:   -4.60 KCAL/MOL
REMARK 922        TOTAL FREE ENERGY PREDICTED BY IDOCK:  -14.23 KCAL/MOL
REMARK 923 INTER-LIGAND FREE ENERGY PREDICTED BY IDOCK:  -10.92 KCAL/MOL
REMARK 924 INTRA-LIGAND FREE ENERGY PREDICTED BY IDOCK:   -3.31 KCAL/MOL
REMARK 927      BINDING AFFINITY PREDICTED BY RF-SCORE:    0.00 PKD
ROOT
HETATM    1  O   UNL     1     -13.522  10.263  72.112  1.00  0.00    -0.513 OA 
HETATM    2  C   UNL     1     -12.190  10.003  71.675  1.00  0.00    -0.367 C  
HETATM    3  H   UNL     1     -13.563  10.256  73.062  1.00  0.00     0.000 HD 
ENDROOT
BRANCH   2   4
HETATM    4  C   UNL     1     -12.124  10.014  70.135  1.00  0.00    -0.164 C  
BRANCH   4   5
HETATM    5  C   UNL     1     -11.133  11.016  69.534  1.00  0.00    -0.322 C  
BRANCH   5   6
HETATM    6  C   UNL     1      -9.907  10.412  68.808  1.00  0.00    -0.190 C  
HETATM    7  H   UNL     1      -8.784   7.833  65.934  1.00  0.00     0.000 HD 
HETATM    8  C   UNL     1     -10.162   9.433  67.585  1.00  0.00    -0.281 C  
HETATM    9  C   UNL     1      -9.128   9.545  69.806  1.00  0.00    -0.205 C  
HETATM   10  C   UNL     1      -8.218   8.729  68.936  1.00  0.00    -0.118 C  
HETATM   11  O   UNL     1      -8.361  10.314  70.713  1.00  0.00    -0.182 OA 
HETATM   12  O   UNL     1      -8.236   8.095  66.665  1.00  0.00    -0.100 OA 
HETATM   13  H   UNL     1      -7.879   9.777  71.331  1.00  0.00     0.000 HD 
HETATM   14  C   UNL     1      -9.090   8.312  67.771  1.00  0.00    -0.132 C  
BRANCH   8  15
HETATM   15  C   UNL     1     -10.174  10.106  66.176  1.00  0.00    -0.285 C  
BRANCH  15  16
HETATM   16  C   UNL     1      -9.618  11.518  66.119  1.00  0.00    -0.248 C  
HETATM   17  C   UNL     1     -10.224  12.721  66.166  1.00  0.00    -0.286 C  
BRANCH  17  18
HETATM   18  C   UNL     1     -11.688  13.037  66.277  1.00  0.00    -0.440 C  
BRANCH  18  19
HETATM   19  C   UNL     1     -11.951  14.284  67.136  1.00  0.00    -0.449 C  
BRANCH  19  20
HETATM   20  C   UNL     1     -10.900  14.543  68.207  1.00  0.00    -0.247 C  
BRANCH  20  21
HETATM   21  C   UNL     1     -10.888  15.984  68.613  1.00  0.00    -0.301 C  
HETATM   22  O   UNL     1     -11.025  16.420  69.749  1.00  0.00    -0.338 OA 
BRANCH  21  23
HETATM   23  O   UNL     1     -10.845  16.741  67.482  1.00  0.00    -0.307 OA 
BRANCH  23  24
HETATM   24  C   UNL     1     -10.501  18.073  67.801  1.00  0.00    -0.408 C  
BRANCH  24  25
HETATM   25  C   UNL     1     -10.615  19.008  66.617  1.00  0.00    -0.499 C  
BRANCH  25  26
HETATM   26  C   UNL     1      -9.716  20.236  66.740  1.00  0.00    -0.571 C  
BRANCH  26  27
HETATM   27  C   UNL     1      -8.211  19.936  66.796  1.00  0.00    -0.319 C  
BRANCH  27  28
HETATM   28  O   UNL     1      -7.818  19.331  65.583  1.00  0.00    -0.445 OA 
HETATM   29  N   UNL     1      -6.541  19.764  65.154  1.00  0.00    -0.284 N  
HETATM   30  O   UNL     1      -6.223  19.286  64.062  1.00  0.00    -0.421 OA 
HETATM   31  O   UNL     1      -5.931  20.536  65.882  1.00  0.00    -0.186 OA 
ENDBRANCH  27  28
ENDBRANCH  26  27
ENDBRANCH  25  26
ENDBRANCH  24  25
ENDBRANCH  23  24
ENDBRANCH  21  23
ENDBRANCH  20  21
ENDBRANCH  19  20
ENDBRANCH  18  19
ENDBRANCH  17  18
ENDBRANCH  15  16
ENDBRANCH   8  15
ENDBRANCH   5   6
ENDBRANCH   4   5
ENDBRANCH   2   4
BRANCH   2  32
HETATM   32  C   UNL     1     -11.800   8.645  72.241  1.00  0.00    -0.436 C  
BRANCH  32  33
HETATM   33  C   UNL     1     -12.201   7.509  71.307  1.00  0.00    -0.357 C  
BRANCH  33  34
HETATM   34  C   UNL     1     -11.004   6.665  71.015  1.00  0.00    -0.305 A  
HETATM   35  C   UNL     1      -9.890   5.058  69.593  1.00  0.00    -0.290 A  
HETATM   36  C   UNL     1      -8.903   5.713  71.704  1.00  0.00    -0.140 A  
HETATM   37  C   UNL     1     -10.965   5.908  69.835  1.00  0.00    -0.444 A  
HETATM   38  C   UNL     1      -9.974   6.564  71.949  1.00  0.00    -0.192 A  
HETATM   39  C   UNL     1      -8.860   4.961  70.527  1.00  0.00    -0.146 A  
ENDBRANCH  33  34
ENDBRANCH  32  33
ENDBRANCH   2  32
TORSDOF 18
ENDMDL
MODEL      143
REMARK 921   NORMALIZED FREE ENERGY PREDICTED BY IDOCK:   -4.60 KCAL/MOL
REMARK 922        TOTAL FREE ENERGY PREDICTED BY IDOCK:  -14.22 KCAL/MOL
REMARK 923 INTER-LIGAND FREE ENERGY PREDICTED BY IDOCK:  -10.78 KCAL/MOL
REMARK 924 INTRA-LIGAND FREE ENERGY PREDICTED BY IDOCK:   -3.44 KCAL/MOL
REMARK 927      BINDING AFFINITY PREDICTED BY RF-SCORE:    0.00 PKD
ROOT
HETATM    1  O   UNL     1     -11.410   5.394  66.073  1.00  0.00    -0.773 OA 
HETATM    2  C   UNL     1     -10.348   6.025  66.785  1.00  0.00    -0.238 C  
HETATM    3  H   UNL     1     -11.595   5.869  65.272  1.00  0.00     0.000 HD 
ENDROOT
BRANCH   2   4
HETATM    4  C   UNL     1     -10.047   5.254  68.086  1.00  0.00    -0.211 C  
BRANCH   4   5
HETATM    5  C   UNL     1     -10.858   5.700  69.308  1.00  0.00    -0.309 C  
BRANCH   5   6
HETATM    6  C   UNL     1     -10.048   6.287  70.487  1.00  0.00    -0.230 C  
HETATM    7  H   UNL     1      -9.481   9.593  72.706  1.00  0.00     0.000 HD 
HETATM    8  C   UNL     1     -10.397   7.754  70.985  1.00  0.00    -0.215 C  
HETATM    9  C   UNL     1      -8.577   6.393  70.063  1.00  0.00    -0.135 C  
HETATM   10  C   UNL     1      -7.972   7.299  71.095  1.00  0.00    -0.101 C  
HETATM   11  O   UNL     1      -7.915   5.142  70.077  1.00  0.00    -0.079 OA 
HETATM   12  O   UNL     1      -8.834   8.907  72.588  1.00  0.00    -0.358 OA 
HETATM   13  H   UNL     1      -7.004   5.208  69.815  1.00  0.00     0.000 HD 
HETATM   14  C   UNL     1      -9.003   8.392  71.283  1.00  0.00    -0.178 C  
BRANCH   8  15
HETATM   15  C   UNL     1     -11.424   7.838  72.159  1.00  0.00    -0.361 C  
BRANCH  15  16
HETATM   16  C   UNL     1     -12.782   8.414  71.801  1.00  0.00    -0.373 C  
HETATM   17  C   UNL     1     -13.161   9.658  71.445  1.00  0.00    -0.469 C  
BRANCH  17  18
HETATM   18  C   UNL     1     -12.323  10.896  71.304  1.00  0.00    -0.448 C  
BRANCH  18  19
HETATM   19  C   UNL     1     -13.114  12.175  71.619  1.00  0.00    -0.413 C  
BRANCH  19  20
HETATM   20  C   UNL     1     -12.648  13.407  70.853  1.00  0.00    -0.406 C  
BRANCH  20  21
HETATM   21  C   UNL     1     -12.773  14.641  71.691  1.00  0.00    -0.331 C  
HETATM   22  O   UNL     1     -13.151  14.693  72.855  1.00  0.00    -0.451 OA 
BRANCH  21  23
HETATM   23  O   UNL     1     -12.533  15.718  70.895  1.00  0.00    -0.431 OA 
BRANCH  23  24
HETATM   24  C   UNL     1     -12.023  15.297  69.647  1.00  0.00    -0.338 C  
BRANCH  24  25
HETATM   25  C   UNL     1     -10.989  16.248  69.084  1.00  0.00    -0.324 C  
BRANCH  25  26
HETATM   26  C   UNL     1     -10.057  15.583  68.073  1.00  0.00    -0.223 C  
BRANCH  26  27
HETATM   27  C   UNL     1      -9.173  14.464  68.643  1.00  0.00    -0.181 C  
BRANCH  27  28
HETATM   28  O   UNL     1      -8.323  13.986  67.623  1.00  0.00    -0.160 OA 
HETATM   29  N   UNL     1      -7.915  12.649  67.843  1.00  0.00    -0.142 N  
HETATM   30  O   UNL     1      -7.121  12.251  66.988  1.00  0.00    -0.127 OA 
HETATM   31  O   UNL     1      -8.373  12.071  68.820  1.00  0.00    -0.079 OA 
ENDBRANCH  27  28
ENDBRANCH  26  27
ENDBRANCH  25  26
ENDBRANCH  24  25
ENDBRANCH  23  24
ENDBRANCH  21  23
ENDBRANCH  20  21
ENDBRANCH  19  20
ENDBRANCH  18  19
ENDBRANCH  17  18
ENDBRANCH  15  16
ENDBRANCH   8  15
ENDBRANCH   5   6
ENDBRANCH   4   5
ENDBRANCH   2   4
BRANCH   2  32
HETATM   32  C   UNL     1     -10.801   7.450  67.073  1.00  0.00    -0.307 C  
BRANCH  32  33
HETATM   33  C   UNL     1      -9.683   8.457  66.827  1.00  0.00    -0.309 C  
BRANCH  33  34
HETATM   34  C   UNL     1     -10.255   9.837  66.820  1.00  0.00    -0.300 A  
HETATM   35  C   UNL     1     -11.612  11.531  67.886  1.00  0.00    -0.352 A  
HETATM   36  C   UNL     1     -10.718  11.898  65.667  1.00  0.00    -0.325 A  
HETATM   37  C   UNL     1     -11.009  10.277  67.918  1.00  0.00    -0.350 A  
HETATM   38  C   UNL     1     -10.113  10.648  65.695  1.00  0.00    -0.335 A  
HETATM   39  C   UNL     1     -11.466  12.340  66.761  1.00  0.00    -0.421 A  
ENDBRANCH  33  34
ENDBRANCH  32  33
ENDBRANCH   2  32
TORSDOF 18
ENDMDL
MODEL      144
REMARK 921   NORMALIZED FREE ENERGY PREDICTED BY IDOCK:   -4.60 KCAL/MOL
REMARK 922        TOTAL FREE ENERGY PREDICTED BY IDOCK:  -14.22 KCAL/MOL
REMARK 923 INTER-LIGAND FREE ENERGY PREDICTED BY IDOCK:   -9.16 KCAL/MOL
REMARK 924 INTRA-LIGAND FREE ENERGY PREDICTED BY IDOCK:   -5.05 KCAL/MOL
REMARK 927      BINDING AFFINITY PREDICTED BY RF-SCORE:    0.00 PKD
ROOT
HETATM    1  O   UNL     1      -9.957   5.097  64.915  1.00  0.00    -0.349 OA 
HETATM    2  C   UNL     1      -9.070   4.750  65.976  1.00  0.00    -0.133 C  
HETATM    3  H   UNL     1      -9.473   5.202  64.104  1.00  0.00     0.000 HD 
ENDROOT
BRANCH   2   4
HETATM    4  C   UNL     1      -9.856   4.580  67.291  1.00  0.00    -0.216 C  
BRANCH   4   5
HETATM    5  C   UNL     1     -10.501   5.860  67.833  1.00  0.00    -0.297 C  
BRANCH   5   6
HETATM    6  C   UNL     1     -10.132   6.250  69.283  1.00  0.00    -0.213 C  
HETATM    7  H   UNL     1      -7.642   5.425  72.332  1.00  0.00     0.000 HD 
HETATM    8  C   UNL     1      -8.873   5.554  69.954  1.00  0.00    -0.137 C  
HETATM    9  C   UNL     1     -11.294   5.857  70.205  1.00  0.00    -0.161 C  
HETATM   10  C   UNL     1     -10.696   5.920  71.580  1.00  0.00    -0.313 C  
HETATM   11  O   UNL     1     -12.386   6.752  70.116  1.00  0.00    -0.614 OA 
HETATM   12  O   UNL     1      -8.499   5.824  72.430  1.00  0.00    -0.118 OA 
HETATM   13  H   UNL     1     -13.106   6.509  70.687  1.00  0.00     0.000 HD 
HETATM   14  C   UNL     1      -9.331   5.284  71.423  1.00  0.00    -0.148 C  
BRANCH   8  15
HETATM   15  C   UNL     1      -7.523   6.328  69.816  1.00  0.00    -0.081 C  
BRANCH  15  16
HETATM   16  C   UNL     1      -7.637   7.761  69.326  1.00  0.00    -0.098 C  
HETATM   17  C   UNL     1      -8.157   8.864  69.900  1.00  0.00    -0.112 C  
BRANCH  17  18
HETATM   18  C   UNL     1      -8.818   9.009  71.241  1.00  0.00    -0.259 C  
BRANCH  18  19
HETATM   19  C   UNL     1     -10.281   9.466  71.124  1.00  0.00    -0.361 C  
BRANCH  19  20
HETATM   20  C   UNL     1     -10.643  10.073  69.775  1.00  0.00    -0.301 C  
BRANCH  20  21
HETATM   21  C   UNL     1     -11.817  10.994  69.896  1.00  0.00    -0.353 C  
HETATM   22  O   UNL     1     -12.395  11.301  70.932  1.00  0.00    -0.367 OA 
BRANCH  21  23
HETATM   23  O   UNL     1     -12.228  11.322  68.641  1.00  0.00    -0.562 OA 
BRANCH  23  24
HETATM   24  C   UNL     1     -12.145  12.719  68.452  1.00  0.00    -0.101 C  
BRANCH  24  25
HETATM   25  C   UNL     1     -10.733  13.248  68.592  1.00  0.00    -0.281 C  
BRANCH  25  26
HETATM   26  C   UNL     1     -10.223  13.923  67.322  1.00  0.00    -0.249 C  
BRANCH  26  27
HETATM   27  C   UNL     1     -11.292  14.185  66.251  1.00  0.00    -0.338 C  
BRANCH  27  28
HETATM   28  O   UNL     1     -10.853  13.645  65.023  1.00  0.00    -0.314 OA 
HETATM   29  N   UNL     1     -11.748  12.677  64.509  1.00  0.00    -0.339 N  
HETATM   30  O   UNL     1     -11.336  12.157  63.469  1.00  0.00    -0.421 OA 
HETATM   31  O   UNL     1     -12.780  12.472  65.135  1.00  0.00    -0.659 OA 
ENDBRANCH  27  28
ENDBRANCH  26  27
ENDBRANCH  25  26
ENDBRANCH  24  25
ENDBRANCH  23  24
ENDBRANCH  21  23
ENDBRANCH  20  21
ENDBRANCH  19  20
ENDBRANCH  18  19
ENDBRANCH  17  18
ENDBRANCH  15  16
ENDBRANCH   8  15
ENDBRANCH   5   6
ENDBRANCH   4   5
ENDBRANCH   2   4
BRANCH   2  32
HETATM   32  C   UNL     1      -8.048   5.872  66.077  1.00  0.00    -0.115 C  
BRANCH  32  33
HETATM   33  C   UNL     1      -8.263   6.930  65.001  1.00  0.00    -0.096 C  
BRANCH  33  34
HETATM   34  C   UNL     1      -8.346   8.277  65.641  1.00  0.00    -0.154 A  
HETATM   35  C   UNL     1      -9.684  10.157  66.362  1.00  0.00    -0.259 A  
HETATM   36  C   UNL     1      -7.269  10.259  66.480  1.00  0.00    -0.109 A  
HETATM   37  C   UNL     1      -9.602   8.870  65.840  1.00  0.00    -0.293 A  
HETATM   38  C   UNL     1      -7.182   8.974  65.959  1.00  0.00    -0.093 A  
HETATM   39  C   UNL     1      -8.519  10.851  66.681  1.00  0.00    -0.151 A  
ENDBRANCH  33  34
ENDBRANCH  32  33
ENDBRANCH   2  32
TORSDOF 18
ENDMDL
MODEL      145
REMARK 921   NORMALIZED FREE ENERGY PREDICTED BY IDOCK:   -4.60 KCAL/MOL
REMARK 922        TOTAL FREE ENERGY PREDICTED BY IDOCK:  -14.22 KCAL/MOL
REMARK 923 INTER-LIGAND FREE ENERGY PREDICTED BY IDOCK:  -10.91 KCAL/MOL
REMARK 924 INTRA-LIGAND FREE ENERGY PREDICTED BY IDOCK:   -3.31 KCAL/MOL
REMARK 927      BINDING AFFINITY PREDICTED BY RF-SCORE:    0.00 PKD
ROOT
HETATM    1  O   UNL     1     -12.625  14.451  65.660  1.00  0.00    -0.408 OA 
HETATM    2  C   UNL     1     -11.566  14.292  66.602  1.00  0.00    -0.383 C  
HETATM    3  H   UNL     1     -13.336  14.948  66.047  1.00  0.00     0.000 HD 
ENDROOT
BRANCH   2   4
HETATM    4  C   UNL     1     -10.412  13.486  65.974  1.00  0.00    -0.299 C  
BRANCH   4   5
HETATM    5  C   UNL     1     -10.811  12.129  65.385  1.00  0.00    -0.335 C  
BRANCH   5   6
HETATM    6  C   UNL     1      -9.873  10.942  65.708  1.00  0.00    -0.286 C  
HETATM    7  H   UNL     1      -6.614   9.858  67.800  1.00  0.00     0.000 HD 
HETATM    8  C   UNL     1      -8.725  11.159  66.783  1.00  0.00    -0.157 C  
HETATM    9  C   UNL     1      -9.106  10.567  64.434  1.00  0.00    -0.225 C  
HETATM   10  C   UNL     1      -7.988   9.698  64.933  1.00  0.00    -0.124 C  
HETATM   11  O   UNL     1      -9.900   9.842  63.513  1.00  0.00    -0.495 OA 
HETATM   12  O   UNL     1      -6.921   9.417  67.016  1.00  0.00    -0.083 OA 
HETATM   13  H   UNL     1      -9.425   9.610  62.724  1.00  0.00     0.000 HD 
HETATM   14  C   UNL     1      -7.499  10.401  66.182  1.00  0.00    -0.131 C  
BRANCH   8  15
HETATM   15  C   UNL     1      -9.092  10.761  68.248  1.00  0.00    -0.157 C  
BRANCH  15  16
HETATM   16  C   UNL     1     -10.456  10.119  68.431  1.00  0.00    -0.237 C  
HETATM   17  C   UNL     1     -10.885   8.857  68.230  1.00  0.00    -0.048 C  
BRANCH  17  18
HETATM   18  C   UNL     1     -10.116   7.666  67.733  1.00  0.00    -0.237 C  
BRANCH  18  19
HETATM   19  C   UNL     1     -10.833   6.341  68.036  1.00  0.00    -0.409 C  
BRANCH  19  20
HETATM   20  C   UNL     1     -10.951   6.016  69.520  1.00  0.00    -0.467 C  
BRANCH  20  21
HETATM   21  C   UNL     1      -9.952   4.978  69.925  1.00  0.00    -0.251 C  
HETATM   22  O   UNL     1      -8.964   4.632  69.287  1.00  0.00    -0.090 OA 
BRANCH  21  23
HETATM   23  O   UNL     1     -10.404   4.376  71.058  1.00  0.00    -0.109 OA 
BRANCH  23  24
HETATM   24  C   UNL     1      -9.373   4.314  72.021  1.00  0.00    -0.129 C  
BRANCH  24  25
HETATM   25  C   UNL     1      -9.870   4.556  73.430  1.00  0.00    -0.162 C  
BRANCH  25  26
HETATM   26  C   UNL     1     -11.022   5.557  73.490  1.00  0.00    -0.289 C  
BRANCH  26  27
HETATM   27  C   UNL     1     -10.609   7.030  73.362  1.00  0.00    -0.364 C  
BRANCH  27  28
HETATM   28  O   UNL     1     -11.676   7.759  72.796  1.00  0.00    -0.337 OA 
HETATM   29  N   UNL     1     -11.229   8.847  72.009  1.00  0.00    -0.368 N  
HETATM   30  O   UNL     1     -12.160   9.523  71.566  1.00  0.00    -0.338 OA 
HETATM   31  O   UNL     1     -10.021   8.988  71.873  1.00  0.00    -0.332 OA 
ENDBRANCH  27  28
ENDBRANCH  26  27
ENDBRANCH  25  26
ENDBRANCH  24  25
ENDBRANCH  23  24
ENDBRANCH  21  23
ENDBRANCH  20  21
ENDBRANCH  19  20
ENDBRANCH  18  19
ENDBRANCH  17  18
ENDBRANCH  15  16
ENDBRANCH   8  15
ENDBRANCH   5   6
ENDBRANCH   4   5
ENDBRANCH   2   4
BRANCH   2  32
HETATM   32  C   UNL     1     -12.156  13.574  67.807  1.00  0.00    -0.316 C  
BRANCH  32  33
HETATM   33  C   UNL     1     -11.311  13.781  69.058  1.00  0.00    -0.333 C  
BRANCH  33  34
HETATM   34  C   UNL     1     -12.209  13.961  70.238  1.00  0.00    -0.428 A  
HETATM   35  C   UNL     1     -13.479  12.989  72.051  1.00  0.00    -0.584 A  
HETATM   36  C   UNL     1     -13.642  15.356  71.576  1.00  0.00    -0.604 A  
HETATM   37  C   UNL     1     -12.579  12.843  71.000  1.00  0.00    -0.376 A  
HETATM   38  C   UNL     1     -12.743  15.216  70.525  1.00  0.00    -0.416 A  
HETATM   39  C   UNL     1     -14.010  14.245  72.338  1.00  0.00    -0.597 A  
ENDBRANCH  33  34
ENDBRANCH  32  33
ENDBRANCH   2  32
TORSDOF 18
ENDMDL
MODEL      146
REMARK 921   NORMALIZED FREE ENERGY PREDICTED BY IDOCK:   -4.59 KCAL/MOL
REMARK 922        TOTAL FREE ENERGY PREDICTED BY IDOCK:  -14.20 KCAL/MOL
REMARK 923 INTER-LIGAND FREE ENERGY PREDICTED BY IDOCK:  -11.28 KCAL/MOL
REMARK 924 INTRA-LIGAND FREE ENERGY PREDICTED BY IDOCK:   -2.92 KCAL/MOL
REMARK 927      BINDING AFFINITY PREDICTED BY RF-SCORE:    0.00 PKD
ROOT
HETATM    1  O   UNL     1     -11.637   6.528  68.183  1.00  0.00    -0.570 OA 
HETATM    2  C   UNL     1     -10.871   7.730  68.147  1.00  0.00     0.052 C  
HETATM    3  H   UNL     1     -12.002   6.398  69.051  1.00  0.00     0.000 HD 
ENDROOT
BRANCH   2   4
HETATM    4  C   UNL     1     -10.279   7.941  66.740  1.00  0.00    -0.358 C  
BRANCH   4   5
HETATM    5  C   UNL     1      -9.053   8.859  66.681  1.00  0.00    -0.192 C  
BRANCH   5   6
HETATM    6  C   UNL     1      -9.293  10.284  66.132  1.00  0.00    -0.211 C  
HETATM    7  H   UNL     1     -11.412  13.659  66.679  1.00  0.00     0.000 HD 
HETATM    8  C   UNL     1     -10.275  11.244  66.928  1.00  0.00    -0.254 C  
HETATM    9  C   UNL     1      -9.947  10.170  64.748  1.00  0.00    -0.264 C  
HETATM   10  C   UNL     1     -10.472  11.552  64.486  1.00  0.00    -0.369 C  
HETATM   11  O   UNL     1      -9.025   9.808  63.738  1.00  0.00    -0.223 OA 
HETATM   12  O   UNL     1     -11.032  13.391  65.850  1.00  0.00    -0.275 OA 
HETATM   13  H   UNL     1      -9.430   9.737  62.881  1.00  0.00     0.000 HD 
HETATM   14  C   UNL     1     -11.076  11.979  65.807  1.00  0.00    -0.324 C  
BRANCH   8  15
HETATM   15  C   UNL     1      -9.594  12.184  67.975  1.00  0.00    -0.204 C  
BRANCH  15  16
HETATM   16  C   UNL     1      -8.077  12.222  67.932  1.00  0.00    -0.155 C  
HETATM   17  C   UNL     1      -7.197  13.194  68.246  1.00  0.00    -0.107 C  
BRANCH  17  18
HETATM   18  C   UNL     1      -7.464  14.588  68.736  1.00  0.00    -0.132 C  
BRANCH  18  19
HETATM   19  C   UNL     1      -7.676  15.582  67.584  1.00  0.00    -0.178 C  
BRANCH  19  20
HETATM   20  C   UNL     1      -6.600  16.655  67.475  1.00  0.00    -0.180 C  
BRANCH  20  21
HETATM   21  C   UNL     1      -7.027  17.754  66.552  1.00  0.00    -0.230 C  
HETATM   22  O   UNL     1      -7.635  17.621  65.497  1.00  0.00    -0.440 OA 
BRANCH  21  23
HETATM   23  O   UNL     1      -6.500  18.921  67.013  1.00  0.00    -0.190 OA 
BRANCH  23  24
HETATM   24  C   UNL     1      -7.285  20.013  66.582  1.00  0.00    -0.249 C  
BRANCH  24  25
HETATM   25  C   UNL     1      -8.462  20.285  67.494  1.00  0.00    -0.376 C  
BRANCH  25  26
HETATM   26  C   UNL     1      -9.794  20.324  66.748  1.00  0.00    -0.586 C  
BRANCH  26  27
HETATM   27  C   UNL     1     -10.613  19.028  66.813  1.00  0.00    -0.425 C  
BRANCH  27  28
HETATM   28  O   UNL     1     -10.876  18.584  65.500  1.00  0.00    -0.488 OA 
HETATM   29  N   UNL     1     -10.917  17.173  65.405  1.00  0.00    -0.116 N  
HETATM   30  O   UNL     1     -11.082  16.781  64.247  1.00  0.00    -1.106 OA 
HETATM   31  O   UNL     1     -10.782  16.532  66.439  1.00  0.00    -0.261 OA 
ENDBRANCH  27  28
ENDBRANCH  26  27
ENDBRANCH  25  26
ENDBRANCH  24  25
ENDBRANCH  23  24
ENDBRANCH  21  23
ENDBRANCH  20  21
ENDBRANCH  19  20
ENDBRANCH  18  19
ENDBRANCH  17  18
ENDBRANCH  15  16
ENDBRANCH   8  15
ENDBRANCH   5   6
ENDBRANCH   4   5
ENDBRANCH   2   4
BRANCH   2  32
HETATM   32  C   UNL     1      -9.778   7.583  69.196  1.00  0.00    -0.166 C  
BRANCH  32  33
HETATM   33  C   UNL     1      -9.582   8.869  69.991  1.00  0.00    -0.190 C  
BRANCH  33  34
HETATM   34  C   UNL     1     -10.825   9.165  70.766  1.00  0.00    -0.331 A  
HETATM   35  C   UNL     1     -12.513   8.449  72.341  1.00  0.00    -0.390 A  
HETATM   36  C   UNL     1     -12.735  10.566  71.190  1.00  0.00    -0.518 A  
HETATM   37  C   UNL     1     -11.313   8.215  71.675  1.00  0.00    -0.315 A  
HETATM   38  C   UNL     1     -11.538  10.338  70.523  1.00  0.00    -0.424 A  
HETATM   39  C   UNL     1     -13.223   9.623  72.098  1.00  0.00    -0.535 A  
ENDBRANCH  33  34
ENDBRANCH  32  33
ENDBRANCH   2  32
TORSDOF 18
ENDMDL
MODEL      147
REMARK 921   NORMALIZED FREE ENERGY PREDICTED BY IDOCK:   -4.58 KCAL/MOL
REMARK 922        TOTAL FREE ENERGY PREDICTED BY IDOCK:  -14.18 KCAL/MOL
REMARK 923 INTER-LIGAND FREE ENERGY PREDICTED BY IDOCK:  -11.36 KCAL/MOL
REMARK 924 INTRA-LIGAND FREE ENERGY PREDICTED BY IDOCK:   -2.82 KCAL/MOL
REMARK 927      BINDING AFFINITY PREDICTED BY RF-SCORE:    0.00 PKD
ROOT
HETATM    1  O   UNL     1     -12.282  10.366  69.066  1.00  0.00    -0.701 OA 
HETATM    2  C   UNL     1     -11.384  10.726  70.114  1.00  0.00    -0.309 C  
HETATM    3  H   UNL     1     -12.839  11.103  68.845  1.00  0.00     0.000 HD 
ENDROOT
BRANCH   2   4
HETATM    4  C   UNL     1     -10.480   9.530  70.473  1.00  0.00    -0.358 C  
BRANCH   4   5
HETATM    5  C   UNL     1     -10.893   8.756  71.729  1.00  0.00    -0.416 C  
BRANCH   5   6
HETATM    6  C   UNL     1     -10.222   7.378  71.933  1.00  0.00    -0.213 C  
HETATM    7  H   UNL     1      -9.821   3.698  70.359  1.00  0.00     0.000 HD 
HETATM    8  C   UNL     1     -10.394   6.279  70.800  1.00  0.00    -0.256 C  
HETATM    9  C   UNL     1     -10.836   6.715  73.173  1.00  0.00    -0.269 C  
HETATM   10  C   UNL     1     -10.411   5.280  73.059  1.00  0.00    -0.228 C  
HETATM   11  O   UNL     1     -10.349   7.264  74.382  1.00  0.00    -0.428 OA 
HETATM   12  O   UNL     1      -9.701   3.906  71.279  1.00  0.00    -0.163 OA 
HETATM   13  H   UNL     1     -10.729   6.853  75.150  1.00  0.00     0.000 HD 
HETATM   14  C   UNL     1     -10.601   4.950  71.593  1.00  0.00    -0.073 C  
BRANCH   8  15
HETATM   15  C   UNL     1      -9.260   6.237  69.726  1.00  0.00    -0.150 C  
BRANCH  15  16
HETATM   16  C   UNL     1      -7.977   6.957  70.100  1.00  0.00    -0.115 C  
HETATM   17  C   UNL     1      -7.232   7.861  69.433  1.00  0.00    -0.079 C  
BRANCH  17  18
HETATM   18  C   UNL     1      -7.448   8.437  68.063  1.00  0.00    -0.097 C  
BRANCH  18  19
HETATM   19  C   UNL     1      -7.962   7.388  67.064  1.00  0.00    -0.116 C  
BRANCH  19  20
HETATM   20  C   UNL     1      -9.020   7.907  66.097  1.00  0.00    -0.214 C  
BRANCH  20  21
HETATM   21  C   UNL     1     -10.366   7.958  66.750  1.00  0.00    -0.287 C  
HETATM   22  O   UNL     1     -11.142   7.021  66.889  1.00  0.00    -0.359 OA 
BRANCH  21  23
HETATM   23  O   UNL     1     -10.648   9.259  67.035  1.00  0.00    -0.246 OA 
BRANCH  23  24
HETATM   24  C   UNL     1     -10.423  10.066  65.898  1.00  0.00    -0.045 C  
BRANCH  24  25
HETATM   25  C   UNL     1      -9.634  11.319  66.215  1.00  0.00    -0.235 C  
BRANCH  25  26
HETATM   26  C   UNL     1     -10.434  12.334  67.028  1.00  0.00    -0.237 C  
BRANCH  26  27
HETATM   27  C   UNL     1     -11.890  12.524  66.579  1.00  0.00    -0.367 C  
BRANCH  27  28
HETATM   28  O   UNL     1     -11.983  13.702  65.808  1.00  0.00    -0.353 OA 
HETATM   29  N   UNL     1     -12.664  13.493  64.585  1.00  0.00    -0.234 N  
HETATM   30  O   UNL     1     -12.690  14.505  63.880  1.00  0.00    -0.782 OA 
HETATM   31  O   UNL     1     -13.121  12.377  64.375  1.00  0.00    -0.786 OA 
ENDBRANCH  27  28
ENDBRANCH  26  27
ENDBRANCH  25  26
ENDBRANCH  24  25
ENDBRANCH  23  24
ENDBRANCH  21  23
ENDBRANCH  20  21
ENDBRANCH  19  20
ENDBRANCH  18  19
ENDBRANCH  17  18
ENDBRANCH  15  16
ENDBRANCH   8  15
ENDBRANCH   5   6
ENDBRANCH   4   5
ENDBRANCH   2   4
BRANCH   2  32
HETATM   32  C   UNL     1     -12.241  11.152  71.297  1.00  0.00    -0.328 C  
BRANCH  32  33
HETATM   33  C   UNL     1     -13.256  12.219  70.904  1.00  0.00     0.271 C  
BRANCH  33  34
HETATM   34  C   UNL     1     -12.823  13.539  71.451  1.00  0.00    -0.440 A  
HETATM   35  C   UNL     1     -12.992  15.237  73.164  1.00  0.00    -0.625 A  
HETATM   36  C   UNL     1     -11.660  15.629  71.183  1.00  0.00    -0.462 A  
HETATM   37  C   UNL     1     -13.328  13.974  72.685  1.00  0.00    -0.643 A  
HETATM   38  C   UNL     1     -11.992  14.369  70.700  1.00  0.00    -0.393 A  
HETATM   39  C   UNL     1     -12.159  16.063  72.413  1.00  0.00    -0.629 A  
ENDBRANCH  33  34
ENDBRANCH  32  33
ENDBRANCH   2  32
TORSDOF 18
ENDMDL
MODEL      148
REMARK 921   NORMALIZED FREE ENERGY PREDICTED BY IDOCK:   -4.57 KCAL/MOL
REMARK 922        TOTAL FREE ENERGY PREDICTED BY IDOCK:  -14.16 KCAL/MOL
REMARK 923 INTER-LIGAND FREE ENERGY PREDICTED BY IDOCK:  -12.33 KCAL/MOL
REMARK 924 INTRA-LIGAND FREE ENERGY PREDICTED BY IDOCK:   -1.83 KCAL/MOL
REMARK 927      BINDING AFFINITY PREDICTED BY RF-SCORE:    0.00 PKD
ROOT
HETATM    1  O   UNL     1      -9.738  10.697  69.667  1.00  0.00    -0.414 OA 
HETATM    2  C   UNL     1     -11.136  10.505  69.460  1.00  0.00    -0.268 C  
HETATM    3  H   UNL     1      -9.486  10.375  70.525  1.00  0.00     0.000 HD 
ENDROOT
BRANCH   2   4
HETATM    4  C   UNL     1     -11.544  11.027  68.068  1.00  0.00    -0.326 C  
BRANCH   4   5
HETATM    5  C   UNL     1     -10.445  10.966  67.002  1.00  0.00    -0.291 C  
BRANCH   5   6
HETATM    6  C   UNL     1     -10.646  11.866  65.761  1.00  0.00    -0.309 C  
HETATM    7  H   UNL     1     -13.417  13.731  63.520  1.00  0.00     0.000 HD 
HETATM    8  C   UNL     1     -12.111  12.383  65.434  1.00  0.00    -0.428 C  
HETATM    9  C   UNL     1     -10.261  11.065  64.510  1.00  0.00    -0.344 C  
HETATM   10  C   UNL     1     -10.840  11.866  63.381  1.00  0.00    -0.469 C  
HETATM   11  O   UNL     1      -8.860  10.950  64.347  1.00  0.00    -0.298 OA 
HETATM   12  O   UNL     1     -12.557  13.472  63.207  1.00  0.00    -0.773 OA 
HETATM   13  H   UNL     1      -8.622  10.455  63.572  1.00  0.00     0.000 HD 
HETATM   14  C   UNL     1     -12.209  12.278  63.879  1.00  0.00    -0.515 C  
BRANCH   8  15
HETATM   15  C   UNL     1     -12.477  13.783  66.025  1.00  0.00    -0.491 C  
BRANCH  15  16
HETATM   16  C   UNL     1     -11.403  14.849  65.897  1.00  0.00    -0.306 C  
HETATM   17  C   UNL     1     -10.822  15.648  66.815  1.00  0.00    -0.277 C  
BRANCH  17  18
HETATM   18  C   UNL     1     -11.084  15.736  68.291  1.00  0.00    -0.342 C  
BRANCH  18  19
HETATM   19  C   UNL     1     -10.312  16.889  68.952  1.00  0.00    -0.333 C  
BRANCH  19  20
HETATM   20  C   UNL     1     -10.120  18.109  68.061  1.00  0.00    -0.376 C  
BRANCH  20  21
HETATM   21  C   UNL     1      -9.626  19.280  68.851  1.00  0.00    -0.406 C  
HETATM   22  O   UNL     1     -10.305  20.025  69.548  1.00  0.00    -0.214 OA 
BRANCH  21  23
HETATM   23  O   UNL     1      -8.313  19.469  68.549  1.00  0.00    -0.343 OA 
BRANCH  23  24
HETATM   24  C   UNL     1      -8.188  20.329  67.436  1.00  0.00    -0.338 C  
BRANCH  24  25
HETATM   25  C   UNL     1      -6.899  21.122  67.448  1.00  0.00    -0.405 C  
BRANCH  25  26
HETATM   26  C   UNL     1      -5.844  20.557  66.499  1.00  0.00    -0.222 C  
BRANCH  26  27
HETATM   27  C   UNL     1      -6.313  19.377  65.636  1.00  0.00    -0.228 C  
BRANCH  27  28
HETATM   28  O   UNL     1      -5.779  18.182  66.163  1.00  0.00    -0.148 OA 
HETATM   29  N   UNL     1      -6.734  17.138  66.208  1.00  0.00    -0.225 N  
HETATM   30  O   UNL     1      -6.288  16.112  66.728  1.00  0.00    -0.296 OA 
HETATM   31  O   UNL     1      -7.846  17.369  65.752  1.00  0.00    -0.526 OA 
ENDBRANCH  27  28
ENDBRANCH  26  27
ENDBRANCH  25  26
ENDBRANCH  24  25
ENDBRANCH  23  24
ENDBRANCH  21  23
ENDBRANCH  20  21
ENDBRANCH  19  20
ENDBRANCH  18  19
ENDBRANCH  17  18
ENDBRANCH  15  16
ENDBRANCH   8  15
ENDBRANCH   5   6
ENDBRANCH   4   5
ENDBRANCH   2   4
BRANCH   2  32
HETATM   32  C   UNL     1     -11.851  11.260  70.571  1.00  0.00    -0.421 C  
BRANCH  32  33
HETATM   33  C   UNL     1     -13.030  10.467  71.123  1.00  0.00    -0.506 C  
BRANCH  33  34
HETATM   34  C   UNL     1     -12.572   9.095  71.496  1.00  0.00    -0.413 A  
HETATM   35  C   UNL     1     -12.868   6.699  71.374  1.00  0.00    -0.163 A  
HETATM   36  C   UNL     1     -11.184   7.649  72.829  1.00  0.00    -0.431 A  
HETATM   37  C   UNL     1     -13.237   7.979  70.969  1.00  0.00     0.050 A  
HETATM   38  C   UNL     1     -11.548   8.929  72.428  1.00  0.00    -0.237 A  
HETATM   39  C   UNL     1     -11.843   6.535  72.303  1.00  0.00    -0.299 A  
ENDBRANCH  33  34
ENDBRANCH  32  33
ENDBRANCH   2  32
TORSDOF 18
ENDMDL
MODEL      149
REMARK 921   NORMALIZED FREE ENERGY PREDICTED BY IDOCK:   -4.56 KCAL/MOL
REMARK 922        TOTAL FREE ENERGY PREDICTED BY IDOCK:  -14.15 KCAL/MOL
REMARK 923 INTER-LIGAND FREE ENERGY PREDICTED BY IDOCK:  -11.71 KCAL/MOL
REMARK 924 INTRA-LIGAND FREE ENERGY PREDICTED BY IDOCK:   -2.44 KCAL/MOL
REMARK 927      BINDING AFFINITY PREDICTED BY RF-SCORE:    0.00 PKD
ROOT
HETATM    1  O   UNL     1     -10.360  19.681  69.141  1.00  0.00    -0.617 OA 
HETATM    2  C   UNL     1     -10.488  19.950  67.746  1.00  0.00    -0.371 C  
HETATM    3  H   UNL     1     -10.364  20.494  69.633  1.00  0.00     0.000 HD 
ENDROOT
BRANCH   2   4
HETATM    4  C   UNL     1     -10.482  18.631  66.948  1.00  0.00    -0.449 C  
BRANCH   4   5
HETATM    5  C   UNL     1     -10.987  17.405  67.715  1.00  0.00    -0.142 C  
BRANCH   5   6
HETATM    6  C   UNL     1     -10.236  16.079  67.453  1.00  0.00    -0.273 C  
HETATM    7  H   UNL     1      -8.333  13.019  69.239  1.00  0.00     0.000 HD 
HETATM    8  C   UNL     1      -9.776  15.212  68.701  1.00  0.00    -0.216 C  
HETATM    9  C   UNL     1      -8.918  16.398  66.734  1.00  0.00    -0.236 C  
HETATM   10  C   UNL     1      -8.121  15.134  66.870  1.00  0.00    -0.194 C  
HETATM   11  O   UNL     1      -9.105  16.701  65.364  1.00  0.00    -0.267 OA 
HETATM   12  O   UNL     1      -8.184  13.294  68.342  1.00  0.00    -0.154 OA 
HETATM   13  H   UNL     1      -8.290  16.899  64.919  1.00  0.00     0.000 HD 
HETATM   14  C   UNL     1      -8.358  14.696  68.300  1.00  0.00    -0.148 C  
BRANCH   8  15
HETATM   15  C   UNL     1     -10.778  14.102  69.154  1.00  0.00    -0.216 C  
BRANCH  15  16
HETATM   16  C   UNL     1     -11.875  13.764  68.161  1.00  0.00    -0.411 C  
HETATM   17  C   UNL     1     -11.957  12.818  67.204  1.00  0.00    -0.351 C  
BRANCH  17  18
HETATM   18  C   UNL     1     -10.941  11.783  66.811  1.00  0.00    -0.336 C  
BRANCH  18  19
HETATM   19  C   UNL     1     -11.101  10.477  67.605  1.00  0.00    -0.375 C  
BRANCH  19  20
HETATM   20  C   UNL     1     -10.146  10.338  68.784  1.00  0.00    -0.198 C  
BRANCH  20  21
HETATM   21  C   UNL     1     -10.897  10.147  70.065  1.00  0.00    -0.307 C  
HETATM   22  O   UNL     1     -10.523   9.502  71.037  1.00  0.00    -0.300 OA 
BRANCH  21  23
HETATM   23  O   UNL     1     -12.135  10.693  69.914  1.00  0.00    -0.303 OA 
BRANCH  23  24
HETATM   24  C   UNL     1     -12.281  11.810  70.767  1.00  0.00    -0.326 C  
BRANCH  24  25
HETATM   25  C   UNL     1     -13.268  11.566  71.888  1.00  0.00    -0.479 C  
BRANCH  25  26
HETATM   26  C   UNL     1     -14.028  12.826  72.295  1.00  0.00    -0.260 C  
BRANCH  26  27
HETATM   27  C   UNL     1     -13.276  14.144  72.057  1.00  0.00    -0.402 C  
BRANCH  27  28
HETATM   28  O   UNL     1     -13.308  14.911  73.241  1.00  0.00    -0.517 OA 
HETATM   29  N   UNL     1     -12.112  15.640  73.444  1.00  0.00    -0.468 N  
HETATM   30  O   UNL     1     -12.112  16.260  74.510  1.00  0.00    -0.442 OA 
HETATM   31  O   UNL     1     -11.250  15.565  72.578  1.00  0.00    -0.321 OA 
ENDBRANCH  27  28
ENDBRANCH  26  27
ENDBRANCH  25  26
ENDBRANCH  24  25
ENDBRANCH  23  24
ENDBRANCH  21  23
ENDBRANCH  20  21
ENDBRANCH  19  20
ENDBRANCH  18  19
ENDBRANCH  17  18
ENDBRANCH  15  16
ENDBRANCH   8  15
ENDBRANCH   5   6
ENDBRANCH   4   5
ENDBRANCH   2   4
BRANCH   2  32
HETATM   32  C   UNL     1      -9.314  20.840  67.362  1.00  0.00    -0.409 C  
BRANCH  32  33
HETATM   33  C   UNL     1      -8.152  20.029  66.801  1.00  0.00    -0.356 C  
BRANCH  33  34
HETATM   34  C   UNL     1      -7.094  19.892  67.847  1.00  0.00    -0.314 A  
HETATM   35  C   UNL     1      -6.085  18.605  69.628  1.00  0.00    -0.271 A  
HETATM   36  C   UNL     1      -5.324  20.855  69.163  1.00  0.00    -0.397 A  
HETATM   37  C   UNL     1      -7.015  18.710  68.598  1.00  0.00    -0.297 A  
HETATM   38  C   UNL     1      -6.250  20.965  68.133  1.00  0.00    -0.374 A  
HETATM   39  C   UNL     1      -5.241  19.677  69.910  1.00  0.00    -0.217 A  
ENDBRANCH  33  34
ENDBRANCH  32  33
ENDBRANCH   2  32
TORSDOF 18
ENDMDL
MODEL      150
REMARK 921   NORMALIZED FREE ENERGY PREDICTED BY IDOCK:   -4.56 KCAL/MOL
REMARK 922        TOTAL FREE ENERGY PREDICTED BY IDOCK:  -14.15 KCAL/MOL
REMARK 923 INTER-LIGAND FREE ENERGY PREDICTED BY IDOCK:  -10.28 KCAL/MOL
REMARK 924 INTRA-LIGAND FREE ENERGY PREDICTED BY IDOCK:   -3.87 KCAL/MOL
REMARK 927      BINDING AFFINITY PREDICTED BY RF-SCORE:    0.00 PKD
ROOT
HETATM    1  O   UNL     1     -12.278  11.579  63.043  1.00  0.00    -0.968 OA 
HETATM    2  C   UNL     1     -11.752  11.986  64.304  1.00  0.00    -0.344 C  
HETATM    3  H   UNL     1     -12.178  10.641  62.933  1.00  0.00     0.000 HD 
ENDROOT
BRANCH   2   4
HETATM    4  C   UNL     1     -11.914  13.509  64.481  1.00  0.00    -0.451 C  
BRANCH   4   5
HETATM    5  C   UNL     1     -12.474  13.949  65.838  1.00  0.00    -0.519 C  
BRANCH   5   6
HETATM    6  C   UNL     1     -11.436  14.413  66.887  1.00  0.00    -0.379 C  
HETATM    7  H   UNL     1     -11.011  15.828  70.627  1.00  0.00     0.000 HD 
HETATM    8  C   UNL     1     -11.949  14.791  68.340  1.00  0.00    -0.270 C  
HETATM    9  C   UNL     1     -10.784  15.709  66.388  1.00  0.00    -0.291 C  
HETATM   10  C   UNL     1     -10.103  16.259  67.607  1.00  0.00    -0.260 C  
HETATM   11  O   UNL     1      -9.828  15.480  65.368  1.00  0.00    -0.322 OA 
HETATM   12  O   UNL     1     -10.380  15.958  69.929  1.00  0.00    -0.288 OA 
HETATM   13  H   UNL     1      -9.424  16.283  65.059  1.00  0.00     0.000 HD 
HETATM   14  C   UNL     1     -11.108  16.052  68.720  1.00  0.00    -0.338 C  
BRANCH   8  15
HETATM   15  C   UNL     1     -11.913  13.634  69.389  1.00  0.00    -0.394 C  
BRANCH  15  16
HETATM   16  C   UNL     1     -11.923  12.229  68.815  1.00  0.00    -0.281 C  
HETATM   17  C   UNL     1     -11.927  11.019  69.410  1.00  0.00    -0.408 C  
BRANCH  17  18
HETATM   18  C   UNL     1     -11.906  10.687  70.874  1.00  0.00    -0.433 C  
BRANCH  18  19
HETATM   19  C   UNL     1     -12.040   9.178  71.132  1.00  0.00    -0.365 C  
BRANCH  19  20
HETATM   20  C   UNL     1     -10.760   8.385  70.899  1.00  0.00    -0.260 C  
BRANCH  20  21
HETATM   21  C   UNL     1      -9.871   8.433  72.103  1.00  0.00    -0.302 C  
HETATM   22  O   UNL     1     -10.182   8.131  73.248  1.00  0.00    -0.242 OA 
BRANCH  21  23
HETATM   23  O   UNL     1      -8.694   9.010  71.736  1.00  0.00    -0.350 OA 
BRANCH  23  24
HETATM   24  C   UNL     1      -7.611   8.335  72.341  1.00  0.00    -0.120 C  
BRANCH  24  25
HETATM   25  C   UNL     1      -7.183   7.104  71.571  1.00  0.00    -0.077 C  
BRANCH  25  26
HETATM   26  C   UNL     1      -6.947   5.893  72.470  1.00  0.00    -0.079 C  
BRANCH  26  27
HETATM   27  C   UNL     1      -7.875   4.698  72.207  1.00  0.00    -0.093 C  
BRANCH  27  28
HETATM   28  O   UNL     1      -9.004   4.799  73.047  1.00  0.00    -0.115 OA 
HETATM   29  N   UNL     1     -10.219   4.773  72.324  1.00  0.00    -0.187 N  
HETATM   30  O   UNL     1     -11.205   4.927  73.050  1.00  0.00    -0.279 OA 
HETATM   31  O   UNL     1     -10.153   4.616  71.111  1.00  0.00    -0.197 OA 
ENDBRANCH  27  28
ENDBRANCH  26  27
ENDBRANCH  25  26
ENDBRANCH  24  25
ENDBRANCH  23  24
ENDBRANCH  21  23
ENDBRANCH  20  21
ENDBRANCH  19  20
ENDBRANCH  18  19
ENDBRANCH  17  18
ENDBRANCH  15  16
ENDBRANCH   8  15
ENDBRANCH   5   6
ENDBRANCH   4   5
ENDBRANCH   2   4
BRANCH   2  32
HETATM   32  C   UNL     1     -10.286  11.576  64.319  1.00  0.00    -0.376 C  
BRANCH  32  33
HETATM   33  C   UNL     1     -10.054  10.342  65.182  1.00  0.00    -0.355 C  
BRANCH  33  34
HETATM   34  C   UNL     1      -9.380  10.746  66.452  1.00  0.00    -0.198 A  
HETATM   35  C   UNL     1      -8.273  12.445  67.769  1.00  0.00    -0.163 A  
HETATM   36  C   UNL     1      -8.384  10.161  68.563  1.00  0.00    -0.116 A  
HETATM   37  C   UNL     1      -8.973  12.077  66.623  1.00  0.00    -0.204 A  
HETATM   38  C   UNL     1      -9.083   9.789  67.421  1.00  0.00    -0.148 A  
HETATM   39  C   UNL     1      -7.979  11.487  68.738  1.00  0.00    -0.107 A  
ENDBRANCH  33  34
ENDBRANCH  32  33
ENDBRANCH   2  32
TORSDOF 18
ENDMDL
MODEL      151
REMARK 921   NORMALIZED FREE ENERGY PREDICTED BY IDOCK:   -4.56 KCAL/MOL
REMARK 922        TOTAL FREE ENERGY PREDICTED BY IDOCK:  -14.13 KCAL/MOL
REMARK 923 INTER-LIGAND FREE ENERGY PREDICTED BY IDOCK:  -10.62 KCAL/MOL
REMARK 924 INTRA-LIGAND FREE ENERGY PREDICTED BY IDOCK:   -3.52 KCAL/MOL
REMARK 927      BINDING AFFINITY PREDICTED BY RF-SCORE:    0.00 PKD
ROOT
HETATM    1  O   UNL     1      -6.249   8.507  69.505  1.00  0.00    -0.036 OA 
HETATM    2  C   UNL     1      -6.750   9.556  68.680  1.00  0.00    -0.052 C  
HETATM    3  H   UNL     1      -5.411   8.203  69.177  1.00  0.00     0.000 HD 
ENDROOT
BRANCH   2   4
HETATM    4  C   UNL     1      -8.110  10.049  69.212  1.00  0.00    -0.141 C  
BRANCH   4   5
HETATM    5  C   UNL     1      -8.592   9.365  70.495  1.00  0.00    -0.265 C  
BRANCH   5   6
HETATM    6  C   UNL     1     -10.093   8.996  70.550  1.00  0.00    -0.263 C  
HETATM    7  H   UNL     1     -13.799  10.521  70.896  1.00  0.00     0.000 HD 
HETATM    8  C   UNL     1     -11.158  10.173  70.599  1.00  0.00    -0.397 C  
HETATM    9  C   UNL     1     -10.358   8.219  71.846  1.00  0.00    -0.255 C  
HETATM   10  C   UNL     1     -11.853   8.248  71.981  1.00  0.00    -0.408 C  
HETATM   11  O   UNL     1      -9.910   6.878  71.778  1.00  0.00    -0.165 OA 
HETATM   12  O   UNL     1     -13.560   9.631  71.127  1.00  0.00    -0.340 OA 
HETATM   13  H   UNL     1     -10.074   6.397  72.580  1.00  0.00     0.000 HD 
HETATM   14  C   UNL     1     -12.233   9.667  71.612  1.00  0.00    -0.402 C  
BRANCH   8  15
HETATM   15  C   UNL     1     -11.720  10.629  69.214  1.00  0.00    -0.336 C  
BRANCH  15  16
HETATM   16  C   UNL     1     -11.094  11.884  68.633  1.00  0.00    -0.295 C  
HETATM   17  C   UNL     1     -10.748  12.210  67.372  1.00  0.00    -0.268 C  
BRANCH  17  18
HETATM   18  C   UNL     1     -10.872  11.392  66.118  1.00  0.00    -0.310 C  
BRANCH  18  19
HETATM   19  C   UNL     1     -10.224  12.081  64.906  1.00  0.00    -0.302 C  
BRANCH  19  20
HETATM   20  C   UNL     1     -11.011  11.941  63.609  1.00  0.00    -0.511 C  
BRANCH  20  21
HETATM   21  C   UNL     1     -12.373  12.550  63.737  1.00  0.00    -0.502 C  
HETATM   22  O   UNL     1     -13.410  11.958  64.011  1.00  0.00    -0.646 OA 
BRANCH  21  23
HETATM   23  O   UNL     1     -12.290  13.854  63.356  1.00  0.00    -0.760 OA 
BRANCH  23  24
HETATM   24  C   UNL     1     -12.386  14.698  64.484  1.00  0.00    -0.398 C  
BRANCH  24  25
HETATM   25  C   UNL     1     -11.221  15.656  64.600  1.00  0.00    -0.380 C  
BRANCH  25  26
HETATM   26  C   UNL     1     -10.631  15.707  66.008  1.00  0.00    -0.336 C  
BRANCH  26  27
HETATM   27  C   UNL     1      -9.165  16.158  66.081  1.00  0.00    -0.347 C  
BRANCH  27  28
HETATM   28  O   UNL     1      -8.974  16.905  67.263  1.00  0.00    -0.200 OA 
HETATM   29  N   UNL     1      -7.729  16.632  67.878  1.00  0.00    -0.159 N  
HETATM   30  O   UNL     1      -7.587  17.234  68.945  1.00  0.00    -0.258 OA 
HETATM   31  O   UNL     1      -6.975  15.854  67.308  1.00  0.00    -0.179 OA 
ENDBRANCH  27  28
ENDBRANCH  26  27
ENDBRANCH  25  26
ENDBRANCH  24  25
ENDBRANCH  23  24
ENDBRANCH  21  23
ENDBRANCH  20  21
ENDBRANCH  19  20
ENDBRANCH  18  19
ENDBRANCH  17  18
ENDBRANCH  15  16
ENDBRANCH   8  15
ENDBRANCH   5   6
ENDBRANCH   4   5
ENDBRANCH   2   4
BRANCH   2  32
HETATM   32  C   UNL     1      -6.875   8.985  67.274  1.00  0.00    -0.077 C  
BRANCH  32  33
HETATM   33  C   UNL     1      -8.288   9.144  66.724  1.00  0.00    -0.123 C  
BRANCH  33  34
HETATM   34  C   UNL     1      -9.006   7.838  66.823  1.00  0.00    -0.163 A  
HETATM   35  C   UNL     1     -11.065   6.617  67.159  1.00  0.00    -0.427 A  
HETATM   36  C   UNL     1      -8.956   5.439  67.015  1.00  0.00    -0.112 A  
HETATM   37  C   UNL     1     -10.399   7.827  66.985  1.00  0.00    -0.405 A  
HETATM   38  C   UNL     1      -8.286   6.644  66.841  1.00  0.00    -0.113 A  
HETATM   39  C   UNL     1     -10.344   5.425  67.174  1.00  0.00    -0.288 A  
ENDBRANCH  33  34
ENDBRANCH  32  33
ENDBRANCH   2  32
TORSDOF 18
ENDMDL
MODEL      152
REMARK 921   NORMALIZED FREE ENERGY PREDICTED BY IDOCK:   -4.55 KCAL/MOL
REMARK 922        TOTAL FREE ENERGY PREDICTED BY IDOCK:  -14.13 KCAL/MOL
REMARK 923 INTER-LIGAND FREE ENERGY PREDICTED BY IDOCK:  -10.21 KCAL/MOL
REMARK 924 INTRA-LIGAND FREE ENERGY PREDICTED BY IDOCK:   -3.92 KCAL/MOL
REMARK 927      BINDING AFFINITY PREDICTED BY RF-SCORE:    0.00 PKD
ROOT
HETATM    1  O   UNL     1      -8.686  10.719  69.509  1.00  0.00    -0.381 OA 
HETATM    2  C   UNL     1      -9.199   9.849  68.502  1.00  0.00    -0.136 C  
HETATM    3  H   UNL     1      -9.369  10.937  70.133  1.00  0.00     0.000 HD 
ENDROOT
BRANCH   2   4
HETATM    4  C   UNL     1      -8.091   9.494  67.491  1.00  0.00    -0.110 C  
BRANCH   4   5
HETATM    5  C   UNL     1      -8.397   8.297  66.585  1.00  0.00    -0.111 C  
BRANCH   5   6
HETATM    6  C   UNL     1      -8.811   6.989  67.298  1.00  0.00    -0.119 C  
HETATM    7  H   UNL     1      -7.829   3.123  67.815  1.00  0.00     0.000 HD 
HETATM    8  C   UNL     1      -7.864   5.722  67.161  1.00  0.00    -0.102 C  
HETATM    9  C   UNL     1     -10.141   6.509  66.703  1.00  0.00    -0.137 C  
HETATM   10  C   UNL     1     -10.251   5.088  67.173  1.00  0.00    -0.234 C  
HETATM   11  O   UNL     1     -11.248   7.255  67.172  1.00  0.00    -0.568 OA 
HETATM   12  O   UNL     1      -8.705   3.475  67.927  1.00  0.00    -0.095 OA 
HETATM   13  H   UNL     1     -12.072   6.958  66.803  1.00  0.00     0.000 HD 
HETATM   14  C   UNL     1      -8.855   4.527  66.995  1.00  0.00    -0.112 C  
BRANCH   8  15
HETATM   15  C   UNL     1      -6.806   5.548  68.298  1.00  0.00    -0.060 C  
BRANCH  15  16
HETATM   16  C   UNL     1      -6.285   6.835  68.911  1.00  0.00    -0.027 C  
HETATM   17  C   UNL     1      -6.452   7.374  70.135  1.00  0.00    -0.035 C  
BRANCH  17  18
HETATM   18  C   UNL     1      -7.246   6.851  71.298  1.00  0.00    -0.076 C  
BRANCH  18  19
HETATM   19  C   UNL     1      -8.723   7.270  71.231  1.00  0.00    -0.127 C  
BRANCH  19  20
HETATM   20  C   UNL     1      -9.681   6.138  70.882  1.00  0.00    -0.203 C  
BRANCH  20  21
HETATM   21  C   UNL     1     -11.090   6.635  70.790  1.00  0.00    -0.286 C  
HETATM   22  O   UNL     1     -11.894   6.380  69.902  1.00  0.00    -0.384 OA 
BRANCH  21  23
HETATM   23  O   UNL     1     -11.284   7.541  71.787  1.00  0.00    -0.238 OA 
BRANCH  23  24
HETATM   24  C   UNL     1     -12.663   7.809  71.939  1.00  0.00    -0.302 C  
BRANCH  24  25
HETATM   25  C   UNL     1     -12.994   9.279  71.796  1.00  0.00    -0.471 C  
BRANCH  25  26
HETATM   26  C   UNL     1     -11.937  10.052  71.011  1.00  0.00    -0.469 C  
BRANCH  26  27
HETATM   27  C   UNL     1     -12.168  11.568  70.932  1.00  0.00    -0.322 C  
BRANCH  27  28
HETATM   28  O   UNL     1     -13.135  11.937  71.890  1.00  0.00    -0.458 OA 
HETATM   29  N   UNL     1     -13.414  13.324  71.870  1.00  0.00    -0.442 N  
HETATM   30  O   UNL     1     -14.210  13.659  72.751  1.00  0.00    -0.676 OA 
HETATM   31  O   UNL     1     -12.848  14.002  71.022  1.00  0.00    -0.328 OA 
ENDBRANCH  27  28
ENDBRANCH  26  27
ENDBRANCH  25  26
ENDBRANCH  24  25
ENDBRANCH  23  24
ENDBRANCH  21  23
ENDBRANCH  20  21
ENDBRANCH  19  20
ENDBRANCH  18  19
ENDBRANCH  17  18
ENDBRANCH  15  16
ENDBRANCH   8  15
ENDBRANCH   5   6
ENDBRANCH   4   5
ENDBRANCH   2   4
BRANCH   2  32
HETATM   32  C   UNL     1     -10.351  10.585  67.833  1.00  0.00    -0.226 C  
BRANCH  32  33
HETATM   33  C   UNL     1      -9.878  11.851  67.128  1.00  0.00    -0.206 C  
BRANCH  33  34
HETATM   34  C   UNL     1     -10.624  12.009  65.843  1.00  0.00    -0.302 A  
HETATM   35  C   UNL     1     -12.615  12.714  64.668  1.00  0.00    -0.517 A  
HETATM   36  C   UNL     1     -10.853  11.543  63.493  1.00  0.00    -0.473 A  
HETATM   37  C   UNL     1     -11.879  12.634  65.847  1.00  0.00    -0.499 A  
HETATM   38  C   UNL     1     -10.113  11.462  64.667  1.00  0.00    -0.330 A  
HETATM   39  C   UNL     1     -12.102  12.168  63.493  1.00  0.00    -0.649 A  
ENDBRANCH  33  34
ENDBRANCH  32  33
ENDBRANCH   2  32
TORSDOF 18
ENDMDL
MODEL      153
REMARK 921   NORMALIZED FREE ENERGY PREDICTED BY IDOCK:   -4.55 KCAL/MOL
REMARK 922        TOTAL FREE ENERGY PREDICTED BY IDOCK:  -14.12 KCAL/MOL
REMARK 923 INTER-LIGAND FREE ENERGY PREDICTED BY IDOCK:  -10.30 KCAL/MOL
REMARK 924 INTRA-LIGAND FREE ENERGY PREDICTED BY IDOCK:   -3.82 KCAL/MOL
REMARK 927      BINDING AFFINITY PREDICTED BY RF-SCORE:    0.00 PKD
ROOT
HETATM    1  O   UNL     1      -8.068   4.592  68.082  1.00  0.00    -0.086 OA 
HETATM    2  C   UNL     1      -9.347   5.101  67.711  1.00  0.00    -0.123 C  
HETATM    3  H   UNL     1      -8.146   3.691  68.375  1.00  0.00     0.000 HD 
ENDROOT
BRANCH   2   4
HETATM    4  C   UNL     1      -9.220   6.562  67.235  1.00  0.00    -0.124 C  
BRANCH   4   5
HETATM    5  C   UNL     1      -7.852   7.208  67.477  1.00  0.00    -0.112 C  
BRANCH   5   6
HETATM    6  C   UNL     1      -7.752   8.163  68.689  1.00  0.00    -0.112 C  
HETATM    7  H   UNL     1      -6.494  11.799  69.861  1.00  0.00     0.000 HD 
HETATM    8  C   UNL     1      -7.191   9.629  68.451  1.00  0.00    -0.074 C  
HETATM    9  C   UNL     1      -6.770   7.563  69.704  1.00  0.00    -0.040 C  
HETATM   10  C   UNL     1      -6.462   8.708  70.624  1.00  0.00    -0.040 C  
HETATM   11  O   UNL     1      -7.333   6.495  70.441  1.00  0.00    -0.080 OA 
HETATM   12  O   UNL     1      -6.603  11.055  70.442  1.00  0.00    -0.273 OA 
HETATM   13  H   UNL     1      -6.725   6.123  71.069  1.00  0.00     0.000 HD 
HETATM   14  C   UNL     1      -6.289   9.894  69.698  1.00  0.00    -0.049 C  
BRANCH   8  15
HETATM   15  C   UNL     1      -8.269  10.725  68.172  1.00  0.00    -0.119 C  
BRANCH  15  16
HETATM   16  C   UNL     1      -9.660  10.209  67.852  1.00  0.00    -0.166 C  
HETATM   17  C   UNL     1     -10.264   9.931  66.680  1.00  0.00    -0.293 C  
BRANCH  17  18
HETATM   18  C   UNL     1      -9.725  10.067  65.284  1.00  0.00    -0.373 C  
BRANCH  18  19
HETATM   19  C   UNL     1     -10.661  10.879  64.374  1.00  0.00    -0.343 C  
BRANCH  19  20
HETATM   20  C   UNL     1     -10.920  12.302  64.851  1.00  0.00    -0.344 C  
BRANCH  20  21
HETATM   21  C   UNL     1     -12.383  12.618  64.833  1.00  0.00    -0.498 C  
HETATM   22  O   UNL     1     -13.205  12.206  64.023  1.00  0.00    -0.728 OA 
BRANCH  21  23
HETATM   23  O   UNL     1     -12.624  13.560  65.785  1.00  0.00    -0.464 OA 
BRANCH  23  24
HETATM   24  C   UNL     1     -11.687  13.441  66.835  1.00  0.00    -0.389 C  
BRANCH  24  25
HETATM   25  C   UNL     1     -11.766  14.583  67.825  1.00  0.00    -0.403 C  
BRANCH  25  26
HETATM   26  C   UNL     1     -12.139  14.124  69.233  1.00  0.00    -0.364 C  
BRANCH  26  27
HETATM   27  C   UNL     1     -11.846  15.141  70.345  1.00  0.00    -0.307 C  
BRANCH  27  28
HETATM   28  O   UNL     1     -13.024  15.360  71.089  1.00  0.00    -0.414 OA 
HETATM   29  N   UNL     1     -12.756  15.785  72.412  1.00  0.00    -0.425 N  
HETATM   30  O   UNL     1     -13.782  15.915  73.084  1.00  0.00    -0.576 OA 
HETATM   31  O   UNL     1     -11.585  15.958  72.724  1.00  0.00    -0.419 OA 
ENDBRANCH  27  28
ENDBRANCH  26  27
ENDBRANCH  25  26
ENDBRANCH  24  25
ENDBRANCH  23  24
ENDBRANCH  21  23
ENDBRANCH  20  21
ENDBRANCH  19  20
ENDBRANCH  18  19
ENDBRANCH  17  18
ENDBRANCH  15  16
ENDBRANCH   8  15
ENDBRANCH   5   6
ENDBRANCH   4   5
ENDBRANCH   2   4
BRANCH   2  32
HETATM   32  C   UNL     1     -10.236   4.990  68.941  1.00  0.00    -0.184 C  
BRANCH  32  33
HETATM   33  C   UNL     1     -11.088   6.239  69.136  1.00  0.00    -0.457 C  
BRANCH  33  34
HETATM   34  C   UNL     1     -10.808   6.823  70.482  1.00  0.00    -0.301 A  
HETATM   35  C   UNL     1     -10.527   6.518  72.864  1.00  0.00    -0.246 A  
HETATM   36  C   UNL     1     -10.553   8.743  71.911  1.00  0.00    -0.425 A  
HETATM   37  C   UNL     1     -10.708   5.976  71.595  1.00  0.00    -0.303 A  
HETATM   38  C   UNL     1     -10.733   8.206  70.642  1.00  0.00    -0.238 A  
HETATM   39  C   UNL     1     -10.450   7.901  73.021  1.00  0.00    -0.410 A  
ENDBRANCH  33  34
ENDBRANCH  32  33
ENDBRANCH   2  32
TORSDOF 18
ENDMDL
MODEL      154
REMARK 921   NORMALIZED FREE ENERGY PREDICTED BY IDOCK:   -4.55 KCAL/MOL
REMARK 922        TOTAL FREE ENERGY PREDICTED BY IDOCK:  -14.12 KCAL/MOL
REMARK 923 INTER-LIGAND FREE ENERGY PREDICTED BY IDOCK:  -11.47 KCAL/MOL
REMARK 924 INTRA-LIGAND FREE ENERGY PREDICTED BY IDOCK:   -2.66 KCAL/MOL
REMARK 927      BINDING AFFINITY PREDICTED BY RF-SCORE:    0.00 PKD
ROOT
HETATM    1  O   UNL     1      -8.952   7.519  68.213  1.00  0.00    -0.131 OA 
HETATM    2  C   UNL     1      -8.537   8.864  67.983  1.00  0.00    -0.130 C  
HETATM    3  H   UNL     1      -8.545   6.938  67.582  1.00  0.00     0.000 HD 
ENDROOT
BRANCH   2   4
HETATM    4  C   UNL     1      -9.198   9.807  69.008  1.00  0.00    -0.165 C  
BRANCH   4   5
HETATM    5  C   UNL     1      -9.577   9.155  70.342  1.00  0.00    -0.268 C  
BRANCH   5   6
HETATM    6  C   UNL     1     -11.058   8.737  70.500  1.00  0.00    -0.278 C  
HETATM    7  H   UNL     1     -14.470   9.558  72.464  1.00  0.00     0.000 HD 
HETATM    8  C   UNL     1     -11.989   9.602  71.452  1.00  0.00    -0.480 C  
HETATM    9  C   UNL     1     -11.105   7.338  71.127  1.00  0.00    -0.253 C  
HETATM   10  C   UNL     1     -12.529   7.196  71.578  1.00  0.00    -0.418 C  
HETATM   11  O   UNL     1     -10.791   6.315  70.201  1.00  0.00    -0.254 OA 
HETATM   12  O   UNL     1     -14.261   8.715  72.080  1.00  0.00    -0.427 OA 
HETATM   13  H   UNL     1     -10.820   5.448  70.589  1.00  0.00     0.000 HD 
HETATM   14  C   UNL     1     -12.862   8.539  72.191  1.00  0.00    -0.369 C  
BRANCH   8  15
HETATM   15  C   UNL     1     -12.792  10.743  70.750  1.00  0.00    -0.408 C  
BRANCH  15  16
HETATM   16  C   UNL     1     -12.704  12.108  71.409  1.00  0.00    -0.368 C  
HETATM   17  C   UNL     1     -12.485  13.336  70.899  1.00  0.00    -0.424 C  
BRANCH  17  18
HETATM   18  C   UNL     1     -12.239  13.735  69.472  1.00  0.00    -0.344 C  
BRANCH  18  19
HETATM   19  C   UNL     1     -10.762  14.065  69.204  1.00  0.00    -0.198 C  
BRANCH  19  20
HETATM   20  C   UNL     1     -10.434  15.552  69.238  1.00  0.00    -0.245 C  
BRANCH  20  21
HETATM   21  C   UNL     1      -9.085  15.819  68.645  1.00  0.00    -0.204 C  
HETATM   22  O   UNL     1      -8.326  14.988  68.163  1.00  0.00    -0.135 OA 
BRANCH  21  23
HETATM   23  O   UNL     1      -8.780  17.127  68.863  1.00  0.00    -0.259 OA 
BRANCH  23  24
HETATM   24  C   UNL     1      -7.542  17.445  68.262  1.00  0.00    -0.234 C  
BRANCH  24  25
HETATM   25  C   UNL     1      -6.966  18.753  68.760  1.00  0.00    -0.329 C  
BRANCH  25  26
HETATM   26  C   UNL     1      -7.010  19.860  67.709  1.00  0.00    -0.298 C  
BRANCH  26  27
HETATM   27  C   UNL     1      -8.419  20.288  67.275  1.00  0.00    -0.347 C  
BRANCH  27  28
HETATM   28  O   UNL     1      -8.847  19.457  66.219  1.00  0.00    -0.348 OA 
HETATM   29  N   UNL     1     -10.184  19.023  66.382  1.00  0.00    -0.408 N  
HETATM   30  O   UNL     1     -10.540  18.244  65.494  1.00  0.00    -0.632 OA 
HETATM   31  O   UNL     1     -10.803  19.448  67.349  1.00  0.00    -0.490 OA 
ENDBRANCH  27  28
ENDBRANCH  26  27
ENDBRANCH  25  26
ENDBRANCH  24  25
ENDBRANCH  23  24
ENDBRANCH  21  23
ENDBRANCH  20  21
ENDBRANCH  19  20
ENDBRANCH  18  19
ENDBRANCH  17  18
ENDBRANCH  15  16
ENDBRANCH   8  15
ENDBRANCH   5   6
ENDBRANCH   4   5
ENDBRANCH   2   4
BRANCH   2  32
HETATM   32  C   UNL     1      -8.947   9.211  66.560  1.00  0.00    -0.178 C  
BRANCH  32  33
HETATM   33  C   UNL     1     -10.412   9.627  66.480  1.00  0.00    -0.213 C  
BRANCH  33  34
HETATM   34  C   UNL     1     -10.533  10.852  65.635  1.00  0.00    -0.274 A  
HETATM   35  C   UNL     1     -11.204  13.164  65.407  1.00  0.00    -0.315 A  
HETATM   36  C   UNL     1     -10.445  11.916  63.478  1.00  0.00    -0.505 A  
HETATM   37  C   UNL     1     -11.013  12.040  66.206  1.00  0.00    -0.340 A  
HETATM   38  C   UNL     1     -10.252  10.791  64.270  1.00  0.00    -0.422 A  
HETATM   39  C   UNL     1     -10.920  13.101  64.045  1.00  0.00    -0.377 A  
ENDBRANCH  33  34
ENDBRANCH  32  33
ENDBRANCH   2  32
TORSDOF 18
ENDMDL
MODEL      155
REMARK 921   NORMALIZED FREE ENERGY PREDICTED BY IDOCK:   -4.55 KCAL/MOL
REMARK 922        TOTAL FREE ENERGY PREDICTED BY IDOCK:  -14.12 KCAL/MOL
REMARK 923 INTER-LIGAND FREE ENERGY PREDICTED BY IDOCK:  -10.99 KCAL/MOL
REMARK 924 INTRA-LIGAND FREE ENERGY PREDICTED BY IDOCK:   -3.13 KCAL/MOL
REMARK 927      BINDING AFFINITY PREDICTED BY RF-SCORE:    0.00 PKD
ROOT
HETATM    1  O   UNL     1     -12.500  10.884  68.867  1.00  0.00    -0.745 OA 
HETATM    2  C   UNL     1     -11.331  10.862  68.051  1.00  0.00    -0.312 C  
HETATM    3  H   UNL     1     -13.183  11.395  68.448  1.00  0.00     0.000 HD 
ENDROOT
BRANCH   2   4
HETATM    4  C   UNL     1     -10.224  10.033  68.730  1.00  0.00    -0.201 C  
BRANCH   4   5
HETATM    5  C   UNL     1     -10.301   9.974  70.260  1.00  0.00    -0.301 C  
BRANCH   5   6
HETATM    6  C   UNL     1     -10.206   8.566  70.894  1.00  0.00    -0.246 C  
HETATM    7  H   UNL     1     -12.377   5.514  72.359  1.00  0.00     0.000 HD 
HETATM    8  C   UNL     1     -11.552   7.774  71.178  1.00  0.00    -0.301 C  
HETATM    9  C   UNL     1      -9.568   8.700  72.283  1.00  0.00    -0.278 C  
HETATM   10  C   UNL     1      -9.868   7.385  72.942  1.00  0.00    -0.253 C  
HETATM   11  O   UNL     1      -8.168   8.897  72.223  1.00  0.00    -0.379 OA 
HETATM   12  O   UNL     1     -11.474   5.694  72.596  1.00  0.00    -0.296 OA 
HETATM   13  H   UNL     1      -7.774   8.980  73.083  1.00  0.00     0.000 HD 
HETATM   14  C   UNL     1     -11.306   7.098  72.564  1.00  0.00    -0.279 C  
BRANCH   8  15
HETATM   15  C   UNL     1     -12.014   6.804  70.044  1.00  0.00    -0.179 C  
BRANCH  15  16
HETATM   16  C   UNL     1     -10.928   5.924  69.452  1.00  0.00    -0.421 C  
HETATM   17  C   UNL     1     -10.319   5.941  68.249  1.00  0.00    -0.263 C  
BRANCH  17  18
HETATM   18  C   UNL     1     -10.552   6.861  67.085  1.00  0.00    -0.408 C  
BRANCH  18  19
HETATM   19  C   UNL     1      -9.308   7.002  66.194  1.00  0.00    -0.090 C  
BRANCH  19  20
HETATM   20  C   UNL     1      -8.890   8.442  65.922  1.00  0.00    -0.212 C  
BRANCH  20  21
HETATM   21  C   UNL     1      -7.581   8.495  65.198  1.00  0.00    -0.094 C  
HETATM   22  O   UNL     1      -6.622   7.755  65.377  1.00  0.00    -0.044 OA 
BRANCH  21  23
HETATM   23  O   UNL     1      -7.582   9.600  64.405  1.00  0.00    -0.117 OA 
BRANCH  23  24
HETATM   24  C   UNL     1      -8.632   9.523  63.463  1.00  0.00    -0.213 C  
BRANCH  24  25
HETATM   25  C   UNL     1      -9.243  10.872  63.154  1.00  0.00    -0.314 C  
BRANCH  25  26
HETATM   26  C   UNL     1     -10.228  11.338  64.223  1.00  0.00    -0.383 C  
BRANCH  26  27
HETATM   27  C   UNL     1     -11.528  11.952  63.686  1.00  0.00    -0.461 C  
BRANCH  27  28
HETATM   28  O   UNL     1     -12.336  12.344  64.774  1.00  0.00    -0.453 OA 
HETATM   29  N   UNL     1     -12.758  13.691  64.676  1.00  0.00    -0.216 N  
HETATM   30  O   UNL     1     -13.410  14.055  65.658  1.00  0.00    -0.636 OA 
HETATM   31  O   UNL     1     -12.432  14.314  63.674  1.00  0.00    -0.816 OA 
ENDBRANCH  27  28
ENDBRANCH  26  27
ENDBRANCH  25  26
ENDBRANCH  24  25
ENDBRANCH  23  24
ENDBRANCH  21  23
ENDBRANCH  20  21
ENDBRANCH  19  20
ENDBRANCH  18  19
ENDBRANCH  17  18
ENDBRANCH  15  16
ENDBRANCH   8  15
ENDBRANCH   5   6
ENDBRANCH   4   5
ENDBRANCH   2   4
BRANCH   2  32
HETATM   32  C   UNL     1     -10.905  12.311  67.860  1.00  0.00    -0.252 C  
BRANCH  32  33
HETATM   33  C   UNL     1      -9.414  12.426  67.561  1.00  0.00    -0.187 C  
BRANCH  33  34
HETATM   34  C   UNL     1      -9.087  13.842  67.217  1.00  0.00    -0.232 A  
HETATM   35  C   UNL     1      -9.750  15.950  66.237  1.00  0.00    -0.332 A  
HETATM   36  C   UNL     1      -7.477  15.616  66.996  1.00  0.00    -0.228 A  
HETATM   37  C   UNL     1     -10.070  14.655  66.634  1.00  0.00    -0.277 A  
HETATM   38  C   UNL     1      -7.791  14.323  67.394  1.00  0.00    -0.207 A  
HETATM   39  C   UNL     1      -8.454  16.430  66.418  1.00  0.00    -0.364 A  
ENDBRANCH  33  34
ENDBRANCH  32  33
ENDBRANCH   2  32
TORSDOF 18
ENDMDL
MODEL      156
REMARK 921   NORMALIZED FREE ENERGY PREDICTED BY IDOCK:   -4.53 KCAL/MOL
REMARK 922        TOTAL FREE ENERGY PREDICTED BY IDOCK:  -14.08 KCAL/MOL
REMARK 923 INTER-LIGAND FREE ENERGY PREDICTED BY IDOCK:  -11.05 KCAL/MOL
REMARK 924 INTRA-LIGAND FREE ENERGY PREDICTED BY IDOCK:   -3.03 KCAL/MOL
REMARK 927      BINDING AFFINITY PREDICTED BY RF-SCORE:    0.00 PKD
ROOT
HETATM    1  O   UNL     1     -12.348  14.122  63.553  1.00  0.00    -1.065 OA 
HETATM    2  C   UNL     1     -11.042  14.121  64.126  1.00  0.00     0.025 C  
HETATM    3  H   UNL     1     -12.732  14.989  63.612  1.00  0.00     0.000 HD 
ENDROOT
BRANCH   2   4
HETATM    4  C   UNL     1     -10.420  12.715  64.029  1.00  0.00    -0.443 C  
BRANCH   4   5
HETATM    5  C   UNL     1     -11.003  11.678  64.995  1.00  0.00    -0.334 C  
BRANCH   5   6
HETATM    6  C   UNL     1      -9.982  10.890  65.849  1.00  0.00    -0.294 C  
HETATM    7  H   UNL     1      -7.275  11.232  68.803  1.00  0.00     0.000 HD 
HETATM    8  C   UNL     1      -9.234  11.653  67.023  1.00  0.00    -0.185 C  
HETATM    9  C   UNL     1      -8.839  10.425  64.937  1.00  0.00    -0.190 C  
HETATM   10  C   UNL     1      -7.757  10.025  65.897  1.00  0.00    -0.116 C  
HETATM   11  O   UNL     1      -9.200   9.318  64.133  1.00  0.00    -0.432 OA 
HETATM   12  O   UNL     1      -7.267  10.548  68.143  1.00  0.00    -0.084 OA 
HETATM   13  H   UNL     1      -8.492   9.030  63.569  1.00  0.00     0.000 HD 
HETATM   14  C   UNL     1      -7.770  11.114  66.949  1.00  0.00    -0.148 C  
BRANCH   8  15
HETATM   15  C   UNL     1      -9.905  11.545  68.430  1.00  0.00    -0.204 C  
BRANCH  15  16
HETATM   16  C   UNL     1     -11.001  10.501  68.555  1.00  0.00    -0.300 C  
HETATM   17  C   UNL     1     -10.956   9.189  68.860  1.00  0.00    -0.016 C  
BRANCH  17  18
HETATM   18  C   UNL     1      -9.762   8.331  69.166  1.00  0.00    -0.171 C  
BRANCH  18  19
HETATM   19  C   UNL     1     -10.041   6.838  68.932  1.00  0.00    -0.170 C  
BRANCH  19  20
HETATM   20  C   UNL     1     -11.367   6.350  69.502  1.00  0.00    -0.460 C  
BRANCH  20  21
HETATM   21  C   UNL     1     -11.272   6.141  70.981  1.00  0.00    -0.296 C  
HETATM   22  O   UNL     1     -10.489   5.398  71.561  1.00  0.00    -0.217 OA 
BRANCH  21  23
HETATM   23  O   UNL     1     -12.304   6.807  71.569  1.00  0.00    -0.347 OA 
BRANCH  23  24
HETATM   24  C   UNL     1     -11.814   7.906  72.308  1.00  0.00    -0.352 C  
BRANCH  24  25
HETATM   25  C   UNL     1     -12.899   8.895  72.676  1.00  0.00    -0.316 C  
BRANCH  25  26
HETATM   26  C   UNL     1     -13.181   9.907  71.568  1.00  0.00    -0.501 C  
BRANCH  26  27
HETATM   27  C   UNL     1     -13.253  11.370  72.027  1.00  0.00    -0.327 C  
BRANCH  27  28
HETATM   28  O   UNL     1     -12.643  12.189  71.054  1.00  0.00    -0.362 OA 
HETATM   29  N   UNL     1     -13.118  13.521  71.093  1.00  0.00    -0.258 N  
HETATM   30  O   UNL     1     -12.634  14.222  70.201  1.00  0.00    -0.350 OA 
HETATM   31  O   UNL     1     -13.926  13.807  71.967  1.00  0.00    -0.455 OA 
ENDBRANCH  27  28
ENDBRANCH  26  27
ENDBRANCH  25  26
ENDBRANCH  24  25
ENDBRANCH  23  24
ENDBRANCH  21  23
ENDBRANCH  20  21
ENDBRANCH  19  20
ENDBRANCH  18  19
ENDBRANCH  17  18
ENDBRANCH  15  16
ENDBRANCH   8  15
ENDBRANCH   5   6
ENDBRANCH   4   5
ENDBRANCH   2   4
BRANCH   2  32
HETATM   32  C   UNL     1     -11.200  14.564  65.573  1.00  0.00    -0.335 C  
BRANCH  32  33
HETATM   33  C   UNL     1      -9.850  14.767  66.251  1.00  0.00    -0.316 C  
BRANCH  33  34
HETATM   34  C   UNL     1      -9.503  16.219  66.236  1.00  0.00    -0.347 A  
HETATM   35  C   UNL     1      -7.845  17.964  66.471  1.00  0.00    -0.298 A  
HETATM   36  C   UNL     1     -10.185  18.527  66.211  1.00  0.00    -0.446 A  
HETATM   37  C   UNL     1      -8.166  16.611  66.404  1.00  0.00    -0.353 A  
HETATM   38  C   UNL     1     -10.510  17.178  66.143  1.00  0.00    -0.277 A  
HETATM   39  C   UNL     1      -8.854  18.921  66.375  1.00  0.00    -0.310 A  
ENDBRANCH  33  34
ENDBRANCH  32  33
ENDBRANCH   2  32
TORSDOF 18
ENDMDL
MODEL      157
REMARK 921   NORMALIZED FREE ENERGY PREDICTED BY IDOCK:   -4.52 KCAL/MOL
REMARK 922        TOTAL FREE ENERGY PREDICTED BY IDOCK:  -14.06 KCAL/MOL
REMARK 923 INTER-LIGAND FREE ENERGY PREDICTED BY IDOCK:   -9.81 KCAL/MOL
REMARK 924 INTRA-LIGAND FREE ENERGY PREDICTED BY IDOCK:   -4.25 KCAL/MOL
REMARK 927      BINDING AFFINITY PREDICTED BY RF-SCORE:    0.00 PKD
ROOT
HETATM    1  O   UNL     1     -11.422   4.698  65.078  1.00  0.00    -1.052 OA 
HETATM    2  C   UNL     1     -10.533   4.767  66.191  1.00  0.00    -0.290 C  
HETATM    3  H   UNL     1     -11.265   3.903  64.582  1.00  0.00     0.000 HD 
ENDROOT
BRANCH   2   4
HETATM    4  C   UNL     1     -10.789   6.056  66.996  1.00  0.00    -0.413 C  
BRANCH   4   5
HETATM    5  C   UNL     1     -10.956   5.857  68.506  1.00  0.00    -0.277 C  
BRANCH   5   6
HETATM    6  C   UNL     1     -10.844   7.129  69.379  1.00  0.00    -0.225 C  
HETATM    7  H   UNL     1      -8.272   9.439  71.433  1.00  0.00     0.000 HD 
HETATM    8  C   UNL     1      -9.401   7.602  69.842  1.00  0.00    -0.150 C  
HETATM    9  C   UNL     1     -11.582   6.880  70.701  1.00  0.00    -0.353 C  
HETATM   10  C   UNL     1     -11.100   7.986  71.594  1.00  0.00    -0.300 C  
HETATM   11  O   UNL     1     -12.988   6.954  70.563  1.00  0.00    -0.493 OA 
HETATM   12  O   UNL     1      -9.205   9.389  71.606  1.00  0.00    -0.258 OA 
HETATM   13  H   UNL     1     -13.445   6.800  71.382  1.00  0.00     0.000 HD 
HETATM   14  C   UNL     1      -9.613   8.066  71.318  1.00  0.00    -0.156 C  
BRANCH   8  15
HETATM   15  C   UNL     1      -8.707   8.650  68.914  1.00  0.00    -0.131 C  
BRANCH  15  16
HETATM   16  C   UNL     1      -7.577   8.115  68.053  1.00  0.00    -0.106 C  
HETATM   17  C   UNL     1      -7.450   7.998  66.716  1.00  0.00    -0.090 C  
BRANCH  17  18
HETATM   18  C   UNL     1      -8.431   8.360  65.638  1.00  0.00    -0.179 C  
BRANCH  18  19
HETATM   19  C   UNL     1      -8.747   9.864  65.619  1.00  0.00    -0.168 C  
BRANCH  19  20
HETATM   20  C   UNL     1      -9.462  10.340  64.361  1.00  0.00    -0.360 C  
BRANCH  20  21
HETATM   21  C   UNL     1     -10.558  11.303  64.696  1.00  0.00    -0.327 C  
HETATM   22  O   UNL     1     -11.254  11.918  63.898  1.00  0.00    -0.360 OA 
BRANCH  21  23
HETATM   23  O   UNL     1     -10.555  11.494  66.044  1.00  0.00    -0.247 OA 
BRANCH  23  24
HETATM   24  C   UNL     1     -11.690  12.239  66.432  1.00  0.00    -0.365 C  
BRANCH  24  25
HETATM   25  C   UNL     1     -11.766  12.456  67.928  1.00  0.00    -0.421 C  
BRANCH  25  26
HETATM   26  C   UNL     1     -11.470  11.189  68.728  1.00  0.00    -0.366 C  
BRANCH  26  27
HETATM   27  C   UNL     1     -11.775  11.284  70.230  1.00  0.00    -0.324 C  
BRANCH  27  28
HETATM   28  O   UNL     1     -12.029  12.631  70.563  1.00  0.00    -0.325 OA 
HETATM   29  N   UNL     1     -12.974  12.759  71.608  1.00  0.00    -0.352 N  
HETATM   30  O   UNL     1     -13.246  13.936  71.858  1.00  0.00    -0.346 OA 
HETATM   31  O   UNL     1     -13.400  11.729  72.116  1.00  0.00    -0.497 OA 
ENDBRANCH  27  28
ENDBRANCH  26  27
ENDBRANCH  25  26
ENDBRANCH  24  25
ENDBRANCH  23  24
ENDBRANCH  21  23
ENDBRANCH  20  21
ENDBRANCH  19  20
ENDBRANCH  18  19
ENDBRANCH  17  18
ENDBRANCH  15  16
ENDBRANCH   8  15
ENDBRANCH   5   6
ENDBRANCH   4   5
ENDBRANCH   2   4
BRANCH   2  32
HETATM   32  C   UNL     1      -9.121   4.733  65.625  1.00  0.00    -0.145 C  
BRANCH  32  33
HETATM   33  C   UNL     1      -8.337   3.529  66.134  1.00  0.00    -0.102 C  
BRANCH  33  34
HETATM   34  C   UNL     1      -8.221   3.608  67.621  1.00  0.00    -0.091 A  
HETATM   35  C   UNL     1      -8.947   2.870  69.806  1.00  0.00    -0.169 A  
HETATM   36  C   UNL     1      -7.382   4.703  69.593  1.00  0.00    -0.051 A  
HETATM   37  C   UNL     1      -8.989   2.748  68.420  1.00  0.00    -0.194 A  
HETATM   38  C   UNL     1      -7.420   4.586  68.209  1.00  0.00    -0.065 A  
HETATM   39  C   UNL     1      -8.144   3.847  70.391  1.00  0.00    -0.059 A  
ENDBRANCH  33  34
ENDBRANCH  32  33
ENDBRANCH   2  32
TORSDOF 18
ENDMDL
MODEL      158
REMARK 921   NORMALIZED FREE ENERGY PREDICTED BY IDOCK:   -4.50 KCAL/MOL
REMARK 922        TOTAL FREE ENERGY PREDICTED BY IDOCK:  -14.03 KCAL/MOL
REMARK 923 INTER-LIGAND FREE ENERGY PREDICTED BY IDOCK:  -11.03 KCAL/MOL
REMARK 924 INTRA-LIGAND FREE ENERGY PREDICTED BY IDOCK:   -2.99 KCAL/MOL
REMARK 927      BINDING AFFINITY PREDICTED BY RF-SCORE:    0.00 PKD
ROOT
HETATM    1  O   UNL     1      -9.103   7.254  65.234  1.00  0.00    -0.364 OA 
HETATM    2  C   UNL     1      -8.680   8.256  66.156  1.00  0.00    -0.150 C  
HETATM    3  H   UNL     1      -8.545   7.260  64.465  1.00  0.00     0.000 HD 
ENDROOT
BRANCH   2   4
HETATM    4  C   UNL     1      -9.585   8.247  67.403  1.00  0.00    -0.205 C  
BRANCH   4   5
HETATM    5  C   UNL     1     -10.839   7.373  67.291  1.00  0.00    -0.326 C  
BRANCH   5   6
HETATM    6  C   UNL     1     -10.916   6.163  68.251  1.00  0.00    -0.397 C  
HETATM    7  H   UNL     1     -10.227   4.970  72.029  1.00  0.00     0.000 HD 
HETATM    8  C   UNL     1     -10.562   6.391  69.781  1.00  0.00    -0.309 C  
HETATM    9  C   UNL     1      -9.891   5.115  67.798  1.00  0.00    -0.156 C  
HETATM   10  C   UNL     1      -9.779   4.192  68.975  1.00  0.00    -0.188 C  
HETATM   11  O   UNL     1     -10.320   4.391  66.660  1.00  0.00    -0.296 OA 
HETATM   12  O   UNL     1     -10.248   4.389  71.278  1.00  0.00    -0.161 OA 
HETATM   13  H   UNL     1      -9.685   3.742  66.379  1.00  0.00     0.000 HD 
HETATM   14  C   UNL     1      -9.747   5.117  70.173  1.00  0.00    -0.204 C  
BRANCH   8  15
HETATM   15  C   UNL     1     -11.775   6.710  70.712  1.00  0.00    -0.445 C  
BRANCH  15  16
HETATM   16  C   UNL     1     -11.471   7.599  71.905  1.00  0.00    -0.313 C  
HETATM   17  C   UNL     1     -12.204   8.543  72.527  1.00  0.00    -0.383 C  
BRANCH  17  18
HETATM   18  C   UNL     1     -13.589   9.028  72.206  1.00  0.00    -0.540 C  
BRANCH  18  19
HETATM   19  C   UNL     1     -13.611   9.967  70.989  1.00  0.00    -0.168 C  
BRANCH  19  20
HETATM   20  C   UNL     1     -12.699  11.180  71.116  1.00  0.00    -0.510 C  
BRANCH  20  21
HETATM   21  C   UNL     1     -11.832  11.331  69.905  1.00  0.00    -0.360 C  
HETATM   22  O   UNL     1     -10.999  10.527  69.504  1.00  0.00    -0.228 OA 
BRANCH  21  23
HETATM   23  O   UNL     1     -12.021  12.581  69.403  1.00  0.00    -0.298 OA 
BRANCH  23  24
HETATM   24  C   UNL     1     -11.820  13.547  70.413  1.00  0.00    -0.220 C  
BRANCH  24  25
HETATM   25  C   UNL     1     -11.371  14.885  69.866  1.00  0.00    -0.311 C  
BRANCH  25  26
HETATM   26  C   UNL     1     -11.800  15.108  68.418  1.00  0.00    -0.293 C  
BRANCH  26  27
HETATM   27  C   UNL     1     -10.765  15.820  67.536  1.00  0.00    -0.317 C  
BRANCH  27  28
HETATM   28  O   UNL     1      -9.473  15.544  68.030  1.00  0.00    -0.193 OA 
HETATM   29  N   UNL     1      -8.536  15.315  66.994  1.00  0.00    -0.210 N  
HETATM   30  O   UNL     1      -7.421  15.010  67.424  1.00  0.00    -0.183 OA 
HETATM   31  O   UNL     1      -8.928  15.434  65.841  1.00  0.00    -0.278 OA 
ENDBRANCH  27  28
ENDBRANCH  26  27
ENDBRANCH  25  26
ENDBRANCH  24  25
ENDBRANCH  23  24
ENDBRANCH  21  23
ENDBRANCH  20  21
ENDBRANCH  19  20
ENDBRANCH  18  19
ENDBRANCH  17  18
ENDBRANCH  15  16
ENDBRANCH   8  15
ENDBRANCH   5   6
ENDBRANCH   4   5
ENDBRANCH   2   4
BRANCH   2  32
HETATM   32  C   UNL     1      -8.755   9.587  65.421  1.00  0.00    -0.190 C  
BRANCH  32  33
HETATM   33  C   UNL     1      -9.337  10.686  66.303  1.00  0.00    -0.199 C  
BRANCH  33  34
HETATM   34  C   UNL     1     -10.323  11.483  65.513  1.00  0.00    -0.322 A  
HETATM   35  C   UNL     1     -12.389  12.735  65.424  1.00  0.00    -0.528 A  
HETATM   36  C   UNL     1     -11.163  12.254  63.394  1.00  0.00    -0.497 A  
HETATM   37  C   UNL     1     -11.424  12.059  66.164  1.00  0.00    -0.401 A  
HETATM   38  C   UNL     1     -10.195  11.579  64.128  1.00  0.00    -0.374 A  
HETATM   39  C   UNL     1     -12.258  12.831  64.040  1.00  0.00    -0.518 A  
ENDBRANCH  33  34
ENDBRANCH  32  33
ENDBRANCH   2  32
TORSDOF 18
ENDMDL
MODEL      159
REMARK 921   NORMALIZED FREE ENERGY PREDICTED BY IDOCK:   -4.50 KCAL/MOL
REMARK 922        TOTAL FREE ENERGY PREDICTED BY IDOCK:  -14.01 KCAL/MOL
REMARK 923 INTER-LIGAND FREE ENERGY PREDICTED BY IDOCK:  -11.17 KCAL/MOL
REMARK 924 INTRA-LIGAND FREE ENERGY PREDICTED BY IDOCK:   -2.84 KCAL/MOL
REMARK 927      BINDING AFFINITY PREDICTED BY RF-SCORE:    0.00 PKD
ROOT
HETATM    1  O   UNL     1     -12.527  14.997  64.153  1.00  0.00    -0.809 OA 
HETATM    2  C   UNL     1     -11.506  14.399  64.951  1.00  0.00    -0.386 C  
HETATM    3  H   UNL     1     -12.950  15.698  64.635  1.00  0.00     0.000 HD 
ENDROOT
BRANCH   2   4
HETATM    4  C   UNL     1     -10.819  13.262  64.170  1.00  0.00    -0.369 C  
BRANCH   4   5
HETATM    5  C   UNL     1     -11.339  11.854  64.479  1.00  0.00    -0.382 C  
BRANCH   5   6
HETATM    6  C   UNL     1     -10.267  10.755  64.659  1.00  0.00    -0.419 C  
HETATM    7  H   UNL     1      -6.924   9.780  66.672  1.00  0.00     0.000 HD 
HETATM    8  C   UNL     1      -9.167  10.951  65.786  1.00  0.00    -0.224 C  
HETATM    9  C   UNL     1      -9.444  10.661  63.367  1.00  0.00    -0.319 C  
HETATM   10  C   UNL     1      -8.234   9.870  63.771  1.00  0.00    -0.158 C  
HETATM   11  O   UNL     1     -10.132   9.986  62.330  1.00  0.00    -0.613 OA 
HETATM   12  O   UNL     1      -7.165   9.422  65.825  1.00  0.00    -0.091 OA 
HETATM   13  H   UNL     1      -9.622   9.928  61.531  1.00  0.00     0.000 HD 
HETATM   14  C   UNL     1      -7.850  10.439  65.121  1.00  0.00    -0.122 C  
BRANCH   8  15
HETATM   15  C   UNL     1      -9.500  10.305  67.170  1.00  0.00    -0.184 C  
BRANCH  15  16
HETATM   16  C   UNL     1     -10.630   9.292  67.165  1.00  0.00    -0.286 C  
HETATM   17  C   UNL     1     -10.625   7.945  67.119  1.00  0.00    -0.383 C  
BRANCH  17  18
HETATM   18  C   UNL     1      -9.454   7.008  67.040  1.00  0.00    -0.184 C  
BRANCH  18  19
HETATM   19  C   UNL     1      -9.701   5.700  67.807  1.00  0.00    -0.140 C  
BRANCH  19  20
HETATM   20  C   UNL     1     -10.033   5.889  69.282  1.00  0.00    -0.224 C  
BRANCH  20  21
HETATM   21  C   UNL     1      -8.788   5.932  70.112  1.00  0.00    -0.142 C  
HETATM   22  O   UNL     1      -7.676   5.546  69.775  1.00  0.00    -0.076 OA 
BRANCH  21  23
HETATM   23  O   UNL     1      -9.130   6.342  71.365  1.00  0.00    -0.143 OA 
BRANCH  23  24
HETATM   24  C   UNL     1      -8.593   7.623  71.622  1.00  0.00    -0.116 C  
BRANCH  24  25
HETATM   25  C   UNL     1      -9.412   8.412  72.619  1.00  0.00    -0.335 C  
BRANCH  25  26
HETATM   26  C   UNL     1     -10.767   7.774  72.914  1.00  0.00    -0.446 C  
BRANCH  26  27
HETATM   27  C   UNL     1     -11.900   8.188  71.965  1.00  0.00    -0.338 C  
BRANCH  27  28
HETATM   28  O   UNL     1     -12.490   9.376  72.444  1.00  0.00    -0.301 OA 
HETATM   29  N   UNL     1     -12.525  10.395  71.463  1.00  0.00    -0.398 N  
HETATM   30  O   UNL     1     -12.980  11.456  71.898  1.00  0.00    -0.453 OA 
HETATM   31  O   UNL     1     -12.108  10.119  70.345  1.00  0.00    -0.272 OA 
ENDBRANCH  27  28
ENDBRANCH  26  27
ENDBRANCH  25  26
ENDBRANCH  24  25
ENDBRANCH  23  24
ENDBRANCH  21  23
ENDBRANCH  20  21
ENDBRANCH  19  20
ENDBRANCH  18  19
ENDBRANCH  17  18
ENDBRANCH  15  16
ENDBRANCH   8  15
ENDBRANCH   5   6
ENDBRANCH   4   5
ENDBRANCH   2   4
BRANCH   2  32
HETATM   32  C   UNL     1     -12.184  13.881  66.211  1.00  0.00    -0.498 C  
BRANCH  32  33
HETATM   33  C   UNL     1     -11.170  13.529  67.293  1.00  0.00    -0.319 C  
BRANCH  33  34
HETATM   34  C   UNL     1     -11.425  14.370  68.502  1.00  0.00    -0.326 A  
HETATM   35  C   UNL     1     -10.865  16.296  69.851  1.00  0.00    -0.352 A  
HETATM   36  C   UNL     1     -12.495  14.687  70.634  1.00  0.00    -0.408 A  
HETATM   37  C   UNL     1     -10.690  15.550  68.689  1.00  0.00    -0.252 A  
HETATM   38  C   UNL     1     -12.324  13.939  69.476  1.00  0.00    -0.275 A  
HETATM   39  C   UNL     1     -11.767  15.864  70.822  1.00  0.00    -0.433 A  
ENDBRANCH  33  34
ENDBRANCH  32  33
ENDBRANCH   2  32
TORSDOF 18
ENDMDL
MODEL      160
REMARK 921   NORMALIZED FREE ENERGY PREDICTED BY IDOCK:   -4.49 KCAL/MOL
REMARK 922        TOTAL FREE ENERGY PREDICTED BY IDOCK:  -14.00 KCAL/MOL
REMARK 923 INTER-LIGAND FREE ENERGY PREDICTED BY IDOCK:   -9.10 KCAL/MOL
REMARK 924 INTRA-LIGAND FREE ENERGY PREDICTED BY IDOCK:   -4.90 KCAL/MOL
REMARK 927      BINDING AFFINITY PREDICTED BY RF-SCORE:    0.00 PKD
ROOT
HETATM    1  O   UNL     1     -13.539   8.378  72.361  1.00  0.00    -0.534 OA 
HETATM    2  C   UNL     1     -12.148   8.086  72.252  1.00  0.00    -0.341 C  
HETATM    3  H   UNL     1     -13.952   7.784  72.976  1.00  0.00     0.000 HD 
ENDROOT
BRANCH   2   4
HETATM    4  C   UNL     1     -11.478   9.051  71.254  1.00  0.00    -0.390 C  
BRANCH   4   5
HETATM    5  C   UNL     1      -9.946   9.065  71.289  1.00  0.00    -0.381 C  
BRANCH   5   6
HETATM    6  C   UNL     1      -9.230   8.895  69.929  1.00  0.00    -0.171 C  
HETATM    7  H   UNL     1      -6.531   6.677  67.937  1.00  0.00     0.000 HD 
HETATM    8  C   UNL     1      -8.263   7.651  69.736  1.00  0.00    -0.131 C  
HETATM    9  C   UNL     1      -8.310  10.103  69.709  1.00  0.00    -0.137 C  
HETATM   10  C   UNL     1      -7.408   9.666  68.592  1.00  0.00    -0.074 C  
HETATM   11  O   UNL     1      -9.020  11.266  69.325  1.00  0.00    -0.390 OA 
HETATM   12  O   UNL     1      -6.753   7.575  67.721  1.00  0.00    -0.062 OA 
HETATM   13  H   UNL     1      -8.450  12.013  69.188  1.00  0.00     0.000 HD 
HETATM   14  C   UNL     1      -7.055   8.234  68.935  1.00  0.00    -0.066 C  
BRANCH   8  15
HETATM   15  C   UNL     1      -8.920   6.381  69.106  1.00  0.00    -0.129 C  
BRANCH  15  16
HETATM   16  C   UNL     1     -10.299   6.585  68.507  1.00  0.00    -0.219 C  
HETATM   17  C   UNL     1     -10.703   7.210  67.383  1.00  0.00    -0.368 C  
BRANCH  17  18
HETATM   18  C   UNL     1      -9.879   7.931  66.356  1.00  0.00    -0.217 C  
BRANCH  18  19
HETATM   19  C   UNL     1     -10.280   9.408  66.218  1.00  0.00    -0.284 C  
BRANCH  19  20
HETATM   20  C   UNL     1      -9.762  10.085  64.956  1.00  0.00    -0.386 C  
BRANCH  20  21
HETATM   21  C   UNL     1     -10.623  11.249  64.576  1.00  0.00    -0.336 C  
HETATM   22  O   UNL     1     -11.285  11.360  63.552  1.00  0.00    -0.391 OA 
BRANCH  21  23
HETATM   23  O   UNL     1     -10.434  12.232  65.498  1.00  0.00    -0.250 OA 
BRANCH  23  24
HETATM   24  C   UNL     1     -10.621  13.500  64.903  1.00  0.00    -0.397 C  
BRANCH  24  25
HETATM   25  C   UNL     1     -11.784  14.262  65.501  1.00  0.00    -0.353 C  
BRANCH  25  26
HETATM   26  C   UNL     1     -12.256  13.679  66.831  1.00  0.00    -0.398 C  
BRANCH  26  27
HETATM   27  C   UNL     1     -11.666  14.350  68.080  1.00  0.00    -0.340 C  
BRANCH  27  28
HETATM   28  O   UNL     1     -10.517  13.639  68.484  1.00  0.00    -0.237 OA 
HETATM   29  N   UNL     1      -9.327  14.380  68.290  1.00  0.00    -0.200 N  
HETATM   30  O   UNL     1      -8.316  13.736  68.582  1.00  0.00    -0.145 OA 
HETATM   31  O   UNL     1      -9.436  15.523  67.865  1.00  0.00    -0.200 OA 
ENDBRANCH  27  28
ENDBRANCH  26  27
ENDBRANCH  25  26
ENDBRANCH  24  25
ENDBRANCH  23  24
ENDBRANCH  21  23
ENDBRANCH  20  21
ENDBRANCH  19  20
ENDBRANCH  18  19
ENDBRANCH  17  18
ENDBRANCH  15  16
ENDBRANCH   8  15
ENDBRANCH   5   6
ENDBRANCH   4   5
ENDBRANCH   2   4
BRANCH   2  32
HETATM   32  C   UNL     1     -12.039   6.641  71.789  1.00  0.00    -0.400 C  
BRANCH  32  33
HETATM   33  C   UNL     1     -11.622   5.714  72.925  1.00  0.00    -0.252 C  
BRANCH  33  34
HETATM   34  C   UNL     1     -10.209   5.278  72.714  1.00  0.00    -0.228 A  
HETATM   35  C   UNL     1      -7.843   5.726  72.923  1.00  0.00    -0.104 A  
HETATM   36  C   UNL     1      -8.616   3.773  71.721  1.00  0.00    -0.115 A  
HETATM   37  C   UNL     1      -9.162   6.083  73.186  1.00  0.00    -0.132 A  
HETATM   38  C   UNL     1      -9.935   4.125  71.980  1.00  0.00    -0.250 A  
HETATM   39  C   UNL     1      -7.571   4.572  72.192  1.00  0.00    -0.089 A  
ENDBRANCH  33  34
ENDBRANCH  32  33
ENDBRANCH   2  32
TORSDOF 18
ENDMDL
MODEL      161
REMARK 921   NORMALIZED FREE ENERGY PREDICTED BY IDOCK:   -4.49 KCAL/MOL
REMARK 922        TOTAL FREE ENERGY PREDICTED BY IDOCK:  -13.99 KCAL/MOL
REMARK 923 INTER-LIGAND FREE ENERGY PREDICTED BY IDOCK:  -10.69 KCAL/MOL
REMARK 924 INTRA-LIGAND FREE ENERGY PREDICTED BY IDOCK:   -3.30 KCAL/MOL
REMARK 927      BINDING AFFINITY PREDICTED BY RF-SCORE:    0.00 PKD
ROOT
HETATM    1  O   UNL     1     -12.042  10.222  68.728  1.00  0.00    -0.685 OA 
HETATM    2  C   UNL     1     -10.972  10.443  69.644  1.00  0.00    -0.277 C  
HETATM    3  H   UNL     1     -12.857  10.092  69.200  1.00  0.00     0.000 HD 
ENDROOT
BRANCH   2   4
HETATM    4  C   UNL     1      -9.651  10.654  68.878  1.00  0.00    -0.204 C  
BRANCH   4   5
HETATM    5  C   UNL     1      -8.570   9.600  69.144  1.00  0.00    -0.146 C  
BRANCH   5   6
HETATM    6  C   UNL     1      -8.076   8.805  67.913  1.00  0.00    -0.107 C  
HETATM    7  H   UNL     1      -9.247   6.350  64.951  1.00  0.00     0.000 HD 
HETATM    8  C   UNL     1      -9.150   8.047  67.023  1.00  0.00    -0.170 C  
HETATM    9  C   UNL     1      -7.154   7.679  68.400  1.00  0.00    -0.081 C  
HETATM   10  C   UNL     1      -7.046   6.767  67.212  1.00  0.00    -0.080 C  
HETATM   11  O   UNL     1      -5.868   8.146  68.763  1.00  0.00    -0.040 OA 
HETATM   12  O   UNL     1      -8.361   6.397  65.291  1.00  0.00    -0.145 OA 
HETATM   13  H   UNL     1      -5.297   7.449  69.064  1.00  0.00     0.000 HD 
HETATM   14  C   UNL     1      -8.457   6.692  66.670  1.00  0.00    -0.120 C  
BRANCH   8  15
HETATM   15  C   UNL     1      -9.693   8.848  65.797  1.00  0.00    -0.193 C  
BRANCH  15  16
HETATM   16  C   UNL     1      -8.728   9.848  65.188  1.00  0.00    -0.187 C  
HETATM   17  C   UNL     1      -8.916  10.852  64.308  1.00  0.00    -0.112 C  
BRANCH  17  18
HETATM   18  C   UNL     1     -10.183  11.289  63.631  1.00  0.00    -0.446 C  
BRANCH  18  19
HETATM   19  C   UNL     1     -10.719  12.615  64.195  1.00  0.00    -0.435 C  
BRANCH  19  20
HETATM   20  C   UNL     1     -11.679  12.457  65.367  1.00  0.00    -0.452 C  
BRANCH  20  21
HETATM   21  C   UNL     1     -12.323  13.762  65.715  1.00  0.00    -0.486 C  
HETATM   22  O   UNL     1     -13.405  14.170  65.308  1.00  0.00    -0.715 OA 
BRANCH  21  23
HETATM   23  O   UNL     1     -11.437  14.489  66.448  1.00  0.00    -0.346 OA 
BRANCH  23  24
HETATM   24  C   UNL     1     -11.091  13.789  67.625  1.00  0.00    -0.273 C  
BRANCH  24  25
HETATM   25  C   UNL     1     -12.061  14.036  68.761  1.00  0.00    -0.338 C  
BRANCH  25  26
HETATM   26  C   UNL     1     -11.971  15.453  69.322  1.00  0.00    -0.335 C  
BRANCH  26  27
HETATM   27  C   UNL     1     -12.510  15.621  70.750  1.00  0.00    -0.435 C  
BRANCH  27  28
HETATM   28  O   UNL     1     -13.479  14.625  70.996  1.00  0.00    -0.380 OA 
HETATM   29  N   UNL     1     -13.608  14.327  72.373  1.00  0.00    -0.457 N  
HETATM   30  O   UNL     1     -14.407  13.411  72.585  1.00  0.00    -0.709 OA 
HETATM   31  O   UNL     1     -12.934  14.980  73.159  1.00  0.00    -0.452 OA 
ENDBRANCH  27  28
ENDBRANCH  26  27
ENDBRANCH  25  26
ENDBRANCH  24  25
ENDBRANCH  23  24
ENDBRANCH  21  23
ENDBRANCH  20  21
ENDBRANCH  19  20
ENDBRANCH  18  19
ENDBRANCH  17  18
ENDBRANCH  15  16
ENDBRANCH   8  15
ENDBRANCH   5   6
ENDBRANCH   4   5
ENDBRANCH   2   4
BRANCH   2  32
HETATM   32  C   UNL     1     -10.906   9.218  70.544  1.00  0.00    -0.318 C  
BRANCH  32  33
HETATM   33  C   UNL     1     -11.719   8.058  69.979  1.00  0.00     0.278 C  
BRANCH  33  34
HETATM   34  C   UNL     1     -11.097   6.767  70.400  1.00  0.00    -0.357 A  
HETATM   35  C   UNL     1     -10.214   5.359  72.156  1.00  0.00    -0.253 A  
HETATM   36  C   UNL     1     -10.021   4.689  69.838  1.00  0.00    -0.296 A  
HETATM   37  C   UNL     1     -10.866   6.524  71.762  1.00  0.00    -0.277 A  
HETATM   38  C   UNL     1     -10.672   5.851  69.440  1.00  0.00    -0.406 A  
HETATM   39  C   UNL     1      -9.792   4.443  71.194  1.00  0.00    -0.258 A  
ENDBRANCH  33  34
ENDBRANCH  32  33
ENDBRANCH   2  32
TORSDOF 18
ENDMDL
MODEL      162
REMARK 921   NORMALIZED FREE ENERGY PREDICTED BY IDOCK:   -4.47 KCAL/MOL
REMARK 922        TOTAL FREE ENERGY PREDICTED BY IDOCK:  -13.96 KCAL/MOL
REMARK 923 INTER-LIGAND FREE ENERGY PREDICTED BY IDOCK:  -10.13 KCAL/MOL
REMARK 924 INTRA-LIGAND FREE ENERGY PREDICTED BY IDOCK:   -3.83 KCAL/MOL
REMARK 927      BINDING AFFINITY PREDICTED BY RF-SCORE:    0.00 PKD
ROOT
HETATM    1  O   UNL     1      -7.256   7.522  70.490  1.00  0.00    -0.062 OA 
HETATM    2  C   UNL     1      -7.191   8.925  70.238  1.00  0.00    -0.054 C  
HETATM    3  H   UNL     1      -6.382   7.150  70.497  1.00  0.00     0.000 HD 
ENDROOT
BRANCH   2   4
HETATM    4  C   UNL     1      -8.609   9.529  70.227  1.00  0.00    -0.258 C  
BRANCH   4   5
HETATM    5  C   UNL     1      -9.522   9.064  71.366  1.00  0.00    -0.334 C  
BRANCH   5   6
HETATM    6  C   UNL     1     -10.895   8.488  70.948  1.00  0.00    -0.275 C  
HETATM    7  H   UNL     1     -14.840   8.616  71.721  1.00  0.00     0.000 HD 
HETATM    8  C   UNL     1     -12.200   9.075  71.636  1.00  0.00    -0.418 C  
HETATM    9  C   UNL     1     -10.933   7.000  71.319  1.00  0.00    -0.243 C  
HETATM   10  C   UNL     1     -12.389   6.646  71.230  1.00  0.00    -0.329 C  
HETATM   11  O   UNL     1     -10.189   6.196  70.421  1.00  0.00    -0.188 OA 
HETATM   12  O   UNL     1     -14.395   7.881  71.317  1.00  0.00    -0.369 OA 
HETATM   13  H   UNL     1     -10.212   5.275  70.651  1.00  0.00     0.000 HD 
HETATM   14  C   UNL     1     -13.097   7.818  71.874  1.00  0.00    -0.271 C  
BRANCH   8  15
HETATM   15  C   UNL     1     -12.896  10.245  70.869  1.00  0.00    -0.463 C  
BRANCH  15  16
HETATM   16  C   UNL     1     -11.998  11.413  70.502  1.00  0.00    -0.451 C  
HETATM   17  C   UNL     1     -11.369  11.732  69.354  1.00  0.00    -0.337 C  
BRANCH  17  18
HETATM   18  C   UNL     1     -11.355  10.990  68.048  1.00  0.00    -0.374 C  
BRANCH  18  19
HETATM   19  C   UNL     1     -10.583  11.747  66.955  1.00  0.00    -0.267 C  
BRANCH  19  20
HETATM   20  C   UNL     1     -11.420  12.119  65.738  1.00  0.00    -0.414 C  
BRANCH  20  21
HETATM   21  C   UNL     1     -11.930  13.522  65.844  1.00  0.00    -0.406 C  
HETATM   22  O   UNL     1     -12.913  13.983  65.278  1.00  0.00    -0.743 OA 
BRANCH  21  23
HETATM   23  O   UNL     1     -11.030  14.245  66.565  1.00  0.00    -0.307 OA 
BRANCH  23  24
HETATM   24  C   UNL     1     -11.700  15.057  67.506  1.00  0.00    -0.253 C  
BRANCH  24  25
HETATM   25  C   UNL     1     -10.965  15.156  68.826  1.00  0.00    -0.257 C  
BRANCH  25  26
HETATM   26  C   UNL     1     -10.184  16.460  68.975  1.00  0.00    -0.269 C  
BRANCH  26  27
HETATM   27  C   UNL     1     -10.619  17.589  68.030  1.00  0.00    -0.384 C  
BRANCH  27  28
HETATM   28  O   UNL     1      -9.470  18.204  67.490  1.00  0.00    -0.259 OA 
HETATM   29  N   UNL     1      -9.414  18.101  66.080  1.00  0.00    -0.216 N  
HETATM   30  O   UNL     1      -8.379  18.581  65.611  1.00  0.00    -0.393 OA 
HETATM   31  O   UNL     1     -10.358  17.563  65.515  1.00  0.00    -0.620 OA 
ENDBRANCH  27  28
ENDBRANCH  26  27
ENDBRANCH  25  26
ENDBRANCH  24  25
ENDBRANCH  23  24
ENDBRANCH  21  23
ENDBRANCH  20  21
ENDBRANCH  19  20
ENDBRANCH  18  19
ENDBRANCH  17  18
ENDBRANCH  15  16
ENDBRANCH   8  15
ENDBRANCH   5   6
ENDBRANCH   4   5
ENDBRANCH   2   4
BRANCH   2  32
HETATM   32  C   UNL     1      -6.500   9.096  68.893  1.00  0.00    -0.048 C  
BRANCH  32  33
HETATM   33  C   UNL     1      -7.063  10.282  68.117  1.00  0.00    -0.082 C  
BRANCH  33  34
HETATM   34  C   UNL     1      -7.578   9.809  66.797  1.00  0.00    -0.095 A  
HETATM   35  C   UNL     1      -7.775  10.125  64.408  1.00  0.00    -0.134 A  
HETATM   36  C   UNL     1      -8.997   8.351  65.512  1.00  0.00    -0.149 A  
HETATM   37  C   UNL     1      -7.235  10.511  65.632  1.00  0.00    -0.124 A  
HETATM   38  C   UNL     1      -8.460   8.732  66.736  1.00  0.00    -0.113 A  
HETATM   39  C   UNL     1      -8.655   9.046  64.349  1.00  0.00    -0.174 A  
ENDBRANCH  33  34
ENDBRANCH  32  33
ENDBRANCH   2  32
TORSDOF 18
ENDMDL
MODEL      163
REMARK 921   NORMALIZED FREE ENERGY PREDICTED BY IDOCK:   -4.46 KCAL/MOL
REMARK 922        TOTAL FREE ENERGY PREDICTED BY IDOCK:  -13.93 KCAL/MOL
REMARK 923 INTER-LIGAND FREE ENERGY PREDICTED BY IDOCK:  -10.78 KCAL/MOL
REMARK 924 INTRA-LIGAND FREE ENERGY PREDICTED BY IDOCK:   -3.15 KCAL/MOL
REMARK 927      BINDING AFFINITY PREDICTED BY RF-SCORE:    0.00 PKD
ROOT
HETATM    1  O   UNL     1     -11.508   9.984  68.483  1.00  0.00    -0.507 OA 
HETATM    2  C   UNL     1     -12.140  11.151  69.007  1.00  0.00    -0.246 C  
HETATM    3  H   UNL     1     -11.770   9.218  68.981  1.00  0.00     0.000 HD 
ENDROOT
BRANCH   2   4
HETATM    4  C   UNL     1     -11.715  12.393  68.200  1.00  0.00    -0.408 C  
BRANCH   4   5
HETATM    5  C   UNL     1     -10.680  12.132  67.100  1.00  0.00    -0.267 C  
BRANCH   5   6
HETATM    6  C   UNL     1     -10.862  12.930  65.788  1.00  0.00    -0.292 C  
HETATM    7  H   UNL     1     -12.738  16.083  64.141  1.00  0.00     0.000 HD 
HETATM    8  C   UNL     1     -11.739  14.253  65.825  1.00  0.00    -0.359 C  
HETATM    9  C   UNL     1     -11.595  12.041  64.775  1.00  0.00    -0.281 C  
HETATM   10  C   UNL     1     -12.047  13.005  63.716  1.00  0.00    -0.574 C  
HETATM   11  O   UNL     1     -10.752  11.060  64.200  1.00  0.00    -0.378 OA 
HETATM   12  O   UNL     1     -12.420  15.332  63.653  1.00  0.00    -0.550 OA 
HETATM   13  H   UNL     1     -11.205  10.510  63.573  1.00  0.00     0.000 HD 
HETATM   14  C   UNL     1     -12.553  14.202  64.493  1.00  0.00    -0.211 C  
BRANCH   8  15
HETATM   15  C   UNL     1     -10.947  15.578  66.063  1.00  0.00    -0.251 C  
BRANCH  15  16
HETATM   16  C   UNL     1      -9.435  15.441  66.098  1.00  0.00    -0.371 C  
HETATM   17  C   UNL     1      -8.452  16.360  66.022  1.00  0.00    -0.205 C  
BRANCH  17  18
HETATM   18  C   UNL     1      -8.561  17.849  65.861  1.00  0.00     0.118 C  
BRANCH  18  19
HETATM   19  C   UNL     1      -7.663  18.610  66.849  1.00  0.00    -0.241 C  
BRANCH  19  20
HETATM   20  C   UNL     1      -8.318  18.908  68.191  1.00  0.00    -0.341 C  
BRANCH  20  21
HETATM   21  C   UNL     1      -9.681  19.498  68.006  1.00  0.00    -0.376 C  
HETATM   22  O   UNL     1      -9.935  20.644  67.653  1.00  0.00    -0.402 OA 
BRANCH  21  23
HETATM   23  O   UNL     1     -10.597  18.588  68.435  1.00  0.00    -0.287 OA 
BRANCH  23  24
HETATM   24  C   UNL     1      -9.972  17.612  69.242  1.00  0.00    -0.097 C  
BRANCH  24  25
HETATM   25  C   UNL     1     -10.887  16.454  69.577  1.00  0.00    -0.338 C  
BRANCH  25  26
HETATM   26  C   UNL     1     -10.126  15.168  69.892  1.00  0.00    -0.146 C  
BRANCH  26  27
HETATM   27  C   UNL     1      -8.605  15.248  69.697  1.00  0.00    -0.104 C  
BRANCH  27  28
HETATM   28  O   UNL     1      -8.178  14.131  68.949  1.00  0.00    -0.113 OA 
HETATM   29  N   UNL     1      -6.929  14.348  68.321  1.00  0.00    -0.101 N  
HETATM   30  O   UNL     1      -6.584  13.398  67.614  1.00  0.00    -0.151 OA 
HETATM   31  O   UNL     1      -6.364  15.412  68.538  1.00  0.00    -0.092 OA 
ENDBRANCH  27  28
ENDBRANCH  26  27
ENDBRANCH  25  26
ENDBRANCH  24  25
ENDBRANCH  23  24
ENDBRANCH  21  23
ENDBRANCH  20  21
ENDBRANCH  19  20
ENDBRANCH  18  19
ENDBRANCH  17  18
ENDBRANCH  15  16
ENDBRANCH   8  15
ENDBRANCH   5   6
ENDBRANCH   4   5
ENDBRANCH   2   4
BRANCH   2  32
HETATM   32  C   UNL     1     -11.715  11.261  70.465  1.00  0.00    -0.345 C  
BRANCH  32  33
HETATM   33  C   UNL     1     -12.854  10.902  71.412  1.00  0.00    -0.554 C  
BRANCH  33  34
HETATM   34  C   UNL     1     -12.911   9.419  71.578  1.00  0.00    -0.449 A  
HETATM   35  C   UNL     1     -11.769   7.289  71.652  1.00  0.00    -0.316 A  
HETATM   36  C   UNL     1     -14.186   7.382  71.715  1.00  0.00    -0.544 A  
HETATM   37  C   UNL     1     -11.720   8.678  71.579  1.00  0.00    -0.369 A  
HETATM   38  C   UNL     1     -14.143   8.769  71.643  1.00  0.00    -0.437 A  
HETATM   39  C   UNL     1     -13.001   6.643  71.720  1.00  0.00    -0.191 A  
ENDBRANCH  33  34
ENDBRANCH  32  33
ENDBRANCH   2  32
TORSDOF 18
ENDMDL
MODEL      164
REMARK 921   NORMALIZED FREE ENERGY PREDICTED BY IDOCK:   -4.44 KCAL/MOL
REMARK 922        TOTAL FREE ENERGY PREDICTED BY IDOCK:  -13.90 KCAL/MOL
REMARK 923 INTER-LIGAND FREE ENERGY PREDICTED BY IDOCK:   -9.53 KCAL/MOL
REMARK 924 INTRA-LIGAND FREE ENERGY PREDICTED BY IDOCK:   -4.38 KCAL/MOL
REMARK 927      BINDING AFFINITY PREDICTED BY RF-SCORE:    0.00 PKD
ROOT
HETATM    1  O   UNL     1     -11.250  13.032  68.087  1.00  0.00    -0.243 OA 
HETATM    2  C   UNL     1     -11.462  11.650  67.806  1.00  0.00    -0.302 C  
HETATM    3  H   UNL     1     -10.862  13.464  67.335  1.00  0.00     0.000 HD 
ENDROOT
BRANCH   2   4
HETATM    4  C   UNL     1     -12.093  10.950  69.025  1.00  0.00    -0.240 C  
BRANCH   4   5
HETATM    5  C   UNL     1     -11.188  10.849  70.257  1.00  0.00    -0.271 C  
BRANCH   5   6
HETATM    6  C   UNL     1     -11.441   9.645  71.194  1.00  0.00    -0.456 C  
HETATM    7  H   UNL     1     -11.142   5.645  71.491  1.00  0.00     0.000 HD 
HETATM    8  C   UNL     1     -10.972   8.205  70.716  1.00  0.00    -0.261 C  
HETATM    9  C   UNL     1     -12.955   9.485  71.383  1.00  0.00    -0.368 C  
HETATM   10  C   UNL     1     -13.099   8.110  71.968  1.00  0.00    -0.317 C  
HETATM   11  O   UNL     1     -13.497  10.443  72.273  1.00  0.00    -0.594 OA 
HETATM   12  O   UNL     1     -11.749   6.177  71.992  1.00  0.00    -0.312 OA 
HETATM   13  H   UNL     1     -14.435  10.343  72.390  1.00  0.00     0.000 HD 
HETATM   14  C   UNL     1     -12.132   7.262  71.170  1.00  0.00    -0.340 C  
BRANCH   8  15
HETATM   15  C   UNL     1      -9.547   7.772  71.186  1.00  0.00    -0.174 C  
BRANCH  15  16
HETATM   16  C   UNL     1      -8.468   7.801  70.119  1.00  0.00    -0.134 C  
HETATM   17  C   UNL     1      -7.784   8.823  69.567  1.00  0.00    -0.089 C  
BRANCH  17  18
HETATM   18  C   UNL     1      -7.899  10.295  69.842  1.00  0.00    -0.119 C  
BRANCH  18  19
HETATM   19  C   UNL     1      -6.655  11.073  69.386  1.00  0.00    -0.104 C  
BRANCH  19  20
HETATM   20  C   UNL     1      -6.478  11.147  67.875  1.00  0.00    -0.058 C  
BRANCH  20  21
HETATM   21  C   UNL     1      -6.463  12.568  67.404  1.00  0.00    -0.153 C  
HETATM   22  O   UNL     1      -5.484  13.196  67.022  1.00  0.00    -0.292 OA 
BRANCH  21  23
HETATM   23  O   UNL     1      -7.702  13.093  67.608  1.00  0.00    -0.140 OA 
BRANCH  23  24
HETATM   24  C   UNL     1      -7.691  14.481  67.344  1.00  0.00    -0.192 C  
BRANCH  24  25
HETATM   25  C   UNL     1      -8.735  15.237  68.137  1.00  0.00    -0.162 C  
BRANCH  25  26
HETATM   26  C   UNL     1      -9.755  15.948  67.251  1.00  0.00    -0.224 C  
BRANCH  26  27
HETATM   27  C   UNL     1      -9.679  15.593  65.759  1.00  0.00    -0.345 C  
BRANCH  27  28
HETATM   28  O   UNL     1     -10.974  15.663  65.203  1.00  0.00    -0.384 OA 
HETATM   29  N   UNL     1     -11.385  14.435  64.635  1.00  0.00    -0.381 N  
HETATM   30  O   UNL     1     -12.489  14.511  64.091  1.00  0.00    -0.707 OA 
HETATM   31  O   UNL     1     -10.624  13.481  64.738  1.00  0.00    -0.370 OA 
ENDBRANCH  27  28
ENDBRANCH  26  27
ENDBRANCH  25  26
ENDBRANCH  24  25
ENDBRANCH  23  24
ENDBRANCH  21  23
ENDBRANCH  20  21
ENDBRANCH  19  20
ENDBRANCH  18  19
ENDBRANCH  17  18
ENDBRANCH  15  16
ENDBRANCH   8  15
ENDBRANCH   5   6
ENDBRANCH   4   5
ENDBRANCH   2   4
BRANCH   2  32
HETATM   32  C   UNL     1     -10.102  11.060  67.465  1.00  0.00    -0.208 C  
BRANCH  32  33
HETATM   33  C   UNL     1     -10.111  10.368  66.106  1.00  0.00    -0.299 C  
BRANCH  33  34
HETATM   34  C   UNL     1      -9.902   8.901  66.297  1.00  0.00    -0.355 A  
HETATM   35  C   UNL     1     -10.681   6.787  67.173  1.00  0.00    -0.441 A  
HETATM   36  C   UNL     1      -8.475   6.966  66.194  1.00  0.00    -0.136 A  
HETATM   37  C   UNL     1     -10.901   8.138  66.919  1.00  0.00    -0.007 A  
HETATM   38  C   UNL     1      -8.690   8.315  65.938  1.00  0.00    -0.187 A  
HETATM   39  C   UNL     1      -9.469   6.202  66.811  1.00  0.00    -0.164 A  
ENDBRANCH  33  34
ENDBRANCH  32  33
ENDBRANCH   2  32
TORSDOF 18
ENDMDL
MODEL      165
REMARK 921   NORMALIZED FREE ENERGY PREDICTED BY IDOCK:   -4.44 KCAL/MOL
REMARK 922        TOTAL FREE ENERGY PREDICTED BY IDOCK:  -13.89 KCAL/MOL
REMARK 923 INTER-LIGAND FREE ENERGY PREDICTED BY IDOCK:   -9.34 KCAL/MOL
REMARK 924 INTRA-LIGAND FREE ENERGY PREDICTED BY IDOCK:   -4.56 KCAL/MOL
REMARK 927      BINDING AFFINITY PREDICTED BY RF-SCORE:    0.00 PKD
ROOT
HETATM    1  O   UNL     1      -9.531   5.168  64.639  1.00  0.00    -0.360 OA 
HETATM    2  C   UNL     1      -8.794   4.841  65.816  1.00  0.00    -0.131 C  
HETATM    3  H   UNL     1      -8.940   5.296  63.907  1.00  0.00     0.000 HD 
ENDROOT
BRANCH   2   4
HETATM    4  C   UNL     1      -9.754   4.633  67.004  1.00  0.00    -0.216 C  
BRANCH   4   5
HETATM    5  C   UNL     1     -10.365   5.916  67.579  1.00  0.00    -0.269 C  
BRANCH   5   6
HETATM    6  C   UNL     1     -10.051   6.216  69.063  1.00  0.00    -0.213 C  
HETATM    7  H   UNL     1      -7.793   5.090  72.194  1.00  0.00     0.000 HD 
HETATM    8  C   UNL     1      -8.879   5.407  69.765  1.00  0.00    -0.124 C  
HETATM    9  C   UNL     1     -11.285   5.861  69.903  1.00  0.00    -0.268 C  
HETATM   10  C   UNL     1     -10.761   5.823  71.309  1.00  0.00    -0.323 C  
HETATM   11  O   UNL     1     -12.311   6.831  69.801  1.00  0.00    -0.466 OA 
HETATM   12  O   UNL     1      -8.625   5.541  72.267  1.00  0.00    -0.125 OA 
HETATM   13  H   UNL     1     -13.075   6.612  70.321  1.00  0.00     0.000 HD 
HETATM   14  C   UNL     1      -9.434   5.103  71.193  1.00  0.00    -0.153 C  
BRANCH   8  15
HETATM   15  C   UNL     1      -7.476   6.094  69.735  1.00  0.00    -0.081 C  
BRANCH  15  16
HETATM   16  C   UNL     1      -7.461   7.532  69.250  1.00  0.00    -0.091 C  
HETATM   17  C   UNL     1      -7.848   8.680  69.842  1.00  0.00    -0.093 C  
BRANCH  17  18
HETATM   18  C   UNL     1      -8.446   8.884  71.205  1.00  0.00    -0.239 C  
BRANCH  18  19
HETATM   19  C   UNL     1      -9.965   9.112  71.148  1.00  0.00    -0.377 C  
BRANCH  19  20
HETATM   20  C   UNL     1     -10.413  10.087  70.066  1.00  0.00    -0.337 C  
BRANCH  20  21
HETATM   21  C   UNL     1     -11.881  10.362  70.164  1.00  0.00    -0.297 C  
HETATM   22  O   UNL     1     -12.713   9.667  70.734  1.00  0.00    -0.237 OA 
BRANCH  21  23
HETATM   23  O   UNL     1     -12.161  11.443  69.386  1.00  0.00    -0.297 OA 
BRANCH  23  24
HETATM   24  C   UNL     1     -11.909  12.635  70.101  1.00  0.00    -0.249 C  
BRANCH  24  25
HETATM   25  C   UNL     1     -12.139  13.878  69.268  1.00  0.00    -0.383 C  
BRANCH  25  26
HETATM   26  C   UNL     1     -12.538  15.089  70.107  1.00  0.00    -0.312 C  
BRANCH  26  27
HETATM   27  C   UNL     1     -12.780  14.798  71.595  1.00  0.00    -0.330 C  
BRANCH  27  28
HETATM   28  O   UNL     1     -12.632  15.995  72.328  1.00  0.00    -0.446 OA 
HETATM   29  N   UNL     1     -12.658  15.778  73.726  1.00  0.00    -0.550 N  
HETATM   30  O   UNL     1     -12.594  16.829  74.368  1.00  0.00    -0.666 OA 
HETATM   31  O   UNL     1     -12.746  14.622  74.118  1.00  0.00    -0.435 OA 
ENDBRANCH  27  28
ENDBRANCH  26  27
ENDBRANCH  25  26
ENDBRANCH  24  25
ENDBRANCH  23  24
ENDBRANCH  21  23
ENDBRANCH  20  21
ENDBRANCH  19  20
ENDBRANCH  18  19
ENDBRANCH  17  18
ENDBRANCH  15  16
ENDBRANCH   8  15
ENDBRANCH   5   6
ENDBRANCH   4   5
ENDBRANCH   2   4
BRANCH   2  32
HETATM   32  C   UNL     1      -7.837   5.998  66.067  1.00  0.00    -0.105 C  
BRANCH  32  33
HETATM   33  C   UNL     1      -7.978   7.087  65.010  1.00  0.00    -0.129 C  
BRANCH  33  34
HETATM   34  C   UNL     1      -8.159   8.408  65.684  1.00  0.00    -0.125 A  
HETATM   35  C   UNL     1      -9.636  10.121  66.538  1.00  0.00    -0.236 A  
HETATM   36  C   UNL     1      -7.244  10.485  66.484  1.00  0.00    -0.124 A  
HETATM   37  C   UNL     1      -9.454   8.857  65.985  1.00  0.00    -0.320 A  
HETATM   38  C   UNL     1      -7.056   9.224  65.931  1.00  0.00    -0.090 A  
HETATM   39  C   UNL     1      -8.532  10.933  66.787  1.00  0.00    -0.139 A  
ENDBRANCH  33  34
ENDBRANCH  32  33
ENDBRANCH   2  32
TORSDOF 18
ENDMDL
MODEL      166
REMARK 921   NORMALIZED FREE ENERGY PREDICTED BY IDOCK:   -4.43 KCAL/MOL
REMARK 922        TOTAL FREE ENERGY PREDICTED BY IDOCK:  -13.88 KCAL/MOL
REMARK 923 INTER-LIGAND FREE ENERGY PREDICTED BY IDOCK:  -10.10 KCAL/MOL
REMARK 924 INTRA-LIGAND FREE ENERGY PREDICTED BY IDOCK:   -3.78 KCAL/MOL
REMARK 927      BINDING AFFINITY PREDICTED BY RF-SCORE:    0.00 PKD
ROOT
HETATM    1  O   UNL     1     -11.462   6.486  66.703  1.00  0.00    -0.727 OA 
HETATM    2  C   UNL     1     -10.436   5.790  67.409  1.00  0.00    -0.254 C  
HETATM    3  H   UNL     1     -11.178   6.678  65.817  1.00  0.00     0.000 HD 
ENDROOT
BRANCH   2   4
HETATM    4  C   UNL     1     -10.897   5.479  68.846  1.00  0.00    -0.132 C  
BRANCH   4   5
HETATM    5  C   UNL     1     -11.096   6.704  69.745  1.00  0.00    -0.398 C  
BRANCH   5   6
HETATM    6  C   UNL     1     -10.649   6.551  71.217  1.00  0.00    -0.268 C  
HETATM    7  H   UNL     1      -8.243   4.471  73.679  1.00  0.00     0.000 HD 
HETATM    8  C   UNL     1      -9.487   5.522  71.550  1.00  0.00    -0.179 C  
HETATM    9  C   UNL     1     -11.837   6.027  72.035  1.00  0.00    -0.224 C  
HETATM   10  C   UNL     1     -11.211   5.563  73.318  1.00  0.00    -0.282 C  
HETATM   11  O   UNL     1     -12.797   7.031  72.307  1.00  0.00    -0.521 OA 
HETATM   12  O   UNL     1      -9.034   4.921  73.954  1.00  0.00    -0.114 OA 
HETATM   13  H   UNL     1     -13.532   6.707  72.813  1.00  0.00     0.000 HD 
HETATM   14  C   UNL     1      -9.951   4.847  72.880  1.00  0.00    -0.157 C  
BRANCH   8  15
HETATM   15  C   UNL     1      -8.046   6.124  71.584  1.00  0.00    -0.110 C  
BRANCH  15  16
HETATM   16  C   UNL     1      -7.946   7.558  72.069  1.00  0.00    -0.103 C  
HETATM   17  C   UNL     1      -7.926   8.730  71.402  1.00  0.00    -0.175 C  
BRANCH  17  18
HETATM   18  C   UNL     1      -7.985   8.974  69.921  1.00  0.00    -0.103 C  
BRANCH  18  19
HETATM   19  C   UNL     1      -8.871  10.178  69.564  1.00  0.00    -0.198 C  
BRANCH  19  20
HETATM   20  C   UNL     1     -10.287   9.811  69.139  1.00  0.00    -0.225 C  
BRANCH  20  21
HETATM   21  C   UNL     1     -11.288  10.266  70.155  1.00  0.00    -0.316 C  
HETATM   22  O   UNL     1     -11.332   9.932  71.332  1.00  0.00    -0.364 OA 
BRANCH  21  23
HETATM   23  O   UNL     1     -12.234  11.005  69.513  1.00  0.00    -0.336 OA 
BRANCH  23  24
HETATM   24  C   UNL     1     -11.643  12.144  68.922  1.00  0.00    -0.324 C  
BRANCH  24  25
HETATM   25  C   UNL     1     -11.758  12.148  67.413  1.00  0.00    -0.374 C  
BRANCH  25  26
HETATM   26  C   UNL     1     -11.851  13.555  66.828  1.00  0.00    -0.450 C  
BRANCH  26  27
HETATM   27  C   UNL     1     -11.313  13.699  65.397  1.00  0.00    -0.301 C  
BRANCH  27  28
HETATM   28  O   UNL     1     -11.900  14.834  64.798  1.00  0.00    -0.407 OA 
HETATM   29  N   UNL     1     -10.988  15.908  64.667  1.00  0.00    -0.411 N  
HETATM   30  O   UNL     1     -11.515  16.922  64.204  1.00  0.00    -1.174 OA 
HETATM   31  O   UNL     1      -9.832  15.715  65.023  1.00  0.00    -0.322 OA 
ENDBRANCH  27  28
ENDBRANCH  26  27
ENDBRANCH  25  26
ENDBRANCH  24  25
ENDBRANCH  23  24
ENDBRANCH  21  23
ENDBRANCH  20  21
ENDBRANCH  19  20
ENDBRANCH  18  19
ENDBRANCH  17  18
ENDBRANCH  15  16
ENDBRANCH   8  15
ENDBRANCH   5   6
ENDBRANCH   4   5
ENDBRANCH   2   4
BRANCH   2  32
HETATM   32  C   UNL     1      -9.209   6.690  67.398  1.00  0.00    -0.124 C  
BRANCH  32  33
HETATM   33  C   UNL     1      -8.890   7.192  65.994  1.00  0.00    -0.154 C  
BRANCH  33  34
HETATM   34  C   UNL     1      -8.424   8.609  66.070  1.00  0.00    -0.151 A  
HETATM   35  C   UNL     1      -6.720  10.207  66.692  1.00  0.00    -0.079 A  
HETATM   36  C   UNL     1      -8.879  10.967  65.907  1.00  0.00    -0.197 A  
HETATM   37  C   UNL     1      -7.133   8.886  66.543  1.00  0.00    -0.084 A  
HETATM   38  C   UNL     1      -9.296   9.650  65.756  1.00  0.00    -0.286 A  
HETATM   39  C   UNL     1      -7.592  11.246  66.375  1.00  0.00    -0.072 A  
ENDBRANCH  33  34
ENDBRANCH  32  33
ENDBRANCH   2  32
TORSDOF 18
ENDMDL
MODEL      167
REMARK 921   NORMALIZED FREE ENERGY PREDICTED BY IDOCK:   -4.43 KCAL/MOL
REMARK 922        TOTAL FREE ENERGY PREDICTED BY IDOCK:  -13.87 KCAL/MOL
REMARK 923 INTER-LIGAND FREE ENERGY PREDICTED BY IDOCK:  -11.04 KCAL/MOL
REMARK 924 INTRA-LIGAND FREE ENERGY PREDICTED BY IDOCK:   -2.83 KCAL/MOL
REMARK 927      BINDING AFFINITY PREDICTED BY RF-SCORE:    0.00 PKD
ROOT
HETATM    1  O   UNL     1     -11.237   5.871  66.258  1.00  0.00    -0.737 OA 
HETATM    2  C   UNL     1     -10.351   6.472  67.199  1.00  0.00    -0.247 C  
HETATM    3  H   UNL     1     -10.963   6.077  65.372  1.00  0.00     0.000 HD 
ENDROOT
BRANCH   2   4
HETATM    4  C   UNL     1     -10.795   6.137  68.637  1.00  0.00    -0.403 C  
BRANCH   4   5
HETATM    5  C   UNL     1      -9.662   5.753  69.595  1.00  0.00    -0.208 C  
BRANCH   5   6
HETATM    6  C   UNL     1     -10.077   4.977  70.866  1.00  0.00    -0.302 C  
HETATM    7  H   UNL     1     -10.087   5.102  74.886  1.00  0.00     0.000 HD 
HETATM    8  C   UNL     1      -9.877   5.677  72.277  1.00  0.00    -0.185 C  
HETATM    9  C   UNL     1      -9.215   3.711  70.968  1.00  0.00    -0.126 C  
HETATM   10  C   UNL     1      -9.420   3.252  72.382  1.00  0.00    -0.182 C  
HETATM   11  O   UNL     1      -9.628   2.697  70.071  1.00  0.00    -0.117 OA 
HETATM   12  O   UNL     1     -10.122   4.303  74.373  1.00  0.00    -0.159 OA 
HETATM   13  H   UNL     1      -9.094   1.914  70.134  1.00  0.00     0.000 HD 
HETATM   14  C   UNL     1      -9.365   4.526  73.200  1.00  0.00    -0.121 C  
BRANCH   8  15
HETATM   15  C   UNL     1     -11.115   6.458  72.822  1.00  0.00    -0.281 C  
BRANCH  15  16
HETATM   16  C   UNL     1     -12.271   6.615  71.850  1.00  0.00    -0.381 C  
HETATM   17  C   UNL     1     -13.110   7.644  71.616  1.00  0.00    -0.392 C  
BRANCH  17  18
HETATM   18  C   UNL     1     -13.164   8.988  72.283  1.00  0.00    -0.519 C  
BRANCH  18  19
HETATM   19  C   UNL     1     -13.463  10.121  71.288  1.00  0.00    -0.305 C  
BRANCH  19  20
HETATM   20  C   UNL     1     -12.271  11.019  70.982  1.00  0.00    -0.456 C  
BRANCH  20  21
HETATM   21  C   UNL     1     -12.595  12.455  71.252  1.00  0.00    -0.230 C  
HETATM   22  O   UNL     1     -13.275  12.885  72.176  1.00  0.00    -0.465 OA 
BRANCH  21  23
HETATM   23  O   UNL     1     -12.127  13.196  70.211  1.00  0.00    -0.349 OA 
BRANCH  23  24
HETATM   24  C   UNL     1     -12.281  14.573  70.486  1.00  0.00    -0.332 C  
BRANCH  24  25
HETATM   25  C   UNL     1     -11.823  15.454  69.345  1.00  0.00    -0.372 C  
BRANCH  25  26
HETATM   26  C   UNL     1     -10.434  16.048  69.573  1.00  0.00    -0.286 C  
BRANCH  26  27
HETATM   27  C   UNL     1      -9.653  16.383  68.294  1.00  0.00    -0.221 C  
BRANCH  27  28
HETATM   28  O   UNL     1     -10.565  16.734  67.277  1.00  0.00    -0.320 OA 
HETATM   29  N   UNL     1      -9.921  17.029  66.052  1.00  0.00    -0.293 N  
HETATM   30  O   UNL     1     -10.711  17.399  65.180  1.00  0.00    -0.684 OA 
HETATM   31  O   UNL     1      -8.705  16.897  66.007  1.00  0.00    -0.468 OA 
ENDBRANCH  27  28
ENDBRANCH  26  27
ENDBRANCH  25  26
ENDBRANCH  24  25
ENDBRANCH  23  24
ENDBRANCH  21  23
ENDBRANCH  20  21
ENDBRANCH  19  20
ENDBRANCH  18  19
ENDBRANCH  17  18
ENDBRANCH  15  16
ENDBRANCH   8  15
ENDBRANCH   5   6
ENDBRANCH   4   5
ENDBRANCH   2   4
BRANCH   2  32
HETATM   32  C   UNL     1     -10.387   7.971  66.939  1.00  0.00    -0.408 C  
BRANCH  32  33
HETATM   33  C   UNL     1     -10.685   8.757  68.211  1.00  0.00    -0.121 C  
BRANCH  33  34
HETATM   34  C   UNL     1     -10.339  10.194  67.996  1.00  0.00    -0.227 A  
HETATM   35  C   UNL     1     -10.884  12.343  67.030  1.00  0.00    -0.282 A  
HETATM   36  C   UNL     1      -8.754  12.000  68.127  1.00  0.00    -0.177 A  
HETATM   37  C   UNL     1     -11.234  11.024  67.304  1.00  0.00    -0.330 A  
HETATM   38  C   UNL     1      -9.099  10.683  68.404  1.00  0.00    -0.156 A  
HETATM   39  C   UNL     1      -9.645  12.830  67.441  1.00  0.00    -0.199 A  
ENDBRANCH  33  34
ENDBRANCH  32  33
ENDBRANCH   2  32
TORSDOF 18
ENDMDL
MODEL      168
REMARK 921   NORMALIZED FREE ENERGY PREDICTED BY IDOCK:   -4.42 KCAL/MOL
REMARK 922        TOTAL FREE ENERGY PREDICTED BY IDOCK:  -13.86 KCAL/MOL
REMARK 923 INTER-LIGAND FREE ENERGY PREDICTED BY IDOCK:  -10.82 KCAL/MOL
REMARK 924 INTRA-LIGAND FREE ENERGY PREDICTED BY IDOCK:   -3.04 KCAL/MOL
REMARK 927      BINDING AFFINITY PREDICTED BY RF-SCORE:    0.00 PKD
ROOT
HETATM    1  O   UNL     1     -10.694   6.871  66.376  1.00  0.00    -0.481 OA 
HETATM    2  C   UNL     1      -9.299   6.592  66.271  1.00  0.00    -0.109 C  
HETATM    3  H   UNL     1     -10.992   7.343  65.607  1.00  0.00     0.000 HD 
ENDROOT
BRANCH   2   4
HETATM    4  C   UNL     1      -8.815   5.826  67.518  1.00  0.00    -0.106 C  
BRANCH   4   5
HETATM    5  C   UNL     1      -8.489   6.702  68.733  1.00  0.00    -0.123 C  
BRANCH   5   6
HETATM    6  C   UNL     1      -9.311   6.424  70.013  1.00  0.00    -0.162 C  
HETATM    7  H   UNL     1      -9.463   4.180  73.347  1.00  0.00     0.000 HD 
HETATM    8  C   UNL     1      -8.731   5.394  71.073  1.00  0.00    -0.141 C  
HETATM    9  C   UNL     1     -10.653   5.803  69.607  1.00  0.00    -0.326 C  
HETATM   10  C   UNL     1     -11.189   5.237  70.889  1.00  0.00     0.302 C  
HETATM   11  O   UNL     1     -11.561   6.758  69.089  1.00  0.00    -0.592 OA 
HETATM   12  O   UNL     1     -10.219   4.585  72.937  1.00  0.00    -0.160 OA 
HETATM   13  H   UNL     1     -12.392   6.374  68.838  1.00  0.00     0.000 HD 
HETATM   14  C   UNL     1      -9.985   4.591  71.543  1.00  0.00    -0.189 C  
BRANCH   8  15
HETATM   15  C   UNL     1      -7.880   6.020  72.223  1.00  0.00    -0.102 C  
BRANCH  15  16
HETATM   16  C   UNL     1      -7.930   7.534  72.327  1.00  0.00    -0.115 C  
HETATM   17  C   UNL     1      -8.940   8.378  72.615  1.00  0.00    -0.304 C  
BRANCH  17  18
HETATM   18  C   UNL     1     -10.377   8.062  72.919  1.00  0.00    -0.397 C  
BRANCH  18  19
HETATM   19  C   UNL     1     -11.348   8.822  72.001  1.00  0.00    -0.441 C  
BRANCH  19  20
HETATM   20  C   UNL     1     -10.669   9.676  70.938  1.00  0.00    -0.402 C  
BRANCH  20  21
HETATM   21  C   UNL     1     -11.667  10.514  70.202  1.00  0.00    -0.326 C  
HETATM   22  O   UNL     1     -12.817  10.748  70.552  1.00  0.00    -0.326 OA 
BRANCH  21  23
HETATM   23  O   UNL     1     -11.127  10.857  69.001  1.00  0.00    -0.207 OA 
BRANCH  23  24
HETATM   24  C   UNL     1     -11.782  11.995  68.480  1.00  0.00    -0.332 C  
BRANCH  24  25
HETATM   25  C   UNL     1     -11.015  12.648  67.351  1.00  0.00    -0.289 C  
BRANCH  25  26
HETATM   26  C   UNL     1     -11.871  13.610  66.530  1.00  0.00    -0.441 C  
BRANCH  26  27
HETATM   27  C   UNL     1     -11.214  14.124  65.241  1.00  0.00    -0.326 C  
BRANCH  27  28
HETATM   28  O   UNL     1     -10.838  15.472  65.423  1.00  0.00    -0.353 OA 
HETATM   29  N   UNL     1     -11.485  16.340  64.513  1.00  0.00    -0.338 N  
HETATM   30  O   UNL     1     -11.110  17.510  64.626  1.00  0.00    -0.978 OA 
HETATM   31  O   UNL     1     -12.302  15.848  63.745  1.00  0.00    -0.791 OA 
ENDBRANCH  27  28
ENDBRANCH  26  27
ENDBRANCH  25  26
ENDBRANCH  24  25
ENDBRANCH  23  24
ENDBRANCH  21  23
ENDBRANCH  20  21
ENDBRANCH  19  20
ENDBRANCH  18  19
ENDBRANCH  17  18
ENDBRANCH  15  16
ENDBRANCH   8  15
ENDBRANCH   5   6
ENDBRANCH   4   5
ENDBRANCH   2   4
BRANCH   2  32
HETATM   32  C   UNL     1      -8.594   7.933  66.130  1.00  0.00    -0.164 C  
BRANCH  32  33
HETATM   33  C   UNL     1      -9.587   9.080  65.982  1.00  0.00    -0.342 C  
BRANCH  33  34
HETATM   34  C   UNL     1      -9.342   9.782  64.687  1.00  0.00    -0.318 A  
HETATM   35  C   UNL     1      -8.040  10.017  62.663  1.00  0.00    -0.146 A  
HETATM   36  C   UNL     1      -9.763  11.629  63.202  1.00  0.00    -0.385 A  
HETATM   37  C   UNL     1      -8.329   9.321  63.833  1.00  0.00    -0.179 A  
HETATM   38  C   UNL     1     -10.056  10.937  64.371  1.00  0.00    -0.402 A  
HETATM   39  C   UNL     1      -8.757  11.170  62.348  1.00  0.00    -0.328 A  
ENDBRANCH  33  34
ENDBRANCH  32  33
ENDBRANCH   2  32
TORSDOF 18
ENDMDL
MODEL      169
REMARK 921   NORMALIZED FREE ENERGY PREDICTED BY IDOCK:   -4.42 KCAL/MOL
REMARK 922        TOTAL FREE ENERGY PREDICTED BY IDOCK:  -13.86 KCAL/MOL
REMARK 923 INTER-LIGAND FREE ENERGY PREDICTED BY IDOCK:  -11.54 KCAL/MOL
REMARK 924 INTRA-LIGAND FREE ENERGY PREDICTED BY IDOCK:   -2.31 KCAL/MOL
REMARK 927      BINDING AFFINITY PREDICTED BY RF-SCORE:    0.00 PKD
ROOT
HETATM    1  O   UNL     1     -10.489  19.845  68.767  1.00  0.00    -0.561 OA 
HETATM    2  C   UNL     1     -10.414  19.964  67.348  1.00  0.00    -0.404 C  
HETATM    3  H   UNL     1     -10.514  20.706  69.167  1.00  0.00     0.000 HD 
ENDROOT
BRANCH   2   4
HETATM    4  C   UNL     1     -10.374  18.567  66.698  1.00  0.00    -0.442 C  
BRANCH   4   5
HETATM    5  C   UNL     1     -10.709  17.403  67.637  1.00  0.00    -0.310 C  
BRANCH   5   6
HETATM    6  C   UNL     1     -10.077  16.037  67.284  1.00  0.00    -0.266 C  
HETATM    7  H   UNL     1      -9.421  12.313  68.655  1.00  0.00     0.000 HD 
HETATM    8  C   UNL     1     -10.261  14.834  68.304  1.00  0.00    -0.227 C  
HETATM    9  C   UNL     1      -8.554  16.211  67.205  1.00  0.00    -0.178 C  
HETATM   10  C   UNL     1      -8.032  14.804  67.241  1.00  0.00    -0.232 C  
HETATM   11  O   UNL     1      -8.139  16.845  66.010  1.00  0.00    -0.430 OA 
HETATM   12  O   UNL     1      -8.894  12.742  67.990  1.00  0.00    -0.181 OA 
HETATM   13  H   UNL     1      -7.197  16.952  65.961  1.00  0.00     0.000 HD 
HETATM   14  C   UNL     1      -8.871  14.121  68.300  1.00  0.00    -0.187 C  
BRANCH   8  15
HETATM   15  C   UNL     1     -11.482  13.900  68.028  1.00  0.00    -0.339 C  
BRANCH  15  16
HETATM   16  C   UNL     1     -12.139  14.064  66.669  1.00  0.00    -0.487 C  
HETATM   17  C   UNL     1     -11.796  13.609  65.448  1.00  0.00    -0.370 C  
BRANCH  17  18
HETATM   18  C   UNL     1     -10.606  12.783  65.048  1.00  0.00    -0.330 C  
BRANCH  18  19
HETATM   19  C   UNL     1     -10.903  11.276  65.086  1.00  0.00    -0.268 C  
BRANCH  19  20
HETATM   20  C   UNL     1      -9.952  10.470  65.962  1.00  0.00    -0.295 C  
BRANCH  20  21
HETATM   21  C   UNL     1     -10.707   9.581  66.900  1.00  0.00    -0.114 C  
HETATM   22  O   UNL     1     -10.651   8.358  66.946  1.00  0.00    -0.305 OA 
BRANCH  21  23
HETATM   23  O   UNL     1     -11.582  10.353  67.602  1.00  0.00    -0.383 OA 
BRANCH  23  24
HETATM   24  C   UNL     1     -11.294  10.282  68.982  1.00  0.00    -0.180 C  
BRANCH  24  25
HETATM   25  C   UNL     1     -12.276  11.064  69.827  1.00  0.00    -0.388 C  
BRANCH  25  26
HETATM   26  C   UNL     1     -12.112  10.804  71.323  1.00  0.00    -0.365 C  
BRANCH  26  27
HETATM   27  C   UNL     1     -12.899   9.602  71.863  1.00  0.00    -0.425 C  
BRANCH  27  28
HETATM   28  O   UNL     1     -12.016   8.515  72.036  1.00  0.00    -0.313 OA 
HETATM   29  N   UNL     1     -12.649   7.267  71.822  1.00  0.00    -0.340 N  
HETATM   30  O   UNL     1     -11.896   6.313  72.036  1.00  0.00    -0.320 OA 
HETATM   31  O   UNL     1     -13.822   7.280  71.474  1.00  0.00    -0.393 OA 
ENDBRANCH  27  28
ENDBRANCH  26  27
ENDBRANCH  25  26
ENDBRANCH  24  25
ENDBRANCH  23  24
ENDBRANCH  21  23
ENDBRANCH  20  21
ENDBRANCH  19  20
ENDBRANCH  18  19
ENDBRANCH  17  18
ENDBRANCH  15  16
ENDBRANCH   8  15
ENDBRANCH   5   6
ENDBRANCH   4   5
ENDBRANCH   2   4
BRANCH   2  32
HETATM   32  C   UNL     1      -9.152  20.757  67.042  1.00  0.00    -0.274 C  
BRANCH  32  33
HETATM   33  C   UNL     1      -7.951  19.845  66.822  1.00  0.00    -0.340 C  
BRANCH  33  34
HETATM   34  C   UNL     1      -7.036  19.939  67.999  1.00  0.00    -0.319 A  
HETATM   35  C   UNL     1      -5.194  21.034  69.119  1.00  0.00    -0.366 A  
HETATM   36  C   UNL     1      -6.143  19.002  70.028  1.00  0.00    -0.222 A  
HETATM   37  C   UNL     1      -6.103  20.984  68.066  1.00  0.00    -0.398 A  
HETATM   38  C   UNL     1      -7.053  18.948  68.979  1.00  0.00    -0.339 A  
HETATM   39  C   UNL     1      -5.214  20.043  70.099  1.00  0.00    -0.256 A  
ENDBRANCH  33  34
ENDBRANCH  32  33
ENDBRANCH   2  32
TORSDOF 18
ENDMDL
MODEL      170
REMARK 921   NORMALIZED FREE ENERGY PREDICTED BY IDOCK:   -4.41 KCAL/MOL
REMARK 922        TOTAL FREE ENERGY PREDICTED BY IDOCK:  -13.84 KCAL/MOL
REMARK 923 INTER-LIGAND FREE ENERGY PREDICTED BY IDOCK:  -10.63 KCAL/MOL
REMARK 924 INTRA-LIGAND FREE ENERGY PREDICTED BY IDOCK:   -3.20 KCAL/MOL
REMARK 927      BINDING AFFINITY PREDICTED BY RF-SCORE:    0.00 PKD
ROOT
HETATM    1  O   UNL     1     -11.418   5.793  66.408  1.00  0.00    -0.603 OA 
HETATM    2  C   UNL     1     -10.230   6.124  67.124  1.00  0.00    -0.199 C  
HETATM    3  H   UNL     1     -11.363   6.115  65.516  1.00  0.00     0.000 HD 
ENDROOT
BRANCH   2   4
HETATM    4  C   UNL     1     -10.318   5.601  68.571  1.00  0.00    -0.265 C  
BRANCH   4   5
HETATM    5  C   UNL     1     -11.304   6.350  69.474  1.00  0.00    -0.460 C  
BRANCH   5   6
HETATM    6  C   UNL     1     -10.768   6.785  70.857  1.00  0.00    -0.269 C  
HETATM    7  H   UNL     1      -8.415   9.453  72.733  1.00  0.00     0.000 HD 
HETATM    8  C   UNL     1      -9.876   8.095  70.943  1.00  0.00    -0.203 C  
HETATM    9  C   UNL     1      -9.841   5.684  71.390  1.00  0.00    -0.173 C  
HETATM   10  C   UNL     1      -9.100   6.352  72.511  1.00  0.00    -0.136 C  
HETATM   11  O   UNL     1     -10.553   4.565  71.885  1.00  0.00    -0.125 OA 
HETATM   12  O   UNL     1      -8.630   8.593  73.075  1.00  0.00    -0.395 OA 
HETATM   13  H   UNL     1      -9.979   3.884  72.215  1.00  0.00     0.000 HD 
HETATM   14  C   UNL     1      -8.757   7.723  71.967  1.00  0.00    -0.126 C  
BRANCH   8  15
HETATM   15  C   UNL     1     -10.649   9.415  71.261  1.00  0.00    -0.400 C  
BRANCH  15  16
HETATM   16  C   UNL     1     -12.096   9.454  70.805  1.00  0.00    -0.270 C  
HETATM   17  C   UNL     1     -13.064  10.377  70.974  1.00  0.00    -0.450 C  
BRANCH  17  18
HETATM   18  C   UNL     1     -13.001  11.687  71.706  1.00  0.00    -0.483 C  
BRANCH  18  19
HETATM   19  C   UNL     1     -12.372  12.802  70.854  1.00  0.00    -0.356 C  
BRANCH  19  20
HETATM   20  C   UNL     1     -12.659  14.212  71.354  1.00  0.00    -0.445 C  
BRANCH  20  21
HETATM   21  C   UNL     1     -11.944  15.232  70.525  1.00  0.00    -0.344 C  
HETATM   22  O   UNL     1     -11.149  16.071  70.932  1.00  0.00    -0.339 OA 
BRANCH  21  23
HETATM   23  O   UNL     1     -12.437  15.168  69.258  1.00  0.00    -0.126 OA 
BRANCH  23  24
HETATM   24  C   UNL     1     -11.378  15.065  68.329  1.00  0.00    -0.318 C  
BRANCH  24  25
HETATM   25  C   UNL     1     -11.583  13.950  67.327  1.00  0.00    -0.393 C  
BRANCH  25  26
HETATM   26  C   UNL     1     -11.918  14.462  65.928  1.00  0.00    -0.367 C  
BRANCH  26  27
HETATM   27  C   UNL     1     -10.705  14.836  65.065  1.00  0.00    -0.433 C  
BRANCH  27  28
HETATM   28  O   UNL     1     -10.509  16.231  65.127  1.00  0.00    -0.591 OA 
HETATM   29  N   UNL     1      -9.290  16.577  65.758  1.00  0.00    -0.175 N  
HETATM   30  O   UNL     1      -9.147  17.797  65.872  1.00  0.00    -0.516 OA 
HETATM   31  O   UNL     1      -8.555  15.663  66.109  1.00  0.00    -0.297 OA 
ENDBRANCH  27  28
ENDBRANCH  26  27
ENDBRANCH  25  26
ENDBRANCH  24  25
ENDBRANCH  23  24
ENDBRANCH  21  23
ENDBRANCH  20  21
ENDBRANCH  19  20
ENDBRANCH  18  19
ENDBRANCH  17  18
ENDBRANCH  15  16
ENDBRANCH   8  15
ENDBRANCH   5   6
ENDBRANCH   4   5
ENDBRANCH   2   4
BRANCH   2  32
HETATM   32  C   UNL     1     -10.104   7.640  67.085  1.00  0.00    -0.323 C  
BRANCH  32  33
HETATM   33  C   UNL     1      -8.691   8.098  67.430  1.00  0.00    -0.124 C  
BRANCH  33  34
HETATM   34  C   UNL     1      -8.650   9.591  67.461  1.00  0.00    -0.126 A  
HETATM   35  C   UNL     1      -8.986  11.704  66.335  1.00  0.00    -0.198 A  
HETATM   36  C   UNL     1      -7.983  11.638  68.537  1.00  0.00    -0.144 A  
HETATM   37  C   UNL     1      -9.096  10.317  66.346  1.00  0.00    -0.174 A  
HETATM   38  C   UNL     1      -8.091  10.253  68.553  1.00  0.00    -0.109 A  
HETATM   39  C   UNL     1      -8.430  12.363  67.429  1.00  0.00    -0.179 A  
ENDBRANCH  33  34
ENDBRANCH  32  33
ENDBRANCH   2  32
TORSDOF 18
ENDMDL
MODEL      171
REMARK 921   NORMALIZED FREE ENERGY PREDICTED BY IDOCK:   -4.40 KCAL/MOL
REMARK 922        TOTAL FREE ENERGY PREDICTED BY IDOCK:  -13.82 KCAL/MOL
REMARK 923 INTER-LIGAND FREE ENERGY PREDICTED BY IDOCK:  -10.54 KCAL/MOL
REMARK 924 INTRA-LIGAND FREE ENERGY PREDICTED BY IDOCK:   -3.29 KCAL/MOL
REMARK 927      BINDING AFFINITY PREDICTED BY RF-SCORE:    0.00 PKD
ROOT
HETATM    1  O   UNL     1     -12.319  10.849  68.529  1.00  0.00    -0.807 OA 
HETATM    2  C   UNL     1     -11.189  11.531  69.071  1.00  0.00    -0.262 C  
HETATM    3  H   UNL     1     -12.850  10.488  69.229  1.00  0.00     0.000 HD 
ENDROOT
BRANCH   2   4
HETATM    4  C   UNL     1     -10.327  12.116  67.935  1.00  0.00    -0.216 C  
BRANCH   4   5
HETATM    5  C   UNL     1      -8.858  11.681  67.943  1.00  0.00    -0.155 C  
BRANCH   5   6
HETATM    6  C   UNL     1      -8.236  11.353  66.565  1.00  0.00    -0.152 C  
HETATM    7  H   UNL     1      -8.056   8.573  63.664  1.00  0.00     0.000 HD 
HETATM    8  C   UNL     1      -8.682  10.015  65.835  1.00  0.00    -0.154 C  
HETATM    9  C   UNL     1      -6.722  11.178  66.743  1.00  0.00    -0.135 C  
HETATM   10  C   UNL     1      -6.289  10.507  65.473  1.00  0.00    -0.112 C  
HETATM   11  O   UNL     1      -6.045  12.412  66.888  1.00  0.00    -0.428 OA 
HETATM   12  O   UNL     1      -7.386   9.227  63.824  1.00  0.00    -0.098 OA 
HETATM   13  H   UNL     1      -5.108  12.304  66.998  1.00  0.00     0.000 HD 
HETATM   14  C   UNL     1      -7.357   9.465  65.218  1.00  0.00    -0.096 C  
BRANCH   8  15
HETATM   15  C   UNL     1      -9.868  10.161  64.829  1.00  0.00    -0.382 C  
BRANCH  15  16
HETATM   16  C   UNL     1      -9.895  11.452  64.031  1.00  0.00    -0.316 C  
HETATM   17  C   UNL     1     -10.841  12.403  63.898  1.00  0.00    -0.465 C  
BRANCH  17  18
HETATM   18  C   UNL     1     -12.211  12.463  64.512  1.00  0.00    -0.509 C  
BRANCH  18  19
HETATM   19  C   UNL     1     -12.615  13.895  64.897  1.00  0.00    -0.380 C  
BRANCH  19  20
HETATM   20  C   UNL     1     -12.011  14.387  66.207  1.00  0.00    -0.391 C  
BRANCH  20  21
HETATM   21  C   UNL     1     -10.864  15.315  65.955  1.00  0.00    -0.330 C  
HETATM   22  O   UNL     1     -10.610  15.888  64.903  1.00  0.00    -0.546 OA 
BRANCH  21  23
HETATM   23  O   UNL     1     -10.063  15.304  67.056  1.00  0.00    -0.243 OA 
BRANCH  23  24
HETATM   24  C   UNL     1      -8.706  15.238  66.669  1.00  0.00    -0.291 C  
BRANCH  24  25
HETATM   25  C   UNL     1      -7.772  15.021  67.840  1.00  0.00    -0.145 C  
BRANCH  25  26
HETATM   26  C   UNL     1      -7.708  16.223  68.779  1.00  0.00    -0.202 C  
BRANCH  26  27
HETATM   27  C   UNL     1      -7.487  17.576  68.088  1.00  0.00    -0.218 C  
BRANCH  27  28
HETATM   28  O   UNL     1      -8.671  18.337  68.178  1.00  0.00    -0.266 OA 
HETATM   29  N   UNL     1      -9.119  18.790  66.915  1.00  0.00    -0.291 N  
HETATM   30  O   UNL     1     -10.118  19.510  66.997  1.00  0.00    -0.344 OA 
HETATM   31  O   UNL     1      -8.485  18.437  65.929  1.00  0.00    -0.497 OA 
ENDBRANCH  27  28
ENDBRANCH  26  27
ENDBRANCH  25  26
ENDBRANCH  24  25
ENDBRANCH  23  24
ENDBRANCH  21  23
ENDBRANCH  20  21
ENDBRANCH  19  20
ENDBRANCH  18  19
ENDBRANCH  17  18
ENDBRANCH  15  16
ENDBRANCH   8  15
ENDBRANCH   5   6
ENDBRANCH   4   5
ENDBRANCH   2   4
BRANCH   2  32
HETATM   32  C   UNL     1     -10.414  10.510  69.891  1.00  0.00    -0.213 C  
BRANCH  32  33
HETATM   33  C   UNL     1     -11.332   9.450  70.487  1.00  0.00    -0.328 C  
BRANCH  33  34
HETATM   34  C   UNL     1     -10.874   8.097  70.052  1.00  0.00    -0.233 A  
HETATM   35  C   UNL     1     -10.007   6.654  68.316  1.00  0.00    -0.148 A  
HETATM   36  C   UNL     1     -10.681   5.731  70.450  1.00  0.00    -0.372 A  
HETATM   37  C   UNL     1     -10.362   7.925  68.757  1.00  0.00    -0.220 A  
HETATM   38  C   UNL     1     -11.035   6.999  70.895  1.00  0.00    -0.282 A  
HETATM   39  C   UNL     1     -10.167   5.558  69.162  1.00  0.00    -0.309 A  
ENDBRANCH  33  34
ENDBRANCH  32  33
ENDBRANCH   2  32
TORSDOF 18
ENDMDL
MODEL      172
REMARK 921   NORMALIZED FREE ENERGY PREDICTED BY IDOCK:   -4.40 KCAL/MOL
REMARK 922        TOTAL FREE ENERGY PREDICTED BY IDOCK:  -13.81 KCAL/MOL
REMARK 923 INTER-LIGAND FREE ENERGY PREDICTED BY IDOCK:  -10.30 KCAL/MOL
REMARK 924 INTRA-LIGAND FREE ENERGY PREDICTED BY IDOCK:   -3.51 KCAL/MOL
REMARK 927      BINDING AFFINITY PREDICTED BY RF-SCORE:    0.00 PKD
ROOT
HETATM    1  O   UNL     1      -7.022   9.450  68.388  1.00  0.00    -0.066 OA 
HETATM    2  C   UNL     1      -7.864   9.974  69.413  1.00  0.00    -0.141 C  
HETATM    3  H   UNL     1      -7.126   9.954  67.589  1.00  0.00     0.000 HD 
ENDROOT
BRANCH   2   4
HETATM    4  C   UNL     1      -7.695   9.156  70.709  1.00  0.00    -0.162 C  
BRANCH   4   5
HETATM    5  C   UNL     1      -8.997   8.621  71.314  1.00  0.00    -0.268 C  
BRANCH   5   6
HETATM    6  C   UNL     1      -9.163   7.084  71.327  1.00  0.00    -0.152 C  
HETATM    7  H   UNL     1      -9.731   3.900  73.718  1.00  0.00     0.000 HD 
HETATM    8  C   UNL     1      -9.486   6.371  72.708  1.00  0.00    -0.147 C  
HETATM    9  C   UNL     1      -7.835   6.447  70.896  1.00  0.00    -0.107 C  
HETATM   10  C   UNL     1      -7.980   5.009  71.301  1.00  0.00    -0.109 C  
HETATM   11  O   UNL     1      -7.618   6.531  69.500  1.00  0.00    -0.091 OA 
HETATM   12  O   UNL     1      -9.329   3.861  72.858  1.00  0.00    -0.111 OA 
HETATM   13  H   UNL     1      -6.796   6.136  69.233  1.00  0.00     0.000 HD 
HETATM   14  C   UNL     1      -8.620   5.071  72.672  1.00  0.00    -0.119 C  
BRANCH   8  15
HETATM   15  C   UNL     1     -11.002   6.145  73.010  1.00  0.00    -0.278 C  
BRANCH  15  16
HETATM   16  C   UNL     1     -11.938   6.315  71.827  1.00  0.00    -0.313 C  
HETATM   17  C   UNL     1     -12.795   7.302  71.498  1.00  0.00    -0.430 C  
BRANCH  17  18
HETATM   18  C   UNL     1     -13.103   8.571  72.240  1.00  0.00    -0.372 C  
BRANCH  18  19
HETATM   19  C   UNL     1     -12.454   9.801  71.587  1.00  0.00    -0.500 C  
BRANCH  19  20
HETATM   20  C   UNL     1     -13.058  11.132  72.015  1.00  0.00    -0.433 C  
BRANCH  20  21
HETATM   21  C   UNL     1     -12.539  12.255  71.172  1.00  0.00    -0.253 C  
HETATM   22  O   UNL     1     -12.616  13.451  71.427  1.00  0.00    -0.340 OA 
BRANCH  21  23
HETATM   23  O   UNL     1     -12.093  11.731  69.998  1.00  0.00    -0.319 OA 
BRANCH  23  24
HETATM   24  C   UNL     1     -11.580  12.754  69.171  1.00  0.00    -0.319 C  
BRANCH  24  25
HETATM   25  C   UNL     1     -11.740  12.454  67.697  1.00  0.00    -0.412 C  
BRANCH  25  26
HETATM   26  C   UNL     1     -11.842  13.714  66.841  1.00  0.00    -0.451 C  
BRANCH  26  27
HETATM   27  C   UNL     1     -10.849  13.787  65.672  1.00  0.00    -0.287 C  
BRANCH  27  28
HETATM   28  O   UNL     1     -11.432  14.523  64.619  1.00  0.00    -0.385 OA 
HETATM   29  N   UNL     1     -11.006  15.872  64.603  1.00  0.00    -0.411 N  
HETATM   30  O   UNL     1     -11.563  16.534  63.724  1.00  0.00    -1.109 OA 
HETATM   31  O   UNL     1     -10.175  16.213  65.435  1.00  0.00    -0.479 OA 
ENDBRANCH  27  28
ENDBRANCH  26  27
ENDBRANCH  25  26
ENDBRANCH  24  25
ENDBRANCH  23  24
ENDBRANCH  21  23
ENDBRANCH  20  21
ENDBRANCH  19  20
ENDBRANCH  18  19
ENDBRANCH  17  18
ENDBRANCH  15  16
ENDBRANCH   8  15
ENDBRANCH   5   6
ENDBRANCH   4   5
ENDBRANCH   2   4
BRANCH   2  32
HETATM   32  C   UNL     1      -9.290   9.900  68.888  1.00  0.00    -0.170 C  
BRANCH  32  33
HETATM   33  C   UNL     1      -9.331   9.481  67.423  1.00  0.00    -0.153 C  
BRANCH  33  34
HETATM   34  C   UNL     1      -9.747   8.050  67.329  1.00  0.00    -0.232 A  
HETATM   35  C   UNL     1     -10.930   6.163  68.270  1.00  0.00    -0.397 A  
HETATM   36  C   UNL     1      -9.552   5.884  66.300  1.00  0.00    -0.148 A  
HETATM   37  C   UNL     1     -10.602   7.515  68.304  1.00  0.00    -0.185 A  
HETATM   38  C   UNL     1      -9.222   7.233  66.330  1.00  0.00    -0.175 A  
HETATM   39  C   UNL     1     -10.405   5.348  67.268  1.00  0.00    -0.273 A  
ENDBRANCH  33  34
ENDBRANCH  32  33
ENDBRANCH   2  32
TORSDOF 18
ENDMDL
MODEL      173
REMARK 921   NORMALIZED FREE ENERGY PREDICTED BY IDOCK:   -4.39 KCAL/MOL
REMARK 922        TOTAL FREE ENERGY PREDICTED BY IDOCK:  -13.80 KCAL/MOL
REMARK 923 INTER-LIGAND FREE ENERGY PREDICTED BY IDOCK:  -10.04 KCAL/MOL
REMARK 924 INTRA-LIGAND FREE ENERGY PREDICTED BY IDOCK:   -3.75 KCAL/MOL
REMARK 927      BINDING AFFINITY PREDICTED BY RF-SCORE:    0.00 PKD
ROOT
HETATM    1  O   UNL     1     -11.134   4.744  65.852  1.00  0.00    -0.738 OA 
HETATM    2  C   UNL     1     -10.117   5.204  66.739  1.00  0.00    -0.232 C  
HETATM    3  H   UNL     1     -10.784   4.645  64.974  1.00  0.00     0.000 HD 
ENDROOT
BRANCH   2   4
HETATM    4  C   UNL     1     -10.685   5.364  68.163  1.00  0.00    -0.076 C  
BRANCH   4   5
HETATM    5  C   UNL     1      -9.817   4.774  69.280  1.00  0.00    -0.269 C  
BRANCH   5   6
HETATM    6  C   UNL     1     -10.236   5.126  70.727  1.00  0.00    -0.308 C  
HETATM    7  H   UNL     1      -9.999   7.953  73.577  1.00  0.00     0.000 HD 
HETATM    8  C   UNL     1      -9.882   6.570  71.285  1.00  0.00    -0.197 C  
HETATM    9  C   UNL     1      -9.505   4.181  71.689  1.00  0.00    -0.150 C  
HETATM   10  C   UNL     1      -9.674   4.834  73.029  1.00  0.00    -0.164 C  
HETATM   11  O   UNL     1     -10.071   2.884  71.714  1.00  0.00    -0.151 OA 
HETATM   12  O   UNL     1     -10.146   7.030  73.747  1.00  0.00    -0.288 OA 
HETATM   13  H   UNL     1      -9.619   2.299  72.310  1.00  0.00     0.000 HD 
HETATM   14  C   UNL     1      -9.440   6.306  72.759  1.00  0.00    -0.147 C  
BRANCH   8  15
HETATM   15  C   UNL     1     -11.000   7.648  71.115  1.00  0.00    -0.263 C  
BRANCH  15  16
HETATM   16  C   UNL     1     -12.425   7.124  71.132  1.00  0.00    -0.400 C  
HETATM   17  C   UNL     1     -13.572   7.665  71.590  1.00  0.00    -0.431 C  
BRANCH  17  18
HETATM   18  C   UNL     1     -13.789   8.993  72.257  1.00  0.00    -0.547 C  
BRANCH  18  19
HETATM   19  C   UNL     1     -13.856  10.149  71.247  1.00  0.00     0.116 C  
BRANCH  19  20
HETATM   20  C   UNL     1     -12.699  11.135  71.344  1.00  0.00    -0.524 C  
BRANCH  20  21
HETATM   21  C   UNL     1     -13.194  12.518  71.632  1.00  0.00    -0.284 C  
HETATM   22  O   UNL     1     -13.919  12.852  72.562  1.00  0.00    -0.581 OA 
BRANCH  21  23
HETATM   23  O   UNL     1     -12.820  13.324  70.601  1.00  0.00    -0.183 OA 
BRANCH  23  24
HETATM   24  C   UNL     1     -11.986  12.615  69.708  1.00  0.00    -0.295 C  
BRANCH  24  25
HETATM   25  C   UNL     1     -11.855  13.296  68.363  1.00  0.00    -0.395 C  
BRANCH  25  26
HETATM   26  C   UNL     1     -11.781  12.308  67.201  1.00  0.00    -0.396 C  
BRANCH  26  27
HETATM   27  C   UNL     1     -11.033  12.819  65.961  1.00  0.00    -0.278 C  
BRANCH  27  28
HETATM   28  O   UNL     1     -11.972  13.305  65.026  1.00  0.00    -0.336 OA 
HETATM   29  N   UNL     1     -11.679  14.624  64.604  1.00  0.00    -0.422 N  
HETATM   30  O   UNL     1     -12.533  15.075  63.837  1.00  0.00    -0.790 OA 
HETATM   31  O   UNL     1     -10.659  15.143  65.037  1.00  0.00    -0.393 OA 
ENDBRANCH  27  28
ENDBRANCH  26  27
ENDBRANCH  25  26
ENDBRANCH  24  25
ENDBRANCH  23  24
ENDBRANCH  21  23
ENDBRANCH  20  21
ENDBRANCH  19  20
ENDBRANCH  18  19
ENDBRANCH  17  18
ENDBRANCH  15  16
ENDBRANCH   8  15
ENDBRANCH   5   6
ENDBRANCH   4   5
ENDBRANCH   2   4
BRANCH   2  32
HETATM   32  C   UNL     1      -9.619   6.530  66.184  1.00  0.00    -0.028 C  
BRANCH  32  33
HETATM   33  C   UNL     1      -8.222   6.866  66.692  1.00  0.00    -0.115 C  
BRANCH  33  34
HETATM   34  C   UNL     1      -8.322   7.885  67.779  1.00  0.00    -0.129 A  
HETATM   35  C   UNL     1      -9.380   9.862  68.685  1.00  0.00    -0.149 A  
HETATM   36  C   UNL     1      -7.426   8.920  69.758  1.00  0.00    -0.057 A  
HETATM   37  C   UNL     1      -9.329   8.860  67.719  1.00  0.00    -0.157 A  
HETATM   38  C   UNL     1      -7.370   7.918  68.797  1.00  0.00    -0.086 A  
HETATM   39  C   UNL     1      -8.429   9.891  69.703  1.00  0.00    -0.198 A  
ENDBRANCH  33  34
ENDBRANCH  32  33
ENDBRANCH   2  32
TORSDOF 18
ENDMDL
MODEL      174
REMARK 921   NORMALIZED FREE ENERGY PREDICTED BY IDOCK:   -4.39 KCAL/MOL
REMARK 922        TOTAL FREE ENERGY PREDICTED BY IDOCK:  -13.79 KCAL/MOL
REMARK 923 INTER-LIGAND FREE ENERGY PREDICTED BY IDOCK:  -11.26 KCAL/MOL
REMARK 924 INTRA-LIGAND FREE ENERGY PREDICTED BY IDOCK:   -2.53 KCAL/MOL
REMARK 927      BINDING AFFINITY PREDICTED BY RF-SCORE:    0.00 PKD
ROOT
HETATM    1  O   UNL     1     -10.315  13.653  69.122  1.00  0.00    -0.421 OA 
HETATM    2  C   UNL     1     -10.950  13.678  67.845  1.00  0.00    -0.259 C  
HETATM    3  H   UNL     1     -10.737  14.268  69.710  1.00  0.00     0.000 HD 
ENDROOT
BRANCH   2   4
HETATM    4  C   UNL     1     -10.265  12.680  66.891  1.00  0.00    -0.242 C  
BRANCH   4   5
HETATM    5  C   UNL     1     -11.218  11.773  66.105  1.00  0.00    -0.363 C  
BRANCH   5   6
HETATM    6  C   UNL     1     -10.559  10.656  65.264  1.00  0.00    -0.191 C  
HETATM    7  H   UNL     1      -7.236   8.425  64.866  1.00  0.00     0.000 HD 
HETATM    8  C   UNL     1      -9.145  10.099  65.724  1.00  0.00    -0.206 C  
HETATM    9  C   UNL     1     -10.287  11.202  63.856  1.00  0.00    -0.380 C  
HETATM   10  C   UNL     1      -9.332  10.207  63.264  1.00  0.00    -0.332 C  
HETATM   11  O   UNL     1     -11.458  11.271  63.063  1.00  0.00    -0.852 OA 
HETATM   12  O   UNL     1      -7.845   8.612  64.161  1.00  0.00    -0.126 OA 
HETATM   13  H   UNL     1     -11.290  11.609  62.192  1.00  0.00     0.000 HD 
HETATM   14  C   UNL     1      -8.361   9.909  64.387  1.00  0.00    -0.168 C  
BRANCH   8  15
HETATM   15  C   UNL     1      -9.188   8.839  66.648  1.00  0.00    -0.223 C  
BRANCH  15  16
HETATM   16  C   UNL     1     -10.516   8.107  66.697  1.00  0.00    -0.204 C  
HETATM   17  C   UNL     1     -10.857   6.902  67.198  1.00  0.00    -0.447 C  
BRANCH  17  18
HETATM   18  C   UNL     1      -9.986   5.879  67.869  1.00  0.00    -0.157 C  
BRANCH  18  19
HETATM   19  C   UNL     1      -9.538   6.323  69.270  1.00  0.00    -0.147 C  
BRANCH  19  20
HETATM   20  C   UNL     1      -9.366   5.183  70.265  1.00  0.00    -0.209 C  
BRANCH  20  21
HETATM   21  C   UNL     1      -9.146   5.706  71.651  1.00  0.00    -0.139 C  
HETATM   22  O   UNL     1      -8.110   6.192  72.087  1.00  0.00    -0.109 OA 
BRANCH  21  23
HETATM   23  O   UNL     1     -10.251   5.418  72.391  1.00  0.00    -0.183 OA 
BRANCH  23  24
HETATM   24  C   UNL     1     -10.986   6.597  72.647  1.00  0.00    -0.255 C  
BRANCH  24  25
HETATM   25  C   UNL     1     -12.263   6.678  71.840  1.00  0.00    -0.381 C  
BRANCH  25  26
HETATM   26  C   UNL     1     -12.339   7.932  70.972  1.00  0.00    -0.180 C  
BRANCH  26  27
HETATM   27  C   UNL     1     -11.509   9.122  71.476  1.00  0.00    -0.367 C  
BRANCH  27  28
HETATM   28  O   UNL     1     -12.383  10.140  71.913  1.00  0.00    -0.362 OA 
HETATM   29  N   UNL     1     -12.299  11.304  71.114  1.00  0.00    -0.352 N  
HETATM   30  O   UNL     1     -13.014  12.218  71.532  1.00  0.00    -0.386 OA 
HETATM   31  O   UNL     1     -11.551  11.272  70.145  1.00  0.00    -0.310 OA 
ENDBRANCH  27  28
ENDBRANCH  26  27
ENDBRANCH  25  26
ENDBRANCH  24  25
ENDBRANCH  23  24
ENDBRANCH  21  23
ENDBRANCH  20  21
ENDBRANCH  19  20
ENDBRANCH  18  19
ENDBRANCH  17  18
ENDBRANCH  15  16
ENDBRANCH   8  15
ENDBRANCH   5   6
ENDBRANCH   4   5
ENDBRANCH   2   4
BRANCH   2  32
HETATM   32  C   UNL     1     -10.840  15.107  67.331  1.00  0.00    -0.302 C  
BRANCH  32  33
HETATM   33  C   UNL     1     -10.447  16.077  68.439  1.00  0.00    -0.263 C  
BRANCH  33  34
HETATM   34  C   UNL     1     -10.258  17.440  67.859  1.00  0.00    -0.348 A  
HETATM   35  C   UNL     1      -9.932  19.813  68.187  1.00  0.00    -0.557 A  
HETATM   36  C   UNL     1     -10.295  18.925  65.965  1.00  0.00    -0.485 A  
HETATM   37  C   UNL     1     -10.030  18.528  68.714  1.00  0.00    -0.417 A  
HETATM   38  C   UNL     1     -10.393  17.640  66.486  1.00  0.00    -0.337 A  
HETATM   39  C   UNL     1     -10.065  20.010  66.814  1.00  0.00    -0.607 A  
ENDBRANCH  33  34
ENDBRANCH  32  33
ENDBRANCH   2  32
TORSDOF 18
ENDMDL
MODEL      175
REMARK 921   NORMALIZED FREE ENERGY PREDICTED BY IDOCK:   -4.38 KCAL/MOL
REMARK 922        TOTAL FREE ENERGY PREDICTED BY IDOCK:  -13.76 KCAL/MOL
REMARK 923 INTER-LIGAND FREE ENERGY PREDICTED BY IDOCK:   -9.79 KCAL/MOL
REMARK 924 INTRA-LIGAND FREE ENERGY PREDICTED BY IDOCK:   -3.97 KCAL/MOL
REMARK 927      BINDING AFFINITY PREDICTED BY RF-SCORE:    0.00 PKD
ROOT
HETATM    1  O   UNL     1     -10.151   7.857  66.968  1.00  0.00    -0.221 OA 
HETATM    2  C   UNL     1      -9.298   8.913  66.529  1.00  0.00    -0.195 C  
HETATM    3  H   UNL     1     -10.520   7.401  66.220  1.00  0.00     0.000 HD 
ENDROOT
BRANCH   2   4
HETATM    4  C   UNL     1      -8.700   9.652  67.742  1.00  0.00    -0.122 C  
BRANCH   4   5
HETATM    5  C   UNL     1      -8.972   8.998  69.101  1.00  0.00    -0.140 C  
BRANCH   5   6
HETATM    6  C   UNL     1     -10.436   9.035  69.595  1.00  0.00    -0.227 C  
HETATM    7  H   UNL     1     -13.373  11.472  70.864  1.00  0.00     0.000 HD 
HETATM    8  C   UNL     1     -11.107  10.448  69.865  1.00  0.00    -0.367 C  
HETATM    9  C   UNL     1     -10.507   8.338  70.961  1.00  0.00    -0.202 C  
HETATM   10  C   UNL     1     -11.842   8.756  71.506  1.00  0.00    -0.377 C  
HETATM   11  O   UNL     1     -10.453   6.927  70.856  1.00  0.00    -0.209 OA 
HETATM   12  O   UNL     1     -13.313  10.548  71.076  1.00  0.00    -0.306 OA 
HETATM   13  H   UNL     1     -10.498   6.496  71.701  1.00  0.00     0.000 HD 
HETATM   14  C   UNL     1     -11.938  10.229  71.168  1.00  0.00    -0.376 C  
BRANCH   8  15
HETATM   15  C   UNL     1     -11.907  11.052  68.666  1.00  0.00    -0.318 C  
BRANCH  15  16
HETATM   16  C   UNL     1     -11.896  12.567  68.568  1.00  0.00    -0.341 C  
HETATM   17  C   UNL     1     -10.890  13.444  68.378  1.00  0.00    -0.284 C  
BRANCH  17  18
HETATM   18  C   UNL     1      -9.421  13.176  68.214  1.00  0.00    -0.210 C  
BRANCH  18  19
HETATM   19  C   UNL     1      -8.567  14.427  68.474  1.00  0.00    -0.175 C  
BRANCH  19  20
HETATM   20  C   UNL     1      -7.617  14.786  67.338  1.00  0.00    -0.228 C  
BRANCH  20  21
HETATM   21  C   UNL     1      -7.693  16.245  67.014  1.00  0.00    -0.214 C  
HETATM   22  O   UNL     1      -7.914  16.734  65.913  1.00  0.00    -0.378 OA 
BRANCH  21  23
HETATM   23  O   UNL     1      -7.332  16.944  68.125  1.00  0.00    -0.169 OA 
BRANCH  23  24
HETATM   24  C   UNL     1      -6.706  18.155  67.755  1.00  0.00    -0.204 C  
BRANCH  24  25
HETATM   25  C   UNL     1      -7.688  19.294  67.585  1.00  0.00    -0.288 C  
BRANCH  25  26
HETATM   26  C   UNL     1      -8.245  19.802  68.912  1.00  0.00    -0.164 C  
BRANCH  26  27
HETATM   27  C   UNL     1      -9.708  19.428  69.189  1.00  0.00    -0.341 C  
BRANCH  27  28
HETATM   28  O   UNL     1     -10.225  18.737  68.072  1.00  0.00    -0.353 OA 
HETATM   29  N   UNL     1     -10.644  17.425  68.395  1.00  0.00    -0.371 N  
HETATM   30  O   UNL     1     -11.035  16.797  67.409  1.00  0.00    -0.232 OA 
HETATM   31  O   UNL     1     -10.565  17.079  69.567  1.00  0.00    -0.316 OA 
ENDBRANCH  27  28
ENDBRANCH  26  27
ENDBRANCH  25  26
ENDBRANCH  24  25
ENDBRANCH  23  24
ENDBRANCH  21  23
ENDBRANCH  20  21
ENDBRANCH  19  20
ENDBRANCH  18  19
ENDBRANCH  17  18
ENDBRANCH  15  16
ENDBRANCH   8  15
ENDBRANCH   5   6
ENDBRANCH   4   5
ENDBRANCH   2   4
BRANCH   2  32
HETATM   32  C   UNL     1     -10.153   9.839  65.677  1.00  0.00    -0.282 C  
BRANCH  32  33
HETATM   33  C   UNL     1      -9.399  11.106  65.290  1.00  0.00    -0.243 C  
BRANCH  33  34
HETATM   34  C   UNL     1     -10.379  12.187  64.971  1.00  0.00    -0.320 A  
HETATM   35  C   UNL     1     -10.825  14.515  64.492  1.00  0.00    -0.239 A  
HETATM   36  C   UNL     1     -12.653  12.957  64.798  1.00  0.00    -0.493 A  
HETATM   37  C   UNL     1      -9.915  13.485  64.711  1.00  0.00    -0.156 A  
HETATM   38  C   UNL     1     -11.748  11.926  65.017  1.00  0.00    -0.253 A  
HETATM   39  C   UNL     1     -12.193  14.250  64.536  1.00  0.00    -0.476 A  
ENDBRANCH  33  34
ENDBRANCH  32  33
ENDBRANCH   2  32
TORSDOF 18
ENDMDL
MODEL      176
REMARK 921   NORMALIZED FREE ENERGY PREDICTED BY IDOCK:   -4.37 KCAL/MOL
REMARK 922        TOTAL FREE ENERGY PREDICTED BY IDOCK:  -13.75 KCAL/MOL
REMARK 923 INTER-LIGAND FREE ENERGY PREDICTED BY IDOCK:   -9.88 KCAL/MOL
REMARK 924 INTRA-LIGAND FREE ENERGY PREDICTED BY IDOCK:   -3.87 KCAL/MOL
REMARK 927      BINDING AFFINITY PREDICTED BY RF-SCORE:    0.00 PKD
ROOT
HETATM    1  O   UNL     1     -13.623   9.935  70.827  1.00  0.00    -0.553 OA 
HETATM    2  C   UNL     1     -12.322   9.508  71.224  1.00  0.00    -0.345 C  
HETATM    3  H   UNL     1     -14.287   9.425  71.277  1.00  0.00     0.000 HD 
ENDROOT
BRANCH   2   4
HETATM    4  C   UNL     1     -11.245  10.335  70.493  1.00  0.00    -0.408 C  
BRANCH   4   5
HETATM    5  C   UNL     1      -9.845   9.714  70.482  1.00  0.00    -0.294 C  
BRANCH   5   6
HETATM    6  C   UNL     1      -9.097   9.741  69.129  1.00  0.00    -0.166 C  
HETATM    7  H   UNL     1      -6.843   7.548  66.622  1.00  0.00     0.000 HD 
HETATM    8  C   UNL     1      -8.425   8.399  68.611  1.00  0.00    -0.128 C  
HETATM    9  C   UNL     1      -7.916  10.713  69.243  1.00  0.00    -0.135 C  
HETATM   10  C   UNL     1      -7.064  10.383  68.052  1.00  0.00    -0.082 C  
HETATM   11  O   UNL     1      -8.318  12.069  69.183  1.00  0.00    -0.341 OA 
HETATM   12  O   UNL     1      -6.841   8.497  66.655  1.00  0.00    -0.069 OA 
HETATM   13  H   UNL     1      -7.586  12.671  69.254  1.00  0.00     0.000 HD 
HETATM   14  C   UNL     1      -7.066   8.870  68.000  1.00  0.00    -0.079 C  
BRANCH   8  15
HETATM   15  C   UNL     1      -9.308   7.527  67.662  1.00  0.00    -0.151 C  
BRANCH  15  16
HETATM   16  C   UNL     1     -10.563   8.199  67.134  1.00  0.00    -0.355 C  
HETATM   17  C   UNL     1     -10.739   9.184  66.231  1.00  0.00     0.366 C  
BRANCH  17  18
HETATM   18  C   UNL     1      -9.705   9.950  65.457  1.00  0.00    -0.370 C  
BRANCH  18  19
HETATM   19  C   UNL     1      -9.714  11.449  65.797  1.00  0.00    -0.263 C  
BRANCH  19  20
HETATM   20  C   UNL     1     -10.918  11.900  66.614  1.00  0.00    -0.336 C  
BRANCH  20  21
HETATM   21  C   UNL     1     -11.290  13.313  66.289  1.00  0.00    -0.309 C  
HETATM   22  O   UNL     1     -10.755  14.031  65.453  1.00  0.00    -0.306 OA 
BRANCH  21  23
HETATM   23  O   UNL     1     -12.234  13.717  67.181  1.00  0.00    -0.391 OA 
BRANCH  23  24
HETATM   24  C   UNL     1     -11.784  13.492  68.501  1.00  0.00    -0.357 C  
BRANCH  24  25
HETATM   25  C   UNL     1     -11.048  14.680  69.081  1.00  0.00    -0.285 C  
BRANCH  25  26
HETATM   26  C   UNL     1     -11.449  16.002  68.432  1.00  0.00    -0.331 C  
BRANCH  26  27
HETATM   27  C   UNL     1     -10.279  16.918  68.047  1.00  0.00    -0.310 C  
BRANCH  27  28
HETATM   28  O   UNL     1     -10.791  18.125  67.525  1.00  0.00    -0.389 OA 
HETATM   29  N   UNL     1     -10.369  18.360  66.195  1.00  0.00    -0.420 N  
HETATM   30  O   UNL     1     -10.763  19.445  65.759  1.00  0.00    -0.481 OA 
HETATM   31  O   UNL     1      -9.684  17.499  65.659  1.00  0.00    -0.532 OA 
ENDBRANCH  27  28
ENDBRANCH  26  27
ENDBRANCH  25  26
ENDBRANCH  24  25
ENDBRANCH  23  24
ENDBRANCH  21  23
ENDBRANCH  20  21
ENDBRANCH  19  20
ENDBRANCH  18  19
ENDBRANCH  17  18
ENDBRANCH  15  16
ENDBRANCH   8  15
ENDBRANCH   5   6
ENDBRANCH   4   5
ENDBRANCH   2   4
BRANCH   2  32
HETATM   32  C   UNL     1     -12.221   8.030  70.877  1.00  0.00    -0.122 C  
BRANCH  32  33
HETATM   33  C   UNL     1     -11.750   7.202  72.067  1.00  0.00    -0.326 C  
BRANCH  33  34
HETATM   34  C   UNL     1     -10.902   6.073  71.579  1.00  0.00    -0.322 A  
HETATM   35  C   UNL     1     -10.123   4.697  69.750  1.00  0.00    -0.243 A  
HETATM   36  C   UNL     1      -9.520   4.155  72.030  1.00  0.00    -0.195 A  
HETATM   37  C   UNL     1     -10.847   5.796  70.205  1.00  0.00    -0.373 A  
HETATM   38  C   UNL     1     -10.241   5.251  72.490  1.00  0.00    -0.237 A  
HETATM   39  C   UNL     1      -9.461   3.878  70.662  1.00  0.00    -0.244 A  
ENDBRANCH  33  34
ENDBRANCH  32  33
ENDBRANCH   2  32
TORSDOF 18
ENDMDL
MODEL      177
REMARK 921   NORMALIZED FREE ENERGY PREDICTED BY IDOCK:   -4.35 KCAL/MOL
REMARK 922        TOTAL FREE ENERGY PREDICTED BY IDOCK:  -13.71 KCAL/MOL
REMARK 923 INTER-LIGAND FREE ENERGY PREDICTED BY IDOCK:  -10.72 KCAL/MOL
REMARK 924 INTRA-LIGAND FREE ENERGY PREDICTED BY IDOCK:   -2.99 KCAL/MOL
REMARK 927      BINDING AFFINITY PREDICTED BY RF-SCORE:    0.00 PKD
ROOT
HETATM    1  O   UNL     1      -9.260   5.871  68.150  1.00  0.00    -0.117 OA 
HETATM    2  C   UNL     1      -8.917   7.171  67.674  1.00  0.00    -0.125 C  
HETATM    3  H   UNL     1      -9.719   5.385  67.475  1.00  0.00     0.000 HD 
ENDROOT
BRANCH   2   4
HETATM    4  C   UNL     1      -8.173   7.959  68.769  1.00  0.00    -0.127 C  
BRANCH   4   5
HETATM    5  C   UNL     1      -7.270   7.118  69.677  1.00  0.00    -0.076 C  
BRANCH   5   6
HETATM    6  C   UNL     1      -7.743   6.945  71.139  1.00  0.00    -0.089 C  
HETATM    7  H   UNL     1     -10.845   7.509  73.635  1.00  0.00     0.000 HD 
HETATM    8  C   UNL     1      -9.249   7.300  71.492  1.00  0.00    -0.150 C  
HETATM    9  C   UNL     1      -6.932   7.896  72.029  1.00  0.00    -0.068 C  
HETATM   10  C   UNL     1      -7.706   7.930  73.315  1.00  0.00    -0.186 C  
HETATM   11  O   UNL     1      -5.619   7.427  72.273  1.00  0.00    -0.037 OA 
HETATM   12  O   UNL     1      -9.938   7.455  73.910  1.00  0.00    -0.301 OA 
HETATM   13  H   UNL     1      -5.117   8.016  72.825  1.00  0.00     0.000 HD 
HETATM   14  C   UNL     1      -9.153   8.016  72.877  1.00  0.00    -0.248 C  
BRANCH   8  15
HETATM   15  C   UNL     1     -10.252   6.103  71.438  1.00  0.00    -0.248 C  
BRANCH  15  16
HETATM   16  C   UNL     1     -11.574   6.387  70.748  1.00  0.00    -0.402 C  
HETATM   17  C   UNL     1     -12.613   7.175  71.093  1.00  0.00    -0.384 C  
BRANCH  17  18
HETATM   18  C   UNL     1     -12.784   8.028  72.317  1.00  0.00    -0.242 C  
BRANCH  18  19
HETATM   19  C   UNL     1     -13.547   9.329  72.020  1.00  0.00    -0.519 C  
BRANCH  19  20
HETATM   20  C   UNL     1     -12.929  10.182  70.919  1.00  0.00    -0.432 C  
BRANCH  20  21
HETATM   21  C   UNL     1     -12.847  11.618  71.334  1.00  0.00    -0.356 C  
HETATM   22  O   UNL     1     -13.512  12.160  72.208  1.00  0.00    -0.491 OA 
BRANCH  21  23
HETATM   23  O   UNL     1     -12.010  12.259  70.473  1.00  0.00    -0.335 OA 
BRANCH  23  24
HETATM   24  C   UNL     1     -12.284  13.645  70.469  1.00  0.00    -0.368 C  
BRANCH  24  25
HETATM   25  C   UNL     1     -11.997  14.296  69.134  1.00  0.00    -0.372 C  
BRANCH  25  26
HETATM   26  C   UNL     1     -11.887  15.816  69.225  1.00  0.00    -0.358 C  
BRANCH  26  27
HETATM   27  C   UNL     1     -10.778  16.439  68.365  1.00  0.00    -0.327 C  
BRANCH  27  28
HETATM   28  O   UNL     1     -10.268  17.576  69.026  1.00  0.00    -0.345 OA 
HETATM   29  N   UNL     1     -10.255  18.722  68.196  1.00  0.00    -0.374 N  
HETATM   30  O   UNL     1      -9.750  19.702  68.750  1.00  0.00    -0.403 OA 
HETATM   31  O   UNL     1     -10.720  18.610  67.069  1.00  0.00    -0.408 OA 
ENDBRANCH  27  28
ENDBRANCH  26  27
ENDBRANCH  25  26
ENDBRANCH  24  25
ENDBRANCH  23  24
ENDBRANCH  21  23
ENDBRANCH  20  21
ENDBRANCH  19  20
ENDBRANCH  18  19
ENDBRANCH  17  18
ENDBRANCH  15  16
ENDBRANCH   8  15
ENDBRANCH   5   6
ENDBRANCH   4   5
ENDBRANCH   2   4
BRANCH   2  32
HETATM   32  C   UNL     1     -10.220   7.852  67.283  1.00  0.00    -0.343 C  
BRANCH  32  33
HETATM   33  C   UNL     1     -10.333   9.245  67.891  1.00  0.00    -0.279 C  
BRANCH  33  34
HETATM   34  C   UNL     1     -10.523  10.247  66.799  1.00  0.00    -0.279 A  
HETATM   35  C   UNL     1     -11.532  12.297  66.010  1.00  0.00    -0.434 A  
HETATM   36  C   UNL     1     -10.273  10.893  64.494  1.00  0.00    -0.422 A  
HETATM   37  C   UNL     1     -11.283  11.399  67.044  1.00  0.00    -0.350 A  
HETATM   38  C   UNL     1     -10.021   9.994  65.523  1.00  0.00    -0.367 A  
HETATM   39  C   UNL     1     -11.027  12.044  64.737  1.00  0.00    -0.361 A  
ENDBRANCH  33  34
ENDBRANCH  32  33
ENDBRANCH   2  32
TORSDOF 18
ENDMDL
MODEL      178
REMARK 921   NORMALIZED FREE ENERGY PREDICTED BY IDOCK:   -4.35 KCAL/MOL
REMARK 922        TOTAL FREE ENERGY PREDICTED BY IDOCK:  -13.70 KCAL/MOL
REMARK 923 INTER-LIGAND FREE ENERGY PREDICTED BY IDOCK:  -11.29 KCAL/MOL
REMARK 924 INTRA-LIGAND FREE ENERGY PREDICTED BY IDOCK:   -2.42 KCAL/MOL
REMARK 927      BINDING AFFINITY PREDICTED BY RF-SCORE:    0.00 PKD
ROOT
HETATM    1  O   UNL     1     -12.656  15.225  69.990  1.00  0.00    -0.543 OA 
HETATM    2  C   UNL     1     -11.863  15.274  68.806  1.00  0.00    -0.307 C  
HETATM    3  H   UNL     1     -12.653  16.071  70.422  1.00  0.00     0.000 HD 
ENDROOT
BRANCH   2   4
HETATM    4  C   UNL     1     -11.868  13.902  68.105  1.00  0.00    -0.407 C  
BRANCH   4   5
HETATM    5  C   UNL     1     -11.583  13.938  66.600  1.00  0.00    -0.392 C  
BRANCH   5   6
HETATM    6  C   UNL     1     -11.348  12.572  65.916  1.00  0.00    -0.380 C  
HETATM    7  H   UNL     1      -8.524  10.144  64.397  1.00  0.00     0.000 HD 
HETATM    8  C   UNL     1      -9.854  12.114  65.635  1.00  0.00    -0.256 C  
HETATM    9  C   UNL     1     -11.980  12.611  64.518  1.00  0.00    -0.399 C  
HETATM   10  C   UNL     1     -11.382  11.424  63.822  1.00  0.00    -0.310 C  
HETATM   11  O   UNL     1     -13.389  12.486  64.553  1.00  0.00    -0.780 OA 
HETATM   12  O   UNL     1      -9.440  10.126  64.146  1.00  0.00    -0.272 OA 
HETATM   13  H   UNL     1     -13.780  12.510  63.688  1.00  0.00     0.000 HD 
HETATM   14  C   UNL     1      -9.922  11.453  64.222  1.00  0.00    -0.283 C  
BRANCH   8  15
HETATM   15  C   UNL     1      -9.202  11.231  66.746  1.00  0.00    -0.186 C  
BRANCH  15  16
HETATM   16  C   UNL     1     -10.168  10.589  67.725  1.00  0.00    -0.223 C  
HETATM   17  C   UNL     1     -10.748   9.372  67.744  1.00  0.00    -0.290 C  
BRANCH  17  18
HETATM   18  C   UNL     1     -10.617   8.249  66.755  1.00  0.00    -0.226 C  
BRANCH  18  19
HETATM   19  C   UNL     1      -9.474   7.286  67.115  1.00  0.00    -0.180 C  
BRANCH  19  20
HETATM   20  C   UNL     1      -9.111   6.303  66.009  1.00  0.00    -0.126 C  
BRANCH  20  21
HETATM   21  C   UNL     1      -9.253   4.888  66.480  1.00  0.00    -0.135 C  
HETATM   22  O   UNL     1      -8.868   3.885  65.892  1.00  0.00    -0.118 OA 
BRANCH  21  23
HETATM   23  O   UNL     1     -10.015   4.893  67.607  1.00  0.00    -0.164 OA 
BRANCH  23  24
HETATM   24  C   UNL     1      -9.465   4.017  68.569  1.00  0.00    -0.151 C  
BRANCH  24  25
HETATM   25  C   UNL     1      -9.105   4.717  69.862  1.00  0.00    -0.161 C  
BRANCH  25  26
HETATM   26  C   UNL     1     -10.330   5.156  70.661  1.00  0.00    -0.305 C  
BRANCH  26  27
HETATM   27  C   UNL     1     -10.684   6.645  70.541  1.00  0.00    -0.247 C  
BRANCH  27  28
HETATM   28  O   UNL     1     -12.084   6.777  70.427  1.00  0.00    -0.357 OA 
HETATM   29  N   UNL     1     -12.640   7.553  71.471  1.00  0.00    -0.342 N  
HETATM   30  O   UNL     1     -13.870   7.616  71.411  1.00  0.00    -0.366 OA 
HETATM   31  O   UNL     1     -11.867   8.045  72.284  1.00  0.00    -0.327 OA 
ENDBRANCH  27  28
ENDBRANCH  26  27
ENDBRANCH  25  26
ENDBRANCH  24  25
ENDBRANCH  23  24
ENDBRANCH  21  23
ENDBRANCH  20  21
ENDBRANCH  19  20
ENDBRANCH  18  19
ENDBRANCH  17  18
ENDBRANCH  15  16
ENDBRANCH   8  15
ENDBRANCH   5   6
ENDBRANCH   4   5
ENDBRANCH   2   4
BRANCH   2  32
HETATM   32  C   UNL     1     -10.459  15.676  69.236  1.00  0.00    -0.247 C  
BRANCH  32  33
HETATM   33  C   UNL     1      -9.553  15.931  68.037  1.00  0.00    -0.211 C  
BRANCH  33  34
HETATM   34  C   UNL     1      -9.692  17.354  67.606  1.00  0.00    -0.270 A  
HETATM   35  C   UNL     1      -9.559  19.709  68.134  1.00  0.00    -0.474 A  
HETATM   36  C   UNL     1     -10.433  18.983  65.997  1.00  0.00    -0.530 A  
HETATM   37  C   UNL     1      -9.356  18.382  68.499  1.00  0.00    -0.354 A  
HETATM   38  C   UNL     1     -10.232  17.656  66.357  1.00  0.00    -0.364 A  
HETATM   39  C   UNL     1     -10.097  20.009  66.884  1.00  0.00    -0.601 A  
ENDBRANCH  33  34
ENDBRANCH  32  33
ENDBRANCH   2  32
TORSDOF 18
ENDMDL
MODEL      179
REMARK 921   NORMALIZED FREE ENERGY PREDICTED BY IDOCK:   -4.34 KCAL/MOL
REMARK 922        TOTAL FREE ENERGY PREDICTED BY IDOCK:  -13.69 KCAL/MOL
REMARK 923 INTER-LIGAND FREE ENERGY PREDICTED BY IDOCK:  -10.01 KCAL/MOL
REMARK 924 INTRA-LIGAND FREE ENERGY PREDICTED BY IDOCK:   -3.68 KCAL/MOL
REMARK 927      BINDING AFFINITY PREDICTED BY RF-SCORE:    0.00 PKD
ROOT
HETATM    1  O   UNL     1     -10.909  18.891  65.300  1.00  0.00    -0.559 OA 
HETATM    2  C   UNL     1     -10.512  18.501  66.614  1.00  0.00    -0.398 C  
HETATM    3  H   UNL     1     -11.828  18.692  65.164  1.00  0.00     0.000 HD 
ENDROOT
BRANCH   2   4
HETATM    4  C   UNL     1      -9.021  18.823  66.835  1.00  0.00    -0.302 C  
BRANCH   4   5
HETATM    5  C   UNL     1      -8.478  18.467  68.223  1.00  0.00    -0.341 C  
BRANCH   5   6
HETATM    6  C   UNL     1      -7.508  17.265  68.289  1.00  0.00    -0.224 C  
HETATM    7  H   UNL     1      -6.689  13.860  70.267  1.00  0.00     0.000 HD 
HETATM    8  C   UNL     1      -7.815  16.104  69.328  1.00  0.00    -0.203 C  
HETATM    9  C   UNL     1      -6.127  17.776  68.719  1.00  0.00    -0.195 C  
HETATM   10  C   UNL     1      -5.391  16.528  69.114  1.00  0.00    -0.128 C  
HETATM   11  O   UNL     1      -5.436  18.428  67.670  1.00  0.00    -0.153 OA 
HETATM   12  O   UNL     1      -6.050  14.364  69.777  1.00  0.00    -0.112 OA 
HETATM   13  H   UNL     1      -4.581  18.744  67.936  1.00  0.00     0.000 HD 
HETATM   14  C   UNL     1      -6.409  15.726  69.896  1.00  0.00    -0.146 C  
BRANCH   8  15
HETATM   15  C   UNL     1      -8.644  14.904  68.769  1.00  0.00    -0.177 C  
BRANCH  15  16
HETATM   16  C   UNL     1     -10.082  14.821  69.250  1.00  0.00    -0.165 C  
HETATM   17  C   UNL     1     -11.010  13.850  69.136  1.00  0.00    -0.253 C  
BRANCH  17  18
HETATM   18  C   UNL     1     -10.898  12.513  68.460  1.00  0.00    -0.271 C  
BRANCH  18  19
HETATM   19  C   UNL     1     -12.009  11.545  68.895  1.00  0.00    -0.364 C  
BRANCH  19  20
HETATM   20  C   UNL     1     -11.532  10.125  69.173  1.00  0.00    -0.155 C  
BRANCH  20  21
HETATM   21  C   UNL     1     -11.058   9.983  70.586  1.00  0.00    -0.335 C  
HETATM   22  O   UNL     1      -9.974   9.540  70.948  1.00  0.00    -0.284 OA 
BRANCH  21  23
HETATM   23  O   UNL     1     -12.093  10.295  71.412  1.00  0.00    -0.372 OA 
BRANCH  23  24
HETATM   24  C   UNL     1     -12.451   9.172  72.190  1.00  0.00    -0.366 C  
BRANCH  24  25
HETATM   25  C   UNL     1     -13.400   8.238  71.470  1.00  0.00    -0.309 C  
BRANCH  25  26
HETATM   26  C   UNL     1     -12.981   6.773  71.568  1.00  0.00    -0.281 C  
BRANCH  26  27
HETATM   27  C   UNL     1     -11.561   6.470  71.069  1.00  0.00    -0.348 C  
BRANCH  27  28
HETATM   28  O   UNL     1     -11.533   6.584  69.663  1.00  0.00    -0.382 OA 
HETATM   29  N   UNL     1     -10.738   5.584  69.056  1.00  0.00    -0.213 N  
HETATM   30  O   UNL     1     -10.660   5.721  67.832  1.00  0.00    -0.230 OA 
HETATM   31  O   UNL     1     -10.235   4.740  69.786  1.00  0.00    -0.246 OA 
ENDBRANCH  27  28
ENDBRANCH  26  27
ENDBRANCH  25  26
ENDBRANCH  24  25
ENDBRANCH  23  24
ENDBRANCH  21  23
ENDBRANCH  20  21
ENDBRANCH  19  20
ENDBRANCH  18  19
ENDBRANCH  17  18
ENDBRANCH  15  16
ENDBRANCH   8  15
ENDBRANCH   5   6
ENDBRANCH   4   5
ENDBRANCH   2   4
BRANCH   2  32
HETATM   32  C   UNL     1     -10.783  17.008  66.727  1.00  0.00    -0.102 C  
BRANCH  32  33
HETATM   33  C   UNL     1     -10.098  16.223  65.615  1.00  0.00    -0.340 C  
BRANCH  33  34
HETATM   34  C   UNL     1     -10.785  14.908  65.442  1.00  0.00    -0.391 A  
HETATM   35  C   UNL     1     -10.690  12.583  64.785  1.00  0.00    -0.333 A  
HETATM   36  C   UNL     1     -12.806  13.604  65.367  1.00  0.00    -0.440 A  
HETATM   37  C   UNL     1     -10.044  13.792  65.026  1.00  0.00    -0.310 A  
HETATM   38  C   UNL     1     -12.165  14.813  65.609  1.00  0.00    -0.076 A  
HETATM   39  C   UNL     1     -12.070  12.490  64.956  1.00  0.00    -0.504 A  
ENDBRANCH  33  34
ENDBRANCH  32  33
ENDBRANCH   2  32
TORSDOF 18
ENDMDL
MODEL      180
REMARK 921   NORMALIZED FREE ENERGY PREDICTED BY IDOCK:   -4.33 KCAL/MOL
REMARK 922        TOTAL FREE ENERGY PREDICTED BY IDOCK:  -13.68 KCAL/MOL
REMARK 923 INTER-LIGAND FREE ENERGY PREDICTED BY IDOCK:  -11.14 KCAL/MOL
REMARK 924 INTRA-LIGAND FREE ENERGY PREDICTED BY IDOCK:   -2.54 KCAL/MOL
REMARK 927      BINDING AFFINITY PREDICTED BY RF-SCORE:    0.00 PKD
ROOT
HETATM    1  O   UNL     1      -8.145   8.515  69.738  1.00  0.00    -0.110 OA 
HETATM    2  C   UNL     1      -8.936   8.388  68.559  1.00  0.00    -0.136 C  
HETATM    3  H   UNL     1      -8.075   7.676  70.178  1.00  0.00     0.000 HD 
ENDROOT
BRANCH   2   4
HETATM    4  C   UNL     1      -9.049   9.749  67.845  1.00  0.00    -0.126 C  
BRANCH   4   5
HETATM    5  C   UNL     1      -9.174  10.962  68.773  1.00  0.00    -0.187 C  
BRANCH   5   6
HETATM    6  C   UNL     1     -10.071  12.117  68.270  1.00  0.00    -0.210 C  
HETATM    7  H   UNL     1     -10.698  16.082  68.518  1.00  0.00     0.000 HD 
HETATM    8  C   UNL     1      -9.703  13.600  68.700  1.00  0.00    -0.118 C  
HETATM    9  C   UNL     1     -11.483  11.919  68.835  1.00  0.00    -0.301 C  
HETATM   10  C   UNL     1     -12.146  13.248  68.615  1.00  0.00    -0.257 C  
HETATM   11  O   UNL     1     -12.204  10.907  68.159  1.00  0.00    -0.781 OA 
HETATM   12  O   UNL     1     -11.363  15.446  68.278  1.00  0.00    -0.319 OA 
HETATM   13  H   UNL     1     -13.079  10.785  68.509  1.00  0.00     0.000 HD 
HETATM   14  C   UNL     1     -11.087  14.261  68.997  1.00  0.00    -0.259 C  
BRANCH   8  15
HETATM   15  C   UNL     1      -8.798  14.386  67.698  1.00  0.00    -0.193 C  
BRANCH  15  16
HETATM   16  C   UNL     1      -7.303  14.201  67.881  1.00  0.00    -0.163 C  
HETATM   17  C   UNL     1      -6.415  14.826  68.680  1.00  0.00    -0.084 C  
BRANCH  17  18
HETATM   18  C   UNL     1      -6.646  15.945  69.655  1.00  0.00    -0.180 C  
BRANCH  18  19
HETATM   19  C   UNL     1      -6.231  17.311  69.084  1.00  0.00    -0.225 C  
BRANCH  19  20
HETATM   20  C   UNL     1      -7.334  18.035  68.324  1.00  0.00    -0.259 C  
BRANCH  20  21
HETATM   21  C   UNL     1      -7.187  19.520  68.447  1.00  0.00    -0.319 C  
HETATM   22  O   UNL     1      -6.465  20.115  69.237  1.00  0.00    -0.317 OA 
BRANCH  21  23
HETATM   23  O   UNL     1      -8.102  20.105  67.627  1.00  0.00    -0.304 OA 
BRANCH  23  24
HETATM   24  C   UNL     1      -8.347  19.281  66.506  1.00  0.00    -0.319 C  
BRANCH  24  25
HETATM   25  C   UNL     1      -9.803  19.270  66.093  1.00  0.00    -0.429 C  
BRANCH  25  26
HETATM   26  C   UNL     1     -10.477  17.920  66.326  1.00  0.00    -0.320 C  
BRANCH  26  27
HETATM   27  C   UNL     1     -10.118  16.830  65.306  1.00  0.00     0.196 C  
BRANCH  27  28
HETATM   28  O   UNL     1     -11.228  16.605  64.465  1.00  0.00    -0.909 OA 
HETATM   29  N   UNL     1     -11.669  15.261  64.502  1.00  0.00    -0.368 N  
HETATM   30  O   UNL     1     -12.598  15.047  63.719  1.00  0.00    -0.776 OA 
HETATM   31  O   UNL     1     -11.096  14.499  65.270  1.00  0.00    -0.318 OA 
ENDBRANCH  27  28
ENDBRANCH  26  27
ENDBRANCH  25  26
ENDBRANCH  24  25
ENDBRANCH  23  24
ENDBRANCH  21  23
ENDBRANCH  20  21
ENDBRANCH  19  20
ENDBRANCH  18  19
ENDBRANCH  17  18
ENDBRANCH  15  16
ENDBRANCH   8  15
ENDBRANCH   5   6
ENDBRANCH   4   5
ENDBRANCH   2   4
BRANCH   2  32
HETATM   32  C   UNL     1     -10.299   7.874  69.000  1.00  0.00    -0.223 C  
BRANCH  32  33
HETATM   33  C   UNL     1     -10.348   7.623  70.503  1.00  0.00    -0.211 C  
BRANCH  33  34
HETATM   34  C   UNL     1     -11.697   8.000  71.023  1.00  0.00    -0.295 A  
HETATM   35  C   UNL     1     -13.155   9.652  72.018  1.00  0.00    -0.537 A  
HETATM   36  C   UNL     1     -13.915   7.375  71.714  1.00  0.00    -0.469 A  
HETATM   37  C   UNL     1     -11.926   9.314  71.458  1.00  0.00    -0.439 A  
HETATM   38  C   UNL     1     -12.691   7.032  71.154  1.00  0.00    -0.361 A  
HETATM   39  C   UNL     1     -14.148   8.683  72.146  1.00  0.00    -0.511 A  
ENDBRANCH  33  34
ENDBRANCH  32  33
ENDBRANCH   2  32
TORSDOF 18
ENDMDL
MODEL      181
REMARK 921   NORMALIZED FREE ENERGY PREDICTED BY IDOCK:   -4.31 KCAL/MOL
REMARK 922        TOTAL FREE ENERGY PREDICTED BY IDOCK:  -13.63 KCAL/MOL
REMARK 923 INTER-LIGAND FREE ENERGY PREDICTED BY IDOCK:  -11.56 KCAL/MOL
REMARK 924 INTRA-LIGAND FREE ENERGY PREDICTED BY IDOCK:   -2.07 KCAL/MOL
REMARK 927      BINDING AFFINITY PREDICTED BY RF-SCORE:    0.00 PKD
ROOT
HETATM    1  O   UNL     1     -12.712   7.123  70.520  1.00  0.00    -0.611 OA 
HETATM    2  C   UNL     1     -11.998   8.172  71.172  1.00  0.00    -0.273 C  
HETATM    3  H   UNL     1     -13.529   6.951  70.973  1.00  0.00     0.000 HD 
ENDROOT
BRANCH   2   4
HETATM    4  C   UNL     1     -10.672   8.450  70.437  1.00  0.00    -0.244 C  
BRANCH   4   5
HETATM    5  C   UNL     1     -10.765   8.455  68.908  1.00  0.00    -0.095 C  
BRANCH   5   6
HETATM    6  C   UNL     1     -10.322   9.757  68.201  1.00  0.00    -0.241 C  
HETATM    7  H   UNL     1     -11.624  13.302  66.817  1.00  0.00     0.000 HD 
HETATM    8  C   UNL     1     -11.392  10.916  68.016  1.00  0.00    -0.382 C  
HETATM    9  C   UNL     1      -9.910   9.416  66.763  1.00  0.00    -0.218 C  
HETATM   10  C   UNL     1      -9.872  10.749  66.076  1.00  0.00    -0.285 C  
HETATM   11  O   UNL     1      -8.636   8.804  66.692  1.00  0.00    -0.109 OA 
HETATM   12  O   UNL     1     -10.849  12.853  66.500  1.00  0.00    -0.266 OA 
HETATM   13  H   UNL     1      -8.381   8.593  65.802  1.00  0.00     0.000 HD 
HETATM   14  C   UNL     1     -11.107  11.465  66.581  1.00  0.00    -0.271 C  
BRANCH   8  15
HETATM   15  C   UNL     1     -11.414  11.997  69.143  1.00  0.00    -0.357 C  
BRANCH  15  16
HETATM   16  C   UNL     1     -12.119  11.592  70.425  1.00  0.00    -0.471 C  
HETATM   17  C   UNL     1     -12.790  12.315  71.344  1.00  0.00    -0.373 C  
BRANCH  17  18
HETATM   18  C   UNL     1     -13.039  13.795  71.383  1.00  0.00    -0.413 C  
BRANCH  18  19
HETATM   19  C   UNL     1     -11.735  14.607  71.349  1.00  0.00    -0.298 C  
BRANCH  19  20
HETATM   20  C   UNL     1     -11.873  15.993  70.732  1.00  0.00    -0.372 C  
BRANCH  20  21
HETATM   21  C   UNL     1     -11.441  15.989  69.298  1.00  0.00    -0.350 C  
HETATM   22  O   UNL     1     -11.845  15.236  68.420  1.00  0.00    -0.339 OA 
BRANCH  21  23
HETATM   23  O   UNL     1     -10.413  16.870  69.164  1.00  0.00    -0.311 OA 
BRANCH  23  24
HETATM   24  C   UNL     1      -9.188  16.176  69.057  1.00  0.00    -0.252 C  
BRANCH  24  25
HETATM   25  C   UNL     1      -8.342  16.656  67.897  1.00  0.00    -0.187 C  
BRANCH  25  26
HETATM   26  C   UNL     1      -7.857  18.094  68.071  1.00  0.00    -0.266 C  
BRANCH  26  27
HETATM   27  C   UNL     1      -8.518  19.119  67.139  1.00  0.00    -0.280 C  
BRANCH  27  28
HETATM   28  O   UNL     1      -9.086  18.441  66.039  1.00  0.00    -0.501 OA 
HETATM   29  N   UNL     1     -10.477  18.674  65.922  1.00  0.00    -0.437 N  
HETATM   30  O   UNL     1     -10.988  18.032  65.001  1.00  0.00    -0.748 OA 
HETATM   31  O   UNL     1     -10.990  19.448  66.720  1.00  0.00    -0.421 OA 
ENDBRANCH  27  28
ENDBRANCH  26  27
ENDBRANCH  25  26
ENDBRANCH  24  25
ENDBRANCH  23  24
ENDBRANCH  21  23
ENDBRANCH  20  21
ENDBRANCH  19  20
ENDBRANCH  18  19
ENDBRANCH  17  18
ENDBRANCH  15  16
ENDBRANCH   8  15
ENDBRANCH   5   6
ENDBRANCH   4   5
ENDBRANCH   2   4
BRANCH   2  32
HETATM   32  C   UNL     1     -11.758   7.713  72.603  1.00  0.00    -0.323 C  
BRANCH  32  33
HETATM   33  C   UNL     1     -10.348   7.164  72.790  1.00  0.00    -0.261 C  
BRANCH  33  34
HETATM   34  C   UNL     1     -10.375   5.677  72.655  1.00  0.00    -0.235 A  
HETATM   35  C   UNL     1     -10.988   3.518  73.555  1.00  0.00    -0.330 A  
HETATM   36  C   UNL     1      -9.647   3.669  71.546  1.00  0.00    -0.234 A  
HETATM   37  C   UNL     1     -11.027   4.907  73.630  1.00  0.00    -0.387 A  
HETATM   38  C   UNL     1      -9.683   5.056  71.616  1.00  0.00    -0.226 A  
HETATM   39  C   UNL     1     -10.298   2.900  72.514  1.00  0.00    -0.189 A  
ENDBRANCH  33  34
ENDBRANCH  32  33
ENDBRANCH   2  32
TORSDOF 18
ENDMDL
MODEL      182
REMARK 921   NORMALIZED FREE ENERGY PREDICTED BY IDOCK:   -4.30 KCAL/MOL
REMARK 922        TOTAL FREE ENERGY PREDICTED BY IDOCK:  -13.62 KCAL/MOL
REMARK 923 INTER-LIGAND FREE ENERGY PREDICTED BY IDOCK:  -11.55 KCAL/MOL
REMARK 924 INTRA-LIGAND FREE ENERGY PREDICTED BY IDOCK:   -2.07 KCAL/MOL
REMARK 927      BINDING AFFINITY PREDICTED BY RF-SCORE:    0.00 PKD
ROOT
HETATM    1  O   UNL     1     -11.261  13.656  69.530  1.00  0.00    -0.373 OA 
HETATM    2  C   UNL     1     -11.862  14.462  68.518  1.00  0.00    -0.334 C  
HETATM    3  H   UNL     1     -11.433  14.026  70.388  1.00  0.00     0.000 HD 
ENDROOT
BRANCH   2   4
HETATM    4  C   UNL     1     -11.584  13.861  67.126  1.00  0.00    -0.391 C  
BRANCH   4   5
HETATM    5  C   UNL     1     -11.436  12.336  67.094  1.00  0.00    -0.419 C  
BRANCH   5   6
HETATM    6  C   UNL     1     -11.285  11.694  65.695  1.00  0.00    -0.275 C  
HETATM    7  H   UNL     1      -8.617  10.667  62.866  1.00  0.00     0.000 HD 
HETATM    8  C   UNL     1      -9.822  11.466  65.123  1.00  0.00    -0.302 C  
HETATM    9  C   UNL     1     -11.934  12.623  64.660  1.00  0.00    -0.402 C  
HETATM   10  C   UNL     1     -11.410  12.117  63.347  1.00  0.00    -0.495 C  
HETATM   11  O   UNL     1     -13.347  12.550  64.672  1.00  0.00    -0.804 OA 
HETATM   12  O   UNL     1      -9.536  10.841  62.700  1.00  0.00    -0.290 OA 
HETATM   13  H   UNL     1     -13.748  13.125  64.031  1.00  0.00     0.000 HD 
HETATM   14  C   UNL     1      -9.945  11.841  63.612  1.00  0.00    -0.381 C  
BRANCH   8  15
HETATM   15  C   UNL     1      -9.202  10.060  65.405  1.00  0.00    -0.259 C  
BRANCH  15  16
HETATM   16  C   UNL     1      -8.585   9.880  66.781  1.00  0.00    -0.133 C  
HETATM   17  C   UNL     1      -9.060   9.310  67.907  1.00  0.00    -0.133 C  
BRANCH  17  18
HETATM   18  C   UNL     1     -10.397   8.672  68.150  1.00  0.00    -0.267 C  
BRANCH  18  19
HETATM   19  C   UNL     1     -10.577   8.235  69.613  1.00  0.00    -0.222 C  
BRANCH  19  20
HETATM   20  C   UNL     1     -11.375   9.212  70.466  1.00  0.00    -0.300 C  
BRANCH  20  21
HETATM   21  C   UNL     1     -11.890   8.548  71.705  1.00  0.00    -0.331 C  
HETATM   22  O   UNL     1     -13.049   8.213  71.922  1.00  0.00    -0.325 OA 
BRANCH  21  23
HETATM   23  O   UNL     1     -10.879   8.508  72.615  1.00  0.00    -0.304 OA 
BRANCH  23  24
HETATM   24  C   UNL     1     -10.877   7.265  73.286  1.00  0.00    -0.358 C  
BRANCH  24  25
HETATM   25  C   UNL     1      -9.937   6.260  72.657  1.00  0.00    -0.183 C  
BRANCH  25  26
HETATM   26  C   UNL     1     -10.668   5.176  71.868  1.00  0.00    -0.219 C  
BRANCH  26  27
HETATM   27  C   UNL     1      -9.857   3.896  71.617  1.00  0.00    -0.177 C  
BRANCH  27  28
HETATM   28  O   UNL     1      -9.763   3.169  72.823  1.00  0.00    -0.116 OA 
HETATM   29  N   UNL     1      -8.455   2.684  73.059  1.00  0.00    -0.070 N  
HETATM   30  O   UNL     1      -8.384   1.993  74.079  1.00  0.00    -0.056 OA 
HETATM   31  O   UNL     1      -7.585   2.988  72.254  1.00  0.00    -0.051 OA 
ENDBRANCH  27  28
ENDBRANCH  26  27
ENDBRANCH  25  26
ENDBRANCH  24  25
ENDBRANCH  23  24
ENDBRANCH  21  23
ENDBRANCH  20  21
ENDBRANCH  19  20
ENDBRANCH  18  19
ENDBRANCH  17  18
ENDBRANCH  15  16
ENDBRANCH   8  15
ENDBRANCH   5   6
ENDBRANCH   4   5
ENDBRANCH   2   4
BRANCH   2  32
HETATM   32  C   UNL     1     -11.262  15.854  68.655  1.00  0.00    -0.360 C  
BRANCH  32  33
HETATM   33  C   UNL     1     -10.507  16.269  67.397  1.00  0.00    -0.304 C  
BRANCH  33  34
HETATM   34  C   UNL     1     -10.338  17.753  67.390  1.00  0.00    -0.370 A  
HETATM   35  C   UNL     1     -10.177  19.821  66.148  1.00  0.00    -0.618 A  
HETATM   36  C   UNL     1      -9.789  19.796  68.536  1.00  0.00    -0.506 A  
HETATM   37  C   UNL     1     -10.413  18.450  66.175  1.00  0.00    -0.422 A  
HETATM   38  C   UNL     1     -10.023  18.427  68.569  1.00  0.00    -0.415 A  
HETATM   39  C   UNL     1      -9.865  20.493  67.328  1.00  0.00    -0.581 A  
ENDBRANCH  33  34
ENDBRANCH  32  33
ENDBRANCH   2  32
TORSDOF 18
ENDMDL
MODEL      183
REMARK 921   NORMALIZED FREE ENERGY PREDICTED BY IDOCK:   -4.30 KCAL/MOL
REMARK 922        TOTAL FREE ENERGY PREDICTED BY IDOCK:  -13.62 KCAL/MOL
REMARK 923 INTER-LIGAND FREE ENERGY PREDICTED BY IDOCK:  -11.29 KCAL/MOL
REMARK 924 INTRA-LIGAND FREE ENERGY PREDICTED BY IDOCK:   -2.33 KCAL/MOL
REMARK 927      BINDING AFFINITY PREDICTED BY RF-SCORE:    0.00 PKD
ROOT
HETATM    1  O   UNL     1      -9.250  15.614  65.900  1.00  0.00    -0.340 OA 
HETATM    2  C   UNL     1      -9.860  15.943  67.146  1.00  0.00    -0.231 C  
HETATM    3  H   UNL     1      -8.495  16.171  65.747  1.00  0.00     0.000 HD 
ENDROOT
BRANCH   2   4
HETATM    4  C   UNL     1     -11.084  15.040  67.394  1.00  0.00    -0.324 C  
BRANCH   4   5
HETATM    5  C   UNL     1     -11.950  14.765  66.160  1.00  0.00    -0.156 C  
BRANCH   5   6
HETATM    6  C   UNL     1     -11.815  13.359  65.531  1.00  0.00    -0.394 C  
HETATM    7  H   UNL     1      -9.716   9.931  65.667  1.00  0.00     0.000 HD 
HETATM    8  C   UNL     1     -10.758  12.352  66.154  1.00  0.00    -0.292 C  
HETATM    9  C   UNL     1     -11.347  13.517  64.078  1.00  0.00    -0.274 C  
HETATM   10  C   UNL     1     -10.891  12.139  63.697  1.00  0.00    -0.523 C  
HETATM   11  O   UNL     1     -12.386  13.935  63.213  1.00  0.00    -1.115 OA 
HETATM   12  O   UNL     1     -10.196  10.238  64.906  1.00  0.00    -0.327 OA 
HETATM   13  H   UNL     1     -12.096  14.032  62.314  1.00  0.00     0.000 HD 
HETATM   14  C   UNL     1     -10.127  11.650  64.910  1.00  0.00    -0.260 C  
BRANCH   8  15
HETATM   15  C   UNL     1     -11.315  11.383  67.246  1.00  0.00    -0.347 C  
BRANCH  15  16
HETATM   16  C   UNL     1     -10.392  11.121  68.422  1.00  0.00    -0.201 C  
HETATM   17  C   UNL     1     -10.624  11.076  69.749  1.00  0.00    -0.055 C  
BRANCH  17  18
HETATM   18  C   UNL     1     -11.912  11.296  70.490  1.00  0.00    -0.467 C  
BRANCH  18  19
HETATM   19  C   UNL     1     -12.508   9.984  71.025  1.00  0.00    -0.460 C  
BRANCH  19  20
HETATM   20  C   UNL     1     -11.482   9.018  71.604  1.00  0.00    -0.431 C  
BRANCH  20  21
HETATM   21  C   UNL     1     -11.700   7.630  71.087  1.00  0.00    -0.290 C  
HETATM   22  O   UNL     1     -12.152   6.682  71.719  1.00  0.00    -0.331 OA 
BRANCH  21  23
HETATM   23  O   UNL     1     -11.174   7.558  69.834  1.00  0.00    -0.216 OA 
BRANCH  23  24
HETATM   24  C   UNL     1     -11.165   6.219  69.386  1.00  0.00    -0.420 C  
BRANCH  24  25
HETATM   25  C   UNL     1     -10.872   6.097  67.906  1.00  0.00    -0.406 C  
BRANCH  25  26
HETATM   26  C   UNL     1     -10.663   7.449  67.229  1.00  0.00    -0.379 C  
BRANCH  26  27
HETATM   27  C   UNL     1      -9.203   7.918  67.150  1.00  0.00    -0.146 C  
BRANCH  27  28
HETATM   28  O   UNL     1      -8.589   7.321  66.029  1.00  0.00    -0.141 OA 
HETATM   29  N   UNL     1      -7.572   6.408  66.394  1.00  0.00    -0.089 N  
HETATM   30  O   UNL     1      -6.989   5.934  65.415  1.00  0.00    -0.060 OA 
HETATM   31  O   UNL     1      -7.392   6.209  67.588  1.00  0.00    -0.077 OA 
ENDBRANCH  27  28
ENDBRANCH  26  27
ENDBRANCH  25  26
ENDBRANCH  24  25
ENDBRANCH  23  24
ENDBRANCH  21  23
ENDBRANCH  20  21
ENDBRANCH  19  20
ENDBRANCH  18  19
ENDBRANCH  17  18
ENDBRANCH  15  16
ENDBRANCH   8  15
ENDBRANCH   5   6
ENDBRANCH   4   5
ENDBRANCH   2   4
BRANCH   2  32
HETATM   32  C   UNL     1     -10.256  17.410  67.065  1.00  0.00    -0.323 C  
BRANCH  32  33
HETATM   33  C   UNL     1      -9.673  18.217  68.220  1.00  0.00    -0.344 C  
BRANCH  33  34
HETATM   34  C   UNL     1      -8.656  19.174  67.691  1.00  0.00    -0.327 A  
HETATM   35  C   UNL     1      -7.760  20.442  65.837  1.00  0.00    -0.084 A  
HETATM   36  C   UNL     1      -6.592  20.383  67.956  1.00  0.00    -0.340 A  
HETATM   37  C   UNL     1      -8.748  19.614  66.362  1.00  0.00    -0.404 A  
HETATM   38  C   UNL     1      -7.576  19.557  68.485  1.00  0.00    -0.378 A  
HETATM   39  C   UNL     1      -6.683  20.825  66.634  1.00  0.00    -0.339 A  
ENDBRANCH  33  34
ENDBRANCH  32  33
ENDBRANCH   2  32
TORSDOF 18
ENDMDL
MODEL      184
REMARK 921   NORMALIZED FREE ENERGY PREDICTED BY IDOCK:   -4.30 KCAL/MOL
REMARK 922        TOTAL FREE ENERGY PREDICTED BY IDOCK:  -13.61 KCAL/MOL
REMARK 923 INTER-LIGAND FREE ENERGY PREDICTED BY IDOCK:   -9.18 KCAL/MOL
REMARK 924 INTRA-LIGAND FREE ENERGY PREDICTED BY IDOCK:   -4.43 KCAL/MOL
REMARK 927      BINDING AFFINITY PREDICTED BY RF-SCORE:    0.00 PKD
ROOT
HETATM    1  O   UNL     1      -5.580  10.205  67.245  1.00  0.00    -0.042 OA 
HETATM    2  C   UNL     1      -6.919  10.327  66.767  1.00  0.00    -0.093 C  
HETATM    3  H   UNL     1      -4.982  10.089  66.516  1.00  0.00     0.000 HD 
ENDROOT
BRANCH   2   4
HETATM    4  C   UNL     1      -7.890  10.516  67.949  1.00  0.00    -0.105 C  
BRANCH   4   5
HETATM    5  C   UNL     1      -7.629   9.609  69.156  1.00  0.00    -0.082 C  
BRANCH   5   6
HETATM    6  C   UNL     1      -8.834   8.782  69.661  1.00  0.00    -0.141 C  
HETATM    7  H   UNL     1     -12.194   8.954  71.865  1.00  0.00     0.000 HD 
HETATM    8  C   UNL     1      -9.969   9.526  70.485  1.00  0.00    -0.335 C  
HETATM    9  C   UNL     1      -8.320   7.718  70.640  1.00  0.00    -0.124 C  
HETATM   10  C   UNL     1      -9.561   7.245  71.339  1.00  0.00    -0.165 C  
HETATM   11  O   UNL     1      -7.696   6.630  69.983  1.00  0.00    -0.097 OA 
HETATM   12  O   UNL     1     -11.706   8.158  71.691  1.00  0.00    -0.265 OA 
HETATM   13  H   UNL     1      -7.378   5.971  70.589  1.00  0.00     0.000 HD 
HETATM   14  C   UNL     1     -10.340   8.514  71.615  1.00  0.00    -0.263 C  
BRANCH   8  15
HETATM   15  C   UNL     1     -11.178  10.048  69.645  1.00  0.00    -0.285 C  
BRANCH  15  16
HETATM   16  C   UNL     1     -11.128  11.517  69.266  1.00  0.00    -0.305 C  
HETATM   17  C   UNL     1     -11.222  12.138  68.073  1.00  0.00    -0.319 C  
BRANCH  17  18
HETATM   18  C   UNL     1     -11.398  11.537  66.708  1.00  0.00    -0.309 C  
BRANCH  18  19
HETATM   19  C   UNL     1     -10.357  12.057  65.704  1.00  0.00    -0.288 C  
BRANCH  19  20
HETATM   20  C   UNL     1     -10.947  12.835  64.534  1.00  0.00    -0.370 C  
BRANCH  20  21
HETATM   21  C   UNL     1     -11.524  14.138  64.991  1.00  0.00    -0.352 C  
HETATM   22  O   UNL     1     -12.638  14.311  65.471  1.00  0.00    -0.458 OA 
BRANCH  21  23
HETATM   23  O   UNL     1     -10.655  15.128  64.649  1.00  0.00    -0.339 OA 
BRANCH  23  24
HETATM   24  C   UNL     1     -10.408  15.964  65.760  1.00  0.00    -0.376 C  
BRANCH  24  25
HETATM   25  C   UNL     1      -9.471  15.335  66.769  1.00  0.00    -0.264 C  
BRANCH  25  26
HETATM   26  C   UNL     1      -9.741  15.799  68.199  1.00  0.00    -0.211 C  
BRANCH  26  27
HETATM   27  C   UNL     1     -11.166  16.307  68.460  1.00  0.00    -0.359 C  
BRANCH  27  28
HETATM   28  O   UNL     1     -11.983  15.215  68.821  1.00  0.00    -0.314 OA 
HETATM   29  N   UNL     1     -12.357  15.250  70.186  1.00  0.00    -0.355 N  
HETATM   30  O   UNL     1     -13.018  14.263  70.520  1.00  0.00    -0.331 OA 
HETATM   31  O   UNL     1     -11.990  16.211  70.849  1.00  0.00    -0.375 OA 
ENDBRANCH  27  28
ENDBRANCH  26  27
ENDBRANCH  25  26
ENDBRANCH  24  25
ENDBRANCH  23  24
ENDBRANCH  21  23
ENDBRANCH  20  21
ENDBRANCH  19  20
ENDBRANCH  18  19
ENDBRANCH  17  18
ENDBRANCH  15  16
ENDBRANCH   8  15
ENDBRANCH   5   6
ENDBRANCH   4   5
ENDBRANCH   2   4
BRANCH   2  32
HETATM   32  C   UNL     1      -7.224   9.054  65.992  1.00  0.00    -0.093 C  
BRANCH  32  33
HETATM   33  C   UNL     1      -8.699   8.961  65.618  1.00  0.00    -0.213 C  
BRANCH  33  34
HETATM   34  C   UNL     1      -9.284   7.724  66.218  1.00  0.00    -0.217 A  
HETATM   35  C   UNL     1     -11.022   6.669  67.527  1.00  0.00    -0.416 A  
HETATM   36  C   UNL     1      -9.091   5.400  66.809  1.00  0.00    -0.116 A  
HETATM   37  C   UNL     1     -10.510   7.800  66.896  1.00  0.00    -0.388 A  
HETATM   38  C   UNL     1      -8.575   6.525  66.178  1.00  0.00    -0.146 A  
HETATM   39  C   UNL     1     -10.312   5.471  67.483  1.00  0.00    -0.268 A  
ENDBRANCH  33  34
ENDBRANCH  32  33
ENDBRANCH   2  32
TORSDOF 18
ENDMDL
MODEL      185
REMARK 921   NORMALIZED FREE ENERGY PREDICTED BY IDOCK:   -4.30 KCAL/MOL
REMARK 922        TOTAL FREE ENERGY PREDICTED BY IDOCK:  -13.60 KCAL/MOL
REMARK 923 INTER-LIGAND FREE ENERGY PREDICTED BY IDOCK:   -9.91 KCAL/MOL
REMARK 924 INTRA-LIGAND FREE ENERGY PREDICTED BY IDOCK:   -3.69 KCAL/MOL
REMARK 927      BINDING AFFINITY PREDICTED BY RF-SCORE:    0.00 PKD
ROOT
HETATM    1  O   UNL     1     -12.303  13.519  63.057  1.00  0.00    -0.970 OA 
HETATM    2  C   UNL     1     -11.784  12.488  63.895  1.00  0.00    -0.452 C  
HETATM    3  H   UNL     1     -12.034  13.376  62.157  1.00  0.00     0.000 HD 
ENDROOT
BRANCH   2   4
HETATM    4  C   UNL     1     -12.221  12.720  65.355  1.00  0.00    -0.532 C  
BRANCH   4   5
HETATM    5  C   UNL     1     -12.549  14.173  65.713  1.00  0.00    -0.475 C  
BRANCH   5   6
HETATM    6  C   UNL     1     -11.341  15.115  65.917  1.00  0.00    -0.225 C  
HETATM    7  H   UNL     1      -9.279  17.200  68.669  1.00  0.00     0.000 HD 
HETATM    8  C   UNL     1     -10.962  15.548  67.396  1.00  0.00    -0.306 C  
HETATM    9  C   UNL     1     -11.639  16.449  65.219  1.00  0.00     0.528 C  
HETATM   10  C   UNL     1     -10.613  17.386  65.785  1.00  0.00    -0.185 C  
HETATM   11  O   UNL     1     -11.494  16.372  63.813  1.00  0.00    -1.590 OA 
HETATM   12  O   UNL     1      -9.298  17.407  67.742  1.00  0.00    -0.249 OA 
HETATM   13  H   UNL     1     -11.678  17.198  63.381  1.00  0.00     0.000 HD 
HETATM   14  C   UNL     1     -10.581  17.057  67.263  1.00  0.00    -0.267 C  
BRANCH   8  15
HETATM   15  C   UNL     1      -9.890  14.658  68.103  1.00  0.00    -0.224 C  
BRANCH  15  16
HETATM   16  C   UNL     1      -9.017  13.825  67.181  1.00  0.00    -0.241 C  
HETATM   17  C   UNL     1      -8.644  12.531  67.229  1.00  0.00    -0.191 C  
BRANCH  17  18
HETATM   18  C   UNL     1      -8.980  11.489  68.257  1.00  0.00    -0.177 C  
BRANCH  18  19
HETATM   19  C   UNL     1     -10.491  11.218  68.341  1.00  0.00    -0.219 C  
BRANCH  19  20
HETATM   20  C   UNL     1     -10.872  10.067  69.264  1.00  0.00    -0.261 C  
BRANCH  20  21
HETATM   21  C   UNL     1     -11.906  10.495  70.258  1.00  0.00    -0.331 C  
HETATM   22  O   UNL     1     -12.886  11.194  70.032  1.00  0.00    -0.120 OA 
BRANCH  21  23
HETATM   23  O   UNL     1     -11.496  10.095  71.492  1.00  0.00    -0.283 OA 
BRANCH  23  24
HETATM   24  C   UNL     1     -10.461   9.141  71.376  1.00  0.00    -0.344 C  
BRANCH  24  25
HETATM   25  C   UNL     1     -10.143   8.457  72.687  1.00  0.00    -0.322 C  
BRANCH  25  26
HETATM   26  C   UNL     1      -8.644   8.260  72.907  1.00  0.00    -0.276 C  
BRANCH  26  27
HETATM   27  C   UNL     1      -7.767   8.520  71.674  1.00  0.00    -0.117 C  
BRANCH  27  28
HETATM   28  O   UNL     1      -7.186   7.304  71.259  1.00  0.00    -0.070 OA 
HETATM   29  N   UNL     1      -5.956   7.044  71.908  1.00  0.00    -0.037 N  
HETATM   30  O   UNL     1      -5.415   6.013  71.500  1.00  0.00    -0.020 OA 
HETATM   31  O   UNL     1      -5.585   7.843  72.758  1.00  0.00    -0.039 OA 
ENDBRANCH  27  28
ENDBRANCH  26  27
ENDBRANCH  25  26
ENDBRANCH  24  25
ENDBRANCH  23  24
ENDBRANCH  21  23
ENDBRANCH  20  21
ENDBRANCH  19  20
ENDBRANCH  18  19
ENDBRANCH  17  18
ENDBRANCH  15  16
ENDBRANCH   8  15
ENDBRANCH   5   6
ENDBRANCH   4   5
ENDBRANCH   2   4
BRANCH   2  32
HETATM   32  C   UNL     1     -10.269  12.530  63.752  1.00  0.00    -0.360 C  
BRANCH  32  33
HETATM   33  C   UNL     1      -9.735  11.293  63.040  1.00  0.00    -0.389 C  
BRANCH  33  34
HETATM   34  C   UNL     1      -9.041  10.414  64.028  1.00  0.00    -0.271 A  
HETATM   35  C   UNL     1      -7.025   9.303  64.767  1.00  0.00    -0.091 A  
HETATM   36  C   UNL     1      -9.131   8.884  65.883  1.00  0.00    -0.271 A  
HETATM   37  C   UNL     1      -7.664  10.184  63.899  1.00  0.00    -0.140 A  
HETATM   38  C   UNL     1      -9.774   9.762  65.019  1.00  0.00    -0.303 A  
HETATM   39  C   UNL     1      -7.759   8.654  65.758  1.00  0.00    -0.090 A  
ENDBRANCH  33  34
ENDBRANCH  32  33
ENDBRANCH   2  32
TORSDOF 18
ENDMDL
MODEL      186
REMARK 921   NORMALIZED FREE ENERGY PREDICTED BY IDOCK:   -4.28 KCAL/MOL
REMARK 922        TOTAL FREE ENERGY PREDICTED BY IDOCK:  -13.57 KCAL/MOL
REMARK 923 INTER-LIGAND FREE ENERGY PREDICTED BY IDOCK:   -9.77 KCAL/MOL
REMARK 924 INTRA-LIGAND FREE ENERGY PREDICTED BY IDOCK:   -3.80 KCAL/MOL
REMARK 927      BINDING AFFINITY PREDICTED BY RF-SCORE:    0.00 PKD
ROOT
HETATM    1  O   UNL     1      -8.707   7.773  64.874  1.00  0.00    -0.373 OA 
HETATM    2  C   UNL     1      -8.420   9.094  64.420  1.00  0.00    -0.184 C  
HETATM    3  H   UNL     1      -9.387   7.382  64.338  1.00  0.00     0.000 HD 
ENDROOT
BRANCH   2   4
HETATM    4  C   UNL     1      -7.317   9.728  65.289  1.00  0.00    -0.120 C  
BRANCH   4   5
HETATM    5  C   UNL     1      -7.820  10.595  66.448  1.00  0.00    -0.144 C  
BRANCH   5   6
HETATM    6  C   UNL     1      -6.804  10.880  67.578  1.00  0.00    -0.079 C  
HETATM    7  H   UNL     1      -6.455  11.657  71.509  1.00  0.00     0.000 HD 
HETATM    8  C   UNL     1      -7.346  11.012  69.065  1.00  0.00    -0.123 C  
HETATM    9  C   UNL     1      -6.149  12.242  67.313  1.00  0.00    -0.153 C  
HETATM   10  C   UNL     1      -5.494  12.585  68.620  1.00  0.00    -0.054 C  
HETATM   11  O   UNL     1      -5.174  12.188  66.289  1.00  0.00    -0.426 OA 
HETATM   12  O   UNL     1      -5.812  11.902  70.854  1.00  0.00    -0.348 OA 
HETATM   13  H   UNL     1      -4.768  13.031  66.125  1.00  0.00     0.000 HD 
HETATM   14  C   UNL     1      -6.518  12.193  69.664  1.00  0.00    -0.082 C  
BRANCH   8  15
HETATM   15  C   UNL     1      -7.323   9.697  69.908  1.00  0.00    -0.120 C  
BRANCH  15  16
HETATM   16  C   UNL     1      -8.645   9.301  70.540  1.00  0.00    -0.271 C  
HETATM   17  C   UNL     1      -9.744   8.716  70.024  1.00  0.00    -0.176 C  
BRANCH  17  18
HETATM   18  C   UNL     1     -10.006   8.279  68.611  1.00  0.00    -0.203 C  
BRANCH  18  19
HETATM   19  C   UNL     1     -10.759   9.345  67.799  1.00  0.00    -0.290 C  
BRANCH  19  20
HETATM   20  C   UNL     1     -11.334  10.480  68.636  1.00  0.00    -0.315 C  
BRANCH  20  21
HETATM   21  C   UNL     1     -11.303  11.773  67.882  1.00  0.00    -0.292 C  
HETATM   22  O   UNL     1     -12.112  12.143  67.041  1.00  0.00    -0.591 OA 
BRANCH  21  23
HETATM   23  O   UNL     1     -10.139  12.411  68.185  1.00  0.00    -0.211 OA 
BRANCH  23  24
HETATM   24  C   UNL     1     -10.329  13.810  68.154  1.00  0.00    -0.252 C  
BRANCH  24  25
HETATM   25  C   UNL     1      -9.026  14.578  68.099  1.00  0.00    -0.182 C  
BRANCH  25  26
HETATM   26  C   UNL     1      -8.961  15.712  69.118  1.00  0.00    -0.257 C  
BRANCH  26  27
HETATM   27  C   UNL     1      -8.719  17.107  68.523  1.00  0.00    -0.261 C  
BRANCH  27  28
HETATM   28  O   UNL     1      -9.959  17.763  68.370  1.00  0.00    -0.320 OA 
HETATM   29  N   UNL     1      -9.935  18.728  67.336  1.00  0.00    -0.321 N  
HETATM   30  O   UNL     1     -10.998  19.348  67.244  1.00  0.00    -0.491 OA 
HETATM   31  O   UNL     1      -8.903  18.837  66.687  1.00  0.00    -0.295 OA 
ENDBRANCH  27  28
ENDBRANCH  26  27
ENDBRANCH  25  26
ENDBRANCH  24  25
ENDBRANCH  23  24
ENDBRANCH  21  23
ENDBRANCH  20  21
ENDBRANCH  19  20
ENDBRANCH  18  19
ENDBRANCH  17  18
ENDBRANCH  15  16
ENDBRANCH   8  15
ENDBRANCH   5   6
ENDBRANCH   4   5
ENDBRANCH   2   4
BRANCH   2  32
HETATM   32  C   UNL     1      -9.721   9.879  64.509  1.00  0.00    -0.223 C  
BRANCH  32  33
HETATM   33  C   UNL     1      -9.908  10.800  63.309  1.00  0.00    -0.394 C  
BRANCH  33  34
HETATM   34  C   UNL     1     -10.689  12.003  63.726  1.00  0.00    -0.478 A  
HETATM   35  C   UNL     1     -12.777  13.221  63.748  1.00  0.00    -0.054 A  
HETATM   36  C   UNL     1     -10.763  14.230  64.633  1.00  0.00    -0.384 A  
HETATM   37  C   UNL     1     -12.059  12.071  63.434  1.00  0.00    -0.597 A  
HETATM   38  C   UNL     1     -10.042  13.084  64.323  1.00  0.00    -0.216 A  
HETATM   39  C   UNL     1     -12.129  14.300  64.346  1.00  0.00    -0.490 A  
ENDBRANCH  33  34
ENDBRANCH  32  33
ENDBRANCH   2  32
TORSDOF 18
ENDMDL
MODEL      187
REMARK 921   NORMALIZED FREE ENERGY PREDICTED BY IDOCK:   -4.28 KCAL/MOL
REMARK 922        TOTAL FREE ENERGY PREDICTED BY IDOCK:  -13.57 KCAL/MOL
REMARK 923 INTER-LIGAND FREE ENERGY PREDICTED BY IDOCK:   -9.85 KCAL/MOL
REMARK 924 INTRA-LIGAND FREE ENERGY PREDICTED BY IDOCK:   -3.72 KCAL/MOL
REMARK 927      BINDING AFFINITY PREDICTED BY RF-SCORE:    0.00 PKD
ROOT
HETATM    1  O   UNL     1     -13.118   8.681  72.171  1.00  0.00    -0.346 OA 
HETATM    2  C   UNL     1     -11.949   7.864  72.177  1.00  0.00    -0.332 C  
HETATM    3  H   UNL     1     -13.897   8.139  72.229  1.00  0.00     0.000 HD 
ENDROOT
BRANCH   2   4
HETATM    4  C   UNL     1     -10.686   8.743  72.084  1.00  0.00    -0.383 C  
BRANCH   4   5
HETATM    5  C   UNL     1      -9.445   8.174  72.779  1.00  0.00    -0.349 C  
BRANCH   5   6
HETATM    6  C   UNL     1      -8.091   8.433  72.079  1.00  0.00    -0.194 C  
HETATM    7  H   UNL     1      -5.647   7.136  69.160  1.00  0.00     0.000 HD 
HETATM    8  C   UNL     1      -7.715   7.550  70.814  1.00  0.00    -0.083 C  
HETATM    9  C   UNL     1      -6.962   8.133  73.074  1.00  0.00    -0.105 C  
HETATM   10  C   UNL     1      -5.738   8.044  72.210  1.00  0.00    -0.038 C  
HETATM   11  O   UNL     1      -6.796   9.159  74.035  1.00  0.00    -0.359 OA 
HETATM   12  O   UNL     1      -5.362   7.631  69.919  1.00  0.00    -0.023 OA 
HETATM   13  H   UNL     1      -6.097   8.973  74.650  1.00  0.00     0.000 HD 
HETATM   14  C   UNL     1      -6.193   7.255  71.000  1.00  0.00    -0.036 C  
BRANCH   8  15
HETATM   15  C   UNL     1      -8.104   8.160  69.429  1.00  0.00    -0.116 C  
BRANCH  15  16
HETATM   16  C   UNL     1      -8.491   9.628  69.445  1.00  0.00    -0.156 C  
HETATM   17  C   UNL     1      -9.540  10.282  68.908  1.00  0.00    -0.193 C  
BRANCH  17  18
HETATM   18  C   UNL     1     -10.676   9.737  68.091  1.00  0.00    -0.280 C  
BRANCH  18  19
HETATM   19  C   UNL     1     -10.247   9.384  66.658  1.00  0.00    -0.319 C  
BRANCH  19  20
HETATM   20  C   UNL     1      -9.910  10.589  65.789  1.00  0.00    -0.295 C  
BRANCH  20  21
HETATM   21  C   UNL     1      -9.707  10.184  64.362  1.00  0.00    -0.277 C  
HETATM   22  O   UNL     1      -9.018   9.254  63.962  1.00  0.00    -0.187 OA 
BRANCH  21  23
HETATM   23  O   UNL     1     -10.304  11.116  63.570  1.00  0.00    -0.354 OA 
BRANCH  23  24
HETATM   24  C   UNL     1     -11.235  11.868  64.320  1.00  0.00    -0.357 C  
BRANCH  24  25
HETATM   25  C   UNL     1     -12.033  12.831  63.468  1.00  0.00    -0.633 C  
BRANCH  25  26
HETATM   26  C   UNL     1     -12.147  14.221  64.090  1.00  0.00    -0.423 C  
BRANCH  26  27
HETATM   27  C   UNL     1     -11.025  14.587  65.072  1.00  0.00    -0.398 C  
BRANCH  27  28
HETATM   28  O   UNL     1     -11.516  14.486  66.390  1.00  0.00    -0.346 OA 
HETATM   29  N   UNL     1     -10.563  13.939  67.281  1.00  0.00    -0.274 N  
HETATM   30  O   UNL     1     -11.011  13.789  68.421  1.00  0.00    -0.238 OA 
HETATM   31  O   UNL     1      -9.453  13.682  66.834  1.00  0.00    -0.244 OA 
ENDBRANCH  27  28
ENDBRANCH  26  27
ENDBRANCH  25  26
ENDBRANCH  24  25
ENDBRANCH  23  24
ENDBRANCH  21  23
ENDBRANCH  20  21
ENDBRANCH  19  20
ENDBRANCH  18  19
ENDBRANCH  17  18
ENDBRANCH  15  16
ENDBRANCH   8  15
ENDBRANCH   5   6
ENDBRANCH   4   5
ENDBRANCH   2   4
BRANCH   2  32
HETATM   32  C   UNL     1     -12.066   6.925  70.986  1.00  0.00    -0.429 C  
BRANCH  32  33
HETATM   33  C   UNL     1     -11.110   5.743  71.103  1.00  0.00    -0.257 C  
BRANCH  33  34
HETATM   34  C   UNL     1     -10.579   5.400  69.750  1.00  0.00    -0.347 A  
HETATM   35  C   UNL     1     -10.574   5.776  67.362  1.00  0.00    -0.340 A  
HETATM   36  C   UNL     1      -9.313   3.943  68.313  1.00  0.00    -0.221 A  
HETATM   37  C   UNL     1     -11.002   6.139  68.635  1.00  0.00    -0.415 A  
HETATM   38  C   UNL     1      -9.737   4.301  69.587  1.00  0.00    -0.284 A  
HETATM   39  C   UNL     1      -9.731   4.678  67.202  1.00  0.00    -0.219 A  
ENDBRANCH  33  34
ENDBRANCH  32  33
ENDBRANCH   2  32
TORSDOF 18
ENDMDL
MODEL      188
REMARK 921   NORMALIZED FREE ENERGY PREDICTED BY IDOCK:   -4.28 KCAL/MOL
REMARK 922        TOTAL FREE ENERGY PREDICTED BY IDOCK:  -13.57 KCAL/MOL
REMARK 923 INTER-LIGAND FREE ENERGY PREDICTED BY IDOCK:  -11.27 KCAL/MOL
REMARK 924 INTRA-LIGAND FREE ENERGY PREDICTED BY IDOCK:   -2.30 KCAL/MOL
REMARK 927      BINDING AFFINITY PREDICTED BY RF-SCORE:    0.00 PKD
ROOT
HETATM    1  O   UNL     1      -8.328  10.104  67.561  1.00  0.00    -0.118 OA 
HETATM    2  C   UNL     1      -9.703   9.748  67.693  1.00  0.00    -0.156 C  
HETATM    3  H   UNL     1      -7.798   9.325  67.438  1.00  0.00     0.000 HD 
ENDROOT
BRANCH   2   4
HETATM    4  C   UNL     1     -10.562  11.012  67.892  1.00  0.00    -0.244 C  
BRANCH   4   5
HETATM    5  C   UNL     1     -10.051  12.266  67.175  1.00  0.00    -0.218 C  
BRANCH   5   6
HETATM    6  C   UNL     1     -10.521  12.456  65.714  1.00  0.00    -0.288 C  
HETATM    7  H   UNL     1     -13.769  12.661  63.351  1.00  0.00     0.000 HD 
HETATM    8  C   UNL     1     -12.080  12.548  65.429  1.00  0.00    -0.494 C  
HETATM    9  C   UNL     1     -10.079  11.235  64.896  1.00  0.00    -0.281 C  
HETATM   10  C   UNL     1     -10.890  11.335  63.637  1.00  0.00    -0.410 C  
HETATM   11  O   UNL     1      -8.699  11.262  64.581  1.00  0.00    -0.376 OA 
HETATM   12  O   UNL     1     -12.902  12.415  63.051  1.00  0.00    -0.502 OA 
HETATM   13  H   UNL     1      -8.425  10.506  64.075  1.00  0.00     0.000 HD 
HETATM   14  C   UNL     1     -12.272  11.727  64.114  1.00  0.00    -0.190 C  
BRANCH   8  15
HETATM   15  C   UNL     1     -12.674  13.993  65.396  1.00  0.00    -0.499 C  
BRANCH  15  16
HETATM   16  C   UNL     1     -11.976  14.967  64.464  1.00  0.00    -0.420 C  
HETATM   17  C   UNL     1     -11.145  16.000  64.707  1.00  0.00    -0.378 C  
BRANCH  17  18
HETATM   18  C   UNL     1     -10.653  16.525  66.026  1.00  0.00    -0.259 C  
BRANCH  18  19
HETATM   19  C   UNL     1      -9.179  16.173  66.281  1.00  0.00    -0.366 C  
BRANCH  19  20
HETATM   20  C   UNL     1      -8.381  17.272  66.969  1.00  0.00    -0.231 C  
BRANCH  20  21
HETATM   21  C   UNL     1      -7.816  16.793  68.271  1.00  0.00    -0.194 C  
HETATM   22  O   UNL     1      -6.763  17.153  68.782  1.00  0.00    -0.179 OA 
BRANCH  21  23
HETATM   23  O   UNL     1      -8.602  15.778  68.724  1.00  0.00    -0.175 OA 
BRANCH  23  24
HETATM   24  C   UNL     1      -9.678  16.295  69.478  1.00  0.00    -0.131 C  
BRANCH  24  25
HETATM   25  C   UNL     1     -10.510  15.213  70.131  1.00  0.00    -0.192 C  
BRANCH  25  26
HETATM   26  C   UNL     1     -11.951  15.185  69.626  1.00  0.00    -0.359 C  
BRANCH  26  27
HETATM   27  C   UNL     1     -13.024  15.264  70.721  1.00  0.00    -0.436 C  
BRANCH  27  28
HETATM   28  O   UNL     1     -12.403  15.555  71.954  1.00  0.00    -0.328 OA 
HETATM   29  N   UNL     1     -12.893  14.749  73.009  1.00  0.00    -0.463 N  
HETATM   30  O   UNL     1     -12.398  15.046  74.099  1.00  0.00    -0.587 OA 
HETATM   31  O   UNL     1     -13.722  13.893  72.728  1.00  0.00    -0.686 OA 
ENDBRANCH  27  28
ENDBRANCH  26  27
ENDBRANCH  25  26
ENDBRANCH  24  25
ENDBRANCH  23  24
ENDBRANCH  21  23
ENDBRANCH  20  21
ENDBRANCH  19  20
ENDBRANCH  18  19
ENDBRANCH  17  18
ENDBRANCH  15  16
ENDBRANCH   8  15
ENDBRANCH   5   6
ENDBRANCH   4   5
ENDBRANCH   2   4
BRANCH   2  32
HETATM   32  C   UNL     1      -9.799   8.813  68.889  1.00  0.00    -0.183 C  
BRANCH  32  33
HETATM   33  C   UNL     1     -10.213   9.556  70.154  1.00  0.00    -0.291 C  
BRANCH  33  34
HETATM   34  C   UNL     1      -9.563   8.917  71.338  1.00  0.00    -0.359 A  
HETATM   35  C   UNL     1      -9.766   7.832  73.488  1.00  0.00    -0.319 A  
HETATM   36  C   UNL     1      -7.587   8.430  72.622  1.00  0.00    -0.130 A  
HETATM   37  C   UNL     1     -10.361   8.357  72.345  1.00  0.00    -0.399 A  
HETATM   38  C   UNL     1      -8.176   8.955  71.479  1.00  0.00    -0.143 A  
HETATM   39  C   UNL     1      -8.380   7.869  73.626  1.00  0.00    -0.282 A  
ENDBRANCH  33  34
ENDBRANCH  32  33
ENDBRANCH   2  32
TORSDOF 18
ENDMDL
MODEL      189
REMARK 921   NORMALIZED FREE ENERGY PREDICTED BY IDOCK:   -4.28 KCAL/MOL
REMARK 922        TOTAL FREE ENERGY PREDICTED BY IDOCK:  -13.56 KCAL/MOL
REMARK 923 INTER-LIGAND FREE ENERGY PREDICTED BY IDOCK:  -10.32 KCAL/MOL
REMARK 924 INTRA-LIGAND FREE ENERGY PREDICTED BY IDOCK:   -3.24 KCAL/MOL
REMARK 927      BINDING AFFINITY PREDICTED BY RF-SCORE:    0.00 PKD
ROOT
HETATM    1  O   UNL     1     -11.525   5.750  66.137  1.00  0.00    -0.619 OA 
HETATM    2  C   UNL     1     -10.566   6.113  67.128  1.00  0.00    -0.305 C  
HETATM    3  H   UNL     1     -11.087   5.532  65.322  1.00  0.00     0.000 HD 
ENDROOT
BRANCH   2   4
HETATM    4  C   UNL     1     -11.276   6.466  68.450  1.00  0.00    -0.297 C  
BRANCH   4   5
HETATM    5  C   UNL     1     -10.357   6.973  69.567  1.00  0.00    -0.225 C  
BRANCH   5   6
HETATM    6  C   UNL     1     -10.531   6.304  70.950  1.00  0.00    -0.274 C  
HETATM    7  H   UNL     1      -9.849   6.765  74.887  1.00  0.00     0.000 HD 
HETATM    8  C   UNL     1     -10.103   7.121  72.242  1.00  0.00    -0.202 C  
HETATM    9  C   UNL     1      -9.640   5.056  71.003  1.00  0.00    -0.170 C  
HETATM   10  C   UNL     1      -9.588   4.715  72.464  1.00  0.00    -0.178 C  
HETATM   11  O   UNL     1     -10.181   3.968  70.277  1.00  0.00    -0.009 OA 
HETATM   12  O   UNL     1      -9.956   5.925  74.454  1.00  0.00    -0.211 OA 
HETATM   13  H   UNL     1      -9.629   3.195  70.310  1.00  0.00     0.000 HD 
HETATM   14  C   UNL     1      -9.418   6.053  73.153  1.00  0.00    -0.142 C  
BRANCH   8  15
HETATM   15  C   UNL     1     -11.244   7.938  72.929  1.00  0.00    -0.429 C  
BRANCH  15  16
HETATM   16  C   UNL     1     -12.550   8.014  72.159  1.00  0.00    -0.316 C  
HETATM   17  C   UNL     1     -13.258   9.065  71.698  1.00  0.00    -0.427 C  
BRANCH  17  18
HETATM   18  C   UNL     1     -12.961  10.531  71.825  1.00  0.00    -0.582 C  
BRANCH  18  19
HETATM   19  C   UNL     1     -12.389  11.126  70.528  1.00  0.00    -0.454 C  
BRANCH  19  20
HETATM   20  C   UNL     1     -11.056  10.527  70.098  1.00  0.00    -0.369 C  
BRANCH  20  21
HETATM   21  C   UNL     1     -10.529  11.210  68.875  1.00  0.00    -0.207 C  
HETATM   22  O   UNL     1      -9.410  11.688  68.735  1.00  0.00    -0.152 OA 
BRANCH  21  23
HETATM   23  O   UNL     1     -11.554  11.341  67.989  1.00  0.00    -0.407 OA 
BRANCH  23  24
HETATM   24  C   UNL     1     -11.148  10.908  66.708  1.00  0.00    -0.126 C  
BRANCH  24  25
HETATM   25  C   UNL     1     -11.057  12.039  65.707  1.00  0.00    -0.371 C  
BRANCH  25  26
HETATM   26  C   UNL     1     -12.387  12.763  65.506  1.00  0.00    -0.495 C  
BRANCH  26  27
HETATM   27  C   UNL     1     -12.305  14.053  64.677  1.00  0.00    -0.397 C  
BRANCH  27  28
HETATM   28  O   UNL     1     -11.472  14.976  65.345  1.00  0.00    -0.343 OA 
HETATM   29  N   UNL     1     -11.331  16.190  64.631  1.00  0.00    -0.381 N  
HETATM   30  O   UNL     1     -10.552  16.973  65.180  1.00  0.00    -0.688 OA 
HETATM   31  O   UNL     1     -11.965  16.311  63.591  1.00  0.00    -0.840 OA 
ENDBRANCH  27  28
ENDBRANCH  26  27
ENDBRANCH  25  26
ENDBRANCH  24  25
ENDBRANCH  23  24
ENDBRANCH  21  23
ENDBRANCH  20  21
ENDBRANCH  19  20
ENDBRANCH  18  19
ENDBRANCH  17  18
ENDBRANCH  15  16
ENDBRANCH   8  15
ENDBRANCH   5   6
ENDBRANCH   4   5
ENDBRANCH   2   4
BRANCH   2  32
HETATM   32  C   UNL     1      -9.793   7.302  66.575  1.00  0.00    -0.202 C  
BRANCH  32  33
HETATM   33  C   UNL     1      -8.313   6.981  66.401  1.00  0.00    -0.125 C  
BRANCH  33  34
HETATM   34  C   UNL     1      -7.581   7.333  67.654  1.00  0.00    -0.110 A  
HETATM   35  C   UNL     1      -6.774   9.019  69.188  1.00  0.00    -0.050 A  
HETATM   36  C   UNL     1      -6.147   6.700  69.480  1.00  0.00    -0.025 A  
HETATM   37  C   UNL     1      -7.521   8.672  68.066  1.00  0.00    -0.097 A  
HETATM   38  C   UNL     1      -6.891   6.349  68.361  1.00  0.00    -0.071 A  
HETATM   39  C   UNL     1      -6.088   8.033  69.894  1.00  0.00    -0.026 A  
ENDBRANCH  33  34
ENDBRANCH  32  33
ENDBRANCH   2  32
TORSDOF 18
ENDMDL
MODEL      190
REMARK 921   NORMALIZED FREE ENERGY PREDICTED BY IDOCK:   -4.27 KCAL/MOL
REMARK 922        TOTAL FREE ENERGY PREDICTED BY IDOCK:  -13.55 KCAL/MOL
REMARK 923 INTER-LIGAND FREE ENERGY PREDICTED BY IDOCK:   -8.70 KCAL/MOL
REMARK 924 INTRA-LIGAND FREE ENERGY PREDICTED BY IDOCK:   -4.86 KCAL/MOL
REMARK 927      BINDING AFFINITY PREDICTED BY RF-SCORE:    0.00 PKD
ROOT
HETATM    1  O   UNL     1     -11.867  12.864  68.277  1.00  0.00    -0.329 OA 
HETATM    2  C   UNL     1     -12.023  11.457  68.102  1.00  0.00    -0.130 C  
HETATM    3  H   UNL     1     -11.750  13.287  67.435  1.00  0.00     0.000 HD 
ENDROOT
BRANCH   2   4
HETATM    4  C   UNL     1     -12.213  10.769  69.469  1.00  0.00    -0.292 C  
BRANCH   4   5
HETATM    5  C   UNL     1     -10.961  10.713  70.349  1.00  0.00    -0.162 C  
BRANCH   5   6
HETATM    6  C   UNL     1     -10.651   9.350  71.010  1.00  0.00    -0.400 C  
HETATM    7  H   UNL     1      -8.994   5.740  70.381  1.00  0.00     0.000 HD 
HETATM    8  C   UNL     1      -9.809   8.286  70.187  1.00  0.00    -0.184 C  
HETATM    9  C   UNL     1     -11.977   8.627  71.280  1.00  0.00    -0.293 C  
HETATM   10  C   UNL     1     -11.563   7.210  71.552  1.00  0.00    -0.310 C  
HETATM   11  O   UNL     1     -12.664   9.149  72.402  1.00  0.00    -0.382 OA 
HETATM   12  O   UNL     1      -9.659   5.919  71.036  1.00  0.00    -0.163 OA 
HETATM   13  H   UNL     1     -13.485   8.701  72.569  1.00  0.00     0.000 HD 
HETATM   14  C   UNL     1     -10.503   6.924  70.510  1.00  0.00    -0.211 C  
BRANCH   8  15
HETATM   15  C   UNL     1      -8.266   8.314  70.432  1.00  0.00    -0.114 C  
BRANCH  15  16
HETATM   16  C   UNL     1      -7.425   8.784  69.260  1.00  0.00    -0.078 C  
HETATM   17  C   UNL     1      -7.083  10.019  68.841  1.00  0.00    -0.068 C  
BRANCH  17  18
HETATM   18  C   UNL     1      -7.460  11.351  69.425  1.00  0.00     0.060 C  
BRANCH  18  19
HETATM   19  C   UNL     1      -6.925  12.526  68.590  1.00  0.00    -0.091 C  
BRANCH  19  20
HETATM   20  C   UNL     1      -7.770  12.863  67.368  1.00  0.00    -0.160 C  
BRANCH  20  21
HETATM   21  C   UNL     1      -8.292  14.264  67.444  1.00  0.00    -0.198 C  
HETATM   22  O   UNL     1      -8.062  15.169  66.651  1.00  0.00    -0.161 OA 
BRANCH  21  23
HETATM   23  O   UNL     1      -8.951  14.405  68.626  1.00  0.00    -0.189 OA 
BRANCH  23  24
HETATM   24  C   UNL     1      -9.668  15.622  68.641  1.00  0.00    -0.204 C  
BRANCH  24  25
HETATM   25  C   UNL     1     -10.466  15.817  69.912  1.00  0.00    -0.324 C  
BRANCH  25  26
HETATM   26  C   UNL     1     -11.974  15.753  69.684  1.00  0.00    -0.332 C  
BRANCH  26  27
HETATM   27  C   UNL     1     -12.801  15.350  70.913  1.00  0.00    -0.476 C  
BRANCH  27  28
HETATM   28  O   UNL     1     -13.012  13.956  70.888  1.00  0.00    -0.308 OA 
HETATM   29  N   UNL     1     -13.290  13.429  72.172  1.00  0.00    -0.493 N  
HETATM   30  O   UNL     1     -13.411  12.201  72.163  1.00  0.00    -0.522 OA 
HETATM   31  O   UNL     1     -13.367  14.220  73.103  1.00  0.00    -0.643 OA 
ENDBRANCH  27  28
ENDBRANCH  26  27
ENDBRANCH  25  26
ENDBRANCH  24  25
ENDBRANCH  23  24
ENDBRANCH  21  23
ENDBRANCH  20  21
ENDBRANCH  19  20
ENDBRANCH  18  19
ENDBRANCH  17  18
ENDBRANCH  15  16
ENDBRANCH   8  15
ENDBRANCH   5   6
ENDBRANCH   4   5
ENDBRANCH   2   4
BRANCH   2  32
HETATM   32  C   UNL     1     -10.767  10.962  67.399  1.00  0.00    -0.305 C  
BRANCH  32  33
HETATM   33  C   UNL     1     -10.861   9.481  67.051  1.00  0.00    -0.125 C  
BRANCH  33  34
HETATM   34  C   UNL     1      -9.664   9.085  66.251  1.00  0.00    -0.345 A  
HETATM   35  C   UNL     1      -8.054   7.396  65.614  1.00  0.00    -0.129 A  
HETATM   36  C   UNL     1      -7.790   9.682  64.863  1.00  0.00    -0.123 A  
HETATM   37  C   UNL     1      -9.215   7.756  66.292  1.00  0.00    -0.217 A  
HETATM   38  C   UNL     1      -8.949  10.046  65.538  1.00  0.00    -0.206 A  
HETATM   39  C   UNL     1      -7.343   8.359  64.901  1.00  0.00    -0.087 A  
ENDBRANCH  33  34
ENDBRANCH  32  33
ENDBRANCH   2  32
TORSDOF 18
ENDMDL
MODEL      191
REMARK 921   NORMALIZED FREE ENERGY PREDICTED BY IDOCK:   -4.27 KCAL/MOL
REMARK 922        TOTAL FREE ENERGY PREDICTED BY IDOCK:  -13.54 KCAL/MOL
REMARK 923 INTER-LIGAND FREE ENERGY PREDICTED BY IDOCK:   -9.36 KCAL/MOL
REMARK 924 INTRA-LIGAND FREE ENERGY PREDICTED BY IDOCK:   -4.19 KCAL/MOL
REMARK 927      BINDING AFFINITY PREDICTED BY RF-SCORE:    0.00 PKD
ROOT
HETATM    1  O   UNL     1     -12.384  13.593  63.123  1.00  0.00    -1.045 OA 
HETATM    2  C   UNL     1     -11.885  12.459  63.828  1.00  0.00    -0.502 C  
HETATM    3  H   UNL     1     -12.220  13.498  62.192  1.00  0.00     0.000 HD 
ENDROOT
BRANCH   2   4
HETATM    4  C   UNL     1     -12.152  12.613  65.339  1.00  0.00    -0.516 C  
BRANCH   4   5
HETATM    5  C   UNL     1     -12.422  14.046  65.809  1.00  0.00    -0.523 C  
BRANCH   5   6
HETATM    6  C   UNL     1     -11.182  14.953  65.985  1.00  0.00    -0.327 C  
HETATM    7  H   UNL     1      -8.928  16.876  68.704  1.00  0.00     0.000 HD 
HETATM    8  C   UNL     1     -10.715  15.315  67.458  1.00  0.00    -0.285 C  
HETATM    9  C   UNL     1     -11.484  16.320  65.357  1.00  0.00     0.357 C  
HETATM   10  C   UNL     1     -10.407  17.210  65.905  1.00  0.00    -0.294 C  
HETATM   11  O   UNL     1     -11.415  16.298  63.944  1.00  0.00    -1.484 OA 
HETATM   12  O   UNL     1      -8.991  17.121  67.788  1.00  0.00    -0.221 OA 
HETATM   13  H   UNL     1     -11.601  17.145  63.556  1.00  0.00     0.000 HD 
HETATM   14  C   UNL     1     -10.305  16.819  67.364  1.00  0.00    -0.302 C  
BRANCH   8  15
HETATM   15  C   UNL     1      -9.629  14.373  68.070  1.00  0.00    -0.216 C  
BRANCH  15  16
HETATM   16  C   UNL     1      -8.990  13.394  67.102  1.00  0.00    -0.227 C  
HETATM   17  C   UNL     1      -8.766  12.067  67.189  1.00  0.00    -0.183 C  
BRANCH  17  18
HETATM   18  C   UNL     1      -9.081  11.128  68.318  1.00  0.00    -0.162 C  
BRANCH  18  19
HETATM   19  C   UNL     1     -10.585  10.834  68.430  1.00  0.00    -0.228 C  
BRANCH  19  20
HETATM   20  C   UNL     1     -10.922   9.368  68.668  1.00  0.00    -0.075 C  
BRANCH  20  21
HETATM   21  C   UNL     1     -10.706   8.991  70.101  1.00  0.00    -0.233 C  
HETATM   22  O   UNL     1     -10.377   9.746  71.008  1.00  0.00    -0.273 OA 
BRANCH  21  23
HETATM   23  O   UNL     1     -10.797   7.637  70.200  1.00  0.00    -0.244 OA 
BRANCH  23  24
HETATM   24  C   UNL     1     -10.262   7.028  69.044  1.00  0.00    -0.187 C  
BRANCH  24  25
HETATM   25  C   UNL     1     -10.859   5.665  68.769  1.00  0.00    -0.210 C  
BRANCH  25  26
HETATM   26  C   UNL     1      -9.803   4.593  68.512  1.00  0.00    -0.181 C  
BRANCH  26  27
HETATM   27  C   UNL     1      -8.764   4.950  67.439  1.00  0.00    -0.103 C  
BRANCH  27  28
HETATM   28  O   UNL     1      -9.334   4.753  66.164  1.00  0.00    -0.135 OA 
HETATM   29  N   UNL     1      -8.452   5.113  65.117  1.00  0.00    -0.141 N  
HETATM   30  O   UNL     1      -8.970   5.003  64.003  1.00  0.00    -0.097 OA 
HETATM   31  O   UNL     1      -7.327   5.484  65.427  1.00  0.00    -0.070 OA 
ENDBRANCH  27  28
ENDBRANCH  26  27
ENDBRANCH  25  26
ENDBRANCH  24  25
ENDBRANCH  23  24
ENDBRANCH  21  23
ENDBRANCH  20  21
ENDBRANCH  19  20
ENDBRANCH  18  19
ENDBRANCH  17  18
ENDBRANCH  15  16
ENDBRANCH   8  15
ENDBRANCH   5   6
ENDBRANCH   4   5
ENDBRANCH   2   4
BRANCH   2  32
HETATM   32  C   UNL     1     -10.395  12.379  63.530  1.00  0.00    -0.397 C  
BRANCH  32  33
HETATM   33  C   UNL     1     -10.005  11.019  62.962  1.00  0.00    -0.333 C  
BRANCH  33  34
HETATM   34  C   UNL     1      -9.298  10.229  64.014  1.00  0.00    -0.337 A  
HETATM   35  C   UNL     1      -7.229   9.413  64.963  1.00  0.00    -0.105 A  
HETATM   36  C   UNL     1      -9.356   8.655  65.834  1.00  0.00    -0.262 A  
HETATM   37  C   UNL     1      -7.895  10.210  64.037  1.00  0.00    -0.149 A  
HETATM   38  C   UNL     1     -10.026   9.449  64.911  1.00  0.00     0.440 A  
HETATM   39  C   UNL     1      -7.959   8.636  65.860  1.00  0.00    -0.105 A  
ENDBRANCH  33  34
ENDBRANCH  32  33
ENDBRANCH   2  32
TORSDOF 18
ENDMDL
MODEL      192
REMARK 921   NORMALIZED FREE ENERGY PREDICTED BY IDOCK:   -4.27 KCAL/MOL
REMARK 922        TOTAL FREE ENERGY PREDICTED BY IDOCK:  -13.54 KCAL/MOL
REMARK 923 INTER-LIGAND FREE ENERGY PREDICTED BY IDOCK:  -10.70 KCAL/MOL
REMARK 924 INTRA-LIGAND FREE ENERGY PREDICTED BY IDOCK:   -2.84 KCAL/MOL
REMARK 927      BINDING AFFINITY PREDICTED BY RF-SCORE:    0.00 PKD
ROOT
HETATM    1  O   UNL     1     -12.631  10.731  69.189  1.00  0.00    -0.704 OA 
HETATM    2  C   UNL     1     -11.581  11.329  69.946  1.00  0.00    -0.334 C  
HETATM    3  H   UNL     1     -13.348  11.345  69.080  1.00  0.00     0.000 HD 
ENDROOT
BRANCH   2   4
HETATM    4  C   UNL     1     -10.418  10.333  70.123  1.00  0.00    -0.259 C  
BRANCH   4   5
HETATM    5  C   UNL     1     -10.507   9.444  71.368  1.00  0.00    -0.358 C  
BRANCH   5   6
HETATM    6  C   UNL     1     -10.341   7.924  71.134  1.00  0.00    -0.225 C  
HETATM    7  H   UNL     1     -10.693   5.005  68.391  1.00  0.00     0.000 HD 
HETATM    8  C   UNL     1     -10.563   7.357  69.668  1.00  0.00    -0.243 C  
HETATM    9  C   UNL     1     -11.394   7.184  71.969  1.00  0.00    -0.258 C  
HETATM   10  C   UNL     1     -11.398   5.798  71.392  1.00  0.00    -0.175 C  
HETATM   11  O   UNL     1     -11.061   7.130  73.343  1.00  0.00    -0.540 OA 
HETATM   12  O   UNL     1     -10.735   4.867  69.330  1.00  0.00     0.031 OA 
HETATM   13  H   UNL     1     -11.713   6.671  73.859  1.00  0.00     0.000 HD 
HETATM   14  C   UNL     1     -11.332   6.017  69.895  1.00  0.00    -0.285 C  
BRANCH   8  15
HETATM   15  C   UNL     1      -9.275   7.238  68.791  1.00  0.00    -0.137 C  
BRANCH  15  16
HETATM   16  C   UNL     1      -7.962   7.222  69.553  1.00  0.00    -0.127 C  
HETATM   17  C   UNL     1      -7.078   8.200  69.833  1.00  0.00    -0.059 C  
BRANCH  17  18
HETATM   18  C   UNL     1      -7.121   9.651  69.446  1.00  0.00    -0.062 C  
BRANCH  18  19
HETATM   19  C   UNL     1      -7.280   9.846  67.930  1.00  0.00    -0.087 C  
BRANCH  19  20
HETATM   20  C   UNL     1      -7.927  11.166  67.531  1.00  0.00    -0.118 C  
BRANCH  20  21
HETATM   21  C   UNL     1      -9.243  10.939  66.856  1.00  0.00    -0.161 C  
HETATM   22  O   UNL     1      -9.569   9.947  66.215  1.00  0.00    -0.182 OA 
BRANCH  21  23
HETATM   23  O   UNL     1      -9.970  12.085  66.950  1.00  0.00    -0.200 OA 
BRANCH  23  24
HETATM   24  C   UNL     1      -9.118  13.182  67.207  1.00  0.00    -0.217 C  
BRANCH  24  25
HETATM   25  C   UNL     1      -9.454  14.396  66.368  1.00  0.00    -0.309 C  
BRANCH  25  26
HETATM   26  C   UNL     1     -10.955  14.665  66.286  1.00  0.00    -0.327 C  
BRANCH  26  27
HETATM   27  C   UNL     1     -11.517  14.785  64.863  1.00  0.00    -0.412 C  
BRANCH  27  28
HETATM   28  O   UNL     1     -12.588  13.878  64.713  1.00  0.00    -0.603 OA 
HETATM   29  N   UNL     1     -12.255  12.781  63.884  1.00  0.00    -0.446 N  
HETATM   30  O   UNL     1     -13.209  12.022  63.699  1.00  0.00    -0.737 OA 
HETATM   31  O   UNL     1     -11.109  12.722  63.457  1.00  0.00    -0.433 OA 
ENDBRANCH  27  28
ENDBRANCH  26  27
ENDBRANCH  25  26
ENDBRANCH  24  25
ENDBRANCH  23  24
ENDBRANCH  21  23
ENDBRANCH  20  21
ENDBRANCH  19  20
ENDBRANCH  18  19
ENDBRANCH  17  18
ENDBRANCH  15  16
ENDBRANCH   8  15
ENDBRANCH   5   6
ENDBRANCH   4   5
ENDBRANCH   2   4
BRANCH   2  32
HETATM   32  C   UNL     1     -12.181  11.730  71.286  1.00  0.00    -0.098 C  
BRANCH  32  33
HETATM   33  C   UNL     1     -13.385  12.650  71.113  1.00  0.00     0.160 C  
BRANCH  33  34
HETATM   34  C   UNL     1     -13.028  14.023  71.580  1.00  0.00    -0.430 A  
HETATM   35  C   UNL     1     -11.868  16.111  71.206  1.00  0.00    -0.458 A  
HETATM   36  C   UNL     1     -12.965  15.683  73.321  1.00  0.00    -0.664 A  
HETATM   37  C   UNL     1     -12.273  14.861  70.747  1.00  0.00    -0.387 A  
HETATM   38  C   UNL     1     -13.371  14.434  72.867  1.00  0.00    -0.575 A  
HETATM   39  C   UNL     1     -12.214  16.521  72.492  1.00  0.00    -0.281 A  
ENDBRANCH  33  34
ENDBRANCH  32  33
ENDBRANCH   2  32
TORSDOF 18
ENDMDL
MODEL      193
REMARK 921   NORMALIZED FREE ENERGY PREDICTED BY IDOCK:   -4.26 KCAL/MOL
REMARK 922        TOTAL FREE ENERGY PREDICTED BY IDOCK:  -13.53 KCAL/MOL
REMARK 923 INTER-LIGAND FREE ENERGY PREDICTED BY IDOCK:  -10.69 KCAL/MOL
REMARK 924 INTRA-LIGAND FREE ENERGY PREDICTED BY IDOCK:   -2.84 KCAL/MOL
REMARK 927      BINDING AFFINITY PREDICTED BY RF-SCORE:    0.00 PKD
ROOT
HETATM    1  O   UNL     1      -8.913   7.859  72.413  1.00  0.00    -0.133 OA 
HETATM    2  C   UNL     1      -9.281   8.928  71.545  1.00  0.00    -0.252 C  
HETATM    3  H   UNL     1      -7.988   7.662  72.317  1.00  0.00     0.000 HD 
ENDROOT
BRANCH   2   4
HETATM    4  C   UNL     1     -10.781   9.248  71.701  1.00  0.00    -0.393 C  
BRANCH   4   5
HETATM    5  C   UNL     1     -11.507   9.613  70.402  1.00  0.00    -0.325 C  
BRANCH   5   6
HETATM    6  C   UNL     1     -12.368  10.897  70.439  1.00  0.00    -0.436 C  
HETATM    7  H   UNL     1     -12.281  14.880  69.888  1.00  0.00     0.000 HD 
HETATM    8  C   UNL     1     -11.705  12.264  69.979  1.00  0.00    -0.319 C  
HETATM    9  C   UNL     1     -12.777  11.168  71.893  1.00  0.00    -0.188 C  
HETATM   10  C   UNL     1     -13.260  12.589  71.869  1.00  0.00    -0.495 C  
HETATM   11  O   UNL     1     -13.817  10.316  72.334  1.00  0.00    -0.493 OA 
HETATM   12  O   UNL     1     -12.913  14.427  70.434  1.00  0.00    -0.320 OA 
HETATM   13  H   UNL     1     -14.070  10.484  73.234  1.00  0.00     0.000 HD 
HETATM   14  C   UNL     1     -12.253  13.311  70.999  1.00  0.00    -0.197 C  
BRANCH   8  15
HETATM   15  C   UNL     1     -11.910  12.638  68.476  1.00  0.00    -0.342 C  
BRANCH  15  16
HETATM   16  C   UNL     1     -11.145  11.787  67.478  1.00  0.00    -0.330 C  
HETATM   17  C   UNL     1     -11.151  11.764  66.130  1.00  0.00    -0.358 C  
BRANCH  17  18
HETATM   18  C   UNL     1     -11.958  12.597  65.176  1.00  0.00    -0.474 C  
BRANCH  18  19
HETATM   19  C   UNL     1     -11.093  13.613  64.413  1.00  0.00    -0.378 C  
BRANCH  19  20
HETATM   20  C   UNL     1     -11.392  15.069  64.748  1.00  0.00    -0.409 C  
BRANCH  20  21
HETATM   21  C   UNL     1     -10.300  15.665  65.581  1.00  0.00    -0.385 C  
HETATM   22  O   UNL     1      -9.231  15.137  65.863  1.00  0.00    -0.296 OA 
BRANCH  21  23
HETATM   23  O   UNL     1     -10.755  16.840  66.095  1.00  0.00    -0.240 OA 
BRANCH  23  24
HETATM   24  C   UNL     1      -9.724  17.806  66.088  1.00  0.00    -0.217 C  
BRANCH  24  25
HETATM   25  C   UNL     1     -10.218  19.193  66.437  1.00  0.00    -0.515 C  
BRANCH  25  26
HETATM   26  C   UNL     1      -9.213  19.990  67.266  1.00  0.00    -0.481 C  
BRANCH  26  27
HETATM   27  C   UNL     1      -9.104  19.565  68.738  1.00  0.00    -0.328 C  
BRANCH  27  28
HETATM   28  O   UNL     1      -8.319  18.396  68.821  1.00  0.00    -0.304 OA 
HETATM   29  N   UNL     1      -6.996  18.662  69.245  1.00  0.00    -0.243 N  
HETATM   30  O   UNL     1      -6.290  17.650  69.256  1.00  0.00    -0.227 OA 
HETATM   31  O   UNL     1      -6.716  19.819  69.531  1.00  0.00    -0.340 OA 
ENDBRANCH  27  28
ENDBRANCH  26  27
ENDBRANCH  25  26
ENDBRANCH  24  25
ENDBRANCH  23  24
ENDBRANCH  21  23
ENDBRANCH  20  21
ENDBRANCH  19  20
ENDBRANCH  18  19
ENDBRANCH  17  18
ENDBRANCH  15  16
ENDBRANCH   8  15
ENDBRANCH   5   6
ENDBRANCH   4   5
ENDBRANCH   2   4
BRANCH   2  32
HETATM   32  C   UNL     1      -8.952   8.476  70.129  1.00  0.00    -0.148 C  
BRANCH  32  33
HETATM   33  C   UNL     1      -8.059   9.480  69.409  1.00  0.00    -0.116 C  
BRANCH  33  34
HETATM   34  C   UNL     1      -8.312   9.400  67.939  1.00  0.00    -0.115 A  
HETATM   35  C   UNL     1      -9.490   8.393  66.084  1.00  0.00    -0.263 A  
HETATM   36  C   UNL     1      -7.700   9.972  65.683  1.00  0.00    -0.136 A  
HETATM   37  C   UNL     1      -9.304   8.533  67.456  1.00  0.00    -0.169 A  
HETATM   38  C   UNL     1      -7.510  10.116  67.052  1.00  0.00    -0.092 A  
HETATM   39  C   UNL     1      -8.689   9.112  65.199  1.00  0.00    -0.228 A  
ENDBRANCH  33  34
ENDBRANCH  32  33
ENDBRANCH   2  32
TORSDOF 18
ENDMDL
MODEL      194
REMARK 921   NORMALIZED FREE ENERGY PREDICTED BY IDOCK:   -4.25 KCAL/MOL
REMARK 922        TOTAL FREE ENERGY PREDICTED BY IDOCK:  -13.51 KCAL/MOL
REMARK 923 INTER-LIGAND FREE ENERGY PREDICTED BY IDOCK:  -10.28 KCAL/MOL
REMARK 924 INTRA-LIGAND FREE ENERGY PREDICTED BY IDOCK:   -3.22 KCAL/MOL
REMARK 927      BINDING AFFINITY PREDICTED BY RF-SCORE:    0.00 PKD
ROOT
HETATM    1  O   UNL     1     -12.529  10.697  68.492  1.00  0.00    -0.719 OA 
HETATM    2  C   UNL     1     -11.724  11.477  69.374  1.00  0.00    -0.346 C  
HETATM    3  H   UNL     1     -13.444  10.758  68.743  1.00  0.00     0.000 HD 
ENDROOT
BRANCH   2   4
HETATM    4  C   UNL     1     -10.241  11.378  68.966  1.00  0.00    -0.137 C  
BRANCH   4   5
HETATM    5  C   UNL     1      -9.479  10.192  69.567  1.00  0.00    -0.235 C  
BRANCH   5   6
HETATM    6  C   UNL     1      -8.834   9.213  68.559  1.00  0.00    -0.129 C  
HETATM    7  H   UNL     1      -9.628   6.293  65.909  1.00  0.00     0.000 HD 
HETATM    8  C   UNL     1      -9.789   8.306  67.672  1.00  0.00    -0.218 C  
HETATM    9  C   UNL     1      -7.993   8.194  69.338  1.00  0.00    -0.114 C  
HETATM   10  C   UNL     1      -7.737   7.103  68.339  1.00  0.00    -0.120 C  
HETATM   11  O   UNL     1      -6.762   8.732  69.784  1.00  0.00    -0.044 OA 
HETATM   12  O   UNL     1      -8.793   6.407  66.349  1.00  0.00    -0.132 OA 
HETATM   13  H   UNL     1      -6.241   8.101  70.266  1.00  0.00     0.000 HD 
HETATM   14  C   UNL     1      -9.067   6.921  67.638  1.00  0.00    -0.118 C  
BRANCH   8  15
HETATM   15  C   UNL     1     -10.161   8.890  66.271  1.00  0.00    -0.284 C  
BRANCH  15  16
HETATM   16  C   UNL     1      -9.260  10.001  65.764  1.00  0.00    -0.222 C  
HETATM   17  C   UNL     1      -9.319  10.766  64.656  1.00  0.00    -0.271 C  
BRANCH  17  18
HETATM   18  C   UNL     1     -10.326  10.737  63.541  1.00  0.00    -0.231 C  
BRANCH  18  19
HETATM   19  C   UNL     1     -11.400  11.825  63.696  1.00  0.00    -0.525 C  
BRANCH  19  20
HETATM   20  C   UNL     1     -11.560  12.351  65.117  1.00  0.00    -0.408 C  
BRANCH  20  21
HETATM   21  C   UNL     1     -11.917  13.805  65.115  1.00  0.00    -0.379 C  
HETATM   22  O   UNL     1     -13.036  14.278  64.958  1.00  0.00    -0.682 OA 
BRANCH  21  23
HETATM   23  O   UNL     1     -10.763  14.523  65.172  1.00  0.00    -0.352 OA 
BRANCH  23  24
HETATM   24  C   UNL     1      -9.929  14.023  66.197  1.00  0.00    -0.312 C  
BRANCH  24  25
HETATM   25  C   UNL     1      -9.794  14.979  67.362  1.00  0.00    -0.224 C  
BRANCH  25  26
HETATM   26  C   UNL     1     -10.474  16.323  67.110  1.00  0.00    -0.297 C  
BRANCH  26  27
HETATM   27  C   UNL     1      -9.599  17.373  66.411  1.00  0.00    -0.276 C  
BRANCH  27  28
HETATM   28  O   UNL     1      -8.398  16.764  65.990  1.00  0.00    -0.434 OA 
HETATM   29  N   UNL     1      -7.264  17.299  66.646  1.00  0.00    -0.215 N  
HETATM   30  O   UNL     1      -6.207  16.814  66.233  1.00  0.00    -0.236 OA 
HETATM   31  O   UNL     1      -7.455  18.151  67.504  1.00  0.00    -0.209 OA 
ENDBRANCH  27  28
ENDBRANCH  26  27
ENDBRANCH  25  26
ENDBRANCH  24  25
ENDBRANCH  23  24
ENDBRANCH  21  23
ENDBRANCH  20  21
ENDBRANCH  19  20
ENDBRANCH  18  19
ENDBRANCH  17  18
ENDBRANCH  15  16
ENDBRANCH   8  15
ENDBRANCH   5   6
ENDBRANCH   4   5
ENDBRANCH   2   4
BRANCH   2  32
HETATM   32  C   UNL     1     -11.956  10.932  70.775  1.00  0.00    -0.449 C  
BRANCH  32  33
HETATM   33  C   UNL     1     -12.825   9.680  70.757  1.00  0.00    -0.171 C  
BRANCH  33  34
HETATM   34  C   UNL     1     -12.010   8.505  71.190  1.00  0.00    -0.306 A  
HETATM   35  C   UNL     1     -11.189   6.273  70.759  1.00  0.00    -0.387 A  
HETATM   36  C   UNL     1     -10.768   7.340  72.890  1.00  0.00    -0.365 A  
HETATM   37  C   UNL     1     -11.880   7.403  70.332  1.00  0.00    -0.114 A  
HETATM   38  C   UNL     1     -11.456   8.471  72.468  1.00  0.00    -0.368 A  
HETATM   39  C   UNL     1     -10.634   6.242  72.037  1.00  0.00    -0.253 A  
ENDBRANCH  33  34
ENDBRANCH  32  33
ENDBRANCH   2  32
TORSDOF 18
ENDMDL
MODEL      195
REMARK 921   NORMALIZED FREE ENERGY PREDICTED BY IDOCK:   -4.24 KCAL/MOL
REMARK 922        TOTAL FREE ENERGY PREDICTED BY IDOCK:  -13.49 KCAL/MOL
REMARK 923 INTER-LIGAND FREE ENERGY PREDICTED BY IDOCK:   -9.43 KCAL/MOL
REMARK 924 INTRA-LIGAND FREE ENERGY PREDICTED BY IDOCK:   -4.06 KCAL/MOL
REMARK 927      BINDING AFFINITY PREDICTED BY RF-SCORE:    0.00 PKD
ROOT
HETATM    1  O   UNL     1     -12.432  14.400  63.310  1.00  0.00    -1.099 OA 
HETATM    2  C   UNL     1     -12.161  14.414  64.710  1.00  0.00    -0.446 C  
HETATM    3  H   UNL     1     -13.327  14.121  63.152  1.00  0.00     0.000 HD 
ENDROOT
BRANCH   2   4
HETATM    4  C   UNL     1     -10.710  14.866  64.966  1.00  0.00    -0.451 C  
BRANCH   4   5
HETATM    5  C   UNL     1     -10.559  16.054  65.922  1.00  0.00    -0.338 C  
BRANCH   5   6
HETATM    6  C   UNL     1      -9.227  16.135  66.704  1.00  0.00    -0.273 C  
HETATM    7  H   UNL     1      -7.545  15.587  70.316  1.00  0.00     0.000 HD 
HETATM    8  C   UNL     1      -9.207  15.645  68.214  1.00  0.00    -0.188 C  
HETATM    9  C   UNL     1      -8.806  17.608  66.799  1.00  0.00    -0.258 C  
HETATM   10  C   UNL     1      -7.751  17.610  67.867  1.00  0.00    -0.216 C  
HETATM   11  O   UNL     1      -8.262  18.098  65.588  1.00  0.00    -0.444 OA 
HETATM   12  O   UNL     1      -7.199  16.163  69.644  1.00  0.00    -0.185 OA 
HETATM   13  H   UNL     1      -8.002  19.010  65.647  1.00  0.00     0.000 HD 
HETATM   14  C   UNL     1      -8.303  16.693  68.938  1.00  0.00    -0.230 C  
BRANCH   8  15
HETATM   15  C   UNL     1      -8.793  14.155  68.432  1.00  0.00    -0.187 C  
BRANCH  15  16
HETATM   16  C   UNL     1      -8.125  13.481  67.247  1.00  0.00    -0.141 C  
HETATM   17  C   UNL     1      -7.190  12.512  67.179  1.00  0.00    -0.061 C  
BRANCH  17  18
HETATM   18  C   UNL     1      -6.492  11.793  68.298  1.00  0.00    -0.051 C  
BRANCH  18  19
HETATM   19  C   UNL     1      -7.188  10.473  68.667  1.00  0.00    -0.087 C  
BRANCH  19  20
HETATM   20  C   UNL     1      -6.400   9.223  68.297  1.00  0.00    -0.054 C  
BRANCH  20  21
HETATM   21  C   UNL     1      -6.365   8.252  69.436  1.00  0.00    -0.038 C  
HETATM   22  O   UNL     1      -6.081   8.508  70.600  1.00  0.00    -0.031 OA 
BRANCH  21  23
HETATM   23  O   UNL     1      -6.561   7.003  68.932  1.00  0.00    -0.044 OA 
BRANCH  23  24
HETATM   24  C   UNL     1      -7.573   6.339  69.660  1.00  0.00    -0.094 C  
BRANCH  24  25
HETATM   25  C   UNL     1      -8.742   5.922  68.794  1.00  0.00    -0.109 C  
BRANCH  25  26
HETATM   26  C   UNL     1      -9.978   5.542  69.606  1.00  0.00    -0.282 C  
BRANCH  26  27
HETATM   27  C   UNL     1     -10.232   6.411  70.846  1.00  0.00    -0.189 C  
BRANCH  27  28
HETATM   28  O   UNL     1     -11.089   7.475  70.494  1.00  0.00    -0.253 OA 
HETATM   29  N   UNL     1     -12.181   7.607  71.384  1.00  0.00    -0.316 N  
HETATM   30  O   UNL     1     -12.966   8.495  71.042  1.00  0.00    -0.120 OA 
HETATM   31  O   UNL     1     -12.221   6.850  72.346  1.00  0.00    -0.172 OA 
ENDBRANCH  27  28
ENDBRANCH  26  27
ENDBRANCH  25  26
ENDBRANCH  24  25
ENDBRANCH  23  24
ENDBRANCH  21  23
ENDBRANCH  20  21
ENDBRANCH  19  20
ENDBRANCH  18  19
ENDBRANCH  17  18
ENDBRANCH  15  16
ENDBRANCH   8  15
ENDBRANCH   5   6
ENDBRANCH   4   5
ENDBRANCH   2   4
BRANCH   2  32
HETATM   32  C   UNL     1     -12.403  12.999  65.216  1.00  0.00    -0.537 C  
BRANCH  32  33
HETATM   33  C   UNL     1     -11.823  12.792  66.611  1.00  0.00    -0.462 C  
BRANCH  33  34
HETATM   34  C   UNL     1     -11.095  11.489  66.654  1.00  0.00    -0.355 A  
HETATM   35  C   UNL     1      -9.752   9.819  65.535  1.00  0.00    -0.382 A  
HETATM   36  C   UNL     1     -10.594   9.415  67.768  1.00  0.00    -0.317 A  
HETATM   37  C   UNL     1     -10.367  11.067  65.532  1.00  0.00    -0.321 A  
HETATM   38  C   UNL     1     -11.210  10.661  67.770  1.00  0.00    -0.383 A  
HETATM   39  C   UNL     1      -9.866   8.994  66.652  1.00  0.00    -0.316 A  
ENDBRANCH  33  34
ENDBRANCH  32  33
ENDBRANCH   2  32
TORSDOF 18
ENDMDL
MODEL      196
REMARK 921   NORMALIZED FREE ENERGY PREDICTED BY IDOCK:   -4.24 KCAL/MOL
REMARK 922        TOTAL FREE ENERGY PREDICTED BY IDOCK:  -13.49 KCAL/MOL
REMARK 923 INTER-LIGAND FREE ENERGY PREDICTED BY IDOCK:   -8.92 KCAL/MOL
REMARK 924 INTRA-LIGAND FREE ENERGY PREDICTED BY IDOCK:   -4.58 KCAL/MOL
REMARK 927      BINDING AFFINITY PREDICTED BY RF-SCORE:    0.00 PKD
ROOT
HETATM    1  O   UNL     1      -8.311   5.811  74.029  1.00  0.00    -0.109 OA 
HETATM    2  C   UNL     1      -9.154   6.089  72.912  1.00  0.00    -0.131 C  
HETATM    3  H   UNL     1      -7.586   5.257  73.762  1.00  0.00     0.000 HD 
ENDROOT
BRANCH   2   4
HETATM    4  C   UNL     1     -10.330   6.987  73.345  1.00  0.00    -0.370 C  
BRANCH   4   5
HETATM    5  C   UNL     1     -11.616   6.811  72.530  1.00  0.00    -0.236 C  
BRANCH   5   6
HETATM    6  C   UNL     1     -11.966   7.957  71.552  1.00  0.00    -0.333 C  
HETATM    7  H   UNL     1     -11.155  11.782  70.612  1.00  0.00     0.000 HD 
HETATM    8  C   UNL     1     -11.148   9.314  71.656  1.00  0.00    -0.438 C  
HETATM    9  C   UNL     1     -13.415   8.391  71.809  1.00  0.00    -0.364 C  
HETATM   10  C   UNL     1     -13.522   9.712  71.105  1.00  0.00    -0.292 C  
HETATM   11  O   UNL     1     -14.359   7.484  71.270  1.00  0.00    -0.585 OA 
HETATM   12  O   UNL     1     -11.967  11.337  70.399  1.00  0.00    -0.334 OA 
HETATM   13  H   UNL     1     -15.256   7.753  71.429  1.00  0.00     0.000 HD 
HETATM   14  C   UNL     1     -12.228  10.422  71.444  1.00  0.00    -0.362 C  
BRANCH   8  15
HETATM   15  C   UNL     1      -9.902   9.421  70.720  1.00  0.00    -0.348 C  
BRANCH  15  16
HETATM   16  C   UNL     1      -9.622   8.202  69.860  1.00  0.00    -0.175 C  
HETATM   17  C   UNL     1      -8.468   7.595  69.516  1.00  0.00    -0.132 C  
BRANCH  17  18
HETATM   18  C   UNL     1      -7.060   7.966  69.885  1.00  0.00    -0.061 C  
BRANCH  18  19
HETATM   19  C   UNL     1      -6.094   7.839  68.697  1.00  0.00    -0.035 C  
BRANCH  19  20
HETATM   20  C   UNL     1      -6.640   8.382  67.382  1.00  0.00    -0.059 C  
BRANCH  20  21
HETATM   21  C   UNL     1      -6.734   9.876  67.414  1.00  0.00    -0.074 C  
HETATM   22  O   UNL     1      -5.817  10.656  67.638  1.00  0.00    -0.044 OA 
BRANCH  21  23
HETATM   23  O   UNL     1      -8.045  10.219  67.295  1.00  0.00    -0.118 OA 
BRANCH  23  24
HETATM   24  C   UNL     1      -8.664   9.439  66.294  1.00  0.00    -0.140 C  
BRANCH  24  25
HETATM   25  C   UNL     1     -10.138   9.213  66.553  1.00  0.00    -0.357 C  
BRANCH  25  26
HETATM   26  C   UNL     1     -10.858  10.475  67.023  1.00  0.00    -0.288 C  
BRANCH  26  27
HETATM   27  C   UNL     1     -10.827  11.648  66.033  1.00  0.00    -0.289 C  
BRANCH  27  28
HETATM   28  O   UNL     1     -12.036  12.367  66.134  1.00  0.00    -0.611 OA 
HETATM   29  N   UNL     1     -12.178  13.332  65.110  1.00  0.00    -0.415 N  
HETATM   30  O   UNL     1     -13.203  14.006  65.233  1.00  0.00    -0.782 OA 
HETATM   31  O   UNL     1     -11.298  13.389  64.260  1.00  0.00    -0.375 OA 
ENDBRANCH  27  28
ENDBRANCH  26  27
ENDBRANCH  25  26
ENDBRANCH  24  25
ENDBRANCH  23  24
ENDBRANCH  21  23
ENDBRANCH  20  21
ENDBRANCH  19  20
ENDBRANCH  18  19
ENDBRANCH  17  18
ENDBRANCH  15  16
ENDBRANCH   8  15
ENDBRANCH   5   6
ENDBRANCH   4   5
ENDBRANCH   2   4
BRANCH   2  32
HETATM   32  C   UNL     1      -9.640   4.747  72.386  1.00  0.00    -0.184 C  
BRANCH  32  33
HETATM   33  C   UNL     1      -8.491   3.900  71.852  1.00  0.00    -0.107 C  
BRANCH  33  34
HETATM   34  C   UNL     1      -8.449   4.007  70.363  1.00  0.00    -0.093 A  
HETATM   35  C   UNL     1      -7.162   4.257  68.331  1.00  0.00    -0.060 A  
HETATM   36  C   UNL     1      -9.580   4.303  68.259  1.00  0.00    -0.197 A  
HETATM   37  C   UNL     1      -7.209   4.076  69.711  1.00  0.00    -0.042 A  
HETATM   38  C   UNL     1      -9.633   4.123  69.636  1.00  0.00    -0.277 A  
HETATM   39  C   UNL     1      -8.347   4.370  67.607  1.00  0.00    -0.099 A  
ENDBRANCH  33  34
ENDBRANCH  32  33
ENDBRANCH   2  32
TORSDOF 18
ENDMDL
MODEL      197
REMARK 921   NORMALIZED FREE ENERGY PREDICTED BY IDOCK:   -4.24 KCAL/MOL
REMARK 922        TOTAL FREE ENERGY PREDICTED BY IDOCK:  -13.49 KCAL/MOL
REMARK 923 INTER-LIGAND FREE ENERGY PREDICTED BY IDOCK:  -10.16 KCAL/MOL
REMARK 924 INTRA-LIGAND FREE ENERGY PREDICTED BY IDOCK:   -3.33 KCAL/MOL
REMARK 927      BINDING AFFINITY PREDICTED BY RF-SCORE:    0.00 PKD
ROOT
HETATM    1  O   UNL     1     -10.364  10.454  69.454  1.00  0.00    -0.213 OA 
HETATM    2  C   UNL     1     -11.265  11.133  68.581  1.00  0.00    -0.255 C  
HETATM    3  H   UNL     1     -10.400  10.836  70.323  1.00  0.00     0.000 HD 
ENDROOT
BRANCH   2   4
HETATM    4  C   UNL     1     -11.208  10.514  67.171  1.00  0.00    -0.134 C  
BRANCH   4   5
HETATM    5  C   UNL     1     -10.152  11.118  66.238  1.00  0.00    -0.277 C  
BRANCH   5   6
HETATM    6  C   UNL     1      -9.820  10.304  64.966  1.00  0.00    -0.397 C  
HETATM    7  H   UNL     1      -6.818   8.646  62.865  1.00  0.00     0.000 HD 
HETATM    8  C   UNL     1      -8.319   9.840  64.738  1.00  0.00    -0.159 C  
HETATM    9  C   UNL     1     -10.117  11.175  63.738  1.00  0.00    -0.361 C  
HETATM   10  C   UNL     1      -9.421  10.461  62.616  1.00  0.00    -0.324 C  
HETATM   11  O   UNL     1     -11.501  11.271  63.460  1.00  0.00    -0.639 OA 
HETATM   12  O   UNL     1      -7.653   8.906  62.495  1.00  0.00    -0.107 OA 
HETATM   13  H   UNL     1     -11.685  11.810  62.700  1.00  0.00     0.000 HD 
HETATM   14  C   UNL     1      -8.090  10.047  63.207  1.00  0.00    -0.159 C  
BRANCH   8  15
HETATM   15  C   UNL     1      -7.969   8.413  65.269  1.00  0.00    -0.125 C  
BRANCH  15  16
HETATM   16  C   UNL     1      -8.978   7.804  66.227  1.00  0.00    -0.209 C  
HETATM   17  C   UNL     1      -8.839   7.293  67.466  1.00  0.00    -0.119 C  
BRANCH  17  18
HETATM   18  C   UNL     1      -7.596   7.155  68.298  1.00  0.00    -0.115 C  
BRANCH  18  19
HETATM   19  C   UNL     1      -7.803   7.639  69.742  1.00  0.00    -0.110 C  
BRANCH  19  20
HETATM   20  C   UNL     1      -7.303   6.670  70.806  1.00  0.00    -0.079 C  
BRANCH  20  21
HETATM   21  C   UNL     1      -8.264   5.538  70.997  1.00  0.00    -0.120 C  
HETATM   22  O   UNL     1      -8.241   4.459  70.418  1.00  0.00    -0.068 OA 
BRANCH  21  23
HETATM   23  O   UNL     1      -9.260   5.964  71.821  1.00  0.00    -0.148 OA 
BRANCH  23  24
HETATM   24  C   UNL     1     -10.494   5.402  71.425  1.00  0.00    -0.226 C  
BRANCH  24  25
HETATM   25  C   UNL     1     -11.174   6.195  70.330  1.00  0.00    -0.439 C  
BRANCH  25  26
HETATM   26  C   UNL     1     -12.346   7.030  70.841  1.00  0.00    -0.361 C  
BRANCH  26  27
HETATM   27  C   UNL     1     -12.026   7.929  72.044  1.00  0.00    -0.319 C  
BRANCH  27  28
HETATM   28  O   UNL     1     -11.971   9.271  71.613  1.00  0.00    -0.330 OA 
HETATM   29  N   UNL     1     -13.141   9.993  71.946  1.00  0.00    -0.442 N  
HETATM   30  O   UNL     1     -13.123  11.149  71.514  1.00  0.00    -0.425 OA 
HETATM   31  O   UNL     1     -14.003   9.409  72.590  1.00  0.00    -0.395 OA 
ENDBRANCH  27  28
ENDBRANCH  26  27
ENDBRANCH  25  26
ENDBRANCH  24  25
ENDBRANCH  23  24
ENDBRANCH  21  23
ENDBRANCH  20  21
ENDBRANCH  19  20
ENDBRANCH  18  19
ENDBRANCH  17  18
ENDBRANCH  15  16
ENDBRANCH   8  15
ENDBRANCH   5   6
ENDBRANCH   4   5
ENDBRANCH   2   4
BRANCH   2  32
HETATM   32  C   UNL     1     -10.842  12.595  68.567  1.00  0.00    -0.279 C  
BRANCH  32  33
HETATM   33  C   UNL     1     -12.018  13.521  68.277  1.00  0.00    -0.377 C  
BRANCH  33  34
HETATM   34  C   UNL     1     -11.779  14.234  66.987  1.00  0.00    -0.427 A  
HETATM   35  C   UNL     1     -12.221  14.457  64.620  1.00  0.00    -0.479 A  
HETATM   36  C   UNL     1     -10.520  15.814  65.679  1.00  0.00    -0.402 A  
HETATM   37  C   UNL     1     -12.496  13.852  65.843  1.00  0.00    -0.519 A  
HETATM   38  C   UNL     1     -10.790  15.213  66.902  1.00  0.00    -0.317 A  
HETATM   39  C   UNL     1     -11.234  15.437  64.539  1.00  0.00    -0.310 A  
ENDBRANCH  33  34
ENDBRANCH  32  33
ENDBRANCH   2  32
TORSDOF 18
ENDMDL
MODEL      198
REMARK 921   NORMALIZED FREE ENERGY PREDICTED BY IDOCK:   -4.21 KCAL/MOL
REMARK 922        TOTAL FREE ENERGY PREDICTED BY IDOCK:  -13.43 KCAL/MOL
REMARK 923 INTER-LIGAND FREE ENERGY PREDICTED BY IDOCK:  -11.29 KCAL/MOL
REMARK 924 INTRA-LIGAND FREE ENERGY PREDICTED BY IDOCK:   -2.14 KCAL/MOL
REMARK 927      BINDING AFFINITY PREDICTED BY RF-SCORE:    0.00 PKD
ROOT
HETATM    1  O   UNL     1     -11.076  13.774  69.514  1.00  0.00    -0.391 OA 
HETATM    2  C   UNL     1     -11.855  14.486  68.555  1.00  0.00    -0.320 C  
HETATM    3  H   UNL     1     -11.180  14.164  70.375  1.00  0.00     0.000 HD 
ENDROOT
BRANCH   2   4
HETATM    4  C   UNL     1     -11.687  13.854  67.159  1.00  0.00    -0.419 C  
BRANCH   4   5
HETATM    5  C   UNL     1     -11.557  12.328  67.148  1.00  0.00    -0.423 C  
BRANCH   5   6
HETATM    6  C   UNL     1     -11.368  11.669  65.762  1.00  0.00    -0.244 C  
HETATM    7  H   UNL     1      -8.621  10.597  63.026  1.00  0.00     0.000 HD 
HETATM    8  C   UNL     1      -9.889  11.428  65.237  1.00  0.00    -0.290 C  
HETATM    9  C   UNL     1     -11.981  12.588  64.697  1.00  0.00    -0.404 C  
HETATM   10  C   UNL     1     -11.421  12.064  63.407  1.00  0.00    -0.489 C  
HETATM   11  O   UNL     1     -13.395  12.520  64.668  1.00  0.00    -0.804 OA 
HETATM   12  O   UNL     1      -9.535  10.772  62.831  1.00  0.00    -0.288 OA 
HETATM   13  H   UNL     1     -13.774  13.089  64.009  1.00  0.00     0.000 HD 
HETATM   14  C   UNL     1      -9.966  11.785  63.718  1.00  0.00    -0.355 C  
BRANCH   8  15
HETATM   15  C   UNL     1      -9.284  10.022  65.554  1.00  0.00    -0.247 C  
BRANCH  15  16
HETATM   16  C   UNL     1      -8.547   9.910  66.876  1.00  0.00    -0.131 C  
HETATM   17  C   UNL     1      -8.944   9.471  68.087  1.00  0.00    -0.123 C  
BRANCH  17  18
HETATM   18  C   UNL     1     -10.291   8.956  68.510  1.00  0.00    -0.229 C  
BRANCH  18  19
HETATM   19  C   UNL     1     -10.311   8.515  69.982  1.00  0.00    -0.213 C  
BRANCH  19  20
HETATM   20  C   UNL     1     -11.697   8.182  70.519  1.00  0.00    -0.067 C  
BRANCH  20  21
HETATM   21  C   UNL     1     -11.612   7.236  71.677  1.00  0.00    -0.274 C  
HETATM   22  O   UNL     1     -11.892   6.044  71.663  1.00  0.00    -0.241 OA 
BRANCH  21  23
HETATM   23  O   UNL     1     -11.309   7.958  72.790  1.00  0.00    -0.382 OA 
BRANCH  23  24
HETATM   24  C   UNL     1     -10.529   7.181  73.676  1.00  0.00    -0.370 C  
BRANCH  24  25
HETATM   25  C   UNL     1      -9.062   7.551  73.642  1.00  0.00    -0.305 C  
BRANCH  25  26
HETATM   26  C   UNL     1      -8.327   6.959  72.442  1.00  0.00    -0.114 C  
BRANCH  26  27
HETATM   27  C   UNL     1      -6.985   7.626  72.108  1.00  0.00    -0.065 C  
BRANCH  27  28
HETATM   28  O   UNL     1      -7.191   9.011  71.934  1.00  0.00    -0.305 OA 
HETATM   29  N   UNL     1      -6.600   9.499  70.744  1.00  0.00    -0.098 N  
HETATM   30  O   UNL     1      -6.723  10.720  70.622  1.00  0.00    -0.310 OA 
HETATM   31  O   UNL     1      -6.052   8.687  70.010  1.00  0.00    -0.030 OA 
ENDBRANCH  27  28
ENDBRANCH  26  27
ENDBRANCH  25  26
ENDBRANCH  24  25
ENDBRANCH  23  24
ENDBRANCH  21  23
ENDBRANCH  20  21
ENDBRANCH  19  20
ENDBRANCH  18  19
ENDBRANCH  17  18
ENDBRANCH  15  16
ENDBRANCH   8  15
ENDBRANCH   5   6
ENDBRANCH   4   5
ENDBRANCH   2   4
BRANCH   2  32
HETATM   32  C   UNL     1     -11.366  15.927  68.578  1.00  0.00    -0.374 C  
BRANCH  32  33
HETATM   33  C   UNL     1     -10.940  16.401  67.193  1.00  0.00    -0.082 C  
BRANCH  33  34
HETATM   34  C   UNL     1     -10.530  17.835  67.265  1.00  0.00    -0.356 A  
HETATM   35  C   UNL     1     -10.048  19.919  66.138  1.00  0.00    -0.611 A  
HETATM   36  C   UNL     1      -9.640  19.691  68.512  1.00  0.00    -0.467 A  
HETATM   37  C   UNL     1     -10.505  18.605  66.093  1.00  0.00    -0.473 A  
HETATM   38  C   UNL     1     -10.095  18.378  68.473  1.00  0.00    -0.413 A  
HETATM   39  C   UNL     1      -9.616  20.461  67.347  1.00  0.00    -0.584 A  
ENDBRANCH  33  34
ENDBRANCH  32  33
ENDBRANCH   2  32
TORSDOF 18
ENDMDL
MODEL      199
REMARK 921   NORMALIZED FREE ENERGY PREDICTED BY IDOCK:   -4.21 KCAL/MOL
REMARK 922        TOTAL FREE ENERGY PREDICTED BY IDOCK:  -13.43 KCAL/MOL
REMARK 923 INTER-LIGAND FREE ENERGY PREDICTED BY IDOCK:  -11.47 KCAL/MOL
REMARK 924 INTRA-LIGAND FREE ENERGY PREDICTED BY IDOCK:   -1.95 KCAL/MOL
REMARK 927      BINDING AFFINITY PREDICTED BY RF-SCORE:    0.00 PKD
ROOT
HETATM    1  O   UNL     1     -10.666  17.098  67.233  1.00  0.00    -0.302 OA 
HETATM    2  C   UNL     1     -10.685  15.673  67.180  1.00  0.00    -0.314 C  
HETATM    3  H   UNL     1     -10.309  17.391  68.063  1.00  0.00     0.000 HD 
ENDROOT
BRANCH   2   4
HETATM    4  C   UNL     1     -11.265  15.199  65.833  1.00  0.00    -0.280 C  
BRANCH   4   5
HETATM    5  C   UNL     1     -12.328  14.100  65.934  1.00  0.00    -0.486 C  
BRANCH   5   6
HETATM    6  C   UNL     1     -11.859  12.664  65.606  1.00  0.00    -0.488 C  
HETATM    7  H   UNL     1      -8.761  10.116  65.898  1.00  0.00     0.000 HD 
HETATM    8  C   UNL     1     -10.431  12.201  66.121  1.00  0.00    -0.281 C  
HETATM    9  C   UNL     1     -11.756  12.520  64.082  1.00  0.00    -0.399 C  
HETATM   10  C   UNL     1     -10.952  11.266  63.895  1.00  0.00    -0.382 C  
HETATM   11  O   UNL     1     -13.019  12.376  63.461  1.00  0.00    -0.750 OA 
HETATM   12  O   UNL     1      -9.451  10.051  65.248  1.00  0.00    -0.219 OA 
HETATM   13  H   UNL     1     -12.955  12.287  62.518  1.00  0.00     0.000 HD 
HETATM   14  C   UNL     1      -9.853  11.369  64.932  1.00  0.00    -0.258 C  
BRANCH   8  15
HETATM   15  C   UNL     1     -10.418  11.472  67.503  1.00  0.00    -0.229 C  
BRANCH  15  16
HETATM   16  C   UNL     1     -11.781  11.169  68.097  1.00  0.00    -0.304 C  
HETATM   17  C   UNL     1     -12.152  10.776  69.332  1.00  0.00    -0.315 C  
BRANCH  17  18
HETATM   18  C   UNL     1     -11.293  10.494  70.531  1.00  0.00    -0.400 C  
BRANCH  18  19
HETATM   19  C   UNL     1     -10.653   9.098  70.475  1.00  0.00    -0.287 C  
BRANCH  19  20
HETATM   20  C   UNL     1      -9.767   8.765  71.669  1.00  0.00    -0.366 C  
BRANCH  20  21
HETATM   21  C   UNL     1     -10.470   7.846  72.620  1.00  0.00    -0.320 C  
HETATM   22  O   UNL     1     -11.681   7.748  72.773  1.00  0.00    -0.337 OA 
BRANCH  21  23
HETATM   23  O   UNL     1      -9.529   7.239  73.393  1.00  0.00    -0.167 OA 
BRANCH  23  24
HETATM   24  C   UNL     1      -9.232   5.957  72.880  1.00  0.00    -0.138 C  
BRANCH  24  25
HETATM   25  C   UNL     1      -9.892   5.691  71.545  1.00  0.00    -0.213 C  
BRANCH  25  26
HETATM   26  C   UNL     1      -9.811   4.226  71.123  1.00  0.00    -0.250 C  
BRANCH  26  27
HETATM   27  C   UNL     1      -8.488   3.813  70.462  1.00  0.00    -0.068 C  
BRANCH  27  28
HETATM   28  O   UNL     1      -8.408   4.404  69.184  1.00  0.00    -0.077 OA 
HETATM   29  N   UNL     1      -8.347   3.442  68.148  1.00  0.00    -0.081 N  
HETATM   30  O   UNL     1      -8.212   3.955  67.034  1.00  0.00    -0.098 OA 
HETATM   31  O   UNL     1      -8.423   2.263  68.466  1.00  0.00    -0.059 OA 
ENDBRANCH  27  28
ENDBRANCH  26  27
ENDBRANCH  25  26
ENDBRANCH  24  25
ENDBRANCH  23  24
ENDBRANCH  21  23
ENDBRANCH  20  21
ENDBRANCH  19  20
ENDBRANCH  18  19
ENDBRANCH  17  18
ENDBRANCH  15  16
ENDBRANCH   8  15
ENDBRANCH   5   6
ENDBRANCH   4   5
ENDBRANCH   2   4
BRANCH   2  32
HETATM   32  C   UNL     1     -11.536  15.203  68.351  1.00  0.00    -0.347 C  
BRANCH  32  33
HETATM   33  C   UNL     1     -10.824  15.407  69.683  1.00  0.00    -0.288 C  
BRANCH  33  34
HETATM   34  C   UNL     1     -11.749  15.042  70.798  1.00  0.00    -0.371 A  
HETATM   35  C   UNL     1     -12.589  15.462  73.026  1.00  0.00    -0.545 A  
HETATM   36  C   UNL     1     -13.296  13.497  71.804  1.00  0.00    -0.480 A  
HETATM   37  C   UNL     1     -11.790  15.840  71.951  1.00  0.00    -0.568 A  
HETATM   38  C   UNL     1     -12.500  13.869  70.728  1.00  0.00    -0.445 A  
HETATM   39  C   UNL     1     -13.340  14.291  72.952  1.00  0.00    -0.561 A  
ENDBRANCH  33  34
ENDBRANCH  32  33
ENDBRANCH   2  32
TORSDOF 18
ENDMDL
MODEL      200
REMARK 921   NORMALIZED FREE ENERGY PREDICTED BY IDOCK:   -4.21 KCAL/MOL
REMARK 922        TOTAL FREE ENERGY PREDICTED BY IDOCK:  -13.42 KCAL/MOL
REMARK 923 INTER-LIGAND FREE ENERGY PREDICTED BY IDOCK:  -10.89 KCAL/MOL
REMARK 924 INTRA-LIGAND FREE ENERGY PREDICTED BY IDOCK:   -2.53 KCAL/MOL
REMARK 927      BINDING AFFINITY PREDICTED BY RF-SCORE:    0.00 PKD
ROOT
HETATM    1  O   UNL     1      -9.941   5.389  67.211  1.00  0.00    -0.143 OA 
HETATM    2  C   UNL     1      -9.875   5.430  68.635  1.00  0.00    -0.148 C  
HETATM    3  H   UNL     1     -10.637   4.806  66.932  1.00  0.00     0.000 HD 
ENDROOT
BRANCH   2   4
HETATM    4  C   UNL     1      -8.745   6.376  69.088  1.00  0.00    -0.127 C  
BRANCH   4   5
HETATM    5  C   UNL     1      -9.140   7.389  70.168  1.00  0.00    -0.148 C  
BRANCH   5   6
HETATM    6  C   UNL     1     -10.441   8.184  69.915  1.00  0.00    -0.226 C  
HETATM    7  H   UNL     1     -11.982  11.358  67.984  1.00  0.00     0.000 HD 
HETATM    8  C   UNL     1     -10.401   9.388  68.881  1.00  0.00    -0.230 C  
HETATM    9  C   UNL     1     -10.867   8.853  71.228  1.00  0.00    -0.290 C  
HETATM   10  C   UNL     1     -11.881   9.873  70.798  1.00  0.00    -0.415 C  
HETATM   11  O   UNL     1     -11.459   7.943  72.136  1.00  0.00    -0.283 OA 
HETATM   12  O   UNL     1     -12.357  10.972  68.767  1.00  0.00    -0.533 OA 
HETATM   13  H   UNL     1     -11.723   8.358  72.950  1.00  0.00     0.000 HD 
HETATM   14  C   UNL     1     -11.284  10.490  69.551  1.00  0.00    -0.271 C  
BRANCH   8  15
HETATM   15  C   UNL     1     -10.798   9.028  67.413  1.00  0.00    -0.116 C  
BRANCH  15  16
HETATM   16  C   UNL     1      -9.640   8.781  66.463  1.00  0.00    -0.302 C  
HETATM   17  C   UNL     1      -8.985   9.603  65.619  1.00  0.00    -0.208 C  
BRANCH  17  18
HETATM   18  C   UNL     1      -9.223  11.060  65.344  1.00  0.00    -0.232 C  
BRANCH  18  19
HETATM   19  C   UNL     1     -10.537  11.303  64.584  1.00  0.00    -0.392 C  
BRANCH  19  20
HETATM   20  C   UNL     1     -11.655  11.891  65.436  1.00  0.00    -0.284 C  
BRANCH  20  21
HETATM   21  C   UNL     1     -12.542  12.780  64.621  1.00  0.00    -0.419 C  
HETATM   22  O   UNL     1     -12.890  12.593  63.461  1.00  0.00    -0.712 OA 
BRANCH  21  23
HETATM   23  O   UNL     1     -12.780  13.911  65.339  1.00  0.00    -0.570 OA 
BRANCH  23  24
HETATM   24  C   UNL     1     -12.386  13.727  66.682  1.00  0.00    -0.357 C  
BRANCH  24  25
HETATM   25  C   UNL     1     -11.651  14.923  67.248  1.00  0.00    -0.337 C  
BRANCH  25  26
HETATM   26  C   UNL     1     -10.448  15.335  66.403  1.00  0.00    -0.307 C  
BRANCH  26  27
HETATM   27  C   UNL     1      -9.789  16.660  66.814  1.00  0.00    -0.273 C  
BRANCH  27  28
HETATM   28  O   UNL     1     -10.640  17.726  66.454  1.00  0.00    -0.314 OA 
HETATM   29  N   UNL     1      -9.922  18.864  66.015  1.00  0.00    -0.334 N  
HETATM   30  O   UNL     1     -10.660  19.820  65.762  1.00  0.00    -0.523 OA 
HETATM   31  O   UNL     1      -8.703  18.773  65.948  1.00  0.00    -0.471 OA 
ENDBRANCH  27  28
ENDBRANCH  26  27
ENDBRANCH  25  26
ENDBRANCH  24  25
ENDBRANCH  23  24
ENDBRANCH  21  23
ENDBRANCH  20  21
ENDBRANCH  19  20
ENDBRANCH  18  19
ENDBRANCH  17  18
ENDBRANCH  15  16
ENDBRANCH   8  15
ENDBRANCH   5   6
ENDBRANCH   4   5
ENDBRANCH   2   4
BRANCH   2  32
HETATM   32  C   UNL     1      -9.628   4.002  69.102  1.00  0.00    -0.233 C  
BRANCH  32  33
HETATM   33  C   UNL     1      -8.759   3.960  70.354  1.00  0.00    -0.126 C  
BRANCH  33  34
HETATM   34  C   UNL     1      -9.597   3.560  71.524  1.00  0.00    -0.232 A  
HETATM   35  C   UNL     1     -10.681   1.822  72.807  1.00  0.00    -0.230 A  
HETATM   36  C   UNL     1     -11.048   4.152  73.350  1.00  0.00    -0.354 A  
HETATM   37  C   UNL     1      -9.837   2.200  71.768  1.00  0.00    -0.218 A  
HETATM   38  C   UNL     1     -10.205   4.535  72.314  1.00  0.00    -0.257 A  
HETATM   39  C   UNL     1     -11.286   2.798  73.598  1.00  0.00    -0.270 A  
ENDBRANCH  33  34
ENDBRANCH  32  33
ENDBRANCH   2  32
TORSDOF 18
ENDMDL
MODEL      201
REMARK 921   NORMALIZED FREE ENERGY PREDICTED BY IDOCK:   -4.20 KCAL/MOL
REMARK 922        TOTAL FREE ENERGY PREDICTED BY IDOCK:  -13.39 KCAL/MOL
REMARK 923 INTER-LIGAND FREE ENERGY PREDICTED BY IDOCK:  -10.01 KCAL/MOL
REMARK 924 INTRA-LIGAND FREE ENERGY PREDICTED BY IDOCK:   -3.39 KCAL/MOL
REMARK 927      BINDING AFFINITY PREDICTED BY RF-SCORE:    0.00 PKD
ROOT
HETATM    1  O   UNL     1     -13.058   9.270  72.188  1.00  0.00    -0.386 OA 
HETATM    2  C   UNL     1     -12.010   8.304  72.238  1.00  0.00    -0.386 C  
HETATM    3  H   UNL     1     -13.884   8.871  72.436  1.00  0.00     0.000 HD 
ENDROOT
BRANCH   2   4
HETATM    4  C   UNL     1     -10.670   8.953  71.836  1.00  0.00    -0.426 C  
BRANCH   4   5
HETATM    5  C   UNL     1      -9.446   8.446  72.606  1.00  0.00    -0.335 C  
BRANCH   5   6
HETATM    6  C   UNL     1      -8.089   8.544  71.870  1.00  0.00    -0.185 C  
HETATM    7  H   UNL     1      -5.898   6.984  68.880  1.00  0.00     0.000 HD 
HETATM    8  C   UNL     1      -7.857   7.633  70.591  1.00  0.00    -0.097 C  
HETATM    9  C   UNL     1      -6.980   8.100  72.833  1.00  0.00    -0.100 C  
HETATM   10  C   UNL     1      -5.799   7.870  71.936  1.00  0.00    -0.036 C  
HETATM   11  O   UNL     1      -6.665   9.090  73.794  1.00  0.00    -0.342 OA 
HETATM   12  O   UNL     1      -5.535   7.434  69.634  1.00  0.00    -0.022 OA 
HETATM   13  H   UNL     1      -5.978   8.816  74.390  1.00  0.00     0.000 HD 
HETATM   14  C   UNL     1      -6.377   7.153  70.734  1.00  0.00    -0.039 C  
BRANCH   8  15
HETATM   15  C   UNL     1      -8.204   8.297  69.220  1.00  0.00    -0.118 C  
BRANCH  15  16
HETATM   16  C   UNL     1      -8.370   9.806  69.247  1.00  0.00    -0.142 C  
HETATM   17  C   UNL     1      -9.333  10.609  68.753  1.00  0.00    -0.183 C  
BRANCH  17  18
HETATM   18  C   UNL     1     -10.570  10.239  67.986  1.00  0.00    -0.272 C  
BRANCH  18  19
HETATM   19  C   UNL     1     -10.331  10.215  66.468  1.00  0.00    -0.270 C  
BRANCH  19  20
HETATM   20  C   UNL     1      -9.866  11.543  65.885  1.00  0.00    -0.262 C  
BRANCH  20  21
HETATM   21  C   UNL     1     -10.136  11.609  64.414  1.00  0.00    -0.279 C  
HETATM   22  O   UNL     1     -10.072  10.677  63.622  1.00  0.00    -0.326 OA 
BRANCH  21  23
HETATM   23  O   UNL     1     -10.323  12.914  64.077  1.00  0.00    -0.422 OA 
BRANCH  23  24
HETATM   24  C   UNL     1     -10.619  13.677  65.229  1.00  0.00    -0.346 C  
BRANCH  24  25
HETATM   25  C   UNL     1     -10.548  15.168  64.979  1.00  0.00    -0.439 C  
BRANCH  25  26
HETATM   26  C   UNL     1      -9.921  15.935  66.141  1.00  0.00    -0.337 C  
BRANCH  26  27
HETATM   27  C   UNL     1     -10.369  17.398  66.269  1.00  0.00    -0.330 C  
BRANCH  27  28
HETATM   28  O   UNL     1      -9.253  18.193  66.606  1.00  0.00    -0.275 OA 
HETATM   29  N   UNL     1      -9.580  19.566  66.709  1.00  0.00    -0.334 N  
HETATM   30  O   UNL     1      -8.593  20.270  66.939  1.00  0.00    -0.320 OA 
HETATM   31  O   UNL     1     -10.752  19.882  66.555  1.00  0.00    -0.463 OA 
ENDBRANCH  27  28
ENDBRANCH  26  27
ENDBRANCH  25  26
ENDBRANCH  24  25
ENDBRANCH  23  24
ENDBRANCH  21  23
ENDBRANCH  20  21
ENDBRANCH  19  20
ENDBRANCH  18  19
ENDBRANCH  17  18
ENDBRANCH  15  16
ENDBRANCH   8  15
ENDBRANCH   5   6
ENDBRANCH   4   5
ENDBRANCH   2   4
BRANCH   2  32
HETATM   32  C   UNL     1     -12.398   7.187  71.281  1.00  0.00    -0.418 C  
BRANCH  32  33
HETATM   33  C   UNL     1     -11.406   6.030  71.331  1.00  0.00    -0.301 C  
BRANCH  33  34
HETATM   34  C   UNL     1     -10.937   5.721  69.947  1.00  0.00    -0.389 A  
HETATM   35  C   UNL     1      -9.472   4.483  68.477  1.00  0.00    -0.213 A  
HETATM   36  C   UNL     1     -10.888   6.237  67.597  1.00  0.00    -0.433 A  
HETATM   37  C   UNL     1      -9.973   4.722  69.753  1.00  0.00    -0.308 A  
HETATM   38  C   UNL     1     -11.391   6.480  68.869  1.00  0.00    -0.267 A  
HETATM   39  C   UNL     1      -9.929   5.240  67.400  1.00  0.00    -0.206 A  
ENDBRANCH  33  34
ENDBRANCH  32  33
ENDBRANCH   2  32
TORSDOF 18
ENDMDL
MODEL      202
REMARK 921   NORMALIZED FREE ENERGY PREDICTED BY IDOCK:   -4.18 KCAL/MOL
REMARK 922        TOTAL FREE ENERGY PREDICTED BY IDOCK:  -13.37 KCAL/MOL
REMARK 923 INTER-LIGAND FREE ENERGY PREDICTED BY IDOCK:   -9.60 KCAL/MOL
REMARK 924 INTRA-LIGAND FREE ENERGY PREDICTED BY IDOCK:   -3.77 KCAL/MOL
REMARK 927      BINDING AFFINITY PREDICTED BY RF-SCORE:    0.00 PKD
ROOT
HETATM    1  O   UNL     1     -11.882  12.869  63.001  1.00  0.00    -0.827 OA 
HETATM    2  C   UNL     1     -10.554  12.527  63.395  1.00  0.00    -0.250 C  
HETATM    3  H   UNL     1     -11.925  13.787  62.760  1.00  0.00     0.000 HD 
ENDROOT
BRANCH   2   4
HETATM    4  C   UNL     1     -10.484  11.037  63.786  1.00  0.00    -0.408 C  
BRANCH   4   5
HETATM    5  C   UNL     1     -10.608  10.752  65.287  1.00  0.00    -0.230 C  
BRANCH   5   6
HETATM    6  C   UNL     1      -9.313  10.310  66.007  1.00  0.00    -0.224 C  
HETATM    7  H   UNL     1      -5.768  11.607  67.396  1.00  0.00     0.000 HD 
HETATM    8  C   UNL     1      -8.245  11.421  66.387  1.00  0.00    -0.124 C  
HETATM    9  C   UNL     1      -8.536   9.367  65.079  1.00  0.00    -0.172 C  
HETATM   10  C   UNL     1      -7.167   9.310  65.692  1.00  0.00    -0.090 C  
HETATM   11  O   UNL     1      -9.094   8.068  65.032  1.00  0.00    -0.370 OA 
HETATM   12  O   UNL     1      -5.954  10.707  67.154  1.00  0.00    -0.052 OA 
HETATM   13  H   UNL     1      -8.613   7.484  64.458  1.00  0.00     0.000 HD 
HETATM   14  C   UNL     1      -6.871  10.744  66.078  1.00  0.00    -0.107 C  
BRANCH   8  15
HETATM   15  C   UNL     1      -8.377  12.018  67.825  1.00  0.00    -0.156 C  
BRANCH  15  16
HETATM   16  C   UNL     1      -9.289  11.256  68.769  1.00  0.00    -0.136 C  
HETATM   17  C   UNL     1      -9.128  10.087  69.421  1.00  0.00    -0.228 C  
BRANCH  17  18
HETATM   18  C   UNL     1      -7.958   9.146  69.396  1.00  0.00    -0.097 C  
BRANCH  18  19
HETATM   19  C   UNL     1      -8.323   7.778  68.799  1.00  0.00    -0.128 C  
BRANCH  19  20
HETATM   20  C   UNL     1      -9.794   7.406  68.933  1.00  0.00    -0.157 C  
BRANCH  20  21
HETATM   21  C   UNL     1     -10.002   6.421  70.042  1.00  0.00    -0.169 C  
HETATM   22  O   UNL     1      -9.180   5.614  70.459  1.00  0.00    -0.145 OA 
BRANCH  21  23
HETATM   23  O   UNL     1     -11.310   6.473  70.413  1.00  0.00    -0.327 OA 
BRANCH  23  24
HETATM   24  C   UNL     1     -11.418   6.425  71.821  1.00  0.00    -0.300 C  
BRANCH  24  25
HETATM   25  C   UNL     1     -12.853   6.457  72.300  1.00  0.00     0.090 C  
BRANCH  25  26
HETATM   26  C   UNL     1     -13.720   7.438  71.515  1.00  0.00    -0.467 C  
BRANCH  26  27
HETATM   27  C   UNL     1     -13.852   8.834  72.141  1.00  0.00    -0.457 C  
BRANCH  27  28
HETATM   28  O   UNL     1     -13.785   9.804  71.119  1.00  0.00    -0.294 OA 
HETATM   29  N   UNL     1     -12.485  10.344  70.971  1.00  0.00    -0.352 N  
HETATM   30  O   UNL     1     -12.438  11.238  70.123  1.00  0.00    -0.275 OA 
HETATM   31  O   UNL     1     -11.598   9.884  71.679  1.00  0.00    -0.360 OA 
ENDBRANCH  27  28
ENDBRANCH  26  27
ENDBRANCH  25  26
ENDBRANCH  24  25
ENDBRANCH  23  24
ENDBRANCH  21  23
ENDBRANCH  20  21
ENDBRANCH  19  20
ENDBRANCH  18  19
ENDBRANCH  17  18
ENDBRANCH  15  16
ENDBRANCH   8  15
ENDBRANCH   5   6
ENDBRANCH   4   5
ENDBRANCH   2   4
BRANCH   2  32
HETATM   32  C   UNL     1     -10.201  13.429  64.569  1.00  0.00    -0.321 C  
BRANCH  32  33
HETATM   33  C   UNL     1     -11.348  14.368  64.924  1.00  0.00    -0.380 C  
BRANCH  33  34
HETATM   34  C   UNL     1     -11.327  14.639  66.393  1.00  0.00    -0.348 A  
HETATM   35  C   UNL     1     -11.896  13.956  68.641  1.00  0.00    -0.407 A  
HETATM   36  C   UNL     1     -10.945  16.144  68.232  1.00  0.00    -0.340 A  
HETATM   37  C   UNL     1     -11.837  13.679  67.279  1.00  0.00    -0.429 A  
HETATM   38  C   UNL     1     -10.885  15.872  66.870  1.00  0.00    -0.240 A  
HETATM   39  C   UNL     1     -11.450  15.188  69.117  1.00  0.00    -0.322 A  
ENDBRANCH  33  34
ENDBRANCH  32  33
ENDBRANCH   2  32
TORSDOF 18
ENDMDL
MODEL      203
REMARK 921   NORMALIZED FREE ENERGY PREDICTED BY IDOCK:   -4.18 KCAL/MOL
REMARK 922        TOTAL FREE ENERGY PREDICTED BY IDOCK:  -13.37 KCAL/MOL
REMARK 923 INTER-LIGAND FREE ENERGY PREDICTED BY IDOCK:  -11.22 KCAL/MOL
REMARK 924 INTRA-LIGAND FREE ENERGY PREDICTED BY IDOCK:   -2.14 KCAL/MOL
REMARK 927      BINDING AFFINITY PREDICTED BY RF-SCORE:    0.00 PKD
ROOT
HETATM    1  O   UNL     1      -8.381  15.645  68.023  1.00  0.00    -0.143 OA 
HETATM    2  C   UNL     1      -9.075  14.921  69.037  1.00  0.00    -0.175 C  
HETATM    3  H   UNL     1      -7.886  16.357  68.410  1.00  0.00     0.000 HD 
ENDROOT
BRANCH   2   4
HETATM    4  C   UNL     1      -9.878  13.764  68.410  1.00  0.00    -0.227 C  
BRANCH   4   5
HETATM    5  C   UNL     1      -9.723  13.613  66.893  1.00  0.00    -0.262 C  
BRANCH   5   6
HETATM    6  C   UNL     1     -10.906  12.950  66.149  1.00  0.00    -0.300 C  
HETATM    7  H   UNL     1     -12.005  11.228  62.685  1.00  0.00     0.000 HD 
HETATM    8  C   UNL     1     -10.641  12.331  64.712  1.00  0.00    -0.332 C  
HETATM    9  C   UNL     1     -11.977  14.017  65.888  1.00  0.00    -0.408 C  
HETATM   10  C   UNL     1     -12.870  13.384  64.861  1.00  0.00    -0.292 C  
HETATM   11  O   UNL     1     -12.727  14.331  67.047  1.00  0.00    -0.483 OA 
HETATM   12  O   UNL     1     -12.606  11.644  63.292  1.00  0.00    -0.491 OA 
HETATM   13  H   UNL     1     -13.391  14.991  66.885  1.00  0.00     0.000 HD 
HETATM   14  C   UNL     1     -11.913  12.721  63.893  1.00  0.00    -0.480 C  
BRANCH   8  15
HETATM   15  C   UNL     1     -10.284  10.810  64.690  1.00  0.00    -0.419 C  
BRANCH  15  16
HETATM   16  C   UNL     1      -9.241  10.396  63.668  1.00  0.00    -0.310 C  
HETATM   17  C   UNL     1      -7.989   9.917  63.810  1.00  0.00    -0.148 C  
BRANCH  17  18
HETATM   18  C   UNL     1      -7.217   9.653  65.072  1.00  0.00    -0.116 C  
BRANCH  18  19
HETATM   19  C   UNL     1      -7.270   8.175  65.489  1.00  0.00    -0.071 C  
BRANCH  19  20
HETATM   20  C   UNL     1      -8.605   7.736  66.078  1.00  0.00    -0.166 C  
BRANCH  20  21
HETATM   21  C   UNL     1      -8.417   7.091  67.415  1.00  0.00    -0.122 C  
HETATM   22  O   UNL     1      -7.559   6.268  67.711  1.00  0.00    -0.097 OA 
BRANCH  21  23
HETATM   23  O   UNL     1      -9.454   7.465  68.214  1.00  0.00    -0.142 OA 
BRANCH  23  24
HETATM   24  C   UNL     1      -9.869   8.775  67.891  1.00  0.00    -0.169 C  
BRANCH  24  25
HETATM   25  C   UNL     1      -9.295   9.819  68.824  1.00  0.00    -0.150 C  
BRANCH  25  26
HETATM   26  C   UNL     1      -9.919   9.781  70.216  1.00  0.00    -0.309 C  
BRANCH  26  27
HETATM   27  C   UNL     1     -11.105   8.817  70.369  1.00  0.00    -0.236 C  
BRANCH  27  28
HETATM   28  O   UNL     1     -12.215   9.530  70.868  1.00  0.00    -0.292 OA 
HETATM   29  N   UNL     1     -12.617   9.077  72.147  1.00  0.00    -0.383 N  
HETATM   30  O   UNL     1     -13.627   9.654  72.557  1.00  0.00    -0.400 OA 
HETATM   31  O   UNL     1     -11.949   8.195  72.671  1.00  0.00    -0.381 OA 
ENDBRANCH  27  28
ENDBRANCH  26  27
ENDBRANCH  25  26
ENDBRANCH  24  25
ENDBRANCH  23  24
ENDBRANCH  21  23
ENDBRANCH  20  21
ENDBRANCH  19  20
ENDBRANCH  18  19
ENDBRANCH  17  18
ENDBRANCH  15  16
ENDBRANCH   8  15
ENDBRANCH   5   6
ENDBRANCH   4   5
ENDBRANCH   2   4
BRANCH   2  32
HETATM   32  C   UNL     1      -9.986  15.916  69.740  1.00  0.00    -0.211 C  
BRANCH  32  33
HETATM   33  C   UNL     1     -11.458  15.619  69.475  1.00  0.00    -0.349 C  
BRANCH  33  34
HETATM   34  C   UNL     1     -12.198  15.594  70.772  1.00  0.00    -0.463 A  
HETATM   35  C   UNL     1     -14.265  15.258  71.981  1.00  0.00    -0.679 A  
HETATM   36  C   UNL     1     -12.299  16.085  73.126  1.00  0.00    -0.637 A  
HETATM   37  C   UNL     1     -13.546  15.207  70.790  1.00  0.00    -0.299 A  
HETATM   38  C   UNL     1     -11.577  16.035  71.940  1.00  0.00    -0.524 A  
HETATM   39  C   UNL     1     -13.641  15.697  73.147  1.00  0.00    -0.560 A  
ENDBRANCH  33  34
ENDBRANCH  32  33
ENDBRANCH   2  32
TORSDOF 18
ENDMDL
MODEL      204
REMARK 921   NORMALIZED FREE ENERGY PREDICTED BY IDOCK:   -4.18 KCAL/MOL
REMARK 922        TOTAL FREE ENERGY PREDICTED BY IDOCK:  -13.36 KCAL/MOL
REMARK 923 INTER-LIGAND FREE ENERGY PREDICTED BY IDOCK:  -10.50 KCAL/MOL
REMARK 924 INTRA-LIGAND FREE ENERGY PREDICTED BY IDOCK:   -2.86 KCAL/MOL
REMARK 927      BINDING AFFINITY PREDICTED BY RF-SCORE:    0.00 PKD
ROOT
HETATM    1  O   UNL     1     -10.339   9.269  68.884  1.00  0.00    -0.204 OA 
HETATM    2  C   UNL     1      -9.907   9.873  70.102  1.00  0.00    -0.219 C  
HETATM    3  H   UNL     1     -11.119   9.706  68.561  1.00  0.00     0.000 HD 
ENDROOT
BRANCH   2   4
HETATM    4  C   UNL     1      -8.643   9.164  70.627  1.00  0.00    -0.266 C  
BRANCH   4   5
HETATM    5  C   UNL     1      -8.896   7.849  71.372  1.00  0.00    -0.158 C  
BRANCH   5   6
HETATM    6  C   UNL     1      -8.909   6.566  70.509  1.00  0.00    -0.151 C  
HETATM    7  H   UNL     1      -8.275   5.144  66.801  1.00  0.00     0.000 HD 
HETATM    8  C   UNL     1      -8.419   6.666  69.002  1.00  0.00    -0.130 C  
HETATM    9  C   UNL     1     -10.358   6.078  70.383  1.00  0.00    -0.223 C  
HETATM   10  C   UNL     1     -10.306   5.093  69.252  1.00  0.00    -0.248 C  
HETATM   11  O   UNL     1     -10.820   5.435  71.557  1.00  0.00    -0.224 OA 
HETATM   12  O   UNL     1      -8.832   4.727  67.449  1.00  0.00    -0.104 OA 
HETATM   13  H   UNL     1     -11.717   5.132  71.479  1.00  0.00     0.000 HD 
HETATM   14  C   UNL     1      -9.419   5.756  68.220  1.00  0.00    -0.118 C  
BRANCH   8  15
HETATM   15  C   UNL     1      -6.909   6.343  68.764  1.00  0.00    -0.074 C  
BRANCH  15  16
HETATM   16  C   UNL     1      -5.982   7.544  68.713  1.00  0.00    -0.027 C  
HETATM   17  C   UNL     1      -6.082   8.725  68.071  1.00  0.00    -0.051 C  
BRANCH  17  18
HETATM   18  C   UNL     1      -7.177   9.219  67.168  1.00  0.00    -0.087 C  
BRANCH  18  19
HETATM   19  C   UNL     1      -7.209   8.470  65.826  1.00  0.00    -0.076 C  
BRANCH  19  20
HETATM   20  C   UNL     1      -8.188   9.044  64.810  1.00  0.00    -0.161 C  
BRANCH  20  21
HETATM   21  C   UNL     1      -9.526   9.293  65.433  1.00  0.00    -0.210 C  
HETATM   22  O   UNL     1     -10.171   8.501  66.110  1.00  0.00    -0.173 OA 
BRANCH  21  23
HETATM   23  O   UNL     1      -9.975  10.502  65.000  1.00  0.00    -0.278 OA 
BRANCH  23  24
HETATM   24  C   UNL     1     -10.182  11.366  66.098  1.00  0.00    -0.239 C  
BRANCH  24  25
HETATM   25  C   UNL     1     -11.460  12.168  65.980  1.00  0.00    -0.427 C  
BRANCH  25  26
HETATM   26  C   UNL     1     -11.881  12.407  64.532  1.00  0.00    -0.452 C  
BRANCH  26  27
HETATM   27  C   UNL     1     -11.979  13.883  64.119  1.00  0.00    -0.428 C  
BRANCH  27  28
HETATM   28  O   UNL     1     -10.977  14.615  64.789  1.00  0.00    -0.392 OA 
HETATM   29  N   UNL     1     -11.125  16.012  64.621  1.00  0.00    -0.433 N  
HETATM   30  O   UNL     1     -10.214  16.652  65.152  1.00  0.00    -0.592 OA 
HETATM   31  O   UNL     1     -12.096  16.406  63.988  1.00  0.00    -0.932 OA 
ENDBRANCH  27  28
ENDBRANCH  26  27
ENDBRANCH  25  26
ENDBRANCH  24  25
ENDBRANCH  23  24
ENDBRANCH  21  23
ENDBRANCH  20  21
ENDBRANCH  19  20
ENDBRANCH  18  19
ENDBRANCH  17  18
ENDBRANCH  15  16
ENDBRANCH   8  15
ENDBRANCH   5   6
ENDBRANCH   4   5
ENDBRANCH   2   4
BRANCH   2  32
HETATM   32  C   UNL     1     -11.063   9.753  71.084  1.00  0.00    -0.414 C  
BRANCH  32  33
HETATM   33  C   UNL     1     -12.360  10.297  70.498  1.00  0.00    -0.371 C  
BRANCH  33  34
HETATM   34  C   UNL     1     -12.476  11.751  70.817  1.00  0.00    -0.405 A  
HETATM   35  C   UNL     1     -13.516  13.524  72.090  1.00  0.00    -0.631 A  
HETATM   36  C   UNL     1     -11.972  14.047  70.300  1.00  0.00    -0.409 A  
HETATM   37  C   UNL     1     -13.342  12.166  71.840  1.00  0.00    -0.421 A  
HETATM   38  C   UNL     1     -11.794  12.692  70.047  1.00  0.00    -0.358 A  
HETATM   39  C   UNL     1     -12.831  14.463  71.320  1.00  0.00    -0.412 A  
ENDBRANCH  33  34
ENDBRANCH  32  33
ENDBRANCH   2  32
TORSDOF 18
ENDMDL
MODEL      205
REMARK 921   NORMALIZED FREE ENERGY PREDICTED BY IDOCK:   -4.16 KCAL/MOL
REMARK 922        TOTAL FREE ENERGY PREDICTED BY IDOCK:  -13.33 KCAL/MOL
REMARK 923 INTER-LIGAND FREE ENERGY PREDICTED BY IDOCK:   -8.85 KCAL/MOL
REMARK 924 INTRA-LIGAND FREE ENERGY PREDICTED BY IDOCK:   -4.47 KCAL/MOL
REMARK 927      BINDING AFFINITY PREDICTED BY RF-SCORE:    0.00 PKD
ROOT
HETATM    1  O   UNL     1     -12.050  10.524  68.462  1.00  0.00    -0.793 OA 
HETATM    2  C   UNL     1     -11.597  11.560  67.594  1.00  0.00    -0.247 C  
HETATM    3  H   UNL     1     -12.909  10.738  68.808  1.00  0.00     0.000 HD 
ENDROOT
BRANCH   2   4
HETATM    4  C   UNL     1     -10.204  11.213  67.033  1.00  0.00    -0.251 C  
BRANCH   4   5
HETATM    5  C   UNL     1     -10.169  10.023  66.069  1.00  0.00    -0.277 C  
BRANCH   5   6
HETATM    6  C   UNL     1      -9.362   8.789  66.536  1.00  0.00    -0.260 C  
HETATM    7  H   UNL     1      -6.792   5.943  65.322  1.00  0.00     0.000 HD 
HETATM    8  C   UNL     1      -8.367   8.104  65.506  1.00  0.00    -0.160 C  
HETATM    9  C   UNL     1     -10.347   7.666  66.885  1.00  0.00    -0.318 C  
HETATM   10  C   UNL     1      -9.483   6.440  66.950  1.00  0.00    -0.166 C  
HETATM   11  O   UNL     1     -10.985   7.868  68.132  1.00  0.00    -0.444 OA 
HETATM   12  O   UNL     1      -7.375   5.859  66.068  1.00  0.00    -0.074 OA 
HETATM   13  H   UNL     1     -11.595   7.173  68.347  1.00  0.00     0.000 HD 
HETATM   14  C   UNL     1      -8.554   6.575  65.761  1.00  0.00    -0.144 C  
BRANCH   8  15
HETATM   15  C   UNL     1      -6.889   8.606  65.563  1.00  0.00    -0.075 C  
BRANCH  15  16
HETATM   16  C   UNL     1      -6.627   9.768  66.505  1.00  0.00    -0.072 C  
HETATM   17  C   UNL     1      -5.940   9.845  67.662  1.00  0.00    -0.050 C  
BRANCH  17  18
HETATM   18  C   UNL     1      -5.211   8.760  68.401  1.00  0.00    -0.034 C  
BRANCH  18  19
HETATM   19  C   UNL     1      -6.171   7.744  69.041  1.00  0.00    -0.036 C  
BRANCH  19  20
HETATM   20  C   UNL     1      -6.837   8.231  70.322  1.00  0.00    -0.036 C  
BRANCH  20  21
HETATM   21  C   UNL     1      -8.325   8.279  70.170  1.00  0.00    -0.124 C  
HETATM   22  O   UNL     1      -9.025   9.285  70.187  1.00  0.00    -0.175 OA 
BRANCH  21  23
HETATM   23  O   UNL     1      -8.790   7.000  70.154  1.00  0.00    -0.144 OA 
BRANCH  23  24
HETATM   24  C   UNL     1      -8.951   6.525  71.474  1.00  0.00    -0.140 C  
BRANCH  24  25
HETATM   25  C   UNL     1     -10.299   5.876  71.703  1.00  0.00    -0.268 C  
BRANCH  25  26
HETATM   26  C   UNL     1     -11.326   6.835  72.302  1.00  0.00    -0.310 C  
BRANCH  26  27
HETATM   27  C   UNL     1     -12.417   7.308  71.331  1.00  0.00    -0.383 C  
BRANCH  27  28
HETATM   28  O   UNL     1     -12.182   8.659  70.999  1.00  0.00    -0.273 OA 
HETATM   29  N   UNL     1     -13.126   9.532  71.589  1.00  0.00    -0.375 N  
HETATM   30  O   UNL     1     -12.962  10.706  71.248  1.00  0.00    -0.373 OA 
HETATM   31  O   UNL     1     -13.966   9.039  72.331  1.00  0.00    -0.465 OA 
ENDBRANCH  27  28
ENDBRANCH  26  27
ENDBRANCH  25  26
ENDBRANCH  24  25
ENDBRANCH  23  24
ENDBRANCH  21  23
ENDBRANCH  20  21
ENDBRANCH  19  20
ENDBRANCH  18  19
ENDBRANCH  17  18
ENDBRANCH  15  16
ENDBRANCH   8  15
ENDBRANCH   5   6
ENDBRANCH   4   5
ENDBRANCH   2   4
BRANCH   2  32
HETATM   32  C   UNL     1     -11.563  12.839  68.420  1.00  0.00    -0.365 C  
BRANCH  32  33
HETATM   33  C   UNL     1     -11.861  14.068  67.569  1.00  0.00    -0.442 C  
BRANCH  33  34
HETATM   34  C   UNL     1     -10.843  15.124  67.854  1.00  0.00    -0.291 A  
HETATM   35  C   UNL     1     -10.331  17.406  68.464  1.00  0.00    -0.378 A  
HETATM   36  C   UNL     1      -8.562  15.889  67.811  1.00  0.00    -0.164 A  
HETATM   37  C   UNL     1     -11.266  16.393  68.274  1.00  0.00    -0.300 A  
HETATM   38  C   UNL     1      -9.492  14.874  67.620  1.00  0.00    -0.199 A  
HETATM   39  C   UNL     1      -8.980  17.154  68.233  1.00  0.00    -0.248 A  
ENDBRANCH  33  34
ENDBRANCH  32  33
ENDBRANCH   2  32
TORSDOF 18
ENDMDL
MODEL      206
REMARK 921   NORMALIZED FREE ENERGY PREDICTED BY IDOCK:   -4.16 KCAL/MOL
REMARK 922        TOTAL FREE ENERGY PREDICTED BY IDOCK:  -13.33 KCAL/MOL
REMARK 923 INTER-LIGAND FREE ENERGY PREDICTED BY IDOCK:  -10.06 KCAL/MOL
REMARK 924 INTRA-LIGAND FREE ENERGY PREDICTED BY IDOCK:   -3.27 KCAL/MOL
REMARK 927      BINDING AFFINITY PREDICTED BY RF-SCORE:    0.00 PKD
ROOT
HETATM    1  O   UNL     1     -11.313  14.065  70.180  1.00  0.00    -0.456 OA 
HETATM    2  C   UNL     1     -11.202  14.289  68.776  1.00  0.00    -0.262 C  
HETATM    3  H   UNL     1     -12.133  14.420  70.504  1.00  0.00     0.000 HD 
ENDROOT
BRANCH   2   4
HETATM    4  C   UNL     1      -9.872  13.713  68.250  1.00  0.00    -0.232 C  
BRANCH   4   5
HETATM    5  C   UNL     1      -9.999  12.795  67.029  1.00  0.00    -0.231 C  
BRANCH   5   6
HETATM    6  C   UNL     1      -9.743  11.290  67.277  1.00  0.00    -0.192 C  
HETATM    7  H   UNL     1      -7.832   8.047  65.861  1.00  0.00     0.000 HD 
HETATM    8  C   UNL     1      -8.722  10.532  66.327  1.00  0.00    -0.159 C  
HETATM    9  C   UNL     1     -11.060  10.531  67.069  1.00  0.00    -0.110 C  
HETATM   10  C   UNL     1     -10.631   9.097  66.956  1.00  0.00    -0.266 C  
HETATM   11  O   UNL     1     -11.953  10.680  68.156  1.00  0.00    -0.791 OA 
HETATM   12  O   UNL     1      -8.608   8.017  66.410  1.00  0.00    -0.130 OA 
HETATM   13  H   UNL     1     -12.768  10.209  68.027  1.00  0.00     0.000 HD 
HETATM   14  C   UNL     1      -9.396   9.144  66.082  1.00  0.00    -0.228 C  
BRANCH   8  15
HETATM   15  C   UNL     1      -7.248  10.468  66.839  1.00  0.00    -0.106 C  
BRANCH  15  16
HETATM   16  C   UNL     1      -7.033  10.912  68.275  1.00  0.00    -0.069 C  
HETATM   17  C   UNL     1      -7.136  10.246  69.443  1.00  0.00    -0.094 C  
BRANCH  17  18
HETATM   18  C   UNL     1      -7.523   8.815  69.683  1.00  0.00    -0.071 C  
BRANCH  18  19
HETATM   19  C   UNL     1      -8.526   8.668  70.838  1.00  0.00    -0.195 C  
BRANCH  19  20
HETATM   20  C   UNL     1      -9.750   9.569  70.726  1.00  0.00    -0.289 C  
BRANCH  20  21
HETATM   21  C   UNL     1     -10.987   8.852  71.169  1.00  0.00    -0.286 C  
HETATM   22  O   UNL     1     -11.458   8.847  72.300  1.00  0.00    -0.348 OA 
BRANCH  21  23
HETATM   23  O   UNL     1     -11.425   8.085  70.133  1.00  0.00    -0.159 OA 
BRANCH  23  24
HETATM   24  C   UNL     1     -11.754   6.791  70.592  1.00  0.00    -0.386 C  
BRANCH  24  25
HETATM   25  C   UNL     1     -10.846   5.720  70.027  1.00  0.00    -0.403 C  
BRANCH  25  26
HETATM   26  C   UNL     1     -10.423   5.998  68.587  1.00  0.00    -0.297 C  
BRANCH  26  27
HETATM   27  C   UNL     1      -9.479   4.953  67.974  1.00  0.00    -0.136 C  
BRANCH  27  28
HETATM   28  O   UNL     1      -9.780   4.811  66.603  1.00  0.00    -0.156 OA 
HETATM   29  N   UNL     1      -9.465   3.522  66.112  1.00  0.00    -0.165 N  
HETATM   30  O   UNL     1      -9.667   3.415  64.900  1.00  0.00    -0.164 OA 
HETATM   31  O   UNL     1      -9.041   2.700  66.913  1.00  0.00    -0.152 OA 
ENDBRANCH  27  28
ENDBRANCH  26  27
ENDBRANCH  25  26
ENDBRANCH  24  25
ENDBRANCH  23  24
ENDBRANCH  21  23
ENDBRANCH  20  21
ENDBRANCH  19  20
ENDBRANCH  18  19
ENDBRANCH  17  18
ENDBRANCH  15  16
ENDBRANCH   8  15
ENDBRANCH   5   6
ENDBRANCH   4   5
ENDBRANCH   2   4
BRANCH   2  32
HETATM   32  C   UNL     1     -11.279  15.794  68.566  1.00  0.00    -0.354 C  
BRANCH  32  33
HETATM   33  C   UNL     1     -10.573  16.223  67.285  1.00  0.00    -0.298 C  
BRANCH  33  34
HETATM   34  C   UNL     1     -10.324  17.695  67.327  1.00  0.00    -0.354 A  
HETATM   35  C   UNL     1      -9.919  19.769  66.153  1.00  0.00    -0.573 A  
HETATM   36  C   UNL     1      -9.793  19.687  68.568  1.00  0.00    -0.519 A  
HETATM   37  C   UNL     1     -10.229  18.413  66.125  1.00  0.00    -0.408 A  
HETATM   38  C   UNL     1     -10.103  18.333  68.546  1.00  0.00    -0.419 A  
HETATM   39  C   UNL     1      -9.701  20.405  67.373  1.00  0.00    -0.597 A  
ENDBRANCH  33  34
ENDBRANCH  32  33
ENDBRANCH   2  32
TORSDOF 18
ENDMDL
MODEL      207
REMARK 921   NORMALIZED FREE ENERGY PREDICTED BY IDOCK:   -4.15 KCAL/MOL
REMARK 922        TOTAL FREE ENERGY PREDICTED BY IDOCK:  -13.31 KCAL/MOL
REMARK 923 INTER-LIGAND FREE ENERGY PREDICTED BY IDOCK:   -9.75 KCAL/MOL
REMARK 924 INTRA-LIGAND FREE ENERGY PREDICTED BY IDOCK:   -3.56 KCAL/MOL
REMARK 927      BINDING AFFINITY PREDICTED BY RF-SCORE:    0.00 PKD
ROOT
HETATM    1  O   UNL     1     -12.036  12.758  63.003  1.00  0.00    -0.731 OA 
HETATM    2  C   UNL     1     -10.674  12.521  63.357  1.00  0.00    -0.276 C  
HETATM    3  H   UNL     1     -12.158  13.669  62.765  1.00  0.00     0.000 HD 
ENDROOT
BRANCH   2   4
HETATM    4  C   UNL     1     -10.475  11.042  63.743  1.00  0.00    -0.408 C  
BRANCH   4   5
HETATM    5  C   UNL     1     -10.629  10.733  65.236  1.00  0.00    -0.230 C  
BRANCH   5   6
HETATM    6  C   UNL     1      -9.335  10.353  65.992  1.00  0.00    -0.219 C  
HETATM    7  H   UNL     1      -6.104  11.857  67.854  1.00  0.00     0.000 HD 
HETATM    8  C   UNL     1      -8.459  11.517  66.621  1.00  0.00    -0.172 C  
HETATM    9  C   UNL     1      -8.375   9.675  65.005  1.00  0.00    -0.141 C  
HETATM   10  C   UNL     1      -7.054   9.698  65.718  1.00  0.00    -0.099 C  
HETATM   11  O   UNL     1      -8.742   8.338  64.719  1.00  0.00    -0.386 OA 
HETATM   12  O   UNL     1      -6.146  10.991  67.467  1.00  0.00    -0.047 OA 
HETATM   13  H   UNL     1      -8.148   7.919  64.108  1.00  0.00     0.000 HD 
HETATM   14  C   UNL     1      -6.987  11.079  66.335  1.00  0.00    -0.122 C  
BRANCH   8  15
HETATM   15  C   UNL     1      -8.766  11.858  68.114  1.00  0.00    -0.173 C  
BRANCH  15  16
HETATM   16  C   UNL     1      -9.019  10.666  69.020  1.00  0.00    -0.165 C  
HETATM   17  C   UNL     1     -10.151  10.008  69.338  1.00  0.00    -0.235 C  
BRANCH  17  18
HETATM   18  C   UNL     1     -11.558  10.276  68.885  1.00  0.00    -0.132 C  
BRANCH  18  19
HETATM   19  C   UNL     1     -12.452  10.784  70.027  1.00  0.00    -0.317 C  
BRANCH  19  20
HETATM   20  C   UNL     1     -12.087  10.237  71.401  1.00  0.00    -0.457 C  
BRANCH  20  21
HETATM   21  C   UNL     1     -12.922   9.043  71.744  1.00  0.00    -0.377 C  
HETATM   22  O   UNL     1     -14.125   8.918  71.551  1.00  0.00    -0.380 OA 
BRANCH  21  23
HETATM   23  O   UNL     1     -12.145   8.171  72.442  1.00  0.00    -0.351 OA 
BRANCH  23  24
HETATM   24  C   UNL     1     -12.321   6.860  71.948  1.00  0.00    -0.325 C  
BRANCH  24  25
HETATM   25  C   UNL     1     -11.285   5.890  72.475  1.00  0.00    -0.341 C  
BRANCH  25  26
HETATM   26  C   UNL     1      -9.857   6.410  72.331  1.00  0.00    -0.176 C  
BRANCH  26  27
HETATM   27  C   UNL     1      -9.246   6.251  70.931  1.00  0.00    -0.157 C  
BRANCH  27  28
HETATM   28  O   UNL     1      -8.910   4.896  70.727  1.00  0.00    -0.120 OA 
HETATM   29  N   UNL     1      -9.630   4.317  69.656  1.00  0.00    -0.192 N  
HETATM   30  O   UNL     1      -9.386   3.115  69.517  1.00  0.00    -0.150 OA 
HETATM   31  O   UNL     1     -10.386   5.043  69.024  1.00  0.00    -0.179 OA 
ENDBRANCH  27  28
ENDBRANCH  26  27
ENDBRANCH  25  26
ENDBRANCH  24  25
ENDBRANCH  23  24
ENDBRANCH  21  23
ENDBRANCH  20  21
ENDBRANCH  19  20
ENDBRANCH  18  19
ENDBRANCH  17  18
ENDBRANCH  15  16
ENDBRANCH   8  15
ENDBRANCH   5   6
ENDBRANCH   4   5
ENDBRANCH   2   4
BRANCH   2  32
HETATM   32  C   UNL     1     -10.357  13.449  64.521  1.00  0.00    -0.394 C  
BRANCH  32  33
HETATM   33  C   UNL     1     -11.623  14.020  65.148  1.00  0.00    -0.344 C  
BRANCH  33  34
HETATM   34  C   UNL     1     -11.351  14.375  66.573  1.00  0.00    -0.353 A  
HETATM   35  C   UNL     1     -11.726  13.964  68.926  1.00  0.00    -0.373 A  
HETATM   36  C   UNL     1     -10.444  15.888  68.210  1.00  0.00    -0.257 A  
HETATM   37  C   UNL     1     -11.908  13.594  67.597  1.00  0.00    -0.404 A  
HETATM   38  C   UNL     1     -10.622  15.522  66.882  1.00  0.00    -0.307 A  
HETATM   39  C   UNL     1     -10.995  15.110  69.232  1.00  0.00    -0.260 A  
ENDBRANCH  33  34
ENDBRANCH  32  33
ENDBRANCH   2  32
TORSDOF 18
ENDMDL
MODEL      208
REMARK 921   NORMALIZED FREE ENERGY PREDICTED BY IDOCK:   -4.15 KCAL/MOL
REMARK 922        TOTAL FREE ENERGY PREDICTED BY IDOCK:  -13.30 KCAL/MOL
REMARK 923 INTER-LIGAND FREE ENERGY PREDICTED BY IDOCK:  -10.49 KCAL/MOL
REMARK 924 INTRA-LIGAND FREE ENERGY PREDICTED BY IDOCK:   -2.81 KCAL/MOL
REMARK 927      BINDING AFFINITY PREDICTED BY RF-SCORE:    0.00 PKD
ROOT
HETATM    1  O   UNL     1     -11.418   9.354  69.579  1.00  0.00    -0.440 OA 
HETATM    2  C   UNL     1     -10.464   9.375  68.519  1.00  0.00    -0.208 C  
HETATM    3  H   UNL     1     -11.147   8.740  70.252  1.00  0.00     0.000 HD 
ENDROOT
BRANCH   2   4
HETATM    4  C   UNL     1     -10.904  10.372  67.429  1.00  0.00    -0.344 C  
BRANCH   4   5
HETATM    5  C   UNL     1      -9.779  10.883  66.522  1.00  0.00    -0.235 C  
BRANCH   5   6
HETATM    6  C   UNL     1     -10.209  11.794  65.349  1.00  0.00    -0.301 C  
HETATM    7  H   UNL     1     -13.030  14.380  64.112  1.00  0.00     0.000 HD 
HETATM    8  C   UNL     1     -11.484  12.720  65.540  1.00  0.00    -0.372 C  
HETATM    9  C   UNL     1     -10.586  10.906  64.155  1.00  0.00    -0.257 C  
HETATM   10  C   UNL     1     -11.328  11.835  63.239  1.00  0.00    -0.347 C  
HETATM   11  O   UNL     1      -9.453  10.380  63.488  1.00  0.00    -0.270 OA 
HETATM   12  O   UNL     1     -12.471  13.876  63.531  1.00  0.00    -0.810 OA 
HETATM   13  H   UNL     1      -9.687   9.831  62.750  1.00  0.00     0.000 HD 
HETATM   14  C   UNL     1     -12.219  12.637  64.164  1.00  0.00    -0.450 C  
BRANCH   8  15
HETATM   15  C   UNL     1     -11.193  14.169  66.046  1.00  0.00    -0.319 C  
BRANCH  15  16
HETATM   16  C   UNL     1      -9.762  14.648  65.874  1.00  0.00    -0.341 C  
HETATM   17  C   UNL     1      -8.709  14.641  66.716  1.00  0.00    -0.233 C  
BRANCH  17  18
HETATM   18  C   UNL     1      -8.638  14.152  68.135  1.00  0.00    -0.175 C  
BRANCH  18  19
HETATM   19  C   UNL     1      -7.941  15.159  69.064  1.00  0.00    -0.188 C  
BRANCH  19  20
HETATM   20  C   UNL     1      -6.659  15.755  68.496  1.00  0.00    -0.115 C  
BRANCH  20  21
HETATM   21  C   UNL     1      -6.499  17.183  68.914  1.00  0.00    -0.192 C  
HETATM   22  O   UNL     1      -6.045  17.582  69.980  1.00  0.00    -0.231 OA 
BRANCH  21  23
HETATM   23  O   UNL     1      -7.078  17.968  67.965  1.00  0.00    -0.210 OA 
BRANCH  23  24
HETATM   24  C   UNL     1      -7.641  19.118  68.561  1.00  0.00    -0.334 C  
BRANCH  24  25
HETATM   25  C   UNL     1      -9.153  19.073  68.610  1.00  0.00    -0.401 C  
BRANCH  25  26
HETATM   26  C   UNL     1      -9.752  18.114  67.584  1.00  0.00    -0.293 C  
BRANCH  26  27
HETATM   27  C   UNL     1     -10.859  17.196  68.122  1.00  0.00    -0.316 C  
BRANCH  27  28
HETATM   28  O   UNL     1     -10.814  17.200  69.532  1.00  0.00    -0.202 OA 
HETATM   29  N   UNL     1     -11.541  16.126  70.098  1.00  0.00    -0.300 N  
HETATM   30  O   UNL     1     -11.558  16.164  71.331  1.00  0.00    -0.445 OA 
HETATM   31  O   UNL     1     -12.054  15.323  69.329  1.00  0.00    -0.306 OA 
ENDBRANCH  27  28
ENDBRANCH  26  27
ENDBRANCH  25  26
ENDBRANCH  24  25
ENDBRANCH  23  24
ENDBRANCH  21  23
ENDBRANCH  20  21
ENDBRANCH  19  20
ENDBRANCH  18  19
ENDBRANCH  17  18
ENDBRANCH  15  16
ENDBRANCH   8  15
ENDBRANCH   5   6
ENDBRANCH   4   5
ENDBRANCH   2   4
BRANCH   2  32
HETATM   32  C   UNL     1     -10.381   7.956  67.977  1.00  0.00    -0.264 C  
BRANCH  32  33
HETATM   33  C   UNL     1     -11.444   7.053  68.592  1.00  0.00     0.260 C  
BRANCH  33  34
HETATM   34  C   UNL     1     -10.791   6.076  69.513  1.00  0.00    -0.439 A  
HETATM   35  C   UNL     1      -9.566   4.015  69.829  1.00  0.00    -0.280 A  
HETATM   36  C   UNL     1     -10.388   5.254  71.739  1.00  0.00    -0.277 A  
HETATM   37  C   UNL     1     -10.109   4.973  68.977  1.00  0.00    -0.238 A  
HETATM   38  C   UNL     1     -10.931   6.213  70.893  1.00  0.00    -0.359 A  
HETATM   39  C   UNL     1      -9.706   4.156  71.208  1.00  0.00    -0.255 A  
ENDBRANCH  33  34
ENDBRANCH  32  33
ENDBRANCH   2  32
TORSDOF 18
ENDMDL
MODEL      209
REMARK 921   NORMALIZED FREE ENERGY PREDICTED BY IDOCK:   -4.14 KCAL/MOL
REMARK 922        TOTAL FREE ENERGY PREDICTED BY IDOCK:  -13.28 KCAL/MOL
REMARK 923 INTER-LIGAND FREE ENERGY PREDICTED BY IDOCK:  -10.62 KCAL/MOL
REMARK 924 INTRA-LIGAND FREE ENERGY PREDICTED BY IDOCK:   -2.66 KCAL/MOL
REMARK 927      BINDING AFFINITY PREDICTED BY RF-SCORE:    0.00 PKD
ROOT
HETATM    1  O   UNL     1      -7.518  11.440  68.431  1.00  0.00    -0.096 OA 
HETATM    2  C   UNL     1      -8.630  10.596  68.136  1.00  0.00    -0.123 C  
HETATM    3  H   UNL     1      -6.934  11.484  67.683  1.00  0.00     0.000 HD 
ENDROOT
BRANCH   2   4
HETATM    4  C   UNL     1      -9.579  10.525  69.349  1.00  0.00    -0.170 C  
BRANCH   4   5
HETATM    5  C   UNL     1      -9.769   9.125  69.944  1.00  0.00    -0.206 C  
BRANCH   5   6
HETATM    6  C   UNL     1     -11.214   8.744  70.344  1.00  0.00    -0.247 C  
HETATM    7  H   UNL     1     -14.263   9.696  72.787  1.00  0.00     0.000 HD 
HETATM    8  C   UNL     1     -11.970   9.657  71.400  1.00  0.00    -0.480 C  
HETATM    9  C   UNL     1     -11.186   7.365  71.015  1.00  0.00    -0.264 C  
HETATM   10  C   UNL     1     -12.525   7.267  71.686  1.00  0.00    -0.394 C  
HETATM   11  O   UNL     1     -11.038   6.309  70.085  1.00  0.00    -0.311 OA 
HETATM   12  O   UNL     1     -14.131   8.838  72.402  1.00  0.00    -0.447 OA 
HETATM   13  H   UNL     1     -11.021   5.455  70.501  1.00  0.00     0.000 HD 
HETATM   14  C   UNL     1     -12.736   8.635  72.300  1.00  0.00    -0.391 C  
BRANCH   8  15
HETATM   15  C   UNL     1     -12.854  10.794  70.796  1.00  0.00    -0.408 C  
BRANCH  15  16
HETATM   16  C   UNL     1     -12.689  12.162  71.434  1.00  0.00    -0.368 C  
HETATM   17  C   UNL     1     -12.513  13.385  70.897  1.00  0.00    -0.439 C  
BRANCH  17  18
HETATM   18  C   UNL     1     -12.409  13.775  69.449  1.00  0.00    -0.219 C  
BRANCH  18  19
HETATM   19  C   UNL     1     -10.967  14.111  69.038  1.00  0.00    -0.286 C  
BRANCH  19  20
HETATM   20  C   UNL     1     -10.518  13.461  67.735  1.00  0.00    -0.246 C  
BRANCH  20  21
HETATM   21  C   UNL     1     -11.594  13.537  66.697  1.00  0.00    -0.363 C  
HETATM   22  O   UNL     1     -12.209  12.591  66.218  1.00  0.00    -0.600 OA 
BRANCH  21  23
HETATM   23  O   UNL     1     -11.676  14.825  66.267  1.00  0.00    -0.343 OA 
BRANCH  23  24
HETATM   24  C   UNL     1     -10.630  15.103  65.359  1.00  0.00    -0.391 C  
BRANCH  24  25
HETATM   25  C   UNL     1      -9.687  16.175  65.861  1.00  0.00    -0.374 C  
BRANCH  25  26
HETATM   26  C   UNL     1     -10.403  17.286  66.626  1.00  0.00    -0.305 C  
BRANCH  26  27
HETATM   27  C   UNL     1      -9.918  17.499  68.067  1.00  0.00    -0.310 C  
BRANCH  27  28
HETATM   28  O   UNL     1      -8.553  17.854  68.044  1.00  0.00    -0.243 OA 
HETATM   29  N   UNL     1      -8.330  19.173  68.505  1.00  0.00    -0.354 N  
HETATM   30  O   UNL     1      -7.146  19.508  68.426  1.00  0.00    -0.289 OA 
HETATM   31  O   UNL     1      -9.301  19.804  68.905  1.00  0.00    -0.310 OA 
ENDBRANCH  27  28
ENDBRANCH  26  27
ENDBRANCH  25  26
ENDBRANCH  24  25
ENDBRANCH  23  24
ENDBRANCH  21  23
ENDBRANCH  20  21
ENDBRANCH  19  20
ENDBRANCH  18  19
ENDBRANCH  17  18
ENDBRANCH  15  16
ENDBRANCH   8  15
ENDBRANCH   5   6
ENDBRANCH   4   5
ENDBRANCH   2   4
BRANCH   2  32
HETATM   32  C   UNL     1      -8.061   9.227  67.791  1.00  0.00    -0.104 C  
BRANCH  32  33
HETATM   33  C   UNL     1      -8.379   8.830  66.354  1.00  0.00    -0.117 C  
BRANCH  33  34
HETATM   34  C   UNL     1      -9.099   7.522  66.351  1.00  0.00    -0.210 A  
HETATM   35  C   UNL     1      -9.192   5.201  65.679  1.00  0.00    -0.157 A  
HETATM   36  C   UNL     1     -11.087   6.232  66.775  1.00  0.00    -0.241 A  
HETATM   37  C   UNL     1      -8.495   6.403  65.758  1.00  0.00    -0.148 A  
HETATM   38  C   UNL     1     -10.395   7.435  66.857  1.00  0.00    -0.367 A  
HETATM   39  C   UNL     1     -10.486   5.116  66.188  1.00  0.00    -0.301 A  
ENDBRANCH  33  34
ENDBRANCH  32  33
ENDBRANCH   2  32
TORSDOF 18
ENDMDL
MODEL      210
REMARK 921   NORMALIZED FREE ENERGY PREDICTED BY IDOCK:   -4.14 KCAL/MOL
REMARK 922        TOTAL FREE ENERGY PREDICTED BY IDOCK:  -13.28 KCAL/MOL
REMARK 923 INTER-LIGAND FREE ENERGY PREDICTED BY IDOCK:   -9.58 KCAL/MOL
REMARK 924 INTRA-LIGAND FREE ENERGY PREDICTED BY IDOCK:   -3.70 KCAL/MOL
REMARK 927      BINDING AFFINITY PREDICTED BY RF-SCORE:    0.00 PKD
ROOT
HETATM    1  O   UNL     1     -11.438   9.620  69.623  1.00  0.00    -0.417 OA 
HETATM    2  C   UNL     1     -10.556   9.626  68.502  1.00  0.00    -0.220 C  
HETATM    3  H   UNL     1     -11.210   8.913  70.215  1.00  0.00     0.000 HD 
ENDROOT
BRANCH   2   4
HETATM    4  C   UNL     1     -10.926  10.774  67.541  1.00  0.00    -0.372 C  
BRANCH   4   5
HETATM    5  C   UNL     1      -9.829  11.167  66.545  1.00  0.00    -0.242 C  
BRANCH   5   6
HETATM    6  C   UNL     1     -10.279  12.022  65.338  1.00  0.00    -0.295 C  
HETATM    7  H   UNL     1     -13.140  14.520  64.015  1.00  0.00     0.000 HD 
HETATM    8  C   UNL     1     -11.563  12.940  65.500  1.00  0.00    -0.395 C  
HETATM    9  C   UNL     1     -10.654  11.080  64.186  1.00  0.00    -0.342 C  
HETATM   10  C   UNL     1     -11.414  11.960  63.238  1.00  0.00    -0.376 C  
HETATM   11  O   UNL     1      -9.520  10.539  63.533  1.00  0.00    -0.259 OA 
HETATM   12  O   UNL     1     -12.579  13.999  63.452  1.00  0.00    -0.845 OA 
HETATM   13  H   UNL     1      -9.752   9.957  62.820  1.00  0.00     0.000 HD 
HETATM   14  C   UNL     1     -12.308  12.791  64.135  1.00  0.00    -0.407 C  
BRANCH   8  15
HETATM   15  C   UNL     1     -11.286  14.413  65.942  1.00  0.00    -0.324 C  
BRANCH  15  16
HETATM   16  C   UNL     1      -9.861  14.899  65.744  1.00  0.00    -0.380 C  
HETATM   17  C   UNL     1      -8.793  14.896  66.565  1.00  0.00    -0.256 C  
BRANCH  17  18
HETATM   18  C   UNL     1      -8.692  14.406  67.981  1.00  0.00    -0.170 C  
BRANCH  18  19
HETATM   19  C   UNL     1      -7.994  15.420  68.902  1.00  0.00    -0.177 C  
BRANCH  19  20
HETATM   20  C   UNL     1      -6.711  16.008  68.330  1.00  0.00    -0.121 C  
BRANCH  20  21
HETATM   21  C   UNL     1      -6.479  17.395  68.843  1.00  0.00    -0.208 C  
HETATM   22  O   UNL     1      -5.944  17.697  69.903  1.00  0.00    -0.248 OA 
BRANCH  21  23
HETATM   23  O   UNL     1      -7.095  18.267  67.999  1.00  0.00    -0.218 OA 
BRANCH  23  24
HETATM   24  C   UNL     1      -7.655  19.338  68.729  1.00  0.00    -0.358 C  
BRANCH  24  25
HETATM   25  C   UNL     1      -9.166  19.278  68.790  1.00  0.00    -0.421 C  
BRANCH  25  26
HETATM   26  C   UNL     1      -9.776  18.457  67.656  1.00  0.00    -0.306 C  
BRANCH  26  27
HETATM   27  C   UNL     1     -10.911  17.513  68.076  1.00  0.00    -0.258 C  
BRANCH  27  28
HETATM   28  O   UNL     1     -10.892  17.365  69.479  1.00  0.00    -0.026 OA 
HETATM   29  N   UNL     1     -11.585  16.210  69.910  1.00  0.00    -0.292 N  
HETATM   30  O   UNL     1     -11.625  16.114  71.139  1.00  0.00    -0.419 OA 
HETATM   31  O   UNL     1     -12.052  15.476  69.049  1.00  0.00    -0.319 OA 
ENDBRANCH  27  28
ENDBRANCH  26  27
ENDBRANCH  25  26
ENDBRANCH  24  25
ENDBRANCH  23  24
ENDBRANCH  21  23
ENDBRANCH  20  21
ENDBRANCH  19  20
ENDBRANCH  18  19
ENDBRANCH  17  18
ENDBRANCH  15  16
ENDBRANCH   8  15
ENDBRANCH   5   6
ENDBRANCH   4   5
ENDBRANCH   2   4
BRANCH   2  32
HETATM   32  C   UNL     1     -10.695   8.269  67.829  1.00  0.00    -0.165 C  
BRANCH  32  33
HETATM   33  C   UNL     1      -9.420   7.443  67.955  1.00  0.00    -0.150 C  
BRANCH  33  34
HETATM   34  C   UNL     1      -8.443   7.881  66.912  1.00  0.00    -0.128 A  
HETATM   35  C   UNL     1      -7.674   7.806  64.622  1.00  0.00    -0.121 A  
HETATM   36  C   UNL     1      -6.374   8.953  66.310  1.00  0.00    -0.065 A  
HETATM   37  C   UNL     1      -8.622   7.470  65.583  1.00  0.00    -0.131 A  
HETATM   38  C   UNL     1      -7.318   8.620  67.275  1.00  0.00    -0.088 A  
HETATM   39  C   UNL     1      -6.551   8.547  64.986  1.00  0.00    -0.064 A  
ENDBRANCH  33  34
ENDBRANCH  32  33
ENDBRANCH   2  32
TORSDOF 18
ENDMDL
MODEL      211
REMARK 921   NORMALIZED FREE ENERGY PREDICTED BY IDOCK:   -4.13 KCAL/MOL
REMARK 922        TOTAL FREE ENERGY PREDICTED BY IDOCK:  -13.27 KCAL/MOL
REMARK 923 INTER-LIGAND FREE ENERGY PREDICTED BY IDOCK:  -10.42 KCAL/MOL
REMARK 924 INTRA-LIGAND FREE ENERGY PREDICTED BY IDOCK:   -2.84 KCAL/MOL
REMARK 927      BINDING AFFINITY PREDICTED BY RF-SCORE:    0.00 PKD
ROOT
HETATM    1  O   UNL     1      -9.610   5.457  67.438  1.00  0.00    -0.119 OA 
HETATM    2  C   UNL     1      -9.686   6.032  68.741  1.00  0.00    -0.131 C  
HETATM    3  H   UNL     1     -10.433   5.036  67.218  1.00  0.00     0.000 HD 
ENDROOT
BRANCH   2   4
HETATM    4  C   UNL     1      -8.352   6.716  69.099  1.00  0.00    -0.124 C  
BRANCH   4   5
HETATM    5  C   UNL     1      -8.476   8.146  69.635  1.00  0.00    -0.126 C  
BRANCH   5   6
HETATM    6  C   UNL     1      -9.869   8.805  69.503  1.00  0.00    -0.180 C  
HETATM    7  H   UNL     1     -11.955  11.617  67.523  1.00  0.00     0.000 HD 
HETATM    8  C   UNL     1     -10.087   9.887  68.361  1.00  0.00    -0.189 C  
HETATM    9  C   UNL     1     -10.165   9.581  70.793  1.00  0.00    -0.293 C  
HETATM   10  C   UNL     1     -11.320  10.465  70.422  1.00  0.00    -0.417 C  
HETATM   11  O   UNL     1     -10.536   8.734  71.865  1.00  0.00    -0.309 OA 
HETATM   12  O   UNL     1     -12.178  11.291  68.387  1.00  0.00    -0.604 OA 
HETATM   13  H   UNL     1     -10.720   9.214  72.663  1.00  0.00     0.000 HD 
HETATM   14  C   UNL     1     -10.964  10.984  69.044  1.00  0.00    -0.233 C  
BRANCH   8  15
HETATM   15  C   UNL     1     -10.652   9.336  67.013  1.00  0.00    -0.263 C  
BRANCH  15  16
HETATM   16  C   UNL     1      -9.613   8.861  66.013  1.00  0.00    -0.320 C  
HETATM   17  C   UNL     1      -8.971   9.503  65.016  1.00  0.00    -0.258 C  
BRANCH  17  18
HETATM   18  C   UNL     1      -9.108  10.931  64.570  1.00  0.00    -0.181 C  
BRANCH  18  19
HETATM   19  C   UNL     1     -10.414  11.179  63.799  1.00  0.00    -0.444 C  
BRANCH  19  20
HETATM   20  C   UNL     1     -11.361  12.167  64.468  1.00  0.00    -0.393 C  
BRANCH  20  21
HETATM   21  C   UNL     1     -12.488  12.536  63.554  1.00  0.00    -0.459 C  
HETATM   22  O   UNL     1     -13.166  11.763  62.888  1.00  0.00    -0.357 OA 
BRANCH  21  23
HETATM   23  O   UNL     1     -12.540  13.893  63.474  1.00  0.00    -0.842 OA 
BRANCH  23  24
HETATM   24  C   UNL     1     -12.300  14.465  64.743  1.00  0.00    -0.414 C  
BRANCH  24  25
HETATM   25  C   UNL     1     -11.517  15.757  64.666  1.00  0.00    -0.284 C  
BRANCH  25  26
HETATM   26  C   UNL     1     -10.164  15.676  65.370  1.00  0.00    -0.401 C  
BRANCH  26  27
HETATM   27  C   UNL     1     -10.168  14.901  66.696  1.00  0.00    -0.261 C  
BRANCH  27  28
HETATM   28  O   UNL     1     -11.196  15.406  67.520  1.00  0.00    -0.327 OA 
HETATM   29  N   UNL     1     -10.903  15.264  68.896  1.00  0.00    -0.236 N  
HETATM   30  O   UNL     1     -11.828  15.644  69.618  1.00  0.00    -0.334 OA 
HETATM   31  O   UNL     1      -9.814  14.791  69.197  1.00  0.00    -0.215 OA 
ENDBRANCH  27  28
ENDBRANCH  26  27
ENDBRANCH  25  26
ENDBRANCH  24  25
ENDBRANCH  23  24
ENDBRANCH  21  23
ENDBRANCH  20  21
ENDBRANCH  19  20
ENDBRANCH  18  19
ENDBRANCH  17  18
ENDBRANCH  15  16
ENDBRANCH   8  15
ENDBRANCH   5   6
ENDBRANCH   4   5
ENDBRANCH   2   4
BRANCH   2  32
HETATM   32  C   UNL     1     -10.007   4.897  69.703  1.00  0.00    -0.302 C  
BRANCH  32  33
HETATM   33  C   UNL     1      -8.870   4.655  70.689  1.00  0.00    -0.141 C  
BRANCH  33  34
HETATM   34  C   UNL     1      -9.235   5.238  72.015  1.00  0.00    -0.154 A  
HETATM   35  C   UNL     1     -10.903   5.657  73.714  1.00  0.00    -0.207 A  
HETATM   36  C   UNL     1      -8.697   6.636  73.899  1.00  0.00    -0.158 A  
HETATM   37  C   UNL     1     -10.531   5.051  72.518  1.00  0.00    -0.270 A  
HETATM   38  C   UNL     1      -8.321   6.032  72.705  1.00  0.00    -0.118 A  
HETATM   39  C   UNL     1      -9.987   6.449  74.403  1.00  0.00    -0.362 A  
ENDBRANCH  33  34
ENDBRANCH  32  33
ENDBRANCH   2  32
TORSDOF 18
ENDMDL
MODEL      212
REMARK 921   NORMALIZED FREE ENERGY PREDICTED BY IDOCK:   -4.13 KCAL/MOL
REMARK 922        TOTAL FREE ENERGY PREDICTED BY IDOCK:  -13.27 KCAL/MOL
REMARK 923 INTER-LIGAND FREE ENERGY PREDICTED BY IDOCK:  -10.62 KCAL/MOL
REMARK 924 INTRA-LIGAND FREE ENERGY PREDICTED BY IDOCK:   -2.65 KCAL/MOL
REMARK 927      BINDING AFFINITY PREDICTED BY RF-SCORE:    0.00 PKD
ROOT
HETATM    1  O   UNL     1     -12.632  10.688  69.408  1.00  0.00    -0.683 OA 
HETATM    2  C   UNL     1     -11.290  10.883  68.966  1.00  0.00    -0.281 C  
HETATM    3  H   UNL     1     -13.216  11.286  68.955  1.00  0.00     0.000 HD 
ENDROOT
BRANCH   2   4
HETATM    4  C   UNL     1     -10.342   9.915  69.700  1.00  0.00    -0.265 C  
BRANCH   4   5
HETATM    5  C   UNL     1     -10.846   9.417  71.060  1.00  0.00    -0.406 C  
BRANCH   5   6
HETATM    6  C   UNL     1     -10.375   8.008  71.488  1.00  0.00    -0.258 C  
HETATM    7  H   UNL     1     -11.582   4.211  72.034  1.00  0.00     0.000 HD 
HETATM    8  C   UNL     1     -11.405   6.804  71.382  1.00  0.00    -0.322 C  
HETATM    9  C   UNL     1     -10.019   8.045  72.980  1.00  0.00    -0.279 C  
HETATM   10  C   UNL     1      -9.950   6.597  73.367  1.00  0.00    -0.231 C  
HETATM   11  O   UNL     1      -8.771   8.666  73.226  1.00  0.00    -0.352 OA 
HETATM   12  O   UNL     1     -10.834   4.605  72.469  1.00  0.00    -0.186 OA 
HETATM   13  H   UNL     1      -8.550   8.689  74.150  1.00  0.00     0.000 HD 
HETATM   14  C   UNL     1     -11.142   5.969  72.676  1.00  0.00    -0.275 C  
BRANCH   8  15
HETATM   15  C   UNL     1     -11.353   5.990  70.050  1.00  0.00    -0.354 C  
BRANCH  15  16
HETATM   16  C   UNL     1     -10.057   6.097  69.266  1.00  0.00    -0.218 C  
HETATM   17  C   UNL     1      -9.802   6.027  67.945  1.00  0.00    -0.130 C  
BRANCH  17  18
HETATM   18  C   UNL     1     -10.759   5.799  66.809  1.00  0.00    -0.369 C  
BRANCH  18  19
HETATM   19  C   UNL     1     -10.289   4.680  65.866  1.00  0.00    -0.315 C  
BRANCH  19  20
HETATM   20  C   UNL     1      -8.782   4.637  65.645  1.00  0.00    -0.127 C  
BRANCH  20  21
HETATM   21  C   UNL     1      -8.433   5.033  64.244  1.00  0.00    -0.138 C  
HETATM   22  O   UNL     1      -9.048   4.731  63.229  1.00  0.00    -0.123 OA 
BRANCH  21  23
HETATM   23  O   UNL     1      -7.229   5.667  64.272  1.00  0.00    -0.051 OA 
BRANCH  23  24
HETATM   24  C   UNL     1      -7.335   6.881  64.986  1.00  0.00    -0.086 C  
BRANCH  24  25
HETATM   25  C   UNL     1      -8.041   7.964  64.200  1.00  0.00    -0.093 C  
BRANCH  25  26
HETATM   26  C   UNL     1      -9.020   8.773  65.048  1.00  0.00    -0.113 C  
BRANCH  26  27
HETATM   27  C   UNL     1      -9.433  10.126  64.451  1.00  0.00    -0.308 C  
BRANCH  27  28
HETATM   28  O   UNL     1     -10.388  10.729  65.296  1.00  0.00    -0.280 OA 
HETATM   29  N   UNL     1     -10.915  11.923  64.749  1.00  0.00    -0.303 N  
HETATM   30  O   UNL     1     -11.701  12.487  65.515  1.00  0.00    -0.369 OA 
HETATM   31  O   UNL     1     -10.538  12.248  63.631  1.00  0.00    -0.408 OA 
ENDBRANCH  27  28
ENDBRANCH  26  27
ENDBRANCH  25  26
ENDBRANCH  24  25
ENDBRANCH  23  24
ENDBRANCH  21  23
ENDBRANCH  20  21
ENDBRANCH  19  20
ENDBRANCH  18  19
ENDBRANCH  17  18
ENDBRANCH  15  16
ENDBRANCH   8  15
ENDBRANCH   5   6
ENDBRANCH   4   5
ENDBRANCH   2   4
BRANCH   2  32
HETATM   32  C   UNL     1     -10.940  12.335  69.259  1.00  0.00    -0.155 C  
BRANCH  32  33
HETATM   33  C   UNL     1     -12.138  13.256  69.058  1.00  0.00    -0.268 C  
BRANCH  33  34
HETATM   34  C   UNL     1     -12.447  13.953  70.342  1.00  0.00    -0.404 A  
HETATM   35  C   UNL     1     -12.158  15.865  71.793  1.00  0.00    -0.567 A  
HETATM   36  C   UNL     1     -13.371  13.919  72.564  1.00  0.00    -0.656 A  
HETATM   37  C   UNL     1     -11.942  15.242  70.567  1.00  0.00    -0.384 A  
HETATM   38  C   UNL     1     -13.159  13.292  71.342  1.00  0.00    -0.361 A  
HETATM   39  C   UNL     1     -12.872  15.204  72.790  1.00  0.00    -0.506 A  
ENDBRANCH  33  34
ENDBRANCH  32  33
ENDBRANCH   2  32
TORSDOF 18
ENDMDL
MODEL      213
REMARK 921   NORMALIZED FREE ENERGY PREDICTED BY IDOCK:   -4.13 KCAL/MOL
REMARK 922        TOTAL FREE ENERGY PREDICTED BY IDOCK:  -13.25 KCAL/MOL
REMARK 923 INTER-LIGAND FREE ENERGY PREDICTED BY IDOCK:   -9.75 KCAL/MOL
REMARK 924 INTRA-LIGAND FREE ENERGY PREDICTED BY IDOCK:   -3.50 KCAL/MOL
REMARK 927      BINDING AFFINITY PREDICTED BY RF-SCORE:    0.00 PKD
ROOT
HETATM    1  O   UNL     1     -11.722  10.159  67.627  1.00  0.00    -0.512 OA 
HETATM    2  C   UNL     1     -11.649  11.231  68.565  1.00  0.00    -0.315 C  
HETATM    3  H   UNL     1     -12.184   9.422  68.008  1.00  0.00     0.000 HD 
ENDROOT
BRANCH   2   4
HETATM    4  C   UNL     1     -10.899  12.428  67.948  1.00  0.00    -0.253 C  
BRANCH   4   5
HETATM    5  C   UNL     1     -10.172  12.131  66.632  1.00  0.00    -0.223 C  
BRANCH   5   6
HETATM    6  C   UNL     1     -10.606  12.972  65.409  1.00  0.00    -0.307 C  
HETATM    7  H   UNL     1     -12.748  16.180  64.270  1.00  0.00     0.000 HD 
HETATM    8  C   UNL     1     -11.448  14.294  65.662  1.00  0.00    -0.329 C  
HETATM    9  C   UNL     1     -11.533  12.118  64.534  1.00  0.00    -0.334 C  
HETATM   10  C   UNL     1     -12.180  13.116  63.619  1.00  0.00    -0.553 C  
HETATM   11  O   UNL     1     -10.829  11.155  63.773  1.00  0.00    -0.489 OA 
HETATM   12  O   UNL     1     -12.540  15.444  63.705  1.00  0.00    -0.678 OA 
HETATM   13  H   UNL     1     -11.404  10.626  63.231  1.00  0.00     0.000 HD 
HETATM   14  C   UNL     1     -12.512  14.288  64.518  1.00  0.00    -0.333 C  
BRANCH   8  15
HETATM   15  C   UNL     1     -10.614  15.610  65.779  1.00  0.00    -0.374 C  
BRANCH  15  16
HETATM   16  C   UNL     1      -9.143  15.427  66.106  1.00  0.00    -0.339 C  
HETATM   17  C   UNL     1      -8.134  16.313  66.218  1.00  0.00    -0.267 C  
BRANCH  17  18
HETATM   18  C   UNL     1      -8.161  17.804  66.033  1.00  0.00    -0.109 C  
BRANCH  18  19
HETATM   19  C   UNL     1      -7.547  18.551  67.227  1.00  0.00    -0.228 C  
BRANCH  19  20
HETATM   20  C   UNL     1      -8.542  18.912  68.322  1.00  0.00    -0.364 C  
BRANCH  20  21
HETATM   21  C   UNL     1      -9.891  19.213  67.746  1.00  0.00    -0.335 C  
HETATM   22  O   UNL     1     -10.232  20.258  67.204  1.00  0.00    -0.424 OA 
BRANCH  21  23
HETATM   23  O   UNL     1     -10.722  18.181  68.055  1.00  0.00    -0.374 OA 
BRANCH  23  24
HETATM   24  C   UNL     1     -10.283  17.538  69.233  1.00  0.00    -0.180 C  
BRANCH  24  25
HETATM   25  C   UNL     1     -11.072  16.285  69.546  1.00  0.00    -0.330 C  
BRANCH  25  26
HETATM   26  C   UNL     1     -10.200  15.034  69.609  1.00  0.00    -0.171 C  
BRANCH  26  27
HETATM   27  C   UNL     1      -8.689  15.298  69.691  1.00  0.00    -0.104 C  
BRANCH  27  28
HETATM   28  O   UNL     1      -8.008  14.303  68.960  1.00  0.00    -0.117 OA 
HETATM   29  N   UNL     1      -6.641  14.614  68.769  1.00  0.00    -0.086 N  
HETATM   30  O   UNL     1      -6.058  13.777  68.075  1.00  0.00    -0.112 OA 
HETATM   31  O   UNL     1      -6.216  15.639  69.286  1.00  0.00    -0.114 OA 
ENDBRANCH  27  28
ENDBRANCH  26  27
ENDBRANCH  25  26
ENDBRANCH  24  25
ENDBRANCH  23  24
ENDBRANCH  21  23
ENDBRANCH  20  21
ENDBRANCH  19  20
ENDBRANCH  18  19
ENDBRANCH  17  18
ENDBRANCH  15  16
ENDBRANCH   8  15
ENDBRANCH   5   6
ENDBRANCH   4   5
ENDBRANCH   2   4
BRANCH   2  32
HETATM   32  C   UNL     1     -10.926  10.691  69.791  1.00  0.00    -0.340 C  
BRANCH  32  33
HETATM   33  C   UNL     1     -10.135   9.429  69.469  1.00  0.00    -0.214 C  
BRANCH  33  34
HETATM   34  C   UNL     1      -8.714   9.616  69.890  1.00  0.00    -0.236 A  
HETATM   35  C   UNL     1      -6.569  10.680  69.555  1.00  0.00    -0.091 A  
HETATM   36  C   UNL     1      -6.820   8.929  71.207  1.00  0.00    -0.090 A  
HETATM   37  C   UNL     1      -7.915  10.556  69.223  1.00  0.00    -0.156 A  
HETATM   38  C   UNL     1      -8.165   8.802  70.879  1.00  0.00    -0.189 A  
HETATM   39  C   UNL     1      -6.023   9.867  70.546  1.00  0.00    -0.078 A  
ENDBRANCH  33  34
ENDBRANCH  32  33
ENDBRANCH   2  32
TORSDOF 18
ENDMDL
MODEL      214
REMARK 921   NORMALIZED FREE ENERGY PREDICTED BY IDOCK:   -4.12 KCAL/MOL
REMARK 922        TOTAL FREE ENERGY PREDICTED BY IDOCK:  -13.25 KCAL/MOL
REMARK 923 INTER-LIGAND FREE ENERGY PREDICTED BY IDOCK:   -9.89 KCAL/MOL
REMARK 924 INTRA-LIGAND FREE ENERGY PREDICTED BY IDOCK:   -3.36 KCAL/MOL
REMARK 927      BINDING AFFINITY PREDICTED BY RF-SCORE:    0.00 PKD
ROOT
HETATM    1  O   UNL     1      -6.878  10.819  69.097  1.00  0.00    -0.066 OA 
HETATM    2  C   UNL     1      -8.074  10.635  68.343  1.00  0.00    -0.123 C  
HETATM    3  H   UNL     1      -6.164  11.069  68.522  1.00  0.00     0.000 HD 
ENDROOT
BRANCH   2   4
HETATM    4  C   UNL     1      -9.233  10.228  69.275  1.00  0.00    -0.215 C  
BRANCH   4   5
HETATM    5  C   UNL     1      -8.831   9.356  70.469  1.00  0.00    -0.287 C  
BRANCH   5   6
HETATM    6  C   UNL     1      -9.194   7.856  70.371  1.00  0.00    -0.158 C  
HETATM    7  H   UNL     1     -10.992   4.819  72.301  1.00  0.00     0.000 HD 
HETATM    8  C   UNL     1     -10.077   7.217  71.525  1.00  0.00    -0.197 C  
HETATM    9  C   UNL     1      -7.898   7.036  70.415  1.00  0.00    -0.108 C  
HETATM   10  C   UNL     1      -8.368   5.639  70.695  1.00  0.00    -0.118 C  
HETATM   11  O   UNL     1      -7.192   7.067  69.189  1.00  0.00    -0.084 OA 
HETATM   12  O   UNL     1     -10.321   4.712  71.637  1.00  0.00    -0.187 OA 
HETATM   13  H   UNL     1      -6.390   6.560  69.216  1.00  0.00     0.000 HD 
HETATM   14  C   UNL     1      -9.438   5.810  71.753  1.00  0.00    -0.148 C  
BRANCH   8  15
HETATM   15  C   UNL     1     -11.618   7.206  71.265  1.00  0.00    -0.327 C  
BRANCH  15  16
HETATM   16  C   UNL     1     -12.431   8.175  72.105  1.00  0.00    -0.364 C  
HETATM   17  C   UNL     1     -12.916   9.403  71.836  1.00  0.00    -0.502 C  
BRANCH  17  18
HETATM   18  C   UNL     1     -12.780  10.218  70.582  1.00  0.00    -0.382 C  
BRANCH  18  19
HETATM   19  C   UNL     1     -12.534  11.706  70.877  1.00  0.00    -0.440 C  
BRANCH  19  20
HETATM   20  C   UNL     1     -13.405  12.278  71.988  1.00  0.00    -0.491 C  
BRANCH  20  21
HETATM   21  C   UNL     1     -13.108  13.728  72.211  1.00  0.00    -0.405 C  
HETATM   22  O   UNL     1     -13.750  14.502  72.912  1.00  0.00    -0.562 OA 
BRANCH  21  23
HETATM   23  O   UNL     1     -12.084  14.082  71.388  1.00  0.00    -0.319 OA 
BRANCH  23  24
HETATM   24  C   UNL     1     -12.228  15.427  70.982  1.00  0.00    -0.376 C  
BRANCH  24  25
HETATM   25  C   UNL     1     -11.453  15.746  69.722  1.00  0.00    -0.350 C  
BRANCH  25  26
HETATM   26  C   UNL     1      -9.963  15.436  69.845  1.00  0.00    -0.229 C  
BRANCH  26  27
HETATM   27  C   UNL     1      -9.045  16.301  68.970  1.00  0.00    -0.255 C  
BRANCH  27  28
HETATM   28  O   UNL     1      -9.537  16.301  67.647  1.00  0.00    -0.224 OA 
HETATM   29  N   UNL     1      -9.566  17.598  67.082  1.00  0.00    -0.271 N  
HETATM   30  O   UNL     1     -10.056  17.609  65.950  1.00  0.00    -0.519 OA 
HETATM   31  O   UNL     1      -9.128  18.519  67.758  1.00  0.00    -0.272 OA 
ENDBRANCH  27  28
ENDBRANCH  26  27
ENDBRANCH  25  26
ENDBRANCH  24  25
ENDBRANCH  23  24
ENDBRANCH  21  23
ENDBRANCH  20  21
ENDBRANCH  19  20
ENDBRANCH  18  19
ENDBRANCH  17  18
ENDBRANCH  15  16
ENDBRANCH   8  15
ENDBRANCH   5   6
ENDBRANCH   4   5
ENDBRANCH   2   4
BRANCH   2  32
HETATM   32  C   UNL     1      -7.781   9.553  67.313  1.00  0.00    -0.091 C  
BRANCH  32  33
HETATM   33  C   UNL     1      -8.993   9.267  66.434  1.00  0.00    -0.185 C  
BRANCH  33  34
HETATM   34  C   UNL     1      -9.421   7.849  66.629  1.00  0.00    -0.270 A  
HETATM   35  C   UNL     1      -9.080   5.495  66.197  1.00  0.00    -0.155 A  
HETATM   36  C   UNL     1     -11.056   6.248  67.374  1.00  0.00    -0.384 A  
HETATM   37  C   UNL     1      -8.646   6.813  66.089  1.00  0.00    -0.146 A  
HETATM   38  C   UNL     1     -10.627   7.565  67.269  1.00  0.00    -0.394 A  
HETATM   39  C   UNL     1     -10.284   5.214  66.839  1.00  0.00    -0.279 A  
ENDBRANCH  33  34
ENDBRANCH  32  33
ENDBRANCH   2  32
TORSDOF 18
ENDMDL
MODEL      215
REMARK 921   NORMALIZED FREE ENERGY PREDICTED BY IDOCK:   -4.11 KCAL/MOL
REMARK 922        TOTAL FREE ENERGY PREDICTED BY IDOCK:  -13.22 KCAL/MOL
REMARK 923 INTER-LIGAND FREE ENERGY PREDICTED BY IDOCK:   -8.97 KCAL/MOL
REMARK 924 INTRA-LIGAND FREE ENERGY PREDICTED BY IDOCK:   -4.25 KCAL/MOL
REMARK 927      BINDING AFFINITY PREDICTED BY RF-SCORE:    0.00 PKD
ROOT
HETATM    1  O   UNL     1      -6.915  12.808  69.632  1.00  0.00    -0.337 OA 
HETATM    2  C   UNL     1      -7.063  12.478  68.252  1.00  0.00    -0.104 C  
HETATM    3  H   UNL     1      -7.669  13.301  69.934  1.00  0.00     0.000 HD 
ENDROOT
BRANCH   2   4
HETATM    4  C   UNL     1      -5.840  11.677  67.763  1.00  0.00    -0.052 C  
BRANCH   4   5
HETATM    5  C   UNL     1      -6.056  10.887  66.468  1.00  0.00    -0.122 C  
BRANCH   5   6
HETATM    6  C   UNL     1      -7.302   9.972  66.425  1.00  0.00    -0.104 C  
HETATM    7  H   UNL     1      -8.513   6.155  66.062  1.00  0.00     0.000 HD 
HETATM    8  C   UNL     1      -7.082   8.402  66.357  1.00  0.00    -0.071 C  
HETATM    9  C   UNL     1      -8.090  10.280  65.146  1.00  0.00    -0.151 C  
HETATM   10  C   UNL     1      -9.028   9.116  65.014  1.00  0.00    -0.221 C  
HETATM   11  O   UNL     1      -8.830  11.483  65.238  1.00  0.00    -0.396 OA 
HETATM   12  O   UNL     1      -9.047   6.911  65.847  1.00  0.00    -0.118 OA 
HETATM   13  H   UNL     1      -9.318  11.674  64.445  1.00  0.00     0.000 HD 
HETATM   14  C   UNL     1      -8.177   7.911  65.357  1.00  0.00    -0.138 C  
BRANCH   8  15
HETATM   15  C   UNL     1      -7.070   7.664  67.734  1.00  0.00    -0.085 C  
BRANCH  15  16
HETATM   16  C   UNL     1      -6.586   8.487  68.914  1.00  0.00    -0.053 C  
HETATM   17  C   UNL     1      -7.251   9.073  69.930  1.00  0.00    -0.058 C  
BRANCH  17  18
HETATM   18  C   UNL     1      -8.728   9.099  70.200  1.00  0.00    -0.196 C  
BRANCH  18  19
HETATM   19  C   UNL     1      -9.413  10.327  69.581  1.00  0.00    -0.180 C  
BRANCH  19  20
HETATM   20  C   UNL     1     -10.933  10.235  69.520  1.00  0.00    -0.300 C  
BRANCH  20  21
HETATM   21  C   UNL     1     -11.452  10.762  68.219  1.00  0.00    -0.280 C  
HETATM   22  O   UNL     1     -11.086  10.423  67.100  1.00  0.00    -0.244 OA 
BRANCH  21  23
HETATM   23  O   UNL     1     -12.300  11.791  68.489  1.00  0.00    -0.348 OA 
BRANCH  23  24
HETATM   24  C   UNL     1     -11.575  12.912  68.949  1.00  0.00    -0.315 C  
BRANCH  24  25
HETATM   25  C   UNL     1     -10.815  13.613  67.844  1.00  0.00    -0.264 C  
BRANCH  25  26
HETATM   26  C   UNL     1     -11.729  14.351  66.869  1.00  0.00    -0.422 C  
BRANCH  26  27
HETATM   27  C   UNL     1     -11.298  14.284  65.396  1.00  0.00    -0.329 C  
BRANCH  27  28
HETATM   28  O   UNL     1     -11.535  12.981  64.908  1.00  0.00    -0.301 OA 
HETATM   29  N   UNL     1     -12.267  12.984  63.697  1.00  0.00    -0.495 N  
HETATM   30  O   UNL     1     -12.531  11.846  63.301  1.00  0.00    -0.571 OA 
HETATM   31  O   UNL     1     -12.547  14.071  63.208  1.00  0.00    -0.801 OA 
ENDBRANCH  27  28
ENDBRANCH  26  27
ENDBRANCH  25  26
ENDBRANCH  24  25
ENDBRANCH  23  24
ENDBRANCH  21  23
ENDBRANCH  20  21
ENDBRANCH  19  20
ENDBRANCH  18  19
ENDBRANCH  17  18
ENDBRANCH  15  16
ENDBRANCH   8  15
ENDBRANCH   5   6
ENDBRANCH   4   5
ENDBRANCH   2   4
BRANCH   2  32
HETATM   32  C   UNL     1      -7.206  13.793  67.501  1.00  0.00    -0.173 C  
BRANCH  32  33
HETATM   33  C   UNL     1      -7.133  14.991  68.441  1.00  0.00    -0.108 C  
BRANCH  33  34
HETATM   34  C   UNL     1      -8.109  16.030  67.994  1.00  0.00    -0.148 A  
HETATM   35  C   UNL     1      -9.940  17.522  68.510  1.00  0.00    -0.344 A  
HETATM   36  C   UNL     1      -9.182  17.262  66.227  1.00  0.00    -0.243 A  
HETATM   37  C   UNL     1      -8.974  16.612  68.932  1.00  0.00    -0.239 A  
HETATM   38  C   UNL     1      -8.216  16.354  66.642  1.00  0.00    -0.314 A  
HETATM   39  C   UNL     1     -10.043  17.846  67.159  1.00  0.00    -0.340 A  
ENDBRANCH  33  34
ENDBRANCH  32  33
ENDBRANCH   2  32
TORSDOF 18
ENDMDL
MODEL      216
REMARK 921   NORMALIZED FREE ENERGY PREDICTED BY IDOCK:   -4.09 KCAL/MOL
REMARK 922        TOTAL FREE ENERGY PREDICTED BY IDOCK:  -13.18 KCAL/MOL
REMARK 923 INTER-LIGAND FREE ENERGY PREDICTED BY IDOCK:   -9.74 KCAL/MOL
REMARK 924 INTRA-LIGAND FREE ENERGY PREDICTED BY IDOCK:   -3.44 KCAL/MOL
REMARK 927      BINDING AFFINITY PREDICTED BY RF-SCORE:    0.00 PKD
ROOT
HETATM    1  O   UNL     1      -6.749   8.597  69.263  1.00  0.00    -0.048 OA 
HETATM    2  C   UNL     1      -6.898   7.295  68.700  1.00  0.00    -0.076 C  
HETATM    3  H   UNL     1      -5.948   8.644  69.772  1.00  0.00     0.000 HD 
ENDROOT
BRANCH   2   4
HETATM    4  C   UNL     1      -8.198   7.219  67.875  1.00  0.00    -0.119 C  
BRANCH   4   5
HETATM    5  C   UNL     1      -9.152   8.404  68.054  1.00  0.00    -0.140 C  
BRANCH   5   6
HETATM    6  C   UNL     1     -10.411   8.143  68.913  1.00  0.00    -0.202 C  
HETATM    7  H   UNL     1     -11.764   7.889  72.692  1.00  0.00     0.000 HD 
HETATM    8  C   UNL     1     -10.294   8.299  70.489  1.00  0.00    -0.217 C  
HETATM    9  C   UNL     1     -10.833   6.680  68.728  1.00  0.00    -0.267 C  
HETATM   10  C   UNL     1     -11.790   6.438  69.859  1.00  0.00    -0.145 C  
HETATM   11  O   UNL     1     -11.485   6.453  67.492  1.00  0.00    -0.686 OA 
HETATM   12  O   UNL     1     -12.173   7.466  71.945  1.00  0.00    -0.297 OA 
HETATM   13  H   UNL     1     -11.747   5.548  67.378  1.00  0.00     0.000 HD 
HETATM   14  C   UNL     1     -11.139   7.111  71.049  1.00  0.00    -0.260 C  
BRANCH   8  15
HETATM   15  C   UNL     1     -10.676   9.704  71.056  1.00  0.00    -0.393 C  
BRANCH  15  16
HETATM   16  C   UNL     1     -11.695  10.483  70.245  1.00  0.00    -0.420 C  
HETATM   17  C   UNL     1     -11.551  11.368  69.238  1.00  0.00    -0.384 C  
BRANCH  17  18
HETATM   18  C   UNL     1     -10.288  11.879  68.604  1.00  0.00    -0.218 C  
BRANCH  18  19
HETATM   19  C   UNL     1     -10.434  13.321  68.094  1.00  0.00    -0.251 C  
BRANCH  19  20
HETATM   20  C   UNL     1     -11.805  13.939  68.339  1.00  0.00    -0.409 C  
BRANCH  20  21
HETATM   21  C   UNL     1     -11.763  14.906  69.481  1.00  0.00    -0.320 C  
HETATM   22  O   UNL     1     -12.640  15.080  70.318  1.00  0.00    -0.342 OA 
BRANCH  21  23
HETATM   23  O   UNL     1     -10.642  15.666  69.349  1.00  0.00    -0.218 OA 
BRANCH  23  24
HETATM   24  C   UNL     1     -10.906  16.784  68.528  1.00  0.00    -0.345 C  
BRANCH  24  25
HETATM   25  C   UNL     1      -9.646  17.477  68.057  1.00  0.00    -0.282 C  
BRANCH  25  26
HETATM   26  C   UNL     1      -8.717  16.553  67.274  1.00  0.00    -0.204 C  
BRANCH  26  27
HETATM   27  C   UNL     1      -8.990  16.484  65.765  1.00  0.00     0.029 C  
BRANCH  27  28
HETATM   28  O   UNL     1      -9.879  15.420  65.507  1.00  0.00    -0.342 OA 
HETATM   29  N   UNL     1     -11.024  15.837  64.787  1.00  0.00    -0.448 N  
HETATM   30  O   UNL     1     -11.834  14.922  64.617  1.00  0.00    -0.419 OA 
HETATM   31  O   UNL     1     -11.079  17.009  64.439  1.00  0.00    -1.144 OA 
ENDBRANCH  27  28
ENDBRANCH  26  27
ENDBRANCH  25  26
ENDBRANCH  24  25
ENDBRANCH  23  24
ENDBRANCH  21  23
ENDBRANCH  20  21
ENDBRANCH  19  20
ENDBRANCH  18  19
ENDBRANCH  17  18
ENDBRANCH  15  16
ENDBRANCH   8  15
ENDBRANCH   5   6
ENDBRANCH   4   5
ENDBRANCH   2   4
BRANCH   2  32
HETATM   32  C   UNL     1      -6.917   6.315  69.864  1.00  0.00    -0.066 C  
BRANCH  32  33
HETATM   33  C   UNL     1      -6.404   6.954  71.149  1.00  0.00    -0.041 C  
BRANCH  33  34
HETATM   34  C   UNL     1      -7.452   6.844  72.208  1.00  0.00    -0.087 A  
HETATM   35  C   UNL     1      -8.765   7.886  73.950  1.00  0.00    -0.332 A  
HETATM   36  C   UNL     1      -8.881   5.495  73.596  1.00  0.00    -0.125 A  
HETATM   37  C   UNL     1      -7.849   7.993  72.908  1.00  0.00    -0.190 A  
HETATM   38  C   UNL     1      -7.967   5.596  72.555  1.00  0.00    -0.103 A  
HETATM   39  C   UNL     1      -9.280   6.638  74.293  1.00  0.00    -0.228 A  
ENDBRANCH  33  34
ENDBRANCH  32  33
ENDBRANCH   2  32
TORSDOF 18
ENDMDL
MODEL      217
REMARK 921   NORMALIZED FREE ENERGY PREDICTED BY IDOCK:   -4.09 KCAL/MOL
REMARK 922        TOTAL FREE ENERGY PREDICTED BY IDOCK:  -13.18 KCAL/MOL
REMARK 923 INTER-LIGAND FREE ENERGY PREDICTED BY IDOCK:   -9.75 KCAL/MOL
REMARK 924 INTRA-LIGAND FREE ENERGY PREDICTED BY IDOCK:   -3.43 KCAL/MOL
REMARK 927      BINDING AFFINITY PREDICTED BY RF-SCORE:    0.00 PKD
ROOT
HETATM    1  O   UNL     1     -13.420  10.338  70.398  1.00  0.00    -0.452 OA 
HETATM    2  C   UNL     1     -12.097  10.304  70.931  1.00  0.00    -0.368 C  
HETATM    3  H   UNL     1     -14.036  10.606  71.070  1.00  0.00     0.000 HD 
ENDROOT
BRANCH   2   4
HETATM    4  C   UNL     1     -11.097   9.869  69.842  1.00  0.00    -0.318 C  
BRANCH   4   5
HETATM    5  C   UNL     1      -9.790   9.261  70.364  1.00  0.00    -0.290 C  
BRANCH   5   6
HETATM    6  C   UNL     1      -9.275   8.008  69.620  1.00  0.00    -0.152 C  
HETATM    7  H   UNL     1     -10.428   4.628  67.770  1.00  0.00     0.000 HD 
HETATM    8  C   UNL     1     -10.339   7.014  68.989  1.00  0.00    -0.208 C  
HETATM    9  C   UNL     1      -8.509   7.129  70.617  1.00  0.00    -0.138 C  
HETATM   10  C   UNL     1      -8.391   5.809  69.913  1.00  0.00    -0.119 C  
HETATM   11  O   UNL     1      -7.218   7.633  70.908  1.00  0.00    -0.060 OA 
HETATM   12  O   UNL     1      -9.573   4.761  68.162  1.00  0.00    -0.135 OA 
HETATM   13  H   UNL     1      -6.744   7.088  71.525  1.00  0.00     0.000 HD 
HETATM   14  C   UNL     1      -9.754   5.596  69.288  1.00  0.00    -0.156 C  
BRANCH   8  15
HETATM   15  C   UNL     1     -10.700   7.275  67.492  1.00  0.00    -0.326 C  
BRANCH  15  16
HETATM   16  C   UNL     1      -9.519   7.427  66.550  1.00  0.00    -0.229 C  
HETATM   17  C   UNL     1      -8.836   8.514  66.139  1.00  0.00    -0.200 C  
BRANCH  17  18
HETATM   18  C   UNL     1      -9.057   9.957  66.493  1.00  0.00    -0.179 C  
BRANCH  18  19
HETATM   19  C   UNL     1     -10.407  10.484  65.979  1.00  0.00    -0.279 C  
BRANCH  19  20
HETATM   20  C   UNL     1     -10.376  10.997  64.546  1.00  0.00    -0.420 C  
BRANCH  20  21
HETATM   21  C   UNL     1     -11.439  12.027  64.320  1.00  0.00    -0.361 C  
HETATM   22  O   UNL     1     -11.580  12.718  63.319  1.00  0.00    -0.498 OA 
BRANCH  21  23
HETATM   23  O   UNL     1     -12.140  12.171  65.478  1.00  0.00    -0.517 OA 
BRANCH  23  24
HETATM   24  C   UNL     1     -12.195  13.533  65.847  1.00  0.00    -0.460 C  
BRANCH  24  25
HETATM   25  C   UNL     1     -11.857  13.760  67.305  1.00  0.00    -0.436 C  
BRANCH  25  26
HETATM   26  C   UNL     1     -11.541  15.219  67.622  1.00  0.00    -0.249 C  
BRANCH  26  27
HETATM   27  C   UNL     1     -10.130  15.474  68.172  1.00  0.00    -0.218 C  
BRANCH  27  28
HETATM   28  O   UNL     1      -9.646  14.287  68.760  1.00  0.00    -0.210 OA 
HETATM   29  N   UNL     1      -8.552  13.739  68.049  1.00  0.00    -0.167 N  
HETATM   30  O   UNL     1      -8.168  12.668  68.524  1.00  0.00    -0.145 OA 
HETATM   31  O   UNL     1      -8.137  14.363  67.081  1.00  0.00    -0.193 OA 
ENDBRANCH  27  28
ENDBRANCH  26  27
ENDBRANCH  25  26
ENDBRANCH  24  25
ENDBRANCH  23  24
ENDBRANCH  21  23
ENDBRANCH  20  21
ENDBRANCH  19  20
ENDBRANCH  18  19
ENDBRANCH  17  18
ENDBRANCH  15  16
ENDBRANCH   8  15
ENDBRANCH   5   6
ENDBRANCH   4   5
ENDBRANCH   2   4
BRANCH   2  32
HETATM   32  C   UNL     1     -12.118   9.323  72.094  1.00  0.00    -0.353 C  
BRANCH  32  33
HETATM   33  C   UNL     1     -12.469   7.912  71.636  1.00  0.00    -0.344 C  
BRANCH  33  34
HETATM   34  C   UNL     1     -11.701   6.923  72.449  1.00  0.00    -0.253 A  
HETATM   35  C   UNL     1      -9.943   6.460  74.043  1.00  0.00    -0.301 A  
HETATM   36  C   UNL     1     -11.123   4.644  72.963  1.00  0.00    -0.327 A  
HETATM   37  C   UNL     1     -10.718   7.378  73.341  1.00  0.00    -0.407 A  
HETATM   38  C   UNL     1     -11.900   5.556  72.260  1.00  0.00    -0.054 A  
HETATM   39  C   UNL     1     -10.146   5.094  73.854  1.00  0.00    -0.228 A  
ENDBRANCH  33  34
ENDBRANCH  32  33
ENDBRANCH   2  32
TORSDOF 18
ENDMDL
MODEL      218
REMARK 921   NORMALIZED FREE ENERGY PREDICTED BY IDOCK:   -4.09 KCAL/MOL
REMARK 922        TOTAL FREE ENERGY PREDICTED BY IDOCK:  -13.18 KCAL/MOL
REMARK 923 INTER-LIGAND FREE ENERGY PREDICTED BY IDOCK:  -11.22 KCAL/MOL
REMARK 924 INTRA-LIGAND FREE ENERGY PREDICTED BY IDOCK:   -1.96 KCAL/MOL
REMARK 927      BINDING AFFINITY PREDICTED BY RF-SCORE:    0.00 PKD
ROOT
HETATM    1  O   UNL     1     -10.583  19.631  68.854  1.00  0.00    -0.494 OA 
HETATM    2  C   UNL     1     -10.589  19.817  67.440  1.00  0.00    -0.419 C  
HETATM    3  H   UNL     1     -10.671  20.468  69.295  1.00  0.00     0.000 HD 
ENDROOT
BRANCH   2   4
HETATM    4  C   UNL     1     -10.447  18.460  66.724  1.00  0.00    -0.415 C  
BRANCH   4   5
HETATM    5  C   UNL     1     -10.649  17.230  67.616  1.00  0.00    -0.350 C  
BRANCH   5   6
HETATM    6  C   UNL     1      -9.957  15.928  67.151  1.00  0.00    -0.240 C  
HETATM    7  H   UNL     1      -9.054  12.164  68.243  1.00  0.00     0.000 HD 
HETATM    8  C   UNL     1     -10.040  14.652  68.091  1.00  0.00    -0.224 C  
HETATM    9  C   UNL     1      -8.449  16.192  67.037  1.00  0.00    -0.208 C  
HETATM   10  C   UNL     1      -7.851  14.818  66.960  1.00  0.00    -0.089 C  
HETATM   11  O   UNL     1      -8.111  16.927  65.875  1.00  0.00    -0.453 OA 
HETATM   12  O   UNL     1      -8.575  12.665  67.593  1.00  0.00    -0.158 OA 
HETATM   13  H   UNL     1      -7.178  17.090  65.805  1.00  0.00     0.000 HD 
HETATM   14  C   UNL     1      -8.615  14.019  67.995  1.00  0.00    -0.179 C  
BRANCH   8  15
HETATM   15  C   UNL     1     -11.218  13.671  67.790  1.00  0.00    -0.310 C  
BRANCH  15  16
HETATM   16  C   UNL     1     -12.046  13.999  66.561  1.00  0.00    -0.488 C  
HETATM   17  C   UNL     1     -11.832  13.769  65.250  1.00  0.00    -0.365 C  
BRANCH  17  18
HETATM   18  C   UNL     1     -10.659  13.106  64.587  1.00  0.00    -0.410 C  
BRANCH  18  19
HETATM   19  C   UNL     1     -10.933  11.630  64.256  1.00  0.00    -0.418 C  
BRANCH  19  20
HETATM   20  C   UNL     1      -9.949  10.652  64.886  1.00  0.00    -0.382 C  
BRANCH  20  21
HETATM   21  C   UNL     1     -10.515  10.048  66.133  1.00  0.00    -0.086 C  
HETATM   22  O   UNL     1     -11.164  10.630  66.993  1.00  0.00    -0.266 OA 
BRANCH  21  23
HETATM   23  O   UNL     1     -10.062   8.767  66.224  1.00  0.00    -0.291 OA 
BRANCH  23  24
HETATM   24  C   UNL     1     -10.658   8.118  67.328  1.00  0.00    -0.273 C  
BRANCH  24  25
HETATM   25  C   UNL     1     -10.592   6.610  67.227  1.00  0.00    -0.387 C  
BRANCH  25  26
HETATM   26  C   UNL     1      -9.581   5.993  68.192  1.00  0.00    -0.122 C  
BRANCH  26  27
HETATM   27  C   UNL     1     -10.195   5.257  69.391  1.00  0.00    -0.251 C  
BRANCH  27  28
HETATM   28  O   UNL     1     -11.276   6.013  69.891  1.00  0.00    -0.386 OA 
HETATM   29  N   UNL     1     -11.242   6.139  71.300  1.00  0.00    -0.292 N  
HETATM   30  O   UNL     1     -12.220   6.744  71.745  1.00  0.00    -0.333 OA 
HETATM   31  O   UNL     1     -10.289   5.645  71.889  1.00  0.00    -0.201 OA 
ENDBRANCH  27  28
ENDBRANCH  26  27
ENDBRANCH  25  26
ENDBRANCH  24  25
ENDBRANCH  23  24
ENDBRANCH  21  23
ENDBRANCH  20  21
ENDBRANCH  19  20
ENDBRANCH  18  19
ENDBRANCH  17  18
ENDBRANCH  15  16
ENDBRANCH   8  15
ENDBRANCH   5   6
ENDBRANCH   4   5
ENDBRANCH   2   4
BRANCH   2  32
HETATM   32  C   UNL     1      -9.426  20.744  67.116  1.00  0.00    -0.444 C  
BRANCH  32  33
HETATM   33  C   UNL     1      -8.187  19.966  66.688  1.00  0.00    -0.359 C  
BRANCH  33  34
HETATM   34  C   UNL     1      -7.157  20.045  67.767  1.00  0.00    -0.316 A  
HETATM   35  C   UNL     1      -5.159  21.071  68.663  1.00  0.00    -0.321 A  
HETATM   36  C   UNL     1      -6.118  19.122  69.732  1.00  0.00    -0.285 A  
HETATM   37  C   UNL     1      -6.169  21.039  67.706  1.00  0.00    -0.414 A  
HETATM   38  C   UNL     1      -7.128  19.086  68.779  1.00  0.00    -0.353 A  
HETATM   39  C   UNL     1      -5.134  20.113  69.675  1.00  0.00    -0.233 A  
ENDBRANCH  33  34
ENDBRANCH  32  33
ENDBRANCH   2  32
TORSDOF 18
ENDMDL
MODEL      219
REMARK 921   NORMALIZED FREE ENERGY PREDICTED BY IDOCK:   -4.09 KCAL/MOL
REMARK 922        TOTAL FREE ENERGY PREDICTED BY IDOCK:  -13.17 KCAL/MOL
REMARK 923 INTER-LIGAND FREE ENERGY PREDICTED BY IDOCK:   -8.80 KCAL/MOL
REMARK 924 INTRA-LIGAND FREE ENERGY PREDICTED BY IDOCK:   -4.36 KCAL/MOL
REMARK 927      BINDING AFFINITY PREDICTED BY RF-SCORE:    0.00 PKD
ROOT
HETATM    1  O   UNL     1     -13.047   8.504  71.548  1.00  0.00    -0.329 OA 
HETATM    2  C   UNL     1     -11.842   7.740  71.559  1.00  0.00    -0.293 C  
HETATM    3  H   UNL     1     -13.801   7.928  71.588  1.00  0.00     0.000 HD 
ENDROOT
BRANCH   2   4
HETATM    4  C   UNL     1     -10.619   8.675  71.495  1.00  0.00    -0.352 C  
BRANCH   4   5
HETATM    5  C   UNL     1      -9.529   8.393  72.534  1.00  0.00    -0.360 C  
BRANCH   5   6
HETATM    6  C   UNL     1      -8.085   8.271  71.994  1.00  0.00    -0.188 C  
HETATM    7  H   UNL     1      -5.652   6.018  69.718  1.00  0.00     0.000 HD 
HETATM    8  C   UNL     1      -7.759   7.102  70.970  1.00  0.00    -0.090 C  
HETATM    9  C   UNL     1      -7.146   7.987  73.173  1.00  0.00    -0.103 C  
HETATM   10  C   UNL     1      -5.880   7.519  72.517  1.00  0.00    -0.040 C  
HETATM   11  O   UNL     1      -6.884   9.140  73.951  1.00  0.00    -0.348 OA 
HETATM   12  O   UNL     1      -5.356   6.598  70.410  1.00  0.00    -0.018 OA 
HETATM   13  H   UNL     1      -6.302   8.964  74.681  1.00  0.00     0.000 HD 
HETATM   14  C   UNL     1      -6.351   6.594  71.414  1.00  0.00    -0.042 C  
BRANCH   8  15
HETATM   15  C   UNL     1      -7.877   7.481  69.458  1.00  0.00    -0.120 C  
BRANCH  15  16
HETATM   16  C   UNL     1      -7.757   8.960  69.142  1.00  0.00    -0.092 C  
HETATM   17  C   UNL     1      -8.613   9.823  68.559  1.00  0.00    -0.120 C  
BRANCH  17  18
HETATM   18  C   UNL     1      -9.988   9.565  68.013  1.00  0.00    -0.198 C  
BRANCH  18  19
HETATM   19  C   UNL     1     -10.142  10.053  66.564  1.00  0.00    -0.296 C  
BRANCH  19  20
HETATM   20  C   UNL     1      -9.650  11.474  66.324  1.00  0.00    -0.239 C  
BRANCH  20  21
HETATM   21  C   UNL     1     -10.252  12.049  65.080  1.00  0.00    -0.276 C  
HETATM   22  O   UNL     1     -10.408  11.467  64.013  1.00  0.00    -0.288 OA 
BRANCH  21  23
HETATM   23  O   UNL     1     -10.465  13.377  65.288  1.00  0.00    -0.300 OA 
BRANCH  23  24
HETATM   24  C   UNL     1     -11.567  13.563  66.151  1.00  0.00    -0.343 C  
BRANCH  24  25
HETATM   25  C   UNL     1     -11.406  14.764  67.058  1.00  0.00    -0.358 C  
BRANCH  25  26
HETATM   26  C   UNL     1     -11.391  14.394  68.539  1.00  0.00    -0.307 C  
BRANCH  26  27
HETATM   27  C   UNL     1     -11.801  12.948  68.851  1.00  0.00    -0.309 C  
BRANCH  27  28
HETATM   28  O   UNL     1     -12.103  12.842  70.225  1.00  0.00    -0.349 OA 
HETATM   29  N   UNL     1     -12.675  11.591  70.557  1.00  0.00    -0.166 N  
HETATM   30  O   UNL     1     -12.999  11.520  71.745  1.00  0.00    -0.446 OA 
HETATM   31  O   UNL     1     -12.785  10.763  69.661  1.00  0.00    -0.234 OA 
ENDBRANCH  27  28
ENDBRANCH  26  27
ENDBRANCH  25  26
ENDBRANCH  24  25
ENDBRANCH  23  24
ENDBRANCH  21  23
ENDBRANCH  20  21
ENDBRANCH  19  20
ENDBRANCH  18  19
ENDBRANCH  17  18
ENDBRANCH  15  16
ENDBRANCH   8  15
ENDBRANCH   5   6
ENDBRANCH   4   5
ENDBRANCH   2   4
BRANCH   2  32
HETATM   32  C   UNL     1     -11.901   6.814  70.353  1.00  0.00    -0.395 C  
BRANCH  32  33
HETATM   33  C   UNL     1     -10.840   5.722  70.428  1.00  0.00    -0.360 C  
BRANCH  33  34
HETATM   34  C   UNL     1     -10.481   5.286  69.045  1.00  0.00    -0.206 A  
HETATM   35  C   UNL     1      -9.158   3.887  67.583  1.00  0.00    -0.180 A  
HETATM   36  C   UNL     1     -10.591   5.606  66.662  1.00  0.00    -0.361 A  
HETATM   37  C   UNL     1      -9.558   4.245  68.867  1.00  0.00    -0.227 A  
HETATM   38  C   UNL     1     -10.994   5.967  67.942  1.00  0.00    -0.248 A  
HETATM   39  C   UNL     1      -9.674   4.567  66.482  1.00  0.00    -0.220 A  
ENDBRANCH  33  34
ENDBRANCH  32  33
ENDBRANCH   2  32
TORSDOF 18
ENDMDL
MODEL      220
REMARK 921   NORMALIZED FREE ENERGY PREDICTED BY IDOCK:   -4.08 KCAL/MOL
REMARK 922        TOTAL FREE ENERGY PREDICTED BY IDOCK:  -13.16 KCAL/MOL
REMARK 923 INTER-LIGAND FREE ENERGY PREDICTED BY IDOCK:  -10.87 KCAL/MOL
REMARK 924 INTRA-LIGAND FREE ENERGY PREDICTED BY IDOCK:   -2.29 KCAL/MOL
REMARK 927      BINDING AFFINITY PREDICTED BY RF-SCORE:    0.00 PKD
ROOT
HETATM    1  O   UNL     1     -10.285   7.248  67.780  1.00  0.00    -0.171 OA 
HETATM    2  C   UNL     1      -9.499   8.383  67.421  1.00  0.00    -0.147 C  
HETATM    3  H   UNL     1     -10.691   6.873  67.007  1.00  0.00     0.000 HD 
ENDROOT
BRANCH   2   4
HETATM    4  C   UNL     1      -8.840   8.991  68.675  1.00  0.00    -0.137 C  
BRANCH   4   5
HETATM    5  C   UNL     1      -9.335   8.423  70.010  1.00  0.00    -0.159 C  
BRANCH   5   6
HETATM    6  C   UNL     1     -10.823   8.674  70.348  1.00  0.00    -0.250 C  
HETATM    7  H   UNL     1     -13.446  11.464  71.578  1.00  0.00     0.000 HD 
HETATM    8  C   UNL     1     -11.276  10.152  70.709  1.00  0.00    -0.414 C  
HETATM    9  C   UNL     1     -11.179   7.872  71.607  1.00  0.00    -0.251 C  
HETATM   10  C   UNL     1     -12.482   8.467  72.054  1.00  0.00    -0.417 C  
HETATM   11  O   UNL     1     -11.349   6.492  71.343  1.00  0.00    -0.268 OA 
HETATM   12  O   UNL     1     -13.568  10.527  71.685  1.00  0.00    -0.225 OA 
HETATM   13  H   UNL     1     -11.569   5.995  72.122  1.00  0.00     0.000 HD 
HETATM   14  C   UNL     1     -12.289   9.959  71.883  1.00  0.00    -0.305 C  
BRANCH   8  15
HETATM   15  C   UNL     1     -11.809  11.004  69.513  1.00  0.00    -0.404 C  
BRANCH  15  16
HETATM   16  C   UNL     1     -11.918  12.496  69.768  1.00  0.00    -0.359 C  
HETATM   17  C   UNL     1     -11.216  13.540  69.283  1.00  0.00    -0.285 C  
BRANCH  17  18
HETATM   18  C   UNL     1     -10.063  13.538  68.320  1.00  0.00    -0.247 C  
BRANCH  18  19
HETATM   19  C   UNL     1      -8.889  14.398  68.814  1.00  0.00    -0.131 C  
BRANCH  19  20
HETATM   20  C   UNL     1      -8.322  15.347  67.766  1.00  0.00    -0.156 C  
BRANCH  20  21
HETATM   21  C   UNL     1      -8.436  16.771  68.212  1.00  0.00    -0.222 C  
HETATM   22  O   UNL     1      -7.551  17.444  68.726  1.00  0.00    -0.249 OA 
BRANCH  21  23
HETATM   23  O   UNL     1      -9.736  17.152  68.084  1.00  0.00    -0.258 OA 
BRANCH  23  24
HETATM   24  C   UNL     1     -10.081  18.059  69.110  1.00  0.00    -0.196 C  
BRANCH  24  25
HETATM   25  C   UNL     1     -10.327  19.461  68.595  1.00  0.00    -0.352 C  
BRANCH  25  26
HETATM   26  C   UNL     1     -10.844  19.484  67.158  1.00  0.00    -0.555 C  
BRANCH  26  27
HETATM   27  C   UNL     1      -9.801  19.869  66.099  1.00  0.00    -0.458 C  
BRANCH  27  28
HETATM   28  O   UNL     1      -8.738  20.551  66.728  1.00  0.00    -0.236 OA 
HETATM   29  N   UNL     1      -7.479  19.978  66.430  1.00  0.00    -0.277 N  
HETATM   30  O   UNL     1      -6.554  20.531  67.030  1.00  0.00    -0.219 OA 
HETATM   31  O   UNL     1      -7.457  19.033  65.651  1.00  0.00    -0.466 OA 
ENDBRANCH  27  28
ENDBRANCH  26  27
ENDBRANCH  25  26
ENDBRANCH  24  25
ENDBRANCH  23  24
ENDBRANCH  21  23
ENDBRANCH  20  21
ENDBRANCH  19  20
ENDBRANCH  18  19
ENDBRANCH  17  18
ENDBRANCH  15  16
ENDBRANCH   8  15
ENDBRANCH   5   6
ENDBRANCH   4   5
ENDBRANCH   2   4
BRANCH   2  32
HETATM   32  C   UNL     1     -10.440   9.372  66.750  1.00  0.00    -0.265 C  
BRANCH  32  33
HETATM   33  C   UNL     1      -9.830   9.959  65.481  1.00  0.00    -0.381 C  
BRANCH  33  34
HETATM   34  C   UNL     1     -10.666  11.106  65.016  1.00  0.00    -0.301 A  
HETATM   35  C   UNL     1     -12.328  12.796  65.494  1.00  0.00    -0.495 A  
HETATM   36  C   UNL     1     -11.537  12.464  63.231  1.00  0.00    -0.450 A  
HETATM   37  C   UNL     1     -11.486  11.779  65.934  1.00  0.00    -0.273 A  
HETATM   38  C   UNL     1     -10.695  11.448  63.665  1.00  0.00    -0.470 A  
HETATM   39  C   UNL     1     -12.353  13.137  64.143  1.00  0.00    -0.418 A  
ENDBRANCH  33  34
ENDBRANCH  32  33
ENDBRANCH   2  32
TORSDOF 18
ENDMDL
MODEL      221
REMARK 921   NORMALIZED FREE ENERGY PREDICTED BY IDOCK:   -4.08 KCAL/MOL
REMARK 922        TOTAL FREE ENERGY PREDICTED BY IDOCK:  -13.16 KCAL/MOL
REMARK 923 INTER-LIGAND FREE ENERGY PREDICTED BY IDOCK:   -9.70 KCAL/MOL
REMARK 924 INTRA-LIGAND FREE ENERGY PREDICTED BY IDOCK:   -3.46 KCAL/MOL
REMARK 927      BINDING AFFINITY PREDICTED BY RF-SCORE:    0.00 PKD
ROOT
HETATM    1  O   UNL     1     -13.185  10.055  70.666  1.00  0.00    -0.588 OA 
HETATM    2  C   UNL     1     -11.796  10.033  70.989  1.00  0.00    -0.386 C  
HETATM    3  H   UNL     1     -13.705  10.101  71.460  1.00  0.00     0.000 HD 
ENDROOT
BRANCH   2   4
HETATM    4  C   UNL     1     -10.952   9.959  69.701  1.00  0.00    -0.285 C  
BRANCH   4   5
HETATM    5  C   UNL     1      -9.486   9.564  69.905  1.00  0.00    -0.247 C  
BRANCH   5   6
HETATM    6  C   UNL     1      -8.831   8.754  68.762  1.00  0.00    -0.134 C  
HETATM    7  H   UNL     1      -9.473   5.828  66.078  1.00  0.00     0.000 HD 
HETATM    8  C   UNL     1      -9.729   7.718  67.962  1.00  0.00    -0.176 C  
HETATM    9  C   UNL     1      -7.720   7.881  69.359  1.00  0.00    -0.105 C  
HETATM   10  C   UNL     1      -7.424   6.888  68.272  1.00  0.00    -0.099 C  
HETATM   11  O   UNL     1      -6.552   8.619  69.664  1.00  0.00    -0.039 OA 
HETATM   12  O   UNL     1      -8.617   6.078  66.407  1.00  0.00    -0.121 OA 
HETATM   13  H   UNL     1      -5.863   8.078  70.033  1.00  0.00     0.000 HD 
HETATM   14  C   UNL     1      -8.787   6.490  67.749  1.00  0.00    -0.113 C  
BRANCH   8  15
HETATM   15  C   UNL     1     -10.397   8.270  66.662  1.00  0.00    -0.293 C  
BRANCH  15  16
HETATM   16  C   UNL     1      -9.473   9.020  65.719  1.00  0.00    -0.305 C  
HETATM   17  C   UNL     1      -9.111  10.318  65.665  1.00  0.00    -0.208 C  
BRANCH  17  18
HETATM   18  C   UNL     1      -9.540  11.455  66.546  1.00  0.00    -0.220 C  
BRANCH  18  19
HETATM   19  C   UNL     1     -11.056  11.701  66.485  1.00  0.00    -0.357 C  
BRANCH  19  20
HETATM   20  C   UNL     1     -11.515  12.495  65.269  1.00  0.00    -0.374 C  
BRANCH  20  21
HETATM   21  C   UNL     1     -12.449  13.596  65.665  1.00  0.00    -0.496 C  
HETATM   22  O   UNL     1     -13.064  14.335  64.907  1.00  0.00    -0.645 OA 
BRANCH  21  23
HETATM   23  O   UNL     1     -12.389  13.733  67.018  1.00  0.00    -0.378 OA 
BRANCH  23  24
HETATM   24  C   UNL     1     -12.124  15.078  67.359  1.00  0.00     0.104 C  
BRANCH  24  25
HETATM   25  C   UNL     1     -10.733  15.521  66.961  1.00  0.00    -0.321 C  
BRANCH  25  26
HETATM   26  C   UNL     1      -9.950  16.134  68.119  1.00  0.00    -0.230 C  
BRANCH  26  27
HETATM   27  C   UNL     1     -10.251  17.614  68.396  1.00  0.00    -0.381 C  
BRANCH  27  28
HETATM   28  O   UNL     1      -9.958  18.367  67.239  1.00  0.00    -0.309 OA 
HETATM   29  N   UNL     1      -8.873  19.254  67.434  1.00  0.00    -0.292 N  
HETATM   30  O   UNL     1      -8.656  19.959  66.445  1.00  0.00    -0.335 OA 
HETATM   31  O   UNL     1      -8.305  19.224  68.518  1.00  0.00    -0.344 OA 
ENDBRANCH  27  28
ENDBRANCH  26  27
ENDBRANCH  25  26
ENDBRANCH  24  25
ENDBRANCH  23  24
ENDBRANCH  21  23
ENDBRANCH  20  21
ENDBRANCH  19  20
ENDBRANCH  18  19
ENDBRANCH  17  18
ENDBRANCH  15  16
ENDBRANCH   8  15
ENDBRANCH   5   6
ENDBRANCH   4   5
ENDBRANCH   2   4
BRANCH   2  32
HETATM   32  C   UNL     1     -11.572   8.814  71.873  1.00  0.00    -0.432 C  
BRANCH  32  33
HETATM   33  C   UNL     1     -12.011   7.528  71.183  1.00  0.00    -0.334 C  
BRANCH  33  34
HETATM   34  C   UNL     1     -10.914   6.519  71.275  1.00  0.00    -0.309 A  
HETATM   35  C   UNL     1      -8.792   5.833  72.209  1.00  0.00    -0.135 A  
HETATM   36  C   UNL     1      -9.831   4.534  70.451  1.00  0.00    -0.302 A  
HETATM   37  C   UNL     1      -9.858   6.727  72.174  1.00  0.00    -0.159 A  
HETATM   38  C   UNL     1     -10.898   5.423  70.412  1.00  0.00    -0.208 A  
HETATM   39  C   UNL     1      -8.779   4.738  71.347  1.00  0.00    -0.143 A  
ENDBRANCH  33  34
ENDBRANCH  32  33
ENDBRANCH   2  32
TORSDOF 18
ENDMDL
MODEL      222
REMARK 921   NORMALIZED FREE ENERGY PREDICTED BY IDOCK:   -4.08 KCAL/MOL
REMARK 922        TOTAL FREE ENERGY PREDICTED BY IDOCK:  -13.15 KCAL/MOL
REMARK 923 INTER-LIGAND FREE ENERGY PREDICTED BY IDOCK:  -10.25 KCAL/MOL
REMARK 924 INTRA-LIGAND FREE ENERGY PREDICTED BY IDOCK:   -2.90 KCAL/MOL
REMARK 927      BINDING AFFINITY PREDICTED BY RF-SCORE:    0.00 PKD
ROOT
HETATM    1  O   UNL     1      -8.288   8.233  67.266  1.00  0.00    -0.122 OA 
HETATM    2  C   UNL     1      -9.332   8.827  68.035  1.00  0.00    -0.142 C  
HETATM    3  H   UNL     1      -7.595   8.865  67.110  1.00  0.00     0.000 HD 
ENDROOT
BRANCH   2   4
HETATM    4  C   UNL     1     -10.455   7.803  68.287  1.00  0.00    -0.215 C  
BRANCH   4   5
HETATM    5  C   UNL     1     -10.813   6.921  67.086  1.00  0.00    -0.447 C  
BRANCH   5   6
HETATM    6  C   UNL     1     -10.654   5.396  67.287  1.00  0.00    -0.250 C  
HETATM    7  H   UNL     1      -8.414   2.576  69.079  1.00  0.00     0.000 HD 
HETATM    8  C   UNL     1      -9.527   4.880  68.280  1.00  0.00    -0.182 C  
HETATM    9  C   UNL     1     -10.265   4.765  65.944  1.00  0.00    -0.258 C  
HETATM   10  C   UNL     1      -9.774   3.398  66.320  1.00  0.00     0.019 C  
HETATM   11  O   UNL     1     -11.362   4.653  65.057  1.00  0.00    -0.958 OA 
HETATM   12  O   UNL     1      -8.943   2.430  68.303  1.00  0.00    -0.105 OA 
HETATM   13  H   UNL     1     -11.121   4.262  64.225  1.00  0.00     0.000 HD 
HETATM   14  C   UNL     1      -8.931   3.631  67.556  1.00  0.00    -0.140 C  
BRANCH   8  15
HETATM   15  C   UNL     1      -9.990   4.632  69.751  1.00  0.00    -0.295 C  
BRANCH  15  16
HETATM   16  C   UNL     1      -9.247   5.421  70.814  1.00  0.00    -0.183 C  
HETATM   17  C   UNL     1      -9.636   5.887  72.018  1.00  0.00    -0.167 C  
BRANCH  17  18
HETATM   18  C   UNL     1     -10.976   5.773  72.687  1.00  0.00    -0.311 C  
BRANCH  18  19
HETATM   19  C   UNL     1     -12.033   6.676  72.032  1.00  0.00    -0.361 C  
BRANCH  19  20
HETATM   20  C   UNL     1     -12.013   8.120  72.517  1.00  0.00    -0.410 C  
BRANCH  20  21
HETATM   21  C   UNL     1     -11.375   9.019  71.504  1.00  0.00    -0.346 C  
HETATM   22  O   UNL     1     -10.191   9.325  71.448  1.00  0.00    -0.320 OA 
BRANCH  21  23
HETATM   23  O   UNL     1     -12.362   9.557  70.736  1.00  0.00    -0.258 OA 
BRANCH  23  24
HETATM   24  C   UNL     1     -13.077  10.527  71.472  1.00  0.00    -0.430 C  
BRANCH  24  25
HETATM   25  C   UNL     1     -12.592  11.936  71.213  1.00  0.00    -0.383 C  
BRANCH  25  26
HETATM   26  C   UNL     1     -13.294  12.976  72.083  1.00  0.00    -0.622 C  
BRANCH  26  27
HETATM   27  C   UNL     1     -12.662  14.375  72.060  1.00  0.00    -0.328 C  
BRANCH  27  28
HETATM   28  O   UNL     1     -12.964  14.996  70.829  1.00  0.00    -0.373 OA 
HETATM   29  N   UNL     1     -11.803  15.401  70.129  1.00  0.00    -0.309 N  
HETATM   30  O   UNL     1     -12.067  16.001  69.084  1.00  0.00    -0.293 OA 
HETATM   31  O   UNL     1     -10.719  15.126  70.626  1.00  0.00    -0.241 OA 
ENDBRANCH  27  28
ENDBRANCH  26  27
ENDBRANCH  25  26
ENDBRANCH  24  25
ENDBRANCH  23  24
ENDBRANCH  21  23
ENDBRANCH  20  21
ENDBRANCH  19  20
ENDBRANCH  18  19
ENDBRANCH  17  18
ENDBRANCH  15  16
ENDBRANCH   8  15
ENDBRANCH   5   6
ENDBRANCH   4   5
ENDBRANCH   2   4
BRANCH   2  32
HETATM   32  C   UNL     1      -9.835  10.023  67.238  1.00  0.00    -0.225 C  
BRANCH  32  33
HETATM   33  C   UNL     1     -10.395  11.111  68.147  1.00  0.00    -0.207 C  
BRANCH  33  34
HETATM   34  C   UNL     1      -9.948  12.447  67.651  1.00  0.00    -0.200 A  
HETATM   35  C   UNL     1      -8.404  14.304  67.781  1.00  0.00    -0.174 A  
HETATM   36  C   UNL     1     -10.346  14.427  66.342  1.00  0.00    -0.289 A  
HETATM   37  C   UNL     1      -8.783  13.025  68.179  1.00  0.00    -0.190 A  
HETATM   38  C   UNL     1     -10.729  13.150  66.735  1.00  0.00    -0.274 A  
HETATM   39  C   UNL     1      -9.185  15.003  66.863  1.00  0.00    -0.265 A  
ENDBRANCH  33  34
ENDBRANCH  32  33
ENDBRANCH   2  32
TORSDOF 18
ENDMDL
MODEL      223
REMARK 921   NORMALIZED FREE ENERGY PREDICTED BY IDOCK:   -4.07 KCAL/MOL
REMARK 922        TOTAL FREE ENERGY PREDICTED BY IDOCK:  -13.15 KCAL/MOL
REMARK 923 INTER-LIGAND FREE ENERGY PREDICTED BY IDOCK:   -8.77 KCAL/MOL
REMARK 924 INTRA-LIGAND FREE ENERGY PREDICTED BY IDOCK:   -4.38 KCAL/MOL
REMARK 927      BINDING AFFINITY PREDICTED BY RF-SCORE:    0.00 PKD
ROOT
HETATM    1  O   UNL     1     -12.314  14.463  66.962  1.00  0.00    -0.579 OA 
HETATM    2  C   UNL     1     -12.125  13.112  66.547  1.00  0.00    -0.358 C  
HETATM    3  H   UNL     1     -12.383  15.032  66.204  1.00  0.00     0.000 HD 
ENDROOT
BRANCH   2   4
HETATM    4  C   UNL     1     -12.014  12.189  67.776  1.00  0.00    -0.198 C  
BRANCH   4   5
HETATM    5  C   UNL     1     -10.720  12.335  68.584  1.00  0.00    -0.261 C  
BRANCH   5   6
HETATM    6  C   UNL     1     -10.447  11.237  69.639  1.00  0.00     0.081 C  
HETATM    7  H   UNL     1      -8.802   7.609  70.195  1.00  0.00     0.000 HD 
HETATM    8  C   UNL     1      -9.586   9.975  69.208  1.00  0.00    -0.227 C  
HETATM    9  C   UNL     1     -11.788  10.628  70.068  1.00  0.00    -0.322 C  
HETATM   10  C   UNL     1     -11.396   9.362  70.772  1.00  0.00    -0.363 C  
HETATM   11  O   UNL     1     -12.508  11.465  70.953  1.00  0.00    -0.370 OA 
HETATM   12  O   UNL     1      -9.488   7.978  70.740  1.00  0.00    -0.160 OA 
HETATM   13  H   UNL     1     -13.339  11.088  71.218  1.00  0.00     0.000 HD 
HETATM   14  C   UNL     1     -10.304   8.774  69.904  1.00  0.00    -0.206 C  
BRANCH   8  15
HETATM   15  C   UNL     1      -8.053  10.078  69.488  1.00  0.00    -0.166 C  
BRANCH  15  16
HETATM   16  C   UNL     1      -7.153   9.919  68.276  1.00  0.00    -0.076 C  
HETATM   17  C   UNL     1      -6.870  10.753  67.255  1.00  0.00    -0.081 C  
BRANCH  17  18
HETATM   18  C   UNL     1      -7.392  12.137  66.995  1.00  0.00    -0.072 C  
BRANCH  18  19
HETATM   19  C   UNL     1      -6.703  13.195  67.871  1.00  0.00    -0.138 C  
BRANCH  19  20
HETATM   20  C   UNL     1      -7.362  14.567  67.834  1.00  0.00    -0.166 C  
BRANCH  20  21
HETATM   21  C   UNL     1      -6.378  15.627  67.445  1.00  0.00    -0.109 C  
HETATM   22  O   UNL     1      -5.199  15.454  67.164  1.00  0.00    -0.304 OA 
BRANCH  21  23
HETATM   23  O   UNL     1      -6.980  16.838  67.596  1.00  0.00    -0.125 OA 
BRANCH  23  24
HETATM   24  C   UNL     1      -7.529  17.266  66.367  1.00  0.00    -0.301 C  
BRANCH  24  25
HETATM   25  C   UNL     1      -8.802  18.066  66.539  1.00  0.00    -0.276 C  
BRANCH  25  26
HETATM   26  C   UNL     1     -10.061  17.207  66.448  1.00  0.00    -0.326 C  
BRANCH  26  27
HETATM   27  C   UNL     1     -10.902  17.149  67.731  1.00  0.00    -0.270 C  
BRANCH  27  28
HETATM   28  O   UNL     1     -10.190  16.431  68.715  1.00  0.00    -0.230 OA 
HETATM   29  N   UNL     1     -11.046  15.818  69.661  1.00  0.00    -0.280 N  
HETATM   30  O   UNL     1     -10.424  15.244  70.559  1.00  0.00    -0.242 OA 
HETATM   31  O   UNL     1     -12.253  15.932  69.489  1.00  0.00    -0.294 OA 
ENDBRANCH  27  28
ENDBRANCH  26  27
ENDBRANCH  25  26
ENDBRANCH  24  25
ENDBRANCH  23  24
ENDBRANCH  21  23
ENDBRANCH  20  21
ENDBRANCH  19  20
ENDBRANCH  18  19
ENDBRANCH  17  18
ENDBRANCH  15  16
ENDBRANCH   8  15
ENDBRANCH   5   6
ENDBRANCH   4   5
ENDBRANCH   2   4
BRANCH   2  32
HETATM   32  C   UNL     1     -10.853  13.084  65.712  1.00  0.00    -0.292 C  
BRANCH  32  33
HETATM   33  C   UNL     1     -11.063  12.356  64.389  1.00  0.00    -0.381 C  
BRANCH  33  34
HETATM   34  C   UNL     1     -10.267  11.092  64.390  1.00  0.00    -0.390 A  
HETATM   35  C   UNL     1      -9.425   9.166  65.583  1.00  0.00    -0.309 A  
HETATM   36  C   UNL     1      -8.702   9.611  63.318  1.00  0.00    -0.239 A  
HETATM   37  C   UNL     1     -10.228  10.302  65.548  1.00  0.00    -0.308 A  
HETATM   38  C   UNL     1      -9.502  10.747  63.277  1.00  0.00    -0.353 A  
HETATM   39  C   UNL     1      -8.663   8.821  64.469  1.00  0.00    -0.078 A  
ENDBRANCH  33  34
ENDBRANCH  32  33
ENDBRANCH   2  32
TORSDOF 18
ENDMDL
MODEL      224
REMARK 921   NORMALIZED FREE ENERGY PREDICTED BY IDOCK:   -4.06 KCAL/MOL
REMARK 922        TOTAL FREE ENERGY PREDICTED BY IDOCK:  -13.11 KCAL/MOL
REMARK 923 INTER-LIGAND FREE ENERGY PREDICTED BY IDOCK:   -9.57 KCAL/MOL
REMARK 924 INTRA-LIGAND FREE ENERGY PREDICTED BY IDOCK:   -3.54 KCAL/MOL
REMARK 927      BINDING AFFINITY PREDICTED BY RF-SCORE:    0.00 PKD
ROOT
HETATM    1  O   UNL     1      -7.348   9.528  69.961  1.00  0.00    -0.083 OA 
HETATM    2  C   UNL     1      -8.497   9.446  69.120  1.00  0.00    -0.134 C  
HETATM    3  H   UNL     1      -6.618   9.068  69.563  1.00  0.00     0.000 HD 
ENDROOT
BRANCH   2   4
HETATM    4  C   UNL     1      -9.682  10.191  69.765  1.00  0.00    -0.232 C  
BRANCH   4   5
HETATM    5  C   UNL     1     -10.894  10.402  68.850  1.00  0.00    -0.273 C  
BRANCH   5   6
HETATM    6  C   UNL     1     -11.995  11.347  69.384  1.00  0.00    -0.407 C  
HETATM    7  H   UNL     1     -12.752  15.126  70.535  1.00  0.00     0.000 HD 
HETATM    8  C   UNL     1     -11.650  12.887  69.556  1.00  0.00    -0.348 C  
HETATM    9  C   UNL     1     -12.373  10.903  70.803  1.00  0.00    -0.390 C  
HETATM   10  C   UNL     1     -13.137  12.073  71.352  1.00  0.00    -0.295 C  
HETATM   11  O   UNL     1     -13.192   9.749  70.813  1.00  0.00    -0.576 OA 
HETATM   12  O   UNL     1     -13.248  14.367  70.820  1.00  0.00    -0.353 OA 
HETATM   13  H   UNL     1     -13.426   9.475  71.692  1.00  0.00     0.000 HD 
HETATM   14  C   UNL     1     -12.346  13.282  70.897  1.00  0.00    -0.329 C  
BRANCH   8  15
HETATM   15  C   UNL     1     -12.006  13.796  68.336  1.00  0.00    -0.395 C  
BRANCH  15  16
HETATM   16  C   UNL     1     -12.180  13.076  67.011  1.00  0.00    -0.217 C  
HETATM   17  C   UNL     1     -11.322  12.848  65.997  1.00  0.00    -0.354 C  
BRANCH  17  18
HETATM   18  C   UNL     1      -9.886  13.267  65.863  1.00  0.00    -0.241 C  
BRANCH  18  19
HETATM   19  C   UNL     1      -8.937  12.359  66.662  1.00  0.00    -0.184 C  
BRANCH  19  20
HETATM   20  C   UNL     1      -8.395  12.987  67.939  1.00  0.00    -0.170 C  
BRANCH  20  21
HETATM   21  C   UNL     1      -7.045  13.592  67.711  1.00  0.00    -0.161 C  
HETATM   22  O   UNL     1      -6.103  13.068  67.127  1.00  0.00    -0.307 OA 
BRANCH  21  23
HETATM   23  O   UNL     1      -6.989  14.771  68.389  1.00  0.00    -0.102 OA 
BRANCH  23  24
HETATM   24  C   UNL     1      -6.636  15.820  67.513  1.00  0.00    -0.183 C  
BRANCH  24  25
HETATM   25  C   UNL     1      -7.571  17.006  67.610  1.00  0.00    -0.180 C  
BRANCH  25  26
HETATM   26  C   UNL     1      -9.036  16.598  67.740  1.00  0.00    -0.212 C  
BRANCH  26  27
HETATM   27  C   UNL     1     -10.044  17.605  67.166  1.00  0.00    -0.328 C  
BRANCH  27  28
HETATM   28  O   UNL     1      -9.360  18.784  66.803  1.00  0.00    -0.297 OA 
HETATM   29  N   UNL     1      -9.717  19.886  67.615  1.00  0.00    -0.364 N  
HETATM   30  O   UNL     1      -9.169  20.933  67.258  1.00  0.00    -0.328 OA 
HETATM   31  O   UNL     1     -10.501  19.683  68.532  1.00  0.00    -0.392 OA 
ENDBRANCH  27  28
ENDBRANCH  26  27
ENDBRANCH  25  26
ENDBRANCH  24  25
ENDBRANCH  23  24
ENDBRANCH  21  23
ENDBRANCH  20  21
ENDBRANCH  19  20
ENDBRANCH  18  19
ENDBRANCH  17  18
ENDBRANCH  15  16
ENDBRANCH   8  15
ENDBRANCH   5   6
ENDBRANCH   4   5
ENDBRANCH   2   4
BRANCH   2  32
HETATM   32  C   UNL     1      -8.801   7.966  68.937  1.00  0.00    -0.142 C  
BRANCH  32  33
HETATM   33  C   UNL     1      -8.582   7.182  70.226  1.00  0.00    -0.143 C  
BRANCH  33  34
HETATM   34  C   UNL     1      -9.901   6.918  70.874  1.00  0.00    -0.193 A  
HETATM   35  C   UNL     1     -12.274   6.506  70.668  1.00  0.00    -0.163 A  
HETATM   36  C   UNL     1     -11.276   6.832  72.848  1.00  0.00    -0.234 A  
HETATM   37  C   UNL     1     -11.027   6.673  70.074  1.00  0.00    -0.363 A  
HETATM   38  C   UNL     1     -10.028   7.000  72.260  1.00  0.00    -0.188 A  
HETATM   39  C   UNL     1     -12.398   6.586  72.053  1.00  0.00    -0.308 A  
ENDBRANCH  33  34
ENDBRANCH  32  33
ENDBRANCH   2  32
TORSDOF 18
ENDMDL
MODEL      225
REMARK 921   NORMALIZED FREE ENERGY PREDICTED BY IDOCK:   -4.06 KCAL/MOL
REMARK 922        TOTAL FREE ENERGY PREDICTED BY IDOCK:  -13.11 KCAL/MOL
REMARK 923 INTER-LIGAND FREE ENERGY PREDICTED BY IDOCK:   -9.70 KCAL/MOL
REMARK 924 INTRA-LIGAND FREE ENERGY PREDICTED BY IDOCK:   -3.41 KCAL/MOL
REMARK 927      BINDING AFFINITY PREDICTED BY RF-SCORE:    0.00 PKD
ROOT
HETATM    1  O   UNL     1     -11.199   6.320  66.682  1.00  0.00    -0.724 OA 
HETATM    2  C   UNL     1     -10.928   6.137  68.070  1.00  0.00    -0.305 C  
HETATM    3  H   UNL     1     -11.534   5.515  66.304  1.00  0.00     0.000 HD 
ENDROOT
BRANCH   2   4
HETATM    4  C   UNL     1     -10.385   7.444  68.682  1.00  0.00    -0.215 C  
BRANCH   4   5
HETATM    5  C   UNL     1     -11.145   7.951  69.911  1.00  0.00    -0.123 C  
BRANCH   5   6
HETATM    6  C   UNL     1     -10.281   8.508  71.067  1.00  0.00    -0.255 C  
HETATM    7  H   UNL     1      -6.500   8.980  72.355  1.00  0.00     0.000 HD 
HETATM    8  C   UNL     1      -8.701   8.473  70.912  1.00  0.00    -0.196 C  
HETATM    9  C   UNL     1     -10.537   7.660  72.320  1.00  0.00    -0.246 C  
HETATM   10  C   UNL     1      -9.406   8.025  73.236  1.00  0.00    -0.344 C  
HETATM   11  O   UNL     1     -11.773   7.964  72.939  1.00  0.00    -0.578 OA 
HETATM   12  O   UNL     1      -7.262   8.953  72.922  1.00  0.00    -0.342 OA 
HETATM   13  H   UNL     1     -11.932   7.439  73.715  1.00  0.00     0.000 HD 
HETATM   14  C   UNL     1      -8.192   8.067  72.332  1.00  0.00    -0.145 C  
BRANCH   8  15
HETATM   15  C   UNL     1      -8.054   9.768  70.324  1.00  0.00    -0.181 C  
BRANCH  15  16
HETATM   16  C   UNL     1      -7.690   9.708  68.852  1.00  0.00    -0.077 C  
HETATM   17  C   UNL     1      -8.296  10.212  67.759  1.00  0.00    -0.114 C  
BRANCH  17  18
HETATM   18  C   UNL     1      -9.571  11.001  67.666  1.00  0.00    -0.181 C  
BRANCH  18  19
HETATM   19  C   UNL     1      -9.316  12.515  67.594  1.00  0.00    -0.189 C  
BRANCH  19  20
HETATM   20  C   UNL     1      -9.732  13.161  66.279  1.00  0.00    -0.269 C  
BRANCH  20  21
HETATM   21  C   UNL     1      -9.783  14.652  66.403  1.00  0.00    -0.295 C  
HETATM   22  O   UNL     1      -9.920  15.453  65.487  1.00  0.00    -0.337 OA 
BRANCH  21  23
HETATM   23  O   UNL     1      -9.504  14.977  67.695  1.00  0.00    -0.194 OA 
BRANCH  23  24
HETATM   24  C   UNL     1      -9.656  16.368  67.890  1.00  0.00    -0.228 C  
BRANCH  24  25
HETATM   25  C   UNL     1     -10.712  16.704  68.920  1.00  0.00    -0.337 C  
BRANCH  25  26
HETATM   26  C   UNL     1     -10.718  15.738  70.102  1.00  0.00    -0.354 C  
BRANCH  26  27
HETATM   27  C   UNL     1     -11.591  16.169  71.289  1.00  0.00    -0.413 C  
BRANCH  27  28
HETATM   28  O   UNL     1     -12.023  15.020  71.984  1.00  0.00    -0.358 OA 
HETATM   29  N   UNL     1     -13.430  14.869  71.957  1.00  0.00    -0.353 N  
HETATM   30  O   UNL     1     -13.814  13.901  72.618  1.00  0.00    -0.666 OA 
HETATM   31  O   UNL     1     -14.074  15.687  71.314  1.00  0.00    -0.560 OA 
ENDBRANCH  27  28
ENDBRANCH  26  27
ENDBRANCH  25  26
ENDBRANCH  24  25
ENDBRANCH  23  24
ENDBRANCH  21  23
ENDBRANCH  20  21
ENDBRANCH  19  20
ENDBRANCH  18  19
ENDBRANCH  17  18
ENDBRANCH  15  16
ENDBRANCH   8  15
ENDBRANCH   5   6
ENDBRANCH   4   5
ENDBRANCH   2   4
BRANCH   2  32
HETATM   32  C   UNL     1      -9.912   5.009  68.172  1.00  0.00    -0.190 C  
BRANCH  32  33
HETATM   33  C   UNL     1      -8.635   5.460  68.870  1.00  0.00    -0.099 C  
BRANCH  33  34
HETATM   34  C   UNL     1      -8.586   4.871  70.242  1.00  0.00    -0.111 A  
HETATM   35  C   UNL     1      -9.746   3.930  72.143  1.00  0.00    -0.225 A  
HETATM   36  C   UNL     1      -7.372   4.386  72.262  1.00  0.00    -0.068 A  
HETATM   37  C   UNL     1      -9.769   4.407  70.835  1.00  0.00    -0.267 A  
HETATM   38  C   UNL     1      -7.390   4.863  70.957  1.00  0.00    -0.061 A  
HETATM   39  C   UNL     1      -8.549   3.921  72.855  1.00  0.00    -0.099 A  
ENDBRANCH  33  34
ENDBRANCH  32  33
ENDBRANCH   2  32
TORSDOF 18
ENDMDL
MODEL      226
REMARK 921   NORMALIZED FREE ENERGY PREDICTED BY IDOCK:   -4.05 KCAL/MOL
REMARK 922        TOTAL FREE ENERGY PREDICTED BY IDOCK:  -13.10 KCAL/MOL
REMARK 923 INTER-LIGAND FREE ENERGY PREDICTED BY IDOCK:  -10.25 KCAL/MOL
REMARK 924 INTRA-LIGAND FREE ENERGY PREDICTED BY IDOCK:   -2.85 KCAL/MOL
REMARK 927      BINDING AFFINITY PREDICTED BY RF-SCORE:    0.00 PKD
ROOT
HETATM    1  O   UNL     1      -8.014   8.704  72.140  1.00  0.00    -0.277 OA 
HETATM    2  C   UNL     1      -9.165   8.349  71.376  1.00  0.00    -0.186 C  
HETATM    3  H   UNL     1      -7.372   8.005  72.110  1.00  0.00     0.000 HD 
ENDROOT
BRANCH   2   4
HETATM    4  C   UNL     1     -10.207   9.484  71.425  1.00  0.00    -0.170 C  
BRANCH   4   5
HETATM    5  C   UNL     1     -11.127   9.574  70.203  1.00  0.00    -0.294 C  
BRANCH   5   6
HETATM    6  C   UNL     1     -12.060  10.806  70.141  1.00  0.00    -0.427 C  
HETATM    7  H   UNL     1     -12.204  14.726  69.249  1.00  0.00     0.000 HD 
HETATM    8  C   UNL     1     -11.479  12.163  69.556  1.00  0.00    -0.334 C  
HETATM    9  C   UNL     1     -12.472  11.179  71.571  1.00  0.00    -0.250 C  
HETATM   10  C   UNL     1     -13.035  12.563  71.432  1.00  0.00    -0.347 C  
HETATM   11  O   UNL     1     -13.458  10.311  72.098  1.00  0.00    -0.513 OA 
HETATM   12  O   UNL     1     -12.805  14.286  69.840  1.00  0.00    -0.180 OA 
HETATM   13  H   UNL     1     -13.713  10.542  72.983  1.00  0.00     0.000 HD 
HETATM   14  C   UNL     1     -12.078  13.263  70.490  1.00  0.00    -0.314 C  
BRANCH   8  15
HETATM   15  C   UNL     1     -11.717  12.394  68.030  1.00  0.00    -0.414 C  
BRANCH  15  16
HETATM   16  C   UNL     1     -11.428  11.203  67.134  1.00  0.00    -0.163 C  
HETATM   17  C   UNL     1     -10.329  10.854  66.436  1.00  0.00    -0.306 C  
BRANCH  17  18
HETATM   18  C   UNL     1      -9.016  11.574  66.319  1.00  0.00    -0.199 C  
BRANCH  18  19
HETATM   19  C   UNL     1      -7.993  11.093  67.360  1.00  0.00    -0.125 C  
BRANCH  19  20
HETATM   20  C   UNL     1      -8.036  11.852  68.680  1.00  0.00    -0.086 C  
BRANCH  20  21
HETATM   21  C   UNL     1      -6.818  12.705  68.851  1.00  0.00    -0.097 C  
HETATM   22  O   UNL     1      -5.685  12.311  69.103  1.00  0.00    -0.064 OA 
BRANCH  21  23
HETATM   23  O   UNL     1      -7.208  14.009  68.823  1.00  0.00    -0.105 OA 
BRANCH  23  24
HETATM   24  C   UNL     1      -6.991  14.554  67.538  1.00  0.00    -0.164 C  
BRANCH  24  25
HETATM   25  C   UNL     1      -8.016  15.603  67.166  1.00  0.00    -0.254 C  
BRANCH  25  26
HETATM   26  C   UNL     1      -9.452  15.098  67.278  1.00  0.00    -0.214 C  
BRANCH  26  27
HETATM   27  C   UNL     1     -10.510  15.998  66.623  1.00  0.00    -0.304 C  
BRANCH  27  28
HETATM   28  O   UNL     1     -11.356  15.204  65.820  1.00  0.00    -0.324 OA 
HETATM   29  N   UNL     1     -11.648  15.813  64.577  1.00  0.00    -0.333 N  
HETATM   30  O   UNL     1     -12.439  15.151  63.901  1.00  0.00    -0.768 OA 
HETATM   31  O   UNL     1     -11.110  16.885  64.332  1.00  0.00    -1.128 OA 
ENDBRANCH  27  28
ENDBRANCH  26  27
ENDBRANCH  25  26
ENDBRANCH  24  25
ENDBRANCH  23  24
ENDBRANCH  21  23
ENDBRANCH  20  21
ENDBRANCH  19  20
ENDBRANCH  18  19
ENDBRANCH  17  18
ENDBRANCH  15  16
ENDBRANCH   8  15
ENDBRANCH   5   6
ENDBRANCH   4   5
ENDBRANCH   2   4
BRANCH   2  32
HETATM   32  C   UNL     1      -9.711   7.063  71.980  1.00  0.00    -0.166 C  
BRANCH  32  33
HETATM   33  C   UNL     1      -9.775   5.939  70.952  1.00  0.00    -0.211 C  
BRANCH  33  34
HETATM   34  C   UNL     1      -9.930   4.632  71.658  1.00  0.00    -0.262 A  
HETATM   35  C   UNL     1      -9.677   2.228  71.662  1.00  0.00    -0.218 A  
HETATM   36  C   UNL     1     -10.818   3.339  73.483  1.00  0.00    -0.320 A  
HETATM   37  C   UNL     1      -9.465   3.459  71.047  1.00  0.00    -0.227 A  
HETATM   38  C   UNL     1     -10.609   4.571  72.875  1.00  0.00    -0.275 A  
HETATM   39  C   UNL     1     -10.353   2.169  72.879  1.00  0.00    -0.229 A  
ENDBRANCH  33  34
ENDBRANCH  32  33
ENDBRANCH   2  32
TORSDOF 18
ENDMDL
MODEL      227
REMARK 921   NORMALIZED FREE ENERGY PREDICTED BY IDOCK:   -4.04 KCAL/MOL
REMARK 922        TOTAL FREE ENERGY PREDICTED BY IDOCK:  -13.08 KCAL/MOL
REMARK 923 INTER-LIGAND FREE ENERGY PREDICTED BY IDOCK:   -9.28 KCAL/MOL
REMARK 924 INTRA-LIGAND FREE ENERGY PREDICTED BY IDOCK:   -3.80 KCAL/MOL
REMARK 927      BINDING AFFINITY PREDICTED BY RF-SCORE:    0.00 PKD
ROOT
HETATM    1  O   UNL     1     -12.430  14.596  67.024  1.00  0.00    -0.488 OA 
HETATM    2  C   UNL     1     -12.255  13.279  66.506  1.00  0.00    -0.327 C  
HETATM    3  H   UNL     1     -12.535  15.217  66.312  1.00  0.00     0.000 HD 
ENDROOT
BRANCH   2   4
HETATM    4  C   UNL     1     -12.085  12.272  67.661  1.00  0.00    -0.032 C  
BRANCH   4   5
HETATM    5  C   UNL     1     -10.755  12.366  68.416  1.00  0.00    -0.254 C  
BRANCH   5   6
HETATM    6  C   UNL     1     -10.459  11.229  69.421  1.00  0.00    -0.089 C  
HETATM    7  H   UNL     1      -8.784   7.593  69.807  1.00  0.00     0.000 HD 
HETATM    8  C   UNL     1      -9.598   9.990  68.927  1.00  0.00    -0.181 C  
HETATM    9  C   UNL     1     -11.789  10.595  69.846  1.00  0.00    -0.315 C  
HETATM   10  C   UNL     1     -11.380   9.304  70.493  1.00  0.00    -0.306 C  
HETATM   11  O   UNL     1     -12.501  11.391  70.775  1.00  0.00    -0.360 OA 
HETATM   12  O   UNL     1      -9.464   7.935  70.376  1.00  0.00    -0.162 OA 
HETATM   13  H   UNL     1     -13.324  10.998  71.038  1.00  0.00     0.000 HD 
HETATM   14  C   UNL     1     -10.297   8.759  69.585  1.00  0.00    -0.213 C  
BRANCH   8  15
HETATM   15  C   UNL     1      -8.061  10.093  69.187  1.00  0.00    -0.134 C  
BRANCH  15  16
HETATM   16  C   UNL     1      -7.186  10.123  67.947  1.00  0.00    -0.086 C  
HETATM   17  C   UNL     1      -7.030  11.054  66.984  1.00  0.00    -0.117 C  
BRANCH  17  18
HETATM   18  C   UNL     1      -7.711  12.385  66.838  1.00  0.00     0.016 C  
BRANCH  18  19
HETATM   19  C   UNL     1      -7.108  13.453  67.764  1.00  0.00    -0.158 C  
BRANCH  19  20
HETATM   20  C   UNL     1      -7.993  14.675  67.973  1.00  0.00    -0.137 C  
BRANCH  20  21
HETATM   21  C   UNL     1      -7.246  15.938  67.676  1.00  0.00    -0.159 C  
HETATM   22  O   UNL     1      -6.209  16.033  67.030  1.00  0.00    -0.314 OA 
BRANCH  21  23
HETATM   23  O   UNL     1      -7.835  16.950  68.369  1.00  0.00    -0.208 OA 
BRANCH  23  24
HETATM   24  C   UNL     1      -6.881  17.606  69.178  1.00  0.00    -0.229 C  
BRANCH  24  25
HETATM   25  C   UNL     1      -7.064  19.107  69.202  1.00  0.00    -0.349 C  
BRANCH  25  26
HETATM   26  C   UNL     1      -6.446  19.801  67.990  1.00  0.00    -0.276 C  
BRANCH  26  27
HETATM   27  C   UNL     1      -7.455  20.344  66.968  1.00  0.00    -0.310 C  
BRANCH  27  28
HETATM   28  O   UNL     1      -8.054  19.260  66.292  1.00  0.00    -0.297 OA 
HETATM   29  N   UNL     1      -9.466  19.344  66.281  1.00  0.00    -0.366 N  
HETATM   30  O   UNL     1      -9.994  18.365  65.747  1.00  0.00    -0.523 OA 
HETATM   31  O   UNL     1      -9.978  20.334  66.788  1.00  0.00    -0.442 OA 
ENDBRANCH  27  28
ENDBRANCH  26  27
ENDBRANCH  25  26
ENDBRANCH  24  25
ENDBRANCH  23  24
ENDBRANCH  21  23
ENDBRANCH  20  21
ENDBRANCH  19  20
ENDBRANCH  18  19
ENDBRANCH  17  18
ENDBRANCH  15  16
ENDBRANCH   8  15
ENDBRANCH   5   6
ENDBRANCH   4   5
ENDBRANCH   2   4
BRANCH   2  32
HETATM   32  C   UNL     1     -11.022  13.319  65.615  1.00  0.00    -0.292 C  
BRANCH  32  33
HETATM   33  C   UNL     1     -11.267  12.625  64.281  1.00  0.00    -0.410 C  
BRANCH  33  34
HETATM   34  C   UNL     1     -10.253  11.544  64.092  1.00  0.00    -0.374 A  
HETATM   35  C   UNL     1      -8.583  10.479  62.706  1.00  0.00    -0.218 A  
HETATM   36  C   UNL     1      -9.255   9.472  64.802  1.00  0.00    -0.267 A  
HETATM   37  C   UNL     1      -9.473  11.526  62.927  1.00  0.00    -0.309 A  
HETATM   38  C   UNL     1     -10.145  10.516  65.027  1.00  0.00    -0.390 A  
HETATM   39  C   UNL     1      -8.475   9.453  63.643  1.00  0.00    -0.203 A  
ENDBRANCH  33  34
ENDBRANCH  32  33
ENDBRANCH   2  32
TORSDOF 18
ENDMDL
MODEL      228
REMARK 921   NORMALIZED FREE ENERGY PREDICTED BY IDOCK:   -4.04 KCAL/MOL
REMARK 922        TOTAL FREE ENERGY PREDICTED BY IDOCK:  -13.08 KCAL/MOL
REMARK 923 INTER-LIGAND FREE ENERGY PREDICTED BY IDOCK:   -9.57 KCAL/MOL
REMARK 924 INTRA-LIGAND FREE ENERGY PREDICTED BY IDOCK:   -3.51 KCAL/MOL
REMARK 927      BINDING AFFINITY PREDICTED BY RF-SCORE:    0.00 PKD
ROOT
HETATM    1  O   UNL     1     -13.026   8.558  72.824  1.00  0.00    -0.628 OA 
HETATM    2  C   UNL     1     -11.848   7.818  72.511  1.00  0.00    -0.302 C  
HETATM    3  H   UNL     1     -13.703   7.975  73.148  1.00  0.00     0.000 HD 
ENDROOT
BRANCH   2   4
HETATM    4  C   UNL     1     -10.750   8.764  71.986  1.00  0.00    -0.417 C  
BRANCH   4   5
HETATM    5  C   UNL     1      -9.324   8.409  72.420  1.00  0.00    -0.356 C  
BRANCH   5   6
HETATM    6  C   UNL     1      -8.198   8.759  71.419  1.00  0.00    -0.203 C  
HETATM    7  H   UNL     1      -6.671   7.858  67.809  1.00  0.00     0.000 HD 
HETATM    8  C   UNL     1      -8.205   8.050  69.998  1.00  0.00    -0.118 C  
HETATM    9  C   UNL     1      -6.855   8.333  72.026  1.00  0.00    -0.085 C  
HETATM   10  C   UNL     1      -5.911   8.359  70.859  1.00  0.00    -0.033 C  
HETATM   11  O   UNL     1      -6.403   9.225  73.028  1.00  0.00    -0.305 OA 
HETATM   12  O   UNL     1      -6.176   8.250  68.519  1.00  0.00    -0.050 OA 
HETATM   13  H   UNL     1      -5.572   8.961  73.404  1.00  0.00     0.000 HD 
HETATM   14  C   UNL     1      -6.700   7.735  69.727  1.00  0.00    -0.039 C  
BRANCH   8  15
HETATM   15  C   UNL     1      -8.930   8.836  68.858  1.00  0.00    -0.134 C  
BRANCH  15  16
HETATM   16  C   UNL     1      -9.076  10.330  69.083  1.00  0.00    -0.199 C  
HETATM   17  C   UNL     1      -8.423  11.383  68.552  1.00  0.00    -0.152 C  
BRANCH  17  18
HETATM   18  C   UNL     1      -7.301  11.392  67.553  1.00  0.00    -0.112 C  
BRANCH  18  19
HETATM   19  C   UNL     1      -6.793  12.812  67.259  1.00  0.00    -0.087 C  
BRANCH  19  20
HETATM   20  C   UNL     1      -7.331  13.879  68.204  1.00  0.00    -0.123 C  
BRANCH  20  21
HETATM   21  C   UNL     1      -7.519  15.183  67.492  1.00  0.00    -0.198 C  
HETATM   22  O   UNL     1      -6.645  15.845  66.946  1.00  0.00    -0.282 OA 
BRANCH  21  23
HETATM   23  O   UNL     1      -8.806  15.584  67.679  1.00  0.00    -0.175 OA 
BRANCH  23  24
HETATM   24  C   UNL     1      -9.395  14.854  68.734  1.00  0.00    -0.203 C  
BRANCH  24  25
HETATM   25  C   UNL     1     -10.894  14.711  68.584  1.00  0.00    -0.261 C  
BRANCH  25  26
HETATM   26  C   UNL     1     -11.298  13.452  67.820  1.00  0.00    -0.325 C  
BRANCH  26  27
HETATM   27  C   UNL     1     -12.133  13.699  66.556  1.00  0.00    -0.423 C  
BRANCH  27  28
HETATM   28  O   UNL     1     -11.342  13.424  65.421  1.00  0.00    -0.290 OA 
HETATM   29  N   UNL     1     -12.062  12.739  64.414  1.00  0.00    -0.390 N  
HETATM   30  O   UNL     1     -11.355  12.440  63.448  1.00  0.00    -0.452 OA 
HETATM   31  O   UNL     1     -13.250  12.524  64.614  1.00  0.00    -0.848 OA 
ENDBRANCH  27  28
ENDBRANCH  26  27
ENDBRANCH  25  26
ENDBRANCH  24  25
ENDBRANCH  23  24
ENDBRANCH  21  23
ENDBRANCH  20  21
ENDBRANCH  19  20
ENDBRANCH  18  19
ENDBRANCH  17  18
ENDBRANCH  15  16
ENDBRANCH   8  15
ENDBRANCH   5   6
ENDBRANCH   4   5
ENDBRANCH   2   4
BRANCH   2  32
HETATM   32  C   UNL     1     -12.244   6.788  71.463  1.00  0.00    -0.413 C  
BRANCH  32  33
HETATM   33  C   UNL     1     -11.228   5.655  71.373  1.00  0.00    -0.167 C  
BRANCH  33  34
HETATM   34  C   UNL     1     -10.738   5.542  69.966  1.00  0.00    -0.356 A  
HETATM   35  C   UNL     1     -10.905   6.203  67.647  1.00  0.00    -0.421 A  
HETATM   36  C   UNL     1      -9.404   4.423  68.305  1.00  0.00    -0.199 A  
HETATM   37  C   UNL     1     -11.299   6.358  68.972  1.00  0.00    -0.332 A  
HETATM   38  C   UNL     1      -9.793   4.574  69.631  1.00  0.00    -0.288 A  
HETATM   39  C   UNL     1      -9.958   5.236  67.314  1.00  0.00    -0.207 A  
ENDBRANCH  33  34
ENDBRANCH  32  33
ENDBRANCH   2  32
TORSDOF 18
ENDMDL
MODEL      229
REMARK 921   NORMALIZED FREE ENERGY PREDICTED BY IDOCK:   -4.02 KCAL/MOL
REMARK 922        TOTAL FREE ENERGY PREDICTED BY IDOCK:  -13.04 KCAL/MOL
REMARK 923 INTER-LIGAND FREE ENERGY PREDICTED BY IDOCK:   -9.86 KCAL/MOL
REMARK 924 INTRA-LIGAND FREE ENERGY PREDICTED BY IDOCK:   -3.18 KCAL/MOL
REMARK 927      BINDING AFFINITY PREDICTED BY RF-SCORE:    0.00 PKD
ROOT
HETATM    1  O   UNL     1      -7.177   5.651  68.615  1.00  0.00    -0.073 OA 
HETATM    2  C   UNL     1      -8.527   5.955  68.270  1.00  0.00    -0.114 C  
HETATM    3  H   UNL     1      -7.133   4.812  69.059  1.00  0.00     0.000 HD 
ENDROOT
BRANCH   2   4
HETATM    4  C   UNL     1      -8.597   7.316  67.550  1.00  0.00    -0.122 C  
BRANCH   4   5
HETATM    5  C   UNL     1      -7.338   8.182  67.670  1.00  0.00    -0.093 C  
BRANCH   5   6
HETATM    6  C   UNL     1      -7.350   9.251  68.787  1.00  0.00    -0.075 C  
HETATM    7  H   UNL     1      -6.507  13.097  69.607  1.00  0.00     0.000 HD 
HETATM    8  C   UNL     1      -6.954  10.741  68.409  1.00  0.00    -0.070 C  
HETATM    9  C   UNL     1      -6.310   8.861  69.846  1.00  0.00    -0.038 C  
HETATM   10  C   UNL     1      -6.134  10.114  70.653  1.00  0.00    -0.106 C  
HETATM   11  O   UNL     1      -6.753   7.810  70.684  1.00  0.00    -0.038 OA 
HETATM   12  O   UNL     1      -6.534  12.403  70.255  1.00  0.00    -0.015 OA 
HETATM   13  H   UNL     1      -6.110   7.568  71.339  1.00  0.00     0.000 HD 
HETATM   14  C   UNL     1      -6.091  11.220  69.620  1.00  0.00    -0.102 C  
BRANCH   8  15
HETATM   15  C   UNL     1      -8.146  11.680  68.037  1.00  0.00    -0.139 C  
BRANCH  15  16
HETATM   16  C   UNL     1      -9.461  10.982  67.739  1.00  0.00    -0.169 C  
HETATM   17  C   UNL     1     -10.005  10.554  66.582  1.00  0.00    -0.260 C  
BRANCH  17  18
HETATM   18  C   UNL     1      -9.458  10.656  65.187  1.00  0.00    -0.276 C  
BRANCH  18  19
HETATM   19  C   UNL     1     -10.548  10.985  64.156  1.00  0.00    -0.412 C  
BRANCH  19  20
HETATM   20  C   UNL     1     -10.748  12.474  63.906  1.00  0.00    -0.473 C  
BRANCH  20  21
HETATM   21  C   UNL     1     -12.059  12.941  64.459  1.00  0.00    -0.413 C  
HETATM   22  O   UNL     1     -13.079  12.273  64.573  1.00  0.00    -0.791 OA 
BRANCH  21  23
HETATM   23  O   UNL     1     -11.969  14.281  64.683  1.00  0.00    -0.408 OA 
BRANCH  23  24
HETATM   24  C   UNL     1     -10.666  14.616  65.111  1.00  0.00    -0.414 C  
BRANCH  24  25
HETATM   25  C   UNL     1     -10.547  16.058  65.555  1.00  0.00    -0.415 C  
BRANCH  25  26
HETATM   26  C   UNL     1     -10.018  16.200  66.980  1.00  0.00    -0.259 C  
BRANCH  26  27
HETATM   27  C   UNL     1     -10.783  17.200  67.860  1.00  0.00    -0.355 C  
BRANCH  27  28
HETATM   28  O   UNL     1     -10.761  18.468  67.241  1.00  0.00    -0.419 OA 
HETATM   29  N   UNL     1     -10.246  19.475  68.091  1.00  0.00    -0.426 N  
HETATM   30  O   UNL     1     -10.286  20.594  67.575  1.00  0.00    -0.311 OA 
HETATM   31  O   UNL     1      -9.845  19.132  69.195  1.00  0.00    -0.389 OA 
ENDBRANCH  27  28
ENDBRANCH  26  27
ENDBRANCH  25  26
ENDBRANCH  24  25
ENDBRANCH  23  24
ENDBRANCH  21  23
ENDBRANCH  20  21
ENDBRANCH  19  20
ENDBRANCH  18  19
ENDBRANCH  17  18
ENDBRANCH  15  16
ENDBRANCH   8  15
ENDBRANCH   5   6
ENDBRANCH   4   5
ENDBRANCH   2   4
BRANCH   2  32
HETATM   32  C   UNL     1      -9.318   5.970  69.570  1.00  0.00    -0.151 C  
BRANCH  32  33
HETATM   33  C   UNL     1     -10.813   6.134  69.319  1.00  0.00    -0.418 C  
BRANCH  33  34
HETATM   34  C   UNL     1     -11.352   7.193  70.224  1.00  0.00    -0.305 A  
HETATM   35  C   UNL     1     -11.230   9.445  71.094  1.00  0.00    -0.427 A  
HETATM   36  C   UNL     1     -12.789   7.852  72.038  1.00  0.00    -0.287 A  
HETATM   37  C   UNL     1     -10.787   8.476  70.199  1.00  0.00    -0.238 A  
HETATM   38  C   UNL     1     -12.351   6.882  71.146  1.00  0.00    -0.419 A  
HETATM   39  C   UNL     1     -12.230   9.132  72.013  1.00  0.00    -0.443 A  
ENDBRANCH  33  34
ENDBRANCH  32  33
ENDBRANCH   2  32
TORSDOF 18
ENDMDL
MODEL      230
REMARK 921   NORMALIZED FREE ENERGY PREDICTED BY IDOCK:   -4.02 KCAL/MOL
REMARK 922        TOTAL FREE ENERGY PREDICTED BY IDOCK:  -13.03 KCAL/MOL
REMARK 923 INTER-LIGAND FREE ENERGY PREDICTED BY IDOCK:  -10.79 KCAL/MOL
REMARK 924 INTRA-LIGAND FREE ENERGY PREDICTED BY IDOCK:   -2.24 KCAL/MOL
REMARK 927      BINDING AFFINITY PREDICTED BY RF-SCORE:    0.00 PKD
ROOT
HETATM    1  O   UNL     1      -8.944   8.837  68.203  1.00  0.00    -0.140 OA 
HETATM    2  C   UNL     1      -9.089   8.678  66.793  1.00  0.00    -0.149 C  
HETATM    3  H   UNL     1      -8.390   8.150  68.555  1.00  0.00     0.000 HD 
ENDROOT
BRANCH   2   4
HETATM    4  C   UNL     1      -9.987   9.793  66.222  1.00  0.00    -0.331 C  
BRANCH   4   5
HETATM    5  C   UNL     1      -9.309  11.158  66.064  1.00  0.00    -0.228 C  
BRANCH   5   6
HETATM    6  C   UNL     1     -10.187  12.295  65.491  1.00  0.00    -0.296 C  
HETATM    7  H   UNL     1     -13.697  14.212  65.917  1.00  0.00     0.000 HD 
HETATM    8  C   UNL     1     -11.543  12.649  66.237  1.00  0.00    -0.440 C  
HETATM    9  C   UNL     1     -10.646  11.894  64.083  1.00  0.00    -0.350 C  
HETATM   10  C   UNL     1     -11.763  12.851  63.785  1.00  0.00    -0.557 C  
HETATM   11  O   UNL     1      -9.623  12.037  63.115  1.00  0.00    -0.593 OA 
HETATM   12  O   UNL     1     -13.201  14.171  65.107  1.00  0.00    -0.743 OA 
HETATM   13  H   UNL     1      -9.907  11.789  62.244  1.00  0.00     0.000 HD 
HETATM   14  C   UNL     1     -12.553  12.915  65.075  1.00  0.00    -0.472 C  
BRANCH   8  15
HETATM   15  C   UNL     1     -11.448  13.788  67.302  1.00  0.00    -0.367 C  
BRANCH  15  16
HETATM   16  C   UNL     1     -12.125  13.502  68.630  1.00  0.00    -0.303 C  
HETATM   17  C   UNL     1     -11.983  12.487  69.506  1.00  0.00    -0.329 C  
BRANCH  17  18
HETATM   18  C   UNL     1     -11.090  11.283  69.420  1.00  0.00    -0.316 C  
BRANCH  18  19
HETATM   19  C   UNL     1     -11.513  10.172  70.394  1.00  0.00    -0.400 C  
BRANCH  19  20
HETATM   20  C   UNL     1     -12.667  10.549  71.314  1.00  0.00    -0.532 C  
BRANCH  20  21
HETATM   21  C   UNL     1     -13.221   9.342  72.005  1.00  0.00    -0.447 C  
HETATM   22  O   UNL     1     -14.310   9.258  72.559  1.00  0.00    -0.469 OA 
BRANCH  21  23
HETATM   23  O   UNL     1     -12.247   8.391  72.039  1.00  0.00    -0.319 OA 
BRANCH  23  24
HETATM   24  C   UNL     1     -12.772   7.143  71.637  1.00  0.00    -0.379 C  
BRANCH  24  25
HETATM   25  C   UNL     1     -11.897   5.979  72.048  1.00  0.00    -0.284 C  
BRANCH  25  26
HETATM   26  C   UNL     1     -10.684   5.797  71.139  1.00  0.00    -0.327 C  
BRANCH  26  27
HETATM   27  C   UNL     1      -9.325   6.035  71.812  1.00  0.00    -0.148 C  
BRANCH  27  28
HETATM   28  O   UNL     1      -8.865   7.325  71.474  1.00  0.00    -0.123 OA 
HETATM   29  N   UNL     1      -7.915   7.819  72.399  1.00  0.00    -0.106 N  
HETATM   30  O   UNL     1      -7.559   8.972  72.141  1.00  0.00    -0.344 OA 
HETATM   31  O   UNL     1      -7.577   7.078  73.313  1.00  0.00    -0.080 OA 
ENDBRANCH  27  28
ENDBRANCH  26  27
ENDBRANCH  25  26
ENDBRANCH  24  25
ENDBRANCH  23  24
ENDBRANCH  21  23
ENDBRANCH  20  21
ENDBRANCH  19  20
ENDBRANCH  18  19
ENDBRANCH  17  18
ENDBRANCH  15  16
ENDBRANCH   8  15
ENDBRANCH   5   6
ENDBRANCH   4   5
ENDBRANCH   2   4
BRANCH   2  32
HETATM   32  C   UNL     1      -9.697   7.302  66.568  1.00  0.00    -0.207 C  
BRANCH  32  33
HETATM   33  C   UNL     1      -8.632   6.211  66.544  1.00  0.00    -0.126 C  
BRANCH  33  34
HETATM   34  C   UNL     1      -8.849   5.335  65.354  1.00  0.00    -0.152 A  
HETATM   35  C   UNL     1     -10.086   3.557  64.279  1.00  0.00    -0.196 A  
HETATM   36  C   UNL     1      -8.107   4.476  63.232  1.00  0.00    -0.092 A  
HETATM   37  C   UNL     1      -9.924   4.433  65.348  1.00  0.00    -0.231 A  
HETATM   38  C   UNL     1      -7.941   5.353  64.297  1.00  0.00    -0.118 A  
HETATM   39  C   UNL     1      -9.178   3.579  63.222  1.00  0.00    -0.097 A  
ENDBRANCH  33  34
ENDBRANCH  32  33
ENDBRANCH   2  32
TORSDOF 18
ENDMDL
MODEL      231
REMARK 921   NORMALIZED FREE ENERGY PREDICTED BY IDOCK:   -4.02 KCAL/MOL
REMARK 922        TOTAL FREE ENERGY PREDICTED BY IDOCK:  -13.03 KCAL/MOL
REMARK 923 INTER-LIGAND FREE ENERGY PREDICTED BY IDOCK:  -10.71 KCAL/MOL
REMARK 924 INTRA-LIGAND FREE ENERGY PREDICTED BY IDOCK:   -2.32 KCAL/MOL
REMARK 927      BINDING AFFINITY PREDICTED BY RF-SCORE:    0.00 PKD
ROOT
HETATM    1  O   UNL     1     -11.286   9.368  68.291  1.00  0.00    -0.495 OA 
HETATM    2  C   UNL     1     -11.639   9.728  69.625  1.00  0.00     0.020 C  
HETATM    3  H   UNL     1     -10.744   8.588  68.294  1.00  0.00     0.000 HD 
ENDROOT
BRANCH   2   4
HETATM    4  C   UNL     1     -12.519  10.994  69.620  1.00  0.00    -0.208 C  
BRANCH   4   5
HETATM    5  C   UNL     1     -12.298  11.944  70.802  1.00  0.00    -0.416 C  
BRANCH   5   6
HETATM    6  C   UNL     1     -12.328  13.455  70.477  1.00  0.00    -0.401 C  
HETATM    7  H   UNL     1     -10.015  16.657  69.717  1.00  0.00     0.000 HD 
HETATM    8  C   UNL     1     -10.954  14.186  70.161  1.00  0.00     0.151 C  
HETATM    9  C   UNL     1     -12.861  14.207  71.703  1.00  0.00    -0.349 C  
HETATM   10  C   UNL     1     -12.496  15.638  71.432  1.00  0.00    -0.500 C  
HETATM   11  O   UNL     1     -14.264  14.090  71.847  1.00  0.00    -0.457 OA 
HETATM   12  O   UNL     1     -10.899  16.702  70.062  1.00  0.00    -0.329 OA 
HETATM   13  H   UNL     1     -14.594  14.556  72.607  1.00  0.00     0.000 HD 
HETATM   14  C   UNL     1     -11.087  15.566  70.882  1.00  0.00    -0.348 C  
BRANCH   8  15
HETATM   15  C   UNL     1     -10.567  14.267  68.650  1.00  0.00    -0.254 C  
BRANCH  15  16
HETATM   16  C   UNL     1      -9.563  13.232  68.174  1.00  0.00    -0.227 C  
HETATM   17  C   UNL     1      -9.552  12.426  67.094  1.00  0.00    -0.206 C  
BRANCH  17  18
HETATM   18  C   UNL     1     -10.576  12.295  66.003  1.00  0.00    -0.287 C  
BRANCH  18  19
HETATM   19  C   UNL     1     -11.987  12.676  66.479  1.00  0.00    -0.401 C  
BRANCH  19  20
HETATM   20  C   UNL     1     -12.622  13.824  65.704  1.00  0.00    -0.551 C  
BRANCH  20  21
HETATM   21  C   UNL     1     -12.017  13.952  64.340  1.00  0.00    -0.450 C  
HETATM   22  O   UNL     1     -12.399  13.391  63.321  1.00  0.00    -0.714 OA 
BRANCH  21  23
HETATM   23  O   UNL     1     -10.877  14.687  64.451  1.00  0.00    -0.259 OA 
BRANCH  23  24
HETATM   24  C   UNL     1     -11.159  15.934  65.052  1.00  0.00    -0.360 C  
BRANCH  24  25
HETATM   25  C   UNL     1      -9.958  16.532  65.752  1.00  0.00    -0.302 C  
BRANCH  25  26
HETATM   26  C   UNL     1     -10.250  17.897  66.371  1.00  0.00    -0.372 C  
BRANCH  26  27
HETATM   27  C   UNL     1      -9.014  18.771  66.630  1.00  0.00    -0.315 C  
BRANCH  27  28
HETATM   28  O   UNL     1      -8.655  18.667  67.991  1.00  0.00    -0.284 OA 
HETATM   29  N   UNL     1      -7.776  19.699  68.397  1.00  0.00    -0.332 N  
HETATM   30  O   UNL     1      -7.409  19.574  69.568  1.00  0.00    -0.290 OA 
HETATM   31  O   UNL     1      -7.489  20.555  67.570  1.00  0.00    -0.306 OA 
ENDBRANCH  27  28
ENDBRANCH  26  27
ENDBRANCH  25  26
ENDBRANCH  24  25
ENDBRANCH  23  24
ENDBRANCH  21  23
ENDBRANCH  20  21
ENDBRANCH  19  20
ENDBRANCH  18  19
ENDBRANCH  17  18
ENDBRANCH  15  16
ENDBRANCH   8  15
ENDBRANCH   5   6
ENDBRANCH   4   5
ENDBRANCH   2   4
BRANCH   2  32
HETATM   32  C   UNL     1     -10.336   9.957  70.376  1.00  0.00    -0.322 C  
BRANCH  32  33
HETATM   33  C   UNL     1     -10.244   9.090  71.626  1.00  0.00    -0.418 C  
BRANCH  33  34
HETATM   34  C   UNL     1      -9.059   8.187  71.516  1.00  0.00    -0.203 A  
HETATM   35  C   UNL     1      -6.673   7.913  71.244  1.00  0.00    -0.042 A  
HETATM   36  C   UNL     1      -8.134   5.984  71.232  1.00  0.00    -0.118 A  
HETATM   37  C   UNL     1      -7.774   8.743  71.428  1.00  0.00    -0.148 A  
HETATM   38  C   UNL     1      -9.237   6.808  71.416  1.00  0.00    -0.153 A  
HETATM   39  C   UNL     1      -6.853   6.535  71.146  1.00  0.00    -0.066 A  
ENDBRANCH  33  34
ENDBRANCH  32  33
ENDBRANCH   2  32
TORSDOF 18
ENDMDL
MODEL      232
REMARK 921   NORMALIZED FREE ENERGY PREDICTED BY IDOCK:   -4.01 KCAL/MOL
REMARK 922        TOTAL FREE ENERGY PREDICTED BY IDOCK:  -13.02 KCAL/MOL
REMARK 923 INTER-LIGAND FREE ENERGY PREDICTED BY IDOCK:  -10.21 KCAL/MOL
REMARK 924 INTRA-LIGAND FREE ENERGY PREDICTED BY IDOCK:   -2.80 KCAL/MOL
REMARK 927      BINDING AFFINITY PREDICTED BY RF-SCORE:    0.00 PKD
ROOT
HETATM    1  O   UNL     1      -7.091  18.394  65.263  1.00  0.00    -0.530 OA 
HETATM    2  C   UNL     1      -7.859  17.697  66.242  1.00  0.00    -0.273 C  
HETATM    3  H   UNL     1      -6.311  18.763  65.660  1.00  0.00     0.000 HD 
ENDROOT
BRANCH   2   4
HETATM    4  C   UNL     1      -9.125  17.098  65.597  1.00  0.00     0.372 C  
BRANCH   4   5
HETATM    5  C   UNL     1      -9.349  15.607  65.868  1.00  0.00    -0.357 C  
BRANCH   5   6
HETATM    6  C   UNL     1     -10.795  15.090  65.687  1.00  0.00    -0.356 C  
HETATM    7  H   UNL     1     -13.027  11.771  65.270  1.00  0.00     0.000 HD 
HETATM    8  C   UNL     1     -11.042  13.522  65.690  1.00  0.00    -0.299 C  
HETATM    9  C   UNL     1     -11.302  15.531  64.307  1.00  0.00    -0.155 C  
HETATM   10  C   UNL     1     -12.519  14.681  64.085  1.00  0.00    -0.180 C  
HETATM   11  O   UNL     1     -11.660  16.900  64.270  1.00  0.00    -1.060 OA 
HETATM   12  O   UNL     1     -13.286  12.633  64.967  1.00  0.00    -0.753 OA 
HETATM   13  H   UNL     1     -11.973  17.172  63.416  1.00  0.00     0.000 HD 
HETATM   14  C   UNL     1     -12.108  13.307  64.568  1.00  0.00    -0.408 C  
BRANCH   8  15
HETATM   15  C   UNL     1     -11.409  12.901  67.076  1.00  0.00    -0.355 C  
BRANCH  15  16
HETATM   16  C   UNL     1     -10.255  12.283  67.843  1.00  0.00    -0.202 C  
HETATM   17  C   UNL     1      -9.873  11.001  68.007  1.00  0.00    -0.183 C  
BRANCH  17  18
HETATM   18  C   UNL     1     -10.510   9.751  67.470  1.00  0.00    -0.309 C  
BRANCH  18  19
HETATM   19  C   UNL     1      -9.636   8.507  67.698  1.00  0.00    -0.187 C  
BRANCH  19  20
HETATM   20  C   UNL     1     -10.004   7.701  68.937  1.00  0.00    -0.178 C  
BRANCH  20  21
HETATM   21  C   UNL     1     -10.755   6.459  68.568  1.00  0.00    -0.288 C  
HETATM   22  O   UNL     1     -11.069   6.109  67.437  1.00  0.00    -0.331 OA 
BRANCH  21  23
HETATM   23  O   UNL     1     -11.159   5.853  69.718  1.00  0.00    -0.377 OA 
BRANCH  23  24
HETATM   24  C   UNL     1     -11.093   6.761  70.797  1.00  0.00    -0.276 C  
BRANCH  24  25
HETATM   25  C   UNL     1     -12.213   6.567  71.796  1.00  0.00    -0.374 C  
BRANCH  25  26
HETATM   26  C   UNL     1     -13.190   7.739  71.829  1.00  0.00    -0.354 C  
BRANCH  26  27
HETATM   27  C   UNL     1     -12.654   9.014  72.496  1.00  0.00    -0.272 C  
BRANCH  27  28
HETATM   28  O   UNL     1     -13.152  10.139  71.804  1.00  0.00    -0.403 OA 
HETATM   29  N   UNL     1     -12.160  10.771  71.017  1.00  0.00    -0.352 N  
HETATM   30  O   UNL     1     -12.576  11.791  70.463  1.00  0.00    -0.240 OA 
HETATM   31  O   UNL     1     -11.050  10.257  70.986  1.00  0.00    -0.276 OA 
ENDBRANCH  27  28
ENDBRANCH  26  27
ENDBRANCH  25  26
ENDBRANCH  24  25
ENDBRANCH  23  24
ENDBRANCH  21  23
ENDBRANCH  20  21
ENDBRANCH  19  20
ENDBRANCH  18  19
ENDBRANCH  17  18
ENDBRANCH  15  16
ENDBRANCH   8  15
ENDBRANCH   5   6
ENDBRANCH   4   5
ENDBRANCH   2   4
BRANCH   2  32
HETATM   32  C   UNL     1      -8.210  18.708  67.324  1.00  0.00    -0.261 C  
BRANCH  32  33
HETATM   33  C   UNL     1      -7.913  18.167  68.718  1.00  0.00    -0.259 C  
BRANCH  33  34
HETATM   34  C   UNL     1      -8.922  17.122  69.068  1.00  0.00    -0.110 A  
HETATM   35  C   UNL     1     -11.225  16.508  69.472  1.00  0.00    -0.169 A  
HETATM   36  C   UNL     1      -9.447  14.916  69.872  1.00  0.00     0.243 A  
HETATM   37  C   UNL     1     -10.285  17.452  69.070  1.00  0.00    -0.317 A  
HETATM   38  C   UNL     1      -8.504  15.855  69.472  1.00  0.00    -0.089 A  
HETATM   39  C   UNL     1     -10.805  15.241  69.873  1.00  0.00    -0.295 A  
ENDBRANCH  33  34
ENDBRANCH  32  33
ENDBRANCH   2  32
TORSDOF 18
ENDMDL
MODEL      233
REMARK 921   NORMALIZED FREE ENERGY PREDICTED BY IDOCK:   -4.01 KCAL/MOL
REMARK 922        TOTAL FREE ENERGY PREDICTED BY IDOCK:  -13.01 KCAL/MOL
REMARK 923 INTER-LIGAND FREE ENERGY PREDICTED BY IDOCK:   -8.12 KCAL/MOL
REMARK 924 INTRA-LIGAND FREE ENERGY PREDICTED BY IDOCK:   -4.89 KCAL/MOL
REMARK 927      BINDING AFFINITY PREDICTED BY RF-SCORE:    0.00 PKD
ROOT
HETATM    1  O   UNL     1     -10.494   4.894  64.937  1.00  0.00    -0.399 OA 
HETATM    2  C   UNL     1      -9.740   4.534  66.093  1.00  0.00    -0.207 C  
HETATM    3  H   UNL     1      -9.951   4.832  64.160  1.00  0.00     0.000 HD 
ENDROOT
BRANCH   2   4
HETATM    4  C   UNL     1     -10.620   4.634  67.354  1.00  0.00     0.252 C  
BRANCH   4   5
HETATM    5  C   UNL     1     -10.819   6.053  67.898  1.00  0.00    -0.378 C  
BRANCH   5   6
HETATM    6  C   UNL     1     -10.341   6.302  69.348  1.00  0.00    -0.266 C  
HETATM    7  H   UNL     1      -7.946   4.902  72.260  1.00  0.00     0.000 HD 
HETATM    8  C   UNL     1      -9.207   5.361  69.940  1.00  0.00    -0.174 C  
HETATM    9  C   UNL     1     -11.525   6.077  70.297  1.00  0.00    -0.175 C  
HETATM   10  C   UNL     1     -10.883   5.968  71.649  1.00  0.00    -0.314 C  
HETATM   11  O   UNL     1     -12.442   7.156  70.289  1.00  0.00    -0.592 OA 
HETATM   12  O   UNL     1      -8.713   5.442  72.408  1.00  0.00    -0.124 OA 
HETATM   13  H   UNL     1     -13.175   7.017  70.877  1.00  0.00     0.000 HD 
HETATM   14  C   UNL     1      -9.660   5.107  71.413  1.00  0.00    -0.161 C  
BRANCH   8  15
HETATM   15  C   UNL     1      -7.745   5.889  69.781  1.00  0.00    -0.089 C  
BRANCH  15  16
HETATM   16  C   UNL     1      -7.613   7.298  69.232  1.00  0.00    -0.102 C  
HETATM   17  C   UNL     1      -7.888   8.500  69.777  1.00  0.00    -0.094 C  
BRANCH  17  18
HETATM   18  C   UNL     1      -8.443   8.816  71.136  1.00  0.00    -0.233 C  
BRANCH  18  19
HETATM   19  C   UNL     1      -9.861   9.402  71.066  1.00  0.00    -0.317 C  
BRANCH  19  20
HETATM   20  C   UNL     1     -10.221  10.016  69.719  1.00  0.00    -0.286 C  
BRANCH  20  21
HETATM   21  C   UNL     1     -11.665  10.409  69.676  1.00  0.00    -0.212 C  
HETATM   22  O   UNL     1     -12.471  10.319  70.594  1.00  0.00    -0.307 OA 
BRANCH  21  23
HETATM   23  O   UNL     1     -11.971  10.751  68.394  1.00  0.00    -0.508 OA 
BRANCH  23  24
HETATM   24  C   UNL     1     -11.718  12.124  68.183  1.00  0.00    -0.341 C  
BRANCH  24  25
HETATM   25  C   UNL     1     -11.881  12.535  66.735  1.00  0.00    -0.416 C  
BRANCH  25  26
HETATM   26  C   UNL     1     -11.585  14.014  66.500  1.00  0.00    -0.389 C  
BRANCH  26  27
HETATM   27  C   UNL     1     -10.412  14.578  67.314  1.00  0.00    -0.266 C  
BRANCH  27  28
HETATM   28  O   UNL     1     -10.885  15.621  68.139  1.00  0.00    -0.278 OA 
HETATM   29  N   UNL     1     -10.132  16.810  67.991  1.00  0.00    -0.273 N  
HETATM   30  O   UNL     1     -10.502  17.702  68.758  1.00  0.00    -0.351 OA 
HETATM   31  O   UNL     1      -9.234  16.811  67.160  1.00  0.00    -0.217 OA 
ENDBRANCH  27  28
ENDBRANCH  26  27
ENDBRANCH  25  26
ENDBRANCH  24  25
ENDBRANCH  23  24
ENDBRANCH  21  23
ENDBRANCH  20  21
ENDBRANCH  19  20
ENDBRANCH  18  19
ENDBRANCH  17  18
ENDBRANCH  15  16
ENDBRANCH   8  15
ENDBRANCH   5   6
ENDBRANCH   4   5
ENDBRANCH   2   4
BRANCH   2  32
HETATM   32  C   UNL     1      -8.559   5.492  66.160  1.00  0.00    -0.129 C  
BRANCH  32  33
HETATM   33  C   UNL     1      -8.631   6.554  65.069  1.00  0.00     0.057 C  
BRANCH  33  34
HETATM   34  C   UNL     1      -8.253   7.879  65.644  1.00  0.00    -0.137 A  
HETATM   35  C   UNL     1      -8.916  10.054  66.465  1.00  0.00    -0.162 A  
HETATM   36  C   UNL     1      -6.573   9.509  66.201  1.00  0.00    -0.070 A  
HETATM   37  C   UNL     1      -9.260   8.787  66.004  1.00  0.00    -0.282 A  
HETATM   38  C   UNL     1      -6.911   8.243  65.741  1.00  0.00    -0.063 A  
HETATM   39  C   UNL     1      -7.573  10.415  66.563  1.00  0.00    -0.118 A  
ENDBRANCH  33  34
ENDBRANCH  32  33
ENDBRANCH   2  32
TORSDOF 18
ENDMDL
MODEL      234
REMARK 921   NORMALIZED FREE ENERGY PREDICTED BY IDOCK:   -4.00 KCAL/MOL
REMARK 922        TOTAL FREE ENERGY PREDICTED BY IDOCK:  -12.99 KCAL/MOL
REMARK 923 INTER-LIGAND FREE ENERGY PREDICTED BY IDOCK:   -9.78 KCAL/MOL
REMARK 924 INTRA-LIGAND FREE ENERGY PREDICTED BY IDOCK:   -3.21 KCAL/MOL
REMARK 927      BINDING AFFINITY PREDICTED BY RF-SCORE:    0.00 PKD
ROOT
HETATM    1  O   UNL     1     -11.542   9.643  68.810  1.00  0.00    -0.433 OA 
HETATM    2  C   UNL     1     -10.780  10.251  69.852  1.00  0.00    -0.294 C  
HETATM    3  H   UNL     1     -12.457   9.592  69.060  1.00  0.00     0.000 HD 
ENDROOT
BRANCH   2   4
HETATM    4  C   UNL     1      -9.296  10.333  69.446  1.00  0.00    -0.217 C  
BRANCH   4   5
HETATM    5  C   UNL     1      -8.802   9.193  68.550  1.00  0.00    -0.129 C  
BRANCH   5   6
HETATM    6  C   UNL     1      -8.366   9.587  67.120  1.00  0.00    -0.131 C  
HETATM    7  H   UNL     1      -9.404   9.384  63.239  1.00  0.00     0.000 HD 
HETATM    8  C   UNL     1      -9.354   9.273  65.917  1.00  0.00    -0.297 C  
HETATM    9  C   UNL     1      -7.101   8.799  66.760  1.00  0.00    -0.081 C  
HETATM   10  C   UNL     1      -6.991   8.958  65.272  1.00  0.00    -0.076 C  
HETATM   11  O   UNL     1      -5.940   9.317  67.384  1.00  0.00    -0.048 OA 
HETATM   12  O   UNL     1      -8.514   9.492  63.553  1.00  0.00    -0.169 OA 
HETATM   13  H   UNL     1      -5.157   8.829  67.161  1.00  0.00     0.000 HD 
HETATM   14  C   UNL     1      -8.410   8.785  64.772  1.00  0.00    -0.168 C  
BRANCH   8  15
HETATM   15  C   UNL     1     -10.323  10.434  65.522  1.00  0.00    -0.265 C  
BRANCH  15  16
HETATM   16  C   UNL     1      -9.795  11.837  65.758  1.00  0.00    -0.267 C  
HETATM   17  C   UNL     1     -10.421  12.985  66.088  1.00  0.00    -0.289 C  
BRANCH  17  18
HETATM   18  C   UNL     1     -11.885  13.230  66.316  1.00  0.00    -0.444 C  
BRANCH  18  19
HETATM   19  C   UNL     1     -12.143  14.127  67.537  1.00  0.00    -0.363 C  
BRANCH  19  20
HETATM   20  C   UNL     1     -11.381  13.715  68.790  1.00  0.00    -0.326 C  
BRANCH  20  21
HETATM   21  C   UNL     1     -10.929  14.915  69.563  1.00  0.00    -0.273 C  
HETATM   22  O   UNL     1     -11.334  15.264  70.665  1.00  0.00    -0.268 OA 
BRANCH  21  23
HETATM   23  O   UNL     1     -10.092  15.638  68.770  1.00  0.00    -0.199 OA 
BRANCH  23  24
HETATM   24  C   UNL     1      -8.748  15.362  69.101  1.00  0.00    -0.242 C  
BRANCH  24  25
HETATM   25  C   UNL     1      -7.897  15.049  67.890  1.00  0.00    -0.147 C  
BRANCH  25  26
HETATM   26  C   UNL     1      -8.302  15.852  66.656  1.00  0.00    -0.328 C  
BRANCH  26  27
HETATM   27  C   UNL     1      -7.496  17.139  66.426  1.00  0.00    -0.306 C  
BRANCH  27  28
HETATM   28  O   UNL     1      -8.306  18.072  65.744  1.00  0.00    -0.508 OA 
HETATM   29  N   UNL     1      -8.726  19.134  66.579  1.00  0.00    -0.326 N  
HETATM   30  O   UNL     1      -9.487  19.916  66.003  1.00  0.00    -0.396 OA 
HETATM   31  O   UNL     1      -8.310  19.146  67.730  1.00  0.00    -0.280 OA 
ENDBRANCH  27  28
ENDBRANCH  26  27
ENDBRANCH  25  26
ENDBRANCH  24  25
ENDBRANCH  23  24
ENDBRANCH  21  23
ENDBRANCH  20  21
ENDBRANCH  19  20
ENDBRANCH  18  19
ENDBRANCH  17  18
ENDBRANCH  15  16
ENDBRANCH   8  15
ENDBRANCH   5   6
ENDBRANCH   4   5
ENDBRANCH   2   4
BRANCH   2  32
HETATM   32  C   UNL     1     -10.973   9.391  71.093  1.00  0.00    -0.430 C  
BRANCH  32  33
HETATM   33  C   UNL     1     -12.025   8.310  70.873  1.00  0.00    -0.194 C  
BRANCH  33  34
HETATM   34  C   UNL     1     -11.411   6.968  71.107  1.00  0.00    -0.333 A  
HETATM   35  C   UNL     1     -10.658   5.267  72.651  1.00  0.00    -0.278 A  
HETATM   36  C   UNL     1     -10.235   5.039  70.279  1.00  0.00    -0.328 A  
HETATM   37  C   UNL     1     -11.300   6.480  72.417  1.00  0.00    -0.314 A  
HETATM   38  C   UNL     1     -10.876   6.248  70.040  1.00  0.00    -0.387 A  
HETATM   39  C   UNL     1     -10.126   4.548  71.583  1.00  0.00    -0.249 A  
ENDBRANCH  33  34
ENDBRANCH  32  33
ENDBRANCH   2  32
TORSDOF 18
ENDMDL
MODEL      235
REMARK 921   NORMALIZED FREE ENERGY PREDICTED BY IDOCK:   -3.99 KCAL/MOL
REMARK 922        TOTAL FREE ENERGY PREDICTED BY IDOCK:  -12.98 KCAL/MOL
REMARK 923 INTER-LIGAND FREE ENERGY PREDICTED BY IDOCK:   -9.37 KCAL/MOL
REMARK 924 INTRA-LIGAND FREE ENERGY PREDICTED BY IDOCK:   -3.61 KCAL/MOL
REMARK 927      BINDING AFFINITY PREDICTED BY RF-SCORE:    0.00 PKD
ROOT
HETATM    1  O   UNL     1     -12.688  10.597  69.376  1.00  0.00    -0.671 OA 
HETATM    2  C   UNL     1     -11.362  10.379  69.853  1.00  0.00    -0.302 C  
HETATM    3  H   UNL     1     -13.109  11.283  69.881  1.00  0.00     0.000 HD 
ENDROOT
BRANCH   2   4
HETATM    4  C   UNL     1     -10.678   9.267  69.034  1.00  0.00    -0.189 C  
BRANCH   4   5
HETATM    5  C   UNL     1      -9.508   8.569  69.735  1.00  0.00    -0.166 C  
BRANCH   5   6
HETATM    6  C   UNL     1      -9.133   7.166  69.203  1.00  0.00    -0.137 C  
HETATM    7  H   UNL     1     -10.649   3.653  67.963  1.00  0.00     0.000 HD 
HETATM    8  C   UNL     1     -10.303   6.188  68.764  1.00  0.00    -0.256 C  
HETATM    9  C   UNL     1      -8.422   6.394  70.323  1.00  0.00    -0.135 C  
HETATM   10  C   UNL     1      -8.448   4.971  69.849  1.00  0.00    -0.092 C  
HETATM   11  O   UNL     1      -7.082   6.813  70.507  1.00  0.00    -0.065 OA 
HETATM   12  O   UNL     1      -9.774   3.767  68.315  1.00  0.00    -0.133 OA 
HETATM   13  H   UNL     1      -6.642   6.335  71.200  1.00  0.00     0.000 HD 
HETATM   14  C   UNL     1      -9.843   4.790  69.288  1.00  0.00    -0.199 C  
BRANCH   8  15
HETATM   15  C   UNL     1     -10.683   6.232  67.249  1.00  0.00    -0.424 C  
BRANCH  15  16
HETATM   16  C   UNL     1      -9.618   5.728  66.292  1.00  0.00    -0.159 C  
HETATM   17  C   UNL     1      -8.368   6.162  66.036  1.00  0.00    -0.136 C  
BRANCH  17  18
HETATM   18  C   UNL     1      -7.632   7.327  66.633  1.00  0.00    -0.093 C  
BRANCH  18  19
HETATM   19  C   UNL     1      -8.165   8.676  66.127  1.00  0.00    -0.121 C  
BRANCH  19  20
HETATM   20  C   UNL     1      -8.269   8.781  64.611  1.00  0.00    -0.166 C  
BRANCH  20  21
HETATM   21  C   UNL     1      -9.352   9.734  64.211  1.00  0.00    -0.190 C  
HETATM   22  O   UNL     1      -9.529  10.205  63.094  1.00  0.00    -0.295 OA 
BRANCH  21  23
HETATM   23  O   UNL     1     -10.025  10.105  65.334  1.00  0.00    -0.290 OA 
BRANCH  23  24
HETATM   24  C   UNL     1     -10.785  11.269  65.085  1.00  0.00    -0.246 C  
BRANCH  24  25
HETATM   25  C   UNL     1     -11.360  11.875  66.346  1.00  0.00    -0.400 C  
BRANCH  25  26
HETATM   26  C   UNL     1     -11.529  13.390  66.254  1.00  0.00    -0.354 C  
BRANCH  26  27
HETATM   27  C   UNL     1     -11.396  14.141  67.587  1.00  0.00    -0.319 C  
BRANCH  27  28
HETATM   28  O   UNL     1     -12.195  13.500  68.557  1.00  0.00    -0.320 OA 
HETATM   29  N   UNL     1     -12.057  14.081  69.840  1.00  0.00    -0.327 N  
HETATM   30  O   UNL     1     -12.704  13.483  70.702  1.00  0.00    -0.282 OA 
HETATM   31  O   UNL     1     -11.335  15.064  69.940  1.00  0.00    -0.250 OA 
ENDBRANCH  27  28
ENDBRANCH  26  27
ENDBRANCH  25  26
ENDBRANCH  24  25
ENDBRANCH  23  24
ENDBRANCH  21  23
ENDBRANCH  20  21
ENDBRANCH  19  20
ENDBRANCH  18  19
ENDBRANCH  17  18
ENDBRANCH  15  16
ENDBRANCH   8  15
ENDBRANCH   5   6
ENDBRANCH   4   5
ENDBRANCH   2   4
BRANCH   2  32
HETATM   32  C   UNL     1     -11.483   9.997  71.321  1.00  0.00    -0.390 C  
BRANCH  32  33
HETATM   33  C   UNL     1     -12.474   8.858  71.528  1.00  0.00    -0.380 C  
BRANCH  33  34
HETATM   34  C   UNL     1     -11.787   7.723  72.215  1.00  0.00    -0.378 A  
HETATM   35  C   UNL     1     -10.014   6.932  73.656  1.00  0.00    -0.318 A  
HETATM   36  C   UNL     1     -11.459   5.359  72.518  1.00  0.00    -0.259 A  
HETATM   37  C   UNL     1     -10.711   7.987  73.075  1.00  0.00    -0.325 A  
HETATM   38  C   UNL     1     -12.158   6.409  71.935  1.00  0.00    -0.362 A  
HETATM   39  C   UNL     1     -10.388   5.619  73.377  1.00  0.00    -0.242 A  
ENDBRANCH  33  34
ENDBRANCH  32  33
ENDBRANCH   2  32
TORSDOF 18
ENDMDL
MODEL      236
REMARK 921   NORMALIZED FREE ENERGY PREDICTED BY IDOCK:   -3.98 KCAL/MOL
REMARK 922        TOTAL FREE ENERGY PREDICTED BY IDOCK:  -12.96 KCAL/MOL
REMARK 923 INTER-LIGAND FREE ENERGY PREDICTED BY IDOCK:   -9.90 KCAL/MOL
REMARK 924 INTRA-LIGAND FREE ENERGY PREDICTED BY IDOCK:   -3.05 KCAL/MOL
REMARK 927      BINDING AFFINITY PREDICTED BY RF-SCORE:    0.00 PKD
ROOT
HETATM    1  O   UNL     1     -11.656   6.668  66.832  1.00  0.00    -0.726 OA 
HETATM    2  C   UNL     1     -10.711   6.291  67.832  1.00  0.00    -0.305 C  
HETATM    3  H   UNL     1     -12.266   5.957  66.673  1.00  0.00     0.000 HD 
ENDROOT
BRANCH   2   4
HETATM    4  C   UNL     1      -9.722   7.444  68.090  1.00  0.00    -0.163 C  
BRANCH   4   5
HETATM    5  C   UNL     1      -9.797   8.065  69.488  1.00  0.00    -0.181 C  
BRANCH   5   6
HETATM    6  C   UNL     1     -11.122   8.775  69.850  1.00  0.00    -0.129 C  
HETATM    7  H   UNL     1     -12.716  12.290  70.983  1.00  0.00     0.000 HD 
HETATM    8  C   UNL     1     -11.087  10.336  70.136  1.00  0.00    -0.385 C  
HETATM    9  C   UNL     1     -11.652   8.181  71.161  1.00  0.00    -0.279 C  
HETATM   10  C   UNL     1     -12.692   9.168  71.606  1.00  0.00    -0.429 C  
HETATM   11  O   UNL     1     -12.245   6.909  70.983  1.00  0.00    -0.373 OA 
HETATM   12  O   UNL     1     -13.113  11.442  71.147  1.00  0.00    -0.294 OA 
HETATM   13  H   UNL     1     -12.573   6.541  71.795  1.00  0.00     0.000 HD 
HETATM   14  C   UNL     1     -12.060  10.519  71.345  1.00  0.00    -0.282 C  
BRANCH   8  15
HETATM   15  C   UNL     1     -11.385  11.253  68.906  1.00  0.00    -0.340 C  
BRANCH  15  16
HETATM   16  C   UNL     1     -10.254  12.174  68.486  1.00  0.00    -0.214 C  
HETATM   17  C   UNL     1      -9.166  11.963  67.718  1.00  0.00    -0.184 C  
BRANCH  17  18
HETATM   18  C   UNL     1      -8.724  10.701  67.034  1.00  0.00    -0.128 C  
BRANCH  18  19
HETATM   19  C   UNL     1      -9.549  10.402  65.772  1.00  0.00    -0.269 C  
BRANCH  19  20
HETATM   20  C   UNL     1      -9.743  11.598  64.850  1.00  0.00    -0.232 C  
BRANCH  20  21
HETATM   21  C   UNL     1     -10.349  11.180  63.546  1.00  0.00    -0.387 C  
HETATM   22  O   UNL     1      -9.754  10.699  62.590  1.00  0.00    -0.283 OA 
BRANCH  21  23
HETATM   23  O   UNL     1     -11.655  11.561  63.547  1.00  0.00    -0.397 OA 
BRANCH  23  24
HETATM   24  C   UNL     1     -11.757  12.951  63.777  1.00  0.00    -0.492 C  
BRANCH  24  25
HETATM   25  C   UNL     1     -12.727  13.292  64.887  1.00  0.00    -0.391 C  
BRANCH  25  26
HETATM   26  C   UNL     1     -12.116  14.202  65.951  1.00  0.00    -0.441 C  
BRANCH  26  27
HETATM   27  C   UNL     1     -10.980  15.108  65.455  1.00  0.00    -0.365 C  
BRANCH  27  28
HETATM   28  O   UNL     1     -10.289  15.629  66.570  1.00  0.00    -0.275 OA 
HETATM   29  N   UNL     1     -10.022  17.012  66.440  1.00  0.00    -0.294 N  
HETATM   30  O   UNL     1      -9.361  17.456  67.383  1.00  0.00    -0.234 OA 
HETATM   31  O   UNL     1     -10.452  17.581  65.446  1.00  0.00    -0.647 OA 
ENDBRANCH  27  28
ENDBRANCH  26  27
ENDBRANCH  25  26
ENDBRANCH  24  25
ENDBRANCH  23  24
ENDBRANCH  21  23
ENDBRANCH  20  21
ENDBRANCH  19  20
ENDBRANCH  18  19
ENDBRANCH  17  18
ENDBRANCH  15  16
ENDBRANCH   8  15
ENDBRANCH   5   6
ENDBRANCH   4   5
ENDBRANCH   2   4
BRANCH   2  32
HETATM   32  C   UNL     1      -9.999   5.049  67.315  1.00  0.00    -0.220 C  
BRANCH  32  33
HETATM   33  C   UNL     1      -8.484   5.183  67.418  1.00  0.00    -0.105 C  
BRANCH  33  34
HETATM   34  C   UNL     1      -7.868   4.858  66.097  1.00  0.00    -0.099 A  
HETATM   35  C   UNL     1      -8.037   4.782  63.686  1.00  0.00    -0.101 A  
HETATM   36  C   UNL     1      -6.122   3.817  64.809  1.00  0.00    -0.023 A  
HETATM   37  C   UNL     1      -8.568   5.154  64.918  1.00  0.00    -0.151 A  
HETATM   38  C   UNL     1      -6.648   4.187  66.041  1.00  0.00    -0.041 A  
HETATM   39  C   UNL     1      -6.816   4.113  63.632  1.00  0.00    -0.044 A  
ENDBRANCH  33  34
ENDBRANCH  32  33
ENDBRANCH   2  32
TORSDOF 18
ENDMDL
MODEL      237
REMARK 921   NORMALIZED FREE ENERGY PREDICTED BY IDOCK:   -3.98 KCAL/MOL
REMARK 922        TOTAL FREE ENERGY PREDICTED BY IDOCK:  -12.96 KCAL/MOL
REMARK 923 INTER-LIGAND FREE ENERGY PREDICTED BY IDOCK:   -9.88 KCAL/MOL
REMARK 924 INTRA-LIGAND FREE ENERGY PREDICTED BY IDOCK:   -3.08 KCAL/MOL
REMARK 927      BINDING AFFINITY PREDICTED BY RF-SCORE:    0.00 PKD
ROOT
HETATM    1  O   UNL     1      -9.976   9.374  65.485  1.00  0.00    -0.421 OA 
HETATM    2  C   UNL     1     -10.181   9.897  66.796  1.00  0.00    -0.236 C  
HETATM    3  H   UNL     1     -10.682   8.782  65.255  1.00  0.00     0.000 HD 
ENDROOT
BRANCH   2   4
HETATM    4  C   UNL     1      -9.035  10.858  67.170  1.00  0.00    -0.141 C  
BRANCH   4   5
HETATM    5  C   UNL     1      -9.051  12.205  66.438  1.00  0.00    -0.177 C  
BRANCH   5   6
HETATM    6  C   UNL     1      -9.449  13.437  67.283  1.00  0.00    -0.234 C  
HETATM    7  H   UNL     1     -12.168  16.377  67.652  1.00  0.00     0.000 HD 
HETATM    8  C   UNL     1     -10.810  14.179  66.940  1.00  0.00    -0.296 C  
HETATM    9  C   UNL     1      -8.387  14.526  67.088  1.00  0.00    -0.202 C  
HETATM   10  C   UNL     1      -9.044  15.766  67.621  1.00  0.00    -0.193 C  
HETATM   11  O   UNL     1      -7.199  14.265  67.813  1.00  0.00    -0.141 OA 
HETATM   12  O   UNL     1     -11.279  16.423  67.984  1.00  0.00    -0.325 OA 
HETATM   13  H   UNL     1      -6.542  14.939  67.692  1.00  0.00     0.000 HD 
HETATM   14  C   UNL     1     -10.461  15.694  67.091  1.00  0.00    -0.303 C  
BRANCH   8  15
HETATM   15  C   UNL     1     -12.058  13.706  67.752  1.00  0.00    -0.325 C  
BRANCH  15  16
HETATM   16  C   UNL     1     -11.862  13.606  69.254  1.00  0.00    -0.395 C  
HETATM   17  C   UNL     1     -11.886  12.549  70.091  1.00  0.00    -0.336 C  
BRANCH  17  18
HETATM   18  C   UNL     1     -12.137  11.102  69.777  1.00  0.00    -0.414 C  
BRANCH  18  19
HETATM   19  C   UNL     1     -12.430  10.274  71.039  1.00  0.00    -0.484 C  
BRANCH  19  20
HETATM   20  C   UNL     1     -11.382   9.212  71.350  1.00  0.00    -0.414 C  
BRANCH  20  21
HETATM   21  C   UNL     1     -11.981   8.073  72.114  1.00  0.00    -0.348 C  
HETATM   22  O   UNL     1     -13.087   7.578  71.932  1.00  0.00    -0.311 OA 
BRANCH  21  23
HETATM   23  O   UNL     1     -11.147   7.772  73.146  1.00  0.00    -0.409 OA 
BRANCH  23  24
HETATM   24  C   UNL     1     -10.934   6.377  73.208  1.00  0.00    -0.190 C  
BRANCH  24  25
HETATM   25  C   UNL     1      -9.608   6.013  73.839  1.00  0.00    -0.165 C  
BRANCH  25  26
HETATM   26  C   UNL     1      -8.870   7.222  74.411  1.00  0.00    -0.234 C  
BRANCH  26  27
HETATM   27  C   UNL     1      -7.605   7.633  73.645  1.00  0.00    -0.123 C  
BRANCH  27  28
HETATM   28  O   UNL     1      -7.879   8.798  72.897  1.00  0.00    -0.381 OA 
HETATM   29  N   UNL     1      -7.969   8.540  71.509  1.00  0.00    -0.123 N  
HETATM   30  O   UNL     1      -8.144   9.566  70.847  1.00  0.00    -0.297 OA 
HETATM   31  O   UNL     1      -7.858   7.377  71.141  1.00  0.00    -0.090 OA 
ENDBRANCH  27  28
ENDBRANCH  26  27
ENDBRANCH  25  26
ENDBRANCH  24  25
ENDBRANCH  23  24
ENDBRANCH  21  23
ENDBRANCH  20  21
ENDBRANCH  19  20
ENDBRANCH  18  19
ENDBRANCH  17  18
ENDBRANCH  15  16
ENDBRANCH   8  15
ENDBRANCH   5   6
ENDBRANCH   4   5
ENDBRANCH   2   4
BRANCH   2  32
HETATM   32  C   UNL     1     -10.238   8.704  67.740  1.00  0.00    -0.282 C  
BRANCH  32  33
HETATM   33  C   UNL     1     -10.894   7.496  67.081  1.00  0.00    -0.298 C  
BRANCH  33  34
HETATM   34  C   UNL     1     -10.485   6.256  67.807  1.00  0.00    -0.289 A  
HETATM   35  C   UNL     1     -10.298   5.025  69.879  1.00  0.00    -0.298 A  
HETATM   36  C   UNL     1      -9.327   4.146  67.844  1.00  0.00    -0.210 A  
HETATM   37  C   UNL     1     -10.747   6.141  69.180  1.00  0.00    -0.381 A  
HETATM   38  C   UNL     1      -9.773   5.259  67.141  1.00  0.00    -0.165 A  
HETATM   39  C   UNL     1      -9.589   4.029  69.211  1.00  0.00    -0.247 A  
ENDBRANCH  33  34
ENDBRANCH  32  33
ENDBRANCH   2  32
TORSDOF 18
ENDMDL
MODEL      238
REMARK 921   NORMALIZED FREE ENERGY PREDICTED BY IDOCK:   -3.97 KCAL/MOL
REMARK 922        TOTAL FREE ENERGY PREDICTED BY IDOCK:  -12.94 KCAL/MOL
REMARK 923 INTER-LIGAND FREE ENERGY PREDICTED BY IDOCK:  -10.16 KCAL/MOL
REMARK 924 INTRA-LIGAND FREE ENERGY PREDICTED BY IDOCK:   -2.78 KCAL/MOL
REMARK 927      BINDING AFFINITY PREDICTED BY RF-SCORE:    0.00 PKD
ROOT
HETATM    1  O   UNL     1      -9.726   6.076  65.986  1.00  0.00    -0.344 OA 
HETATM    2  C   UNL     1      -9.793   6.613  67.306  1.00  0.00    -0.146 C  
HETATM    3  H   UNL     1      -9.284   6.686  65.407  1.00  0.00     0.000 HD 
ENDROOT
BRANCH   2   4
HETATM    4  C   UNL     1     -10.510   5.624  68.246  1.00  0.00    -0.257 C  
BRANCH   4   5
HETATM    5  C   UNL     1     -11.337   6.271  69.363  1.00  0.00    -0.448 C  
BRANCH   5   6
HETATM    6  C   UNL     1     -10.599   6.529  70.697  1.00  0.00    -0.280 C  
HETATM    7  H   UNL     1      -8.187   9.107  72.624  1.00  0.00     0.000 HD 
HETATM    8  C   UNL     1      -9.825   7.903  70.876  1.00  0.00    -0.192 C  
HETATM    9  C   UNL     1      -9.498   5.473  70.857  1.00  0.00    -0.166 C  
HETATM   10  C   UNL     1      -8.627   6.027  71.947  1.00  0.00    -0.137 C  
HETATM   11  O   UNL     1     -10.006   4.211  71.246  1.00  0.00    -0.187 OA 
HETATM   12  O   UNL     1      -8.261   8.182  72.831  1.00  0.00    -0.152 OA 
HETATM   13  H   UNL     1      -9.324   3.557  71.346  1.00  0.00     0.000 HD 
HETATM   14  C   UNL     1      -8.510   7.501  71.617  1.00  0.00    -0.111 C  
BRANCH   8  15
HETATM   15  C   UNL     1     -10.639   9.051  71.555  1.00  0.00    -0.415 C  
BRANCH  15  16
HETATM   16  C   UNL     1     -12.145   8.856  71.585  1.00  0.00    -0.415 C  
HETATM   17  C   UNL     1     -13.159   9.740  71.666  1.00  0.00    -0.516 C  
BRANCH  17  18
HETATM   18  C   UNL     1     -13.102  11.237  71.769  1.00  0.00    -0.527 C  
BRANCH  18  19
HETATM   19  C   UNL     1     -12.383  11.878  70.571  1.00  0.00    -0.372 C  
BRANCH  19  20
HETATM   20  C   UNL     1     -12.255  13.393  70.652  1.00  0.00    -0.427 C  
BRANCH  20  21
HETATM   21  C   UNL     1     -12.000  13.985  69.301  1.00  0.00    -0.353 C  
HETATM   22  O   UNL     1     -12.061  13.398  68.228  1.00  0.00    -0.343 OA 
BRANCH  21  23
HETATM   23  O   UNL     1     -11.545  15.256  69.476  1.00  0.00    -0.281 OA 
BRANCH  23  24
HETATM   24  C   UNL     1     -11.517  15.937  68.239  1.00  0.00    -0.320 C  
BRANCH  24  25
HETATM   25  C   UNL     1     -10.589  17.132  68.248  1.00  0.00    -0.375 C  
BRANCH  25  26
HETATM   26  C   UNL     1     -10.283  17.658  66.847  1.00  0.00    -0.334 C  
BRANCH  26  27
HETATM   27  C   UNL     1      -9.348  18.875  66.800  1.00  0.00    -0.322 C  
BRANCH  27  28
HETATM   28  O   UNL     1      -8.347  18.648  65.832  1.00  0.00    -0.494 OA 
HETATM   29  N   UNL     1      -7.043  18.727  66.375  1.00  0.00    -0.222 N  
HETATM   30  O   UNL     1      -6.166  18.594  65.518  1.00  0.00    -0.219 OA 
HETATM   31  O   UNL     1      -6.943  18.920  67.580  1.00  0.00    -0.202 OA 
ENDBRANCH  27  28
ENDBRANCH  26  27
ENDBRANCH  25  26
ENDBRANCH  24  25
ENDBRANCH  23  24
ENDBRANCH  21  23
ENDBRANCH  20  21
ENDBRANCH  19  20
ENDBRANCH  18  19
ENDBRANCH  17  18
ENDBRANCH  15  16
ENDBRANCH   8  15
ENDBRANCH   5   6
ENDBRANCH   4   5
ENDBRANCH   2   4
BRANCH   2  32
HETATM   32  C   UNL     1     -10.546   7.932  67.205  1.00  0.00    -0.383 C  
BRANCH  32  33
HETATM   33  C   UNL     1      -9.894   8.877  66.202  1.00  0.00    -0.326 C  
BRANCH  33  34
HETATM   34  C   UNL     1      -9.270  10.020  66.934  1.00  0.00    -0.169 A  
HETATM   35  C   UNL     1      -9.282  11.541  68.813  1.00  0.00    -0.076 A  
HETATM   36  C   UNL     1      -7.696  11.839  67.009  1.00  0.00    -0.158 A  
HETATM   37  C   UNL     1      -9.807  10.427  68.164  1.00  0.00    -0.168 A  
HETATM   38  C   UNL     1      -8.217  10.728  66.357  1.00  0.00    -0.155 A  
HETATM   39  C   UNL     1      -8.227  12.245  68.236  1.00  0.00    -0.167 A  
ENDBRANCH  33  34
ENDBRANCH  32  33
ENDBRANCH   2  32
TORSDOF 18
ENDMDL
MODEL      239
REMARK 921   NORMALIZED FREE ENERGY PREDICTED BY IDOCK:   -3.96 KCAL/MOL
REMARK 922        TOTAL FREE ENERGY PREDICTED BY IDOCK:  -12.92 KCAL/MOL
REMARK 923 INTER-LIGAND FREE ENERGY PREDICTED BY IDOCK:  -10.71 KCAL/MOL
REMARK 924 INTRA-LIGAND FREE ENERGY PREDICTED BY IDOCK:   -2.21 KCAL/MOL
REMARK 927      BINDING AFFINITY PREDICTED BY RF-SCORE:    0.00 PKD
ROOT
HETATM    1  O   UNL     1     -10.343  16.554  66.858  1.00  0.00    -0.295 OA 
HETATM    2  C   UNL     1     -10.834  15.216  66.792  1.00  0.00    -0.322 C  
HETATM    3  H   UNL     1      -9.781  16.659  67.617  1.00  0.00     0.000 HD 
ENDROOT
BRANCH   2   4
HETATM    4  C   UNL     1     -11.745  15.046  65.560  1.00  0.00    -0.145 C  
BRANCH   4   5
HETATM    5  C   UNL     1     -12.597  13.772  65.553  1.00  0.00    -0.551 C  
BRANCH   5   6
HETATM    6  C   UNL     1     -11.885  12.476  65.101  1.00  0.00    -0.450 C  
HETATM    7  H   UNL     1      -8.340  10.578  65.028  1.00  0.00     0.000 HD 
HETATM    8  C   UNL     1     -10.360  12.277  65.494  1.00  0.00    -0.296 C  
HETATM    9  C   UNL     1     -11.868  12.439  63.567  1.00  0.00    -0.521 C  
HETATM   10  C   UNL     1     -10.853  11.381  63.247  1.00  0.00    -0.292 C  
HETATM   11  O   UNL     1     -13.122  12.083  63.017  1.00  0.00    -0.640 OA 
HETATM   12  O   UNL     1      -9.050  10.414  64.418  1.00  0.00    -0.197 OA 
HETATM   13  H   UNL     1     -13.111  12.060  62.067  1.00  0.00     0.000 HD 
HETATM   14  C   UNL     1      -9.721  11.642  64.218  1.00  0.00    -0.173 C  
BRANCH   8  15
HETATM   15  C   UNL     1     -10.104  11.491  66.820  1.00  0.00    -0.245 C  
BRANCH  15  16
HETATM   16  C   UNL     1     -11.333  10.871  67.461  1.00  0.00    -0.309 C  
HETATM   17  C   UNL     1     -11.606  10.543  68.740  1.00  0.00    -0.252 C  
BRANCH  17  18
HETATM   18  C   UNL     1     -10.738  10.686  69.957  1.00  0.00    -0.215 C  
BRANCH  18  19
HETATM   19  C   UNL     1     -10.239   9.330  70.480  1.00  0.00    -0.309 C  
BRANCH  19  20
HETATM   20  C   UNL     1     -11.253   8.570  71.325  1.00  0.00    -0.321 C  
BRANCH  20  21
HETATM   21  C   UNL     1     -11.472   7.189  70.790  1.00  0.00    -0.305 C  
HETATM   22  O   UNL     1     -11.205   6.796  69.661  1.00  0.00    -0.295 OA 
BRANCH  21  23
HETATM   23  O   UNL     1     -12.153   6.476  71.728  1.00  0.00    -0.338 OA 
BRANCH  23  24
HETATM   24  C   UNL     1     -11.287   6.103  72.779  1.00  0.00    -0.222 C  
BRANCH  24  25
HETATM   25  C   UNL     1     -10.276   5.057  72.363  1.00  0.00    -0.254 C  
BRANCH  25  26
HETATM   26  C   UNL     1      -8.941   5.197  73.092  1.00  0.00    -0.118 C  
BRANCH  26  27
HETATM   27  C   UNL     1      -8.077   6.383  72.640  1.00  0.00    -0.105 C  
BRANCH  27  28
HETATM   28  O   UNL     1      -8.018   6.398  71.231  1.00  0.00    -0.109 OA 
HETATM   29  N   UNL     1      -6.789   5.902  70.736  1.00  0.00    -0.056 N  
HETATM   30  O   UNL     1      -6.709   5.974  69.508  1.00  0.00    -0.051 OA 
HETATM   31  O   UNL     1      -5.978   5.483  71.553  1.00  0.00    -0.026 OA 
ENDBRANCH  27  28
ENDBRANCH  26  27
ENDBRANCH  25  26
ENDBRANCH  24  25
ENDBRANCH  23  24
ENDBRANCH  21  23
ENDBRANCH  20  21
ENDBRANCH  19  20
ENDBRANCH  18  19
ENDBRANCH  17  18
ENDBRANCH  15  16
ENDBRANCH   8  15
ENDBRANCH   5   6
ENDBRANCH   4   5
ENDBRANCH   2   4
BRANCH   2  32
HETATM   32  C   UNL     1     -11.592  14.964  68.087  1.00  0.00    -0.356 C  
BRANCH  32  33
HETATM   33  C   UNL     1     -11.316  16.047  69.123  1.00  0.00    -0.352 C  
BRANCH  33  34
HETATM   34  C   UNL     1     -12.057  15.729  70.380  1.00  0.00    -0.399 A  
HETATM   35  C   UNL     1     -14.129  15.146  71.482  1.00  0.00    -0.636 A  
HETATM   36  C   UNL     1     -12.153  15.655  72.784  1.00  0.00    -0.572 A  
HETATM   37  C   UNL     1     -13.410  15.366  70.310  1.00  0.00     0.106 A  
HETATM   38  C   UNL     1     -11.431  15.875  71.617  1.00  0.00    -0.473 A  
HETATM   39  C   UNL     1     -13.500  15.291  72.717  1.00  0.00    -0.619 A  
ENDBRANCH  33  34
ENDBRANCH  32  33
ENDBRANCH   2  32
TORSDOF 18
ENDMDL
MODEL      240
REMARK 921   NORMALIZED FREE ENERGY PREDICTED BY IDOCK:   -3.95 KCAL/MOL
REMARK 922        TOTAL FREE ENERGY PREDICTED BY IDOCK:  -12.88 KCAL/MOL
REMARK 923 INTER-LIGAND FREE ENERGY PREDICTED BY IDOCK:   -9.03 KCAL/MOL
REMARK 924 INTRA-LIGAND FREE ENERGY PREDICTED BY IDOCK:   -3.85 KCAL/MOL
REMARK 927      BINDING AFFINITY PREDICTED BY RF-SCORE:    0.00 PKD
ROOT
HETATM    1  O   UNL     1     -11.357  12.127  64.272  1.00  0.00    -0.322 OA 
HETATM    2  C   UNL     1     -10.500  11.020  64.546  1.00  0.00    -0.342 C  
HETATM    3  H   UNL     1     -11.654  12.096  63.370  1.00  0.00     0.000 HD 
ENDROOT
BRANCH   2   4
HETATM    4  C   UNL     1     -10.018  11.071  66.009  1.00  0.00    -0.285 C  
BRANCH   4   5
HETATM    5  C   UNL     1     -11.000  10.499  67.037  1.00  0.00    -0.247 C  
BRANCH   5   6
HETATM    6  C   UNL     1     -10.458   9.369  67.943  1.00  0.00    -0.296 C  
HETATM    7  H   UNL     1      -8.059   8.589  71.076  1.00  0.00     0.000 HD 
HETATM    8  C   UNL     1      -9.542   9.765  69.178  1.00  0.00    -0.192 C  
HETATM    9  C   UNL     1      -9.553   8.461  67.101  1.00  0.00    -0.179 C  
HETATM   10  C   UNL     1      -8.802   7.658  68.123  1.00  0.00    -0.125 C  
HETATM   11  O   UNL     1     -10.286   7.594  66.256  1.00  0.00    -0.476 OA 
HETATM   12  O   UNL     1      -8.291   7.957  70.406  1.00  0.00    -0.118 OA 
HETATM   13  H   UNL     1      -9.725   7.031  65.735  1.00  0.00     0.000 HD 
HETATM   14  C   UNL     1      -8.432   8.666  69.191  1.00  0.00    -0.124 C  
BRANCH   8  15
HETATM   15  C   UNL     1     -10.290   9.963  70.535  1.00  0.00    -0.298 C  
BRANCH  15  16
HETATM   16  C   UNL     1     -11.770  10.284  70.426  1.00  0.00    -0.404 C  
HETATM   17  C   UNL     1     -12.427  11.457  70.331  1.00  0.00    -0.345 C  
BRANCH  17  18
HETATM   18  C   UNL     1     -11.871  12.852  70.317  1.00  0.00    -0.291 C  
BRANCH  18  19
HETATM   19  C   UNL     1     -12.281  13.631  69.057  1.00  0.00    -0.245 C  
BRANCH  19  20
HETATM   20  C   UNL     1     -11.111  14.146  68.229  1.00  0.00    -0.274 C  
BRANCH  20  21
HETATM   21  C   UNL     1     -11.501  14.315  66.794  1.00  0.00    -0.367 C  
HETATM   22  O   UNL     1     -12.612  14.122  66.315  1.00  0.00    -0.449 OA 
BRANCH  21  23
HETATM   23  O   UNL     1     -10.374  14.582  66.078  1.00  0.00    -0.285 OA 
BRANCH  23  24
HETATM   24  C   UNL     1     -10.592  15.681  65.218  1.00  0.00    -0.426 C  
BRANCH  24  25
HETATM   25  C   UNL     1      -9.786  16.900  65.610  1.00  0.00    -0.067 C  
BRANCH  25  26
HETATM   26  C   UNL     1     -10.651  18.032  66.160  1.00  0.00    -0.269 C  
BRANCH  26  27
HETATM   27  C   UNL     1     -10.540  18.257  67.675  1.00  0.00    -0.405 C  
BRANCH  27  28
HETATM   28  O   UNL     1      -9.737  17.240  68.233  1.00  0.00    -0.271 OA 
HETATM   29  N   UNL     1      -8.457  17.710  68.612  1.00  0.00    -0.287 N  
HETATM   30  O   UNL     1      -7.730  16.810  69.040  1.00  0.00    -0.240 OA 
HETATM   31  O   UNL     1      -8.228  18.904  68.469  1.00  0.00    -0.331 OA 
ENDBRANCH  27  28
ENDBRANCH  26  27
ENDBRANCH  25  26
ENDBRANCH  24  25
ENDBRANCH  23  24
ENDBRANCH  21  23
ENDBRANCH  20  21
ENDBRANCH  19  20
ENDBRANCH  18  19
ENDBRANCH  17  18
ENDBRANCH  15  16
ENDBRANCH   8  15
ENDBRANCH   5   6
ENDBRANCH   4   5
ENDBRANCH   2   4
BRANCH   2  32
HETATM   32  C   UNL     1      -9.336  11.117  63.570  1.00  0.00    -0.249 C  
BRANCH  32  33
HETATM   33  C   UNL     1      -9.034   9.773  62.918  1.00  0.00    -0.270 C  
BRANCH  33  34
HETATM   34  C   UNL     1      -7.991   9.060  63.714  1.00  0.00    -0.147 A  
HETATM   35  C   UNL     1      -6.993   6.984  64.449  1.00  0.00    -0.055 A  
HETATM   36  C   UNL     1      -6.252   9.092  65.378  1.00  0.00    -0.063 A  
HETATM   37  C   UNL     1      -7.909   7.661  63.649  1.00  0.00    -0.120 A  
HETATM   38  C   UNL     1      -7.164   9.773  64.581  1.00  0.00    -0.131 A  
HETATM   39  C   UNL     1      -6.166   7.699  65.312  1.00  0.00    -0.038 A  
ENDBRANCH  33  34
ENDBRANCH  32  33
ENDBRANCH   2  32
TORSDOF 18
ENDMDL
MODEL      241
REMARK 921   NORMALIZED FREE ENERGY PREDICTED BY IDOCK:   -3.94 KCAL/MOL
REMARK 922        TOTAL FREE ENERGY PREDICTED BY IDOCK:  -12.88 KCAL/MOL
REMARK 923 INTER-LIGAND FREE ENERGY PREDICTED BY IDOCK:  -10.26 KCAL/MOL
REMARK 924 INTRA-LIGAND FREE ENERGY PREDICTED BY IDOCK:   -2.62 KCAL/MOL
REMARK 927      BINDING AFFINITY PREDICTED BY RF-SCORE:    0.00 PKD
ROOT
HETATM    1  O   UNL     1     -12.920  10.389  69.244  1.00  0.00    -0.379 OA 
HETATM    2  C   UNL     1     -11.678  11.089  69.281  1.00  0.00    -0.326 C  
HETATM    3  H   UNL     1     -13.290  10.332  70.118  1.00  0.00     0.000 HD 
ENDROOT
BRANCH   2   4
HETATM    4  C   UNL     1     -11.078  11.181  67.864  1.00  0.00    -0.331 C  
BRANCH   4   5
HETATM    5  C   UNL     1      -9.915  10.224  67.587  1.00  0.00    -0.212 C  
BRANCH   5   6
HETATM    6  C   UNL     1      -9.165  10.430  66.250  1.00  0.00    -0.195 C  
HETATM    7  H   UNL     1      -9.318   9.703  62.298  1.00  0.00     0.000 HD 
HETATM    8  C   UNL     1      -9.866   9.949  64.910  1.00  0.00    -0.282 C  
HETATM    9  C   UNL     1      -7.866   9.613  66.289  1.00  0.00    -0.101 C  
HETATM   10  C   UNL     1      -7.425   9.575  64.855  1.00  0.00    -0.111 C  
HETATM   11  O   UNL     1      -6.864  10.221  67.082  1.00  0.00    -0.080 OA 
HETATM   12  O   UNL     1      -8.517   9.861  62.784  1.00  0.00    -0.144 OA 
HETATM   13  H   UNL     1      -6.060   9.715  67.105  1.00  0.00     0.000 HD 
HETATM   14  C   UNL     1      -8.701   9.323  64.079  1.00  0.00    -0.171 C  
BRANCH   8  15
HETATM   15  C   UNL     1     -10.700  11.037  64.160  1.00  0.00    -0.344 C  
BRANCH  15  16
HETATM   16  C   UNL     1     -10.210  12.465  64.320  1.00  0.00    -0.358 C  
HETATM   17  C   UNL     1     -10.741  13.527  64.957  1.00  0.00    -0.366 C  
BRANCH  17  18
HETATM   18  C   UNL     1     -12.035  13.624  65.715  1.00  0.00    -0.425 C  
BRANCH  18  19
HETATM   19  C   UNL     1     -11.977  14.674  66.835  1.00  0.00    -0.294 C  
BRANCH  19  20
HETATM   20  C   UNL     1     -10.801  14.512  67.789  1.00  0.00    -0.267 C  
BRANCH  20  21
HETATM   21  C   UNL     1     -10.284  15.843  68.238  1.00  0.00    -0.227 C  
HETATM   22  O   UNL     1      -9.515  16.048  69.169  1.00  0.00    -0.228 OA 
BRANCH  21  23
HETATM   23  O   UNL     1     -10.928  16.808  67.526  1.00  0.00    -0.261 OA 
BRANCH  23  24
HETATM   24  C   UNL     1     -10.735  18.070  68.131  1.00  0.00    -0.250 C  
BRANCH  24  25
HETATM   25  C   UNL     1     -10.895  19.218  67.158  1.00  0.00    -0.543 C  
BRANCH  25  26
HETATM   26  C   UNL     1      -9.725  19.339  66.185  1.00  0.00    -0.388 C  
BRANCH  26  27
HETATM   27  C   UNL     1      -8.392  19.756  66.822  1.00  0.00    -0.319 C  
BRANCH  27  28
HETATM   28  O   UNL     1      -7.471  18.694  66.697  1.00  0.00    -0.218 OA 
HETATM   29  N   UNL     1      -6.998  18.239  67.950  1.00  0.00    -0.208 N  
HETATM   30  O   UNL     1      -6.145  17.355  67.842  1.00  0.00    -0.138 OA 
HETATM   31  O   UNL     1      -7.465  18.761  68.954  1.00  0.00    -0.312 OA 
ENDBRANCH  27  28
ENDBRANCH  26  27
ENDBRANCH  25  26
ENDBRANCH  24  25
ENDBRANCH  23  24
ENDBRANCH  21  23
ENDBRANCH  20  21
ENDBRANCH  19  20
ENDBRANCH  18  19
ENDBRANCH  17  18
ENDBRANCH  15  16
ENDBRANCH   8  15
ENDBRANCH   5   6
ENDBRANCH   4   5
ENDBRANCH   2   4
BRANCH   2  32
HETATM   32  C   UNL     1     -10.768  10.315  70.223  1.00  0.00    -0.310 C  
BRANCH  32  33
HETATM   33  C   UNL     1     -11.537   9.744  71.409  1.00  0.00    -0.452 C  
BRANCH  33  34
HETATM   34  C   UNL     1     -11.195   8.299  71.571  1.00  0.00    -0.316 A  
HETATM   35  C   UNL     1     -10.987   6.092  70.609  1.00  0.00    -0.376 A  
HETATM   36  C   UNL     1     -10.695   6.420  72.989  1.00  0.00    -0.286 A  
HETATM   37  C   UNL     1     -11.226   7.454  70.453  1.00  0.00    -0.284 A  
HETATM   38  C   UNL     1     -10.932   7.781  72.838  1.00  0.00    -0.467 A  
HETATM   39  C   UNL     1     -10.722   5.576  71.876  1.00  0.00    -0.292 A  
ENDBRANCH  33  34
ENDBRANCH  32  33
ENDBRANCH   2  32
TORSDOF 18
ENDMDL
MODEL      242
REMARK 921   NORMALIZED FREE ENERGY PREDICTED BY IDOCK:   -3.94 KCAL/MOL
REMARK 922        TOTAL FREE ENERGY PREDICTED BY IDOCK:  -12.88 KCAL/MOL
REMARK 923 INTER-LIGAND FREE ENERGY PREDICTED BY IDOCK:   -9.64 KCAL/MOL
REMARK 924 INTRA-LIGAND FREE ENERGY PREDICTED BY IDOCK:   -3.24 KCAL/MOL
REMARK 927      BINDING AFFINITY PREDICTED BY RF-SCORE:    0.00 PKD
ROOT
HETATM    1  O   UNL     1      -6.092   9.976  70.066  1.00  0.00    -0.045 OA 
HETATM    2  C   UNL     1      -7.315  10.013  69.333  1.00  0.00    -0.100 C  
HETATM    3  H   UNL     1      -5.365  10.219  69.505  1.00  0.00     0.000 HD 
ENDROOT
BRANCH   2   4
HETATM    4  C   UNL     1      -8.493   9.618  70.245  1.00  0.00    -0.221 C  
BRANCH   4   5
HETATM    5  C   UNL     1      -8.305   8.310  71.020  1.00  0.00    -0.138 C  
BRANCH   5   6
HETATM    6  C   UNL     1      -9.515   7.346  71.035  1.00  0.00    -0.157 C  
HETATM    7  H   UNL     1     -13.180   6.762  72.584  1.00  0.00     0.000 HD 
HETATM    8  C   UNL     1     -10.812   7.775  71.844  1.00  0.00    -0.281 C  
HETATM    9  C   UNL     1      -9.087   6.037  71.712  1.00  0.00    -0.145 C  
HETATM   10  C   UNL     1     -10.386   5.348  72.012  1.00  0.00    -0.268 C  
HETATM   11  O   UNL     1      -8.295   5.221  70.869  1.00  0.00    -0.112 OA 
HETATM   12  O   UNL     1     -12.617   6.069  72.260  1.00  0.00    -0.150 OA 
HETATM   13  H   UNL     1      -8.031   4.411  71.288  1.00  0.00     0.000 HD 
HETATM   14  C   UNL     1     -11.283   6.453  72.529  1.00  0.00    -0.272 C  
BRANCH   8  15
HETATM   15  C   UNL     1     -11.908   8.514  71.012  1.00  0.00    -0.290 C  
BRANCH  15  16
HETATM   16  C   UNL     1     -12.029  10.006  71.267  1.00  0.00    -0.483 C  
HETATM   17  C   UNL     1     -11.951  11.065  70.436  1.00  0.00    -0.459 C  
BRANCH  17  18
HETATM   18  C   UNL     1     -11.696  11.087  68.956  1.00  0.00    -0.402 C  
BRANCH  18  19
HETATM   19  C   UNL     1     -11.266  12.476  68.459  1.00  0.00    -0.322 C  
BRANCH  19  20
HETATM   20  C   UNL     1     -11.726  12.807  67.045  1.00  0.00    -0.440 C  
BRANCH  20  21
HETATM   21  C   UNL     1     -11.650  14.279  66.785  1.00  0.00    -0.391 C  
HETATM   22  O   UNL     1     -11.428  14.816  65.707  1.00  0.00    -0.349 OA 
BRANCH  21  23
HETATM   23  O   UNL     1     -11.726  14.924  67.981  1.00  0.00    -0.333 OA 
BRANCH  23  24
HETATM   24  C   UNL     1     -11.255  16.249  67.851  1.00  0.00    -0.213 C  
BRANCH  24  25
HETATM   25  C   UNL     1     -10.441  16.702  69.044  1.00  0.00    -0.328 C  
BRANCH  25  26
HETATM   26  C   UNL     1      -8.939  16.515  68.844  1.00  0.00    -0.245 C  
BRANCH  26  27
HETATM   27  C   UNL     1      -8.205  17.733  68.265  1.00  0.00    -0.285 C  
BRANCH  27  28
HETATM   28  O   UNL     1      -9.044  18.863  68.360  1.00  0.00    -0.319 OA 
HETATM   29  N   UNL     1      -9.292  19.458  67.100  1.00  0.00    -0.311 N  
HETATM   30  O   UNL     1      -9.972  20.484  67.188  1.00  0.00    -0.452 OA 
HETATM   31  O   UNL     1      -8.817  18.912  66.113  1.00  0.00    -0.429 OA 
ENDBRANCH  27  28
ENDBRANCH  26  27
ENDBRANCH  25  26
ENDBRANCH  24  25
ENDBRANCH  23  24
ENDBRANCH  21  23
ENDBRANCH  20  21
ENDBRANCH  19  20
ENDBRANCH  18  19
ENDBRANCH  17  18
ENDBRANCH  15  16
ENDBRANCH   8  15
ENDBRANCH   5   6
ENDBRANCH   4   5
ENDBRANCH   2   4
BRANCH   2  32
HETATM   32  C   UNL     1      -7.158   9.042  68.172  1.00  0.00    -0.078 C  
BRANCH  32  33
HETATM   33  C   UNL     1      -8.322   9.141  67.193  1.00  0.00    -0.117 C  
BRANCH  33  34
HETATM   34  C   UNL     1      -9.053   7.839  67.161  1.00  0.00    -0.154 A  
HETATM   35  C   UNL     1      -9.016   5.440  66.858  1.00  0.00    -0.110 A  
HETATM   36  C   UNL     1     -11.120   6.607  67.124  1.00  0.00    -0.427 A  
HETATM   37  C   UNL     1      -8.335   6.649  66.969  1.00  0.00    -0.113 A  
HETATM   38  C   UNL     1     -10.445   7.816  67.236  1.00  0.00    -0.392 A  
HETATM   39  C   UNL     1     -10.408   5.420  66.936  1.00  0.00    -0.310 A  
ENDBRANCH  33  34
ENDBRANCH  32  33
ENDBRANCH   2  32
TORSDOF 18
ENDMDL
MODEL      243
REMARK 921   NORMALIZED FREE ENERGY PREDICTED BY IDOCK:   -3.93 KCAL/MOL
REMARK 922        TOTAL FREE ENERGY PREDICTED BY IDOCK:  -12.85 KCAL/MOL
REMARK 923 INTER-LIGAND FREE ENERGY PREDICTED BY IDOCK:   -9.04 KCAL/MOL
REMARK 924 INTRA-LIGAND FREE ENERGY PREDICTED BY IDOCK:   -3.81 KCAL/MOL
REMARK 927      BINDING AFFINITY PREDICTED BY RF-SCORE:    0.00 PKD
ROOT
HETATM    1  O   UNL     1     -11.249   9.401  67.928  1.00  0.00    -0.509 OA 
HETATM    2  C   UNL     1     -10.718  10.548  68.589  1.00  0.00    -0.215 C  
HETATM    3  H   UNL     1     -11.733   9.663  67.153  1.00  0.00     0.000 HD 
ENDROOT
BRANCH   2   4
HETATM    4  C   UNL     1      -9.932  10.121  69.844  1.00  0.00    -0.250 C  
BRANCH   4   5
HETATM    5  C   UNL     1     -10.776   9.489  70.956  1.00  0.00    -0.411 C  
BRANCH   5   6
HETATM    6  C   UNL     1     -10.384   8.055  71.379  1.00  0.00    -0.243 C  
HETATM    7  H   UNL     1     -11.760   4.295  71.767  1.00  0.00     0.000 HD 
HETATM    8  C   UNL     1     -11.449   6.893  71.186  1.00  0.00    -0.347 C  
HETATM    9  C   UNL     1     -10.116   8.048  72.890  1.00  0.00    -0.306 C  
HETATM   10  C   UNL     1     -10.124   6.590  73.248  1.00  0.00    -0.221 C  
HETATM   11  O   UNL     1      -8.863   8.616  73.224  1.00  0.00    -0.323 OA 
HETATM   12  O   UNL     1     -11.025   4.652  72.254  1.00  0.00    -0.088 OA 
HETATM   13  H   UNL     1      -8.698   8.612  74.159  1.00  0.00     0.000 HD 
HETATM   14  C   UNL     1     -11.294   6.022  72.473  1.00  0.00    -0.300 C  
BRANCH   8  15
HETATM   15  C   UNL     1     -11.348   6.105  69.841  1.00  0.00    -0.454 C  
BRANCH  15  16
HETATM   16  C   UNL     1     -10.056   6.295  69.066  1.00  0.00    -0.206 C  
HETATM   17  C   UNL     1      -9.749   6.079  67.771  1.00  0.00    -0.119 C  
BRANCH  17  18
HETATM   18  C   UNL     1     -10.623   5.552  66.669  1.00  0.00    -0.365 C  
BRANCH  18  19
HETATM   19  C   UNL     1      -9.892   4.532  65.782  1.00  0.00    -0.231 C  
BRANCH  19  20
HETATM   20  C   UNL     1      -9.324   3.337  66.536  1.00  0.00    -0.145 C  
BRANCH  20  21
HETATM   21  C   UNL     1      -7.966   2.973  66.023  1.00  0.00    -0.085 C  
HETATM   22  O   UNL     1      -7.621   2.928  64.849  1.00  0.00    -0.074 OA 
BRANCH  21  23
HETATM   23  O   UNL     1      -7.213   2.557  67.079  1.00  0.00    -0.055 OA 
BRANCH  23  24
HETATM   24  C   UNL     1      -6.930   3.645  67.933  1.00  0.00    -0.051 C  
BRANCH  24  25
HETATM   25  C   UNL     1      -5.795   4.509  67.425  1.00  0.00    -0.023 C  
BRANCH  25  26
HETATM   26  C   UNL     1      -5.893   5.957  67.899  1.00  0.00    -0.013 C  
BRANCH  26  27
HETATM   27  C   UNL     1      -6.283   6.134  69.374  1.00  0.00    -0.033 C  
BRANCH  27  28
HETATM   28  O   UNL     1      -6.365   7.511  69.666  1.00  0.00    -0.030 OA 
HETATM   29  N   UNL     1      -6.743   7.757  71.007  1.00  0.00    -0.038 N  
HETATM   30  O   UNL     1      -6.878   8.959  71.247  1.00  0.00    -0.078 OA 
HETATM   31  O   UNL     1      -6.892   6.787  71.739  1.00  0.00    -0.067 OA 
ENDBRANCH  27  28
ENDBRANCH  26  27
ENDBRANCH  25  26
ENDBRANCH  24  25
ENDBRANCH  23  24
ENDBRANCH  21  23
ENDBRANCH  20  21
ENDBRANCH  19  20
ENDBRANCH  18  19
ENDBRANCH  17  18
ENDBRANCH  15  16
ENDBRANCH   8  15
ENDBRANCH   5   6
ENDBRANCH   4   5
ENDBRANCH   2   4
BRANCH   2  32
HETATM   32  C   UNL     1     -11.902  11.434  68.945  1.00  0.00    -0.413 C  
BRANCH  32  33
HETATM   33  C   UNL     1     -11.489  12.893  69.098  1.00  0.00    -0.360 C  
BRANCH  33  34
HETATM   34  C   UNL     1     -12.251  13.507  70.227  1.00  0.00    -0.417 A  
HETATM   35  C   UNL     1     -13.518  13.240  72.269  1.00  0.00    -0.679 A  
HETATM   36  C   UNL     1     -13.325  15.415  71.225  1.00  0.00    -0.598 A  
HETATM   37  C   UNL     1     -12.739  12.688  71.256  1.00  0.00    -0.354 A  
HETATM   38  C   UNL     1     -12.547  14.869  70.212  1.00  0.00    -0.361 A  
HETATM   39  C   UNL     1     -13.811  14.602  72.253  1.00  0.00    -0.583 A  
ENDBRANCH  33  34
ENDBRANCH  32  33
ENDBRANCH   2  32
TORSDOF 18
ENDMDL
MODEL      244
REMARK 921   NORMALIZED FREE ENERGY PREDICTED BY IDOCK:   -3.93 KCAL/MOL
REMARK 922        TOTAL FREE ENERGY PREDICTED BY IDOCK:  -12.85 KCAL/MOL
REMARK 923 INTER-LIGAND FREE ENERGY PREDICTED BY IDOCK:   -8.88 KCAL/MOL
REMARK 924 INTRA-LIGAND FREE ENERGY PREDICTED BY IDOCK:   -3.97 KCAL/MOL
REMARK 927      BINDING AFFINITY PREDICTED BY RF-SCORE:    0.00 PKD
ROOT
HETATM    1  O   UNL     1     -11.933  13.929  67.046  1.00  0.00    -0.391 OA 
HETATM    2  C   UNL     1     -11.830  12.557  66.670  1.00  0.00    -0.352 C  
HETATM    3  H   UNL     1     -11.814  14.487  66.286  1.00  0.00     0.000 HD 
ENDROOT
BRANCH   2   4
HETATM    4  C   UNL     1     -12.024  11.652  67.903  1.00  0.00    -0.159 C  
BRANCH   4   5
HETATM    5  C   UNL     1     -10.813  11.559  68.838  1.00  0.00    -0.263 C  
BRANCH   5   6
HETATM    6  C   UNL     1     -11.084  10.994  70.251  1.00  0.00    -0.085 C  
HETATM    7  H   UNL     1     -11.344   7.602  72.396  1.00  0.00     0.000 HD 
HETATM    8  C   UNL     1     -10.924   9.432  70.483  1.00  0.00    -0.332 C  
HETATM    9  C   UNL     1     -12.551  11.262  70.610  1.00  0.00    -0.288 C  
HETATM   10  C   UNL     1     -12.800  10.367  71.789  1.00  0.00    -0.561 C  
HETATM   11  O   UNL     1     -12.786  12.610  70.974  1.00  0.00    -0.324 OA 
HETATM   12  O   UNL     1     -11.771   8.419  72.628  1.00  0.00    -0.386 OA 
HETATM   13  H   UNL     1     -13.694  12.775  71.197  1.00  0.00     0.000 HD 
HETATM   14  C   UNL     1     -12.119   9.066  71.420  1.00  0.00    -0.327 C  
BRANCH   8  15
HETATM   15  C   UNL     1      -9.522   8.968  70.992  1.00  0.00    -0.342 C  
BRANCH  15  16
HETATM   16  C   UNL     1      -8.602   8.384  69.935  1.00  0.00    -0.131 C  
HETATM   17  C   UNL     1      -7.667   8.954  69.148  1.00  0.00    -0.092 C  
BRANCH  17  18
HETATM   18  C   UNL     1      -7.251  10.395  69.068  1.00  0.00    -0.088 C  
BRANCH  18  19
HETATM   19  C   UNL     1      -6.720  10.773  67.677  1.00  0.00    -0.069 C  
BRANCH  19  20
HETATM   20  C   UNL     1      -7.122  12.165  67.208  1.00  0.00    -0.144 C  
BRANCH  20  21
HETATM   21  C   UNL     1      -6.570  13.219  68.117  1.00  0.00    -0.115 C  
HETATM   22  O   UNL     1      -5.390  13.392  68.397  1.00  0.00    -0.079 OA 
BRANCH  21  23
HETATM   23  O   UNL     1      -7.617  13.867  68.697  1.00  0.00    -0.127 OA 
BRANCH  23  24
HETATM   24  C   UNL     1      -7.161  15.021  69.372  1.00  0.00    -0.186 C  
BRANCH  24  25
HETATM   25  C   UNL     1      -8.017  16.238  69.098  1.00  0.00    -0.221 C  
BRANCH  25  26
HETATM   26  C   UNL     1      -7.422  17.157  68.034  1.00  0.00    -0.197 C  
BRANCH  26  27
HETATM   27  C   UNL     1      -7.845  18.629  68.137  1.00  0.00    -0.287 C  
BRANCH  27  28
HETATM   28  O   UNL     1      -7.504  19.117  69.416  1.00  0.00    -0.231 OA 
HETATM   29  N   UNL     1      -6.487  20.100  69.365  1.00  0.00    -0.315 N  
HETATM   30  O   UNL     1      -6.141  20.481  70.486  1.00  0.00    -0.517 OA 
HETATM   31  O   UNL     1      -6.081  20.437  68.260  1.00  0.00    -0.255 OA 
ENDBRANCH  27  28
ENDBRANCH  26  27
ENDBRANCH  25  26
ENDBRANCH  24  25
ENDBRANCH  23  24
ENDBRANCH  21  23
ENDBRANCH  20  21
ENDBRANCH  19  20
ENDBRANCH  18  19
ENDBRANCH  17  18
ENDBRANCH  15  16
ENDBRANCH   8  15
ENDBRANCH   5   6
ENDBRANCH   4   5
ENDBRANCH   2   4
BRANCH   2  32
HETATM   32  C   UNL     1     -10.451  12.374  66.055  1.00  0.00    -0.281 C  
BRANCH  32  33
HETATM   33  C   UNL     1     -10.498  11.484  64.817  1.00  0.00    -0.354 C  
BRANCH  33  34
HETATM   34  C   UNL     1      -9.593  10.313  65.016  1.00  0.00    -0.346 A  
HETATM   35  C   UNL     1      -7.679   9.020  64.302  1.00  0.00    -0.123 A  
HETATM   36  C   UNL     1      -9.095   8.220  66.093  1.00  0.00    -0.238 A  
HETATM   37  C   UNL     1      -8.481  10.150  64.176  1.00  0.00    -0.182 A  
HETATM   38  C   UNL     1      -9.900   9.346  65.972  1.00  0.00    -0.366 A  
HETATM   39  C   UNL     1      -7.986   8.056  65.260  1.00  0.00    -0.124 A  
ENDBRANCH  33  34
ENDBRANCH  32  33
ENDBRANCH   2  32
TORSDOF 18
ENDMDL
MODEL      245
REMARK 921   NORMALIZED FREE ENERGY PREDICTED BY IDOCK:   -3.93 KCAL/MOL
REMARK 922        TOTAL FREE ENERGY PREDICTED BY IDOCK:  -12.85 KCAL/MOL
REMARK 923 INTER-LIGAND FREE ENERGY PREDICTED BY IDOCK:   -9.97 KCAL/MOL
REMARK 924 INTRA-LIGAND FREE ENERGY PREDICTED BY IDOCK:   -2.88 KCAL/MOL
REMARK 927      BINDING AFFINITY PREDICTED BY RF-SCORE:    0.00 PKD
ROOT
HETATM    1  O   UNL     1     -12.532   8.467  72.871  1.00  0.00    -0.585 OA 
HETATM    2  C   UNL     1     -11.390   7.774  72.371  1.00  0.00    -0.346 C  
HETATM    3  H   UNL     1     -13.114   7.862  73.316  1.00  0.00     0.000 HD 
ENDROOT
BRANCH   2   4
HETATM    4  C   UNL     1     -10.446   8.755  71.650  1.00  0.00    -0.387 C  
BRANCH   4   5
HETATM    5  C   UNL     1      -8.957   8.570  71.959  1.00  0.00    -0.301 C  
BRANCH   5   6
HETATM    6  C   UNL     1      -7.968   9.085  70.887  1.00  0.00    -0.194 C  
HETATM    7  H   UNL     1      -6.664   8.500  67.127  1.00  0.00     0.000 HD 
HETATM    8  C   UNL     1      -8.017   8.432  69.440  1.00  0.00    -0.112 C  
HETATM    9  C   UNL     1      -6.538   8.796  71.363  1.00  0.00    -0.078 C  
HETATM   10  C   UNL     1      -5.707   8.975  70.126  1.00  0.00    -0.030 C  
HETATM   11  O   UNL     1      -6.106   9.697  72.365  1.00  0.00    -0.297 OA 
HETATM   12  O   UNL     1      -6.158   8.921  67.812  1.00  0.00    -0.050 OA 
HETATM   13  H   UNL     1      -5.220   9.518  72.659  1.00  0.00     0.000 HD 
HETATM   14  C   UNL     1      -6.514   8.305  69.034  1.00  0.00    -0.047 C  
BRANCH   8  15
HETATM   15  C   UNL     1      -8.920   9.169  68.400  1.00  0.00    -0.133 C  
BRANCH  15  16
HETATM   16  C   UNL     1      -8.698  10.666  68.284  1.00  0.00    -0.135 C  
HETATM   17  C   UNL     1      -9.543  11.709  68.412  1.00  0.00    -0.195 C  
BRANCH  17  18
HETATM   18  C   UNL     1     -11.016  11.700  68.706  1.00  0.00    -0.274 C  
BRANCH  18  19
HETATM   19  C   UNL     1     -11.804  12.625  67.764  1.00  0.00    -0.381 C  
BRANCH  19  20
HETATM   20  C   UNL     1     -11.726  12.238  66.293  1.00  0.00    -0.431 C  
BRANCH  20  21
HETATM   21  C   UNL     1     -12.223  13.346  65.418  1.00  0.00    -0.452 C  
HETATM   22  O   UNL     1     -13.358  13.806  65.403  1.00  0.00    -0.669 OA 
BRANCH  21  23
HETATM   23  O   UNL     1     -11.237  13.661  64.534  1.00  0.00    -0.359 OA 
BRANCH  23  24
HETATM   24  C   UNL     1     -10.277  14.492  65.153  1.00  0.00    -0.389 C  
BRANCH  24  25
HETATM   25  C   UNL     1     -10.894  15.694  65.835  1.00  0.00    -0.297 C  
BRANCH  25  26
HETATM   26  C   UNL     1      -9.924  16.865  65.968  1.00  0.00    -0.313 C  
BRANCH  26  27
HETATM   27  C   UNL     1      -9.430  17.140  67.395  1.00  0.00    -0.247 C  
BRANCH  27  28
HETATM   28  O   UNL     1      -9.195  15.911  68.046  1.00  0.00    -0.191 OA 
HETATM   29  N   UNL     1      -8.091  15.969  68.928  1.00  0.00    -0.204 N  
HETATM   30  O   UNL     1      -7.843  14.878  69.448  1.00  0.00    -0.179 OA 
HETATM   31  O   UNL     1      -7.528  17.048  69.060  1.00  0.00    -0.239 OA 
ENDBRANCH  27  28
ENDBRANCH  26  27
ENDBRANCH  25  26
ENDBRANCH  24  25
ENDBRANCH  23  24
ENDBRANCH  21  23
ENDBRANCH  20  21
ENDBRANCH  19  20
ENDBRANCH  18  19
ENDBRANCH  17  18
ENDBRANCH  15  16
ENDBRANCH   8  15
ENDBRANCH   5   6
ENDBRANCH   4   5
ENDBRANCH   2   4
BRANCH   2  32
HETATM   32  C   UNL     1     -11.910   6.701  71.425  1.00  0.00    -0.388 C  
BRANCH  32  33
HETATM   33  C   UNL     1     -10.860   5.629  71.156  1.00  0.00    -0.288 C  
BRANCH  33  34
HETATM   34  C   UNL     1     -10.575   5.574  69.691  1.00  0.00    -0.375 A  
HETATM   35  C   UNL     1      -9.224   4.745  67.865  1.00  0.00    -0.146 A  
HETATM   36  C   UNL     1     -10.936   6.407  67.462  1.00  0.00    -0.454 A  
HETATM   37  C   UNL     1      -9.549   4.742  69.218  1.00  0.00    -0.243 A  
HETATM   38  C   UNL     1     -11.265   6.407  68.812  1.00  0.00    -0.358 A  
HETATM   39  C   UNL     1      -9.917   5.577  66.988  1.00  0.00    -0.198 A  
ENDBRANCH  33  34
ENDBRANCH  32  33
ENDBRANCH   2  32
TORSDOF 18
ENDMDL
MODEL      246
REMARK 921   NORMALIZED FREE ENERGY PREDICTED BY IDOCK:   -3.91 KCAL/MOL
REMARK 922        TOTAL FREE ENERGY PREDICTED BY IDOCK:  -12.81 KCAL/MOL
REMARK 923 INTER-LIGAND FREE ENERGY PREDICTED BY IDOCK:  -10.09 KCAL/MOL
REMARK 924 INTRA-LIGAND FREE ENERGY PREDICTED BY IDOCK:   -2.72 KCAL/MOL
REMARK 927      BINDING AFFINITY PREDICTED BY RF-SCORE:    0.00 PKD
ROOT
HETATM    1  O   UNL     1     -11.128   7.452  66.763  1.00  0.00    -0.507 OA 
HETATM    2  C   UNL     1     -10.655   6.612  67.814  1.00  0.00    -0.252 C  
HETATM    3  H   UNL     1     -11.869   7.047  66.328  1.00  0.00     0.000 HD 
ENDROOT
BRANCH   2   4
HETATM    4  C   UNL     1      -9.453   7.270  68.520  1.00  0.00    -0.140 C  
BRANCH   4   5
HETATM    5  C   UNL     1      -8.850   6.457  69.671  1.00  0.00    -0.137 C  
BRANCH   5   6
HETATM    6  C   UNL     1      -9.840   5.596  70.490  1.00  0.00    -0.249 C  
HETATM    7  H   UNL     1     -12.298   5.617  73.673  1.00  0.00     0.000 HD 
HETATM    8  C   UNL     1     -10.632   6.283  71.682  1.00  0.00    -0.271 C  
HETATM    9  C   UNL     1      -9.054   4.474  71.181  1.00  0.00    -0.133 C  
HETATM   10  C   UNL     1     -10.008   3.953  72.216  1.00  0.00    -0.236 C  
HETATM   11  O   UNL     1      -8.696   3.432  70.292  1.00  0.00    -0.060 OA 
HETATM   12  O   UNL     1     -11.906   4.835  73.302  1.00  0.00    -0.261 OA 
HETATM   13  H   UNL     1      -8.209   2.737  70.720  1.00  0.00     0.000 HD 
HETATM   14  C   UNL     1     -10.633   5.200  72.807  1.00  0.00    -0.229 C  
BRANCH   8  15
HETATM   15  C   UNL     1     -12.039   6.852  71.314  1.00  0.00    -0.419 C  
BRANCH  15  16
HETATM   16  C   UNL     1     -12.377   8.204  71.916  1.00  0.00    -0.371 C  
HETATM   17  C   UNL     1     -12.101   9.459  71.508  1.00  0.00    -0.456 C  
BRANCH  17  18
HETATM   18  C   UNL     1     -11.335   9.912  70.298  1.00  0.00    -0.357 C  
BRANCH  18  19
HETATM   19  C   UNL     1     -11.841  11.259  69.757  1.00  0.00    -0.437 C  
BRANCH  19  20
HETATM   20  C   UNL     1     -11.605  11.465  68.267  1.00  0.00    -0.376 C  
BRANCH  20  21
HETATM   21  C   UNL     1     -11.233  12.885  67.973  1.00  0.00    -0.268 C  
HETATM   22  O   UNL     1     -10.256  13.484  68.405  1.00  0.00    -0.237 OA 
BRANCH  21  23
HETATM   23  O   UNL     1     -12.244  13.447  67.256  1.00  0.00    -0.335 OA 
BRANCH  23  24
HETATM   24  C   UNL     1     -11.843  13.640  65.916  1.00  0.00    -0.378 C  
BRANCH  24  25
HETATM   25  C   UNL     1     -12.587  12.748  64.946  1.00  0.00    -0.541 C  
BRANCH  25  26
HETATM   26  C   UNL     1     -11.946  12.710  63.561  1.00  0.00    -0.630 C  
BRANCH  26  27
HETATM   27  C   UNL     1     -10.503  12.186  63.529  1.00  0.00    -0.454 C  
BRANCH  27  28
HETATM   28  O   UNL     1     -10.501  10.820  63.882  1.00  0.00    -0.338 OA 
HETATM   29  N   UNL     1      -9.705  10.558  65.022  1.00  0.00    -0.265 N  
HETATM   30  O   UNL     1      -9.650   9.356  65.294  1.00  0.00    -0.269 OA 
HETATM   31  O   UNL     1      -9.179  11.514  65.577  1.00  0.00    -0.211 OA 
ENDBRANCH  27  28
ENDBRANCH  26  27
ENDBRANCH  25  26
ENDBRANCH  24  25
ENDBRANCH  23  24
ENDBRANCH  21  23
ENDBRANCH  20  21
ENDBRANCH  19  20
ENDBRANCH  18  19
ENDBRANCH  17  18
ENDBRANCH  15  16
ENDBRANCH   8  15
ENDBRANCH   5   6
ENDBRANCH   4   5
ENDBRANCH   2   4
BRANCH   2  32
HETATM   32  C   UNL     1     -10.269   5.286  67.174  1.00  0.00    -0.264 C  
BRANCH  32  33
HETATM   33  C   UNL     1      -9.126   5.451  66.179  1.00  0.00    -0.154 C  
BRANCH  33  34
HETATM   34  C   UNL     1      -9.319   4.502  65.042  1.00  0.00    -0.157 A  
HETATM   35  C   UNL     1      -8.381   3.230  63.214  1.00  0.00    -0.085 A  
HETATM   36  C   UNL     1     -10.777   3.319  63.537  1.00  0.00    -0.252 A  
HETATM   37  C   UNL     1      -8.203   4.050  64.324  1.00  0.00    -0.091 A  
HETATM   38  C   UNL     1     -10.605   4.138  64.646  1.00  0.00    -0.176 A  
HETATM   39  C   UNL     1      -9.667   2.865  62.821  1.00  0.00    -0.092 A  
ENDBRANCH  33  34
ENDBRANCH  32  33
ENDBRANCH   2  32
TORSDOF 18
ENDMDL
MODEL      247
REMARK 921   NORMALIZED FREE ENERGY PREDICTED BY IDOCK:   -3.89 KCAL/MOL
REMARK 922        TOTAL FREE ENERGY PREDICTED BY IDOCK:  -12.78 KCAL/MOL
REMARK 923 INTER-LIGAND FREE ENERGY PREDICTED BY IDOCK:   -9.85 KCAL/MOL
REMARK 924 INTRA-LIGAND FREE ENERGY PREDICTED BY IDOCK:   -2.93 KCAL/MOL
REMARK 927      BINDING AFFINITY PREDICTED BY RF-SCORE:    0.00 PKD
ROOT
HETATM    1  O   UNL     1     -12.504  14.213  63.186  1.00  0.00    -1.126 OA 
HETATM    2  C   UNL     1     -12.267  14.106  64.588  1.00  0.00    -0.445 C  
HETATM    3  H   UNL     1     -13.282  13.723  62.947  1.00  0.00     0.000 HD 
ENDROOT
BRANCH   2   4
HETATM    4  C   UNL     1     -11.005  14.901  64.977  1.00  0.00    -0.432 C  
BRANCH   4   5
HETATM    5  C   UNL     1      -9.958  14.112  65.769  1.00  0.00    -0.331 C  
BRANCH   5   6
HETATM    6  C   UNL     1      -9.975  14.304  67.304  1.00  0.00    -0.252 C  
HETATM    7  H   UNL     1     -12.362  15.054  70.453  1.00  0.00     0.000 HD 
HETATM    8  C   UNL     1     -11.377  14.489  68.025  1.00  0.00    -0.326 C  
HETATM    9  C   UNL     1      -9.225  15.599  67.641  1.00  0.00    -0.193 C  
HETATM   10  C   UNL     1      -9.621  15.882  69.061  1.00  0.00    -0.247 C  
HETATM   11  O   UNL     1      -7.819  15.452  67.557  1.00  0.00    -0.140 OA 
HETATM   12  O   UNL     1     -11.429  15.237  70.430  1.00  0.00    -0.254 OA 
HETATM   13  H   UNL     1      -7.355  16.254  67.766  1.00  0.00     0.000 HD 
HETATM   14  C   UNL     1     -11.106  15.590  69.099  1.00  0.00    -0.272 C  
BRANCH   8  15
HETATM   15  C   UNL     1     -12.029  13.179  68.573  1.00  0.00    -0.324 C  
BRANCH  15  16
HETATM   16  C   UNL     1     -11.086  12.004  68.755  1.00  0.00    -0.298 C  
HETATM   17  C   UNL     1     -11.137  10.934  69.573  1.00  0.00    -0.326 C  
BRANCH  17  18
HETATM   18  C   UNL     1     -12.175  10.577  70.598  1.00  0.00    -0.446 C  
BRANCH  18  19
HETATM   19  C   UNL     1     -11.896   9.221  71.264  1.00  0.00    -0.415 C  
BRANCH  19  20
HETATM   20  C   UNL     1     -10.504   8.664  70.996  1.00  0.00    -0.276 C  
BRANCH  20  21
HETATM   21  C   UNL     1     -10.564   7.479  70.084  1.00  0.00    -0.235 C  
HETATM   22  O   UNL     1     -11.180   7.406  69.027  1.00  0.00     0.019 OA 
BRANCH  21  23
HETATM   23  O   UNL     1      -9.936   6.440  70.699  1.00  0.00    -0.182 OA 
BRANCH  23  24
HETATM   24  C   UNL     1      -9.145   5.730  69.768  1.00  0.00    -0.136 C  
BRANCH  24  25
HETATM   25  C   UNL     1      -7.666   5.802  70.080  1.00  0.00    -0.087 C  
BRANCH  25  26
HETATM   26  C   UNL     1      -7.086   7.201  69.891  1.00  0.00    -0.073 C  
BRANCH  26  27
HETATM   27  C   UNL     1      -6.213   7.705  71.050  1.00  0.00    -0.035 C  
BRANCH  27  28
HETATM   28  O   UNL     1      -6.750   7.235  72.267  1.00  0.00    -0.058 OA 
HETATM   29  N   UNL     1      -7.161   8.288  73.118  1.00  0.00    -0.119 N  
HETATM   30  O   UNL     1      -7.570   7.882  74.209  1.00  0.00    -0.146 OA 
HETATM   31  O   UNL     1      -7.058   9.431  72.694  1.00  0.00     0.018 OA 
ENDBRANCH  27  28
ENDBRANCH  26  27
ENDBRANCH  25  26
ENDBRANCH  24  25
ENDBRANCH  23  24
ENDBRANCH  21  23
ENDBRANCH  20  21
ENDBRANCH  19  20
ENDBRANCH  18  19
ENDBRANCH  17  18
ENDBRANCH  15  16
ENDBRANCH   8  15
ENDBRANCH   5   6
ENDBRANCH   4   5
ENDBRANCH   2   4
BRANCH   2  32
HETATM   32  C   UNL     1     -12.109  12.624  64.894  1.00  0.00    -0.494 C  
BRANCH  32  33
HETATM   33  C   UNL     1     -11.760  11.824  63.644  1.00  0.00    -0.517 C  
BRANCH  33  34
HETATM   34  C   UNL     1     -10.428  11.174  63.828  1.00  0.00    -0.444 A  
HETATM   35  C   UNL     1      -8.333  10.421  62.885  1.00  0.00    -0.180 A  
HETATM   36  C   UNL     1      -8.896   9.903  65.181  1.00  0.00    -0.209 A  
HETATM   37  C   UNL     1      -9.543  11.095  62.744  1.00  0.00    -0.334 A  
HETATM   38  C   UNL     1     -10.105  10.576  65.045  1.00  0.00    -0.390 A  
HETATM   39  C   UNL     1      -8.011   9.826  64.104  1.00  0.00    -0.143 A  
ENDBRANCH  33  34
ENDBRANCH  32  33
ENDBRANCH   2  32
TORSDOF 18
ENDMDL
MODEL      248
REMARK 921   NORMALIZED FREE ENERGY PREDICTED BY IDOCK:   -3.89 KCAL/MOL
REMARK 922        TOTAL FREE ENERGY PREDICTED BY IDOCK:  -12.78 KCAL/MOL
REMARK 923 INTER-LIGAND FREE ENERGY PREDICTED BY IDOCK:   -8.89 KCAL/MOL
REMARK 924 INTRA-LIGAND FREE ENERGY PREDICTED BY IDOCK:   -3.89 KCAL/MOL
REMARK 927      BINDING AFFINITY PREDICTED BY RF-SCORE:    0.00 PKD
ROOT
HETATM    1  O   UNL     1     -11.459   6.484  66.630  1.00  0.00    -0.727 OA 
HETATM    2  C   UNL     1     -10.551   5.867  67.541  1.00  0.00    -0.273 C  
HETATM    3  H   UNL     1     -11.227   6.261  65.736  1.00  0.00     0.000 HD 
ENDROOT
BRANCH   2   4
HETATM    4  C   UNL     1     -10.927   6.227  68.992  1.00  0.00    -0.437 C  
BRANCH   4   5
HETATM    5  C   UNL     1     -10.949   7.727  69.305  1.00  0.00    -0.007 C  
BRANCH   5   6
HETATM    6  C   UNL     1     -10.151   8.176  70.551  1.00  0.00    -0.201 C  
HETATM    7  H   UNL     1      -6.913   7.368  72.796  1.00  0.00     0.000 HD 
HETATM    8  C   UNL     1      -8.783   7.439  70.877  1.00  0.00    -0.144 C  
HETATM    9  C   UNL     1     -11.006   7.912  71.798  1.00  0.00    -0.243 C  
HETATM   10  C   UNL     1     -10.027   8.016  72.931  1.00  0.00    -0.360 C  
HETATM   11  O   UNL     1     -12.035   8.870  71.965  1.00  0.00    -0.341 OA 
HETATM   12  O   UNL     1      -7.684   7.827  73.110  1.00  0.00    -0.101 OA 
HETATM   13  H   UNL     1     -12.564   8.707  72.737  1.00  0.00     0.000 HD 
HETATM   14  C   UNL     1      -8.799   7.284  72.431  1.00  0.00    -0.123 C  
BRANCH   8  15
HETATM   15  C   UNL     1      -7.500   8.115  70.295  1.00  0.00    -0.067 C  
BRANCH  15  16
HETATM   16  C   UNL     1      -7.551   9.628  70.183  1.00  0.00    -0.165 C  
HETATM   17  C   UNL     1      -7.785  10.441  69.132  1.00  0.00    -0.126 C  
BRANCH  17  18
HETATM   18  C   UNL     1      -8.061  10.078  67.701  1.00  0.00    -0.110 C  
BRANCH  18  19
HETATM   19  C   UNL     1      -8.927  11.129  66.990  1.00  0.00    -0.156 C  
BRANCH  19  20
HETATM   20  C   UNL     1     -10.320  10.643  66.610  1.00  0.00    -0.297 C  
BRANCH  20  21
HETATM   21  C   UNL     1     -11.368  11.617  67.049  1.00  0.00    -0.305 C  
HETATM   22  O   UNL     1     -12.271  11.402  67.849  1.00  0.00    -0.592 OA 
BRANCH  21  23
HETATM   23  O   UNL     1     -11.238  12.745  66.298  1.00  0.00    -0.279 OA 
BRANCH  23  24
HETATM   24  C   UNL     1     -11.928  13.817  66.906  1.00  0.00    -0.421 C  
BRANCH  24  25
HETATM   25  C   UNL     1     -11.180  14.403  68.083  1.00  0.00    -0.300 C  
BRANCH  25  26
HETATM   26  C   UNL     1     -12.104  14.827  69.223  1.00  0.00    -0.296 C  
BRANCH  26  27
HETATM   27  C   UNL     1     -11.676  14.349  70.618  1.00  0.00    -0.252 C  
BRANCH  27  28
HETATM   28  O   UNL     1     -12.764  14.490  71.505  1.00  0.00    -0.305 OA 
HETATM   29  N   UNL     1     -13.356  13.247  71.834  1.00  0.00    -0.444 N  
HETATM   30  O   UNL     1     -14.347  13.373  72.558  1.00  0.00    -0.692 OA 
HETATM   31  O   UNL     1     -12.842  12.236  71.374  1.00  0.00    -0.375 OA 
ENDBRANCH  27  28
ENDBRANCH  26  27
ENDBRANCH  25  26
ENDBRANCH  24  25
ENDBRANCH  23  24
ENDBRANCH  21  23
ENDBRANCH  20  21
ENDBRANCH  19  20
ENDBRANCH  18  19
ENDBRANCH  17  18
ENDBRANCH  15  16
ENDBRANCH   8  15
ENDBRANCH   5   6
ENDBRANCH   4   5
ENDBRANCH   2   4
BRANCH   2  32
HETATM   32  C   UNL     1      -9.161   6.371  67.183  1.00  0.00    -0.128 C  
BRANCH  32  33
HETATM   33  C   UNL     1      -8.831   6.122  65.716  1.00  0.00    -0.133 C  
BRANCH  33  34
HETATM   34  C   UNL     1      -7.861   7.156  65.245  1.00  0.00    -0.121 A  
HETATM   35  C   UNL     1      -5.637   8.102  65.305  1.00  0.00    -0.043 A  
HETATM   36  C   UNL     1      -7.407   9.218  64.090  1.00  0.00    -0.106 A  
HETATM   37  C   UNL     1      -6.527   7.098  65.674  1.00  0.00    -0.047 A  
HETATM   38  C   UNL     1      -8.300   8.218  64.456  1.00  0.00    -0.097 A  
HETATM   39  C   UNL     1      -6.077   9.161  64.514  1.00  0.00    -0.070 A  
ENDBRANCH  33  34
ENDBRANCH  32  33
ENDBRANCH   2  32
TORSDOF 18
ENDMDL
MODEL      249
REMARK 921   NORMALIZED FREE ENERGY PREDICTED BY IDOCK:   -3.89 KCAL/MOL
REMARK 922        TOTAL FREE ENERGY PREDICTED BY IDOCK:  -12.76 KCAL/MOL
REMARK 923 INTER-LIGAND FREE ENERGY PREDICTED BY IDOCK:   -8.38 KCAL/MOL
REMARK 924 INTRA-LIGAND FREE ENERGY PREDICTED BY IDOCK:   -4.39 KCAL/MOL
REMARK 927      BINDING AFFINITY PREDICTED BY RF-SCORE:    0.00 PKD
ROOT
HETATM    1  O   UNL     1     -11.041   9.285  68.621  1.00  0.00    -0.449 OA 
HETATM    2  C   UNL     1     -10.236   9.011  69.766  1.00  0.00    -0.205 C  
HETATM    3  H   UNL     1     -11.410  10.158  68.681  1.00  0.00     0.000 HD 
ENDROOT
BRANCH   2   4
HETATM    4  C   UNL     1      -9.638   7.594  69.669  1.00  0.00    -0.160 C  
BRANCH   4   5
HETATM    5  C   UNL     1      -8.361   7.369  70.486  1.00  0.00    -0.132 C  
BRANCH   5   6
HETATM    6  C   UNL     1      -7.914   5.900  70.663  1.00  0.00    -0.110 C  
HETATM    7  H   UNL     1      -9.181   2.084  70.542  1.00  0.00     0.000 HD 
HETATM    8  C   UNL     1      -8.962   4.749  70.350  1.00  0.00    -0.147 C  
HETATM    9  C   UNL     1      -7.561   5.672  72.139  1.00  0.00    -0.101 C  
HETATM   10  C   UNL     1      -7.516   4.177  72.269  1.00  0.00    -0.067 C  
HETATM   11  O   UNL     1      -6.305   6.221  72.490  1.00  0.00    -0.055 OA 
HETATM   12  O   UNL     1      -8.428   2.385  71.038  1.00  0.00    -0.055 OA 
HETATM   13  H   UNL     1      -6.086   6.080  73.403  1.00  0.00     0.000 HD 
HETATM   14  C   UNL     1      -8.715   3.698  71.479  1.00  0.00    -0.093 C  
BRANCH   8  15
HETATM   15  C   UNL     1      -8.919   4.178  68.897  1.00  0.00    -0.162 C  
BRANCH  15  16
HETATM   16  C   UNL     1      -7.843   4.758  67.996  1.00  0.00    -0.082 C  
HETATM   17  C   UNL     1      -7.912   5.615  66.957  1.00  0.00    -0.102 C  
BRANCH  17  18
HETATM   18  C   UNL     1      -9.121   6.265  66.348  1.00  0.00    -0.164 C  
BRANCH  18  19
HETATM   19  C   UNL     1      -8.914   7.768  66.104  1.00  0.00    -0.201 C  
BRANCH  19  20
HETATM   20  C   UNL     1      -7.690   8.354  66.796  1.00  0.00    -0.091 C  
BRANCH  20  21
HETATM   21  C   UNL     1      -7.824   9.836  66.962  1.00  0.00    -0.102 C  
HETATM   22  O   UNL     1      -6.978  10.595  67.419  1.00  0.00    -0.078 OA 
BRANCH  21  23
HETATM   23  O   UNL     1      -9.103  10.182  66.652  1.00  0.00    -0.142 OA 
BRANCH  23  24
HETATM   24  C   UNL     1      -9.139  11.492  66.124  1.00  0.00    -0.209 C  
BRANCH  24  25
HETATM   25  C   UNL     1     -10.064  12.409  66.893  1.00  0.00    -0.230 C  
BRANCH  25  26
HETATM   26  C   UNL     1     -10.050  13.843  66.369  1.00  0.00    -0.298 C  
BRANCH  26  27
HETATM   27  C   UNL     1     -10.645  14.028  64.966  1.00  0.00    -0.410 C  
BRANCH  27  28
HETATM   28  O   UNL     1     -11.952  13.497  64.948  1.00  0.00    -0.349 OA 
HETATM   29  N   UNL     1     -12.119  12.508  63.951  1.00  0.00    -0.455 N  
HETATM   30  O   UNL     1     -13.278  12.089  63.890  1.00  0.00    -0.705 OA 
HETATM   31  O   UNL     1     -11.137  12.203  63.287  1.00  0.00    -0.410 OA 
ENDBRANCH  27  28
ENDBRANCH  26  27
ENDBRANCH  25  26
ENDBRANCH  24  25
ENDBRANCH  23  24
ENDBRANCH  21  23
ENDBRANCH  20  21
ENDBRANCH  19  20
ENDBRANCH  18  19
ENDBRANCH  17  18
ENDBRANCH  15  16
ENDBRANCH   8  15
ENDBRANCH   5   6
ENDBRANCH   4   5
ENDBRANCH   2   4
BRANCH   2  32
HETATM   32  C   UNL     1     -11.142   9.152  70.981  1.00  0.00    -0.374 C  
BRANCH  32  33
HETATM   33  C   UNL     1     -12.075   7.956  71.132  1.00  0.00    -0.294 C  
BRANCH  33  34
HETATM   34  C   UNL     1     -11.586   7.084  72.242  1.00  0.00    -0.307 A  
HETATM   35  C   UNL     1     -10.213   6.800  74.211  1.00  0.00    -0.309 A  
HETATM   36  C   UNL     1     -11.373   4.908  73.247  1.00  0.00    -0.408 A  
HETATM   37  C   UNL     1     -10.738   7.624  73.220  1.00  0.00    -0.409 A  
HETATM   38  C   UNL     1     -11.900   5.726  72.255  1.00  0.00    -0.215 A  
HETATM   39  C   UNL     1     -10.531   5.443  74.224  1.00  0.00    -0.294 A  
ENDBRANCH  33  34
ENDBRANCH  32  33
ENDBRANCH   2  32
TORSDOF 18
ENDMDL
MODEL      250
REMARK 921   NORMALIZED FREE ENERGY PREDICTED BY IDOCK:   -3.89 KCAL/MOL
REMARK 922        TOTAL FREE ENERGY PREDICTED BY IDOCK:  -12.76 KCAL/MOL
REMARK 923 INTER-LIGAND FREE ENERGY PREDICTED BY IDOCK:  -10.59 KCAL/MOL
REMARK 924 INTRA-LIGAND FREE ENERGY PREDICTED BY IDOCK:   -2.16 KCAL/MOL
REMARK 927      BINDING AFFINITY PREDICTED BY RF-SCORE:    0.00 PKD
ROOT
HETATM    1  O   UNL     1     -11.359  12.922  69.662  1.00  0.00    -0.435 OA 
HETATM    2  C   UNL     1     -10.892  11.811  68.899  1.00  0.00    -0.223 C  
HETATM    3  H   UNL     1     -10.837  13.021  70.449  1.00  0.00     0.000 HD 
ENDROOT
BRANCH   2   4
HETATM    4  C   UNL     1     -11.738  11.650  67.621  1.00  0.00    -0.300 C  
BRANCH   4   5
HETATM    5  C   UNL     1     -10.936  11.440  66.332  1.00  0.00    -0.315 C  
BRANCH   5   6
HETATM    6  C   UNL     1     -11.049  12.556  65.268  1.00  0.00    -0.332 C  
HETATM    7  H   UNL     1     -12.472  16.255  64.584  1.00  0.00     0.000 HD 
HETATM    8  C   UNL     1     -11.701  13.940  65.693  1.00  0.00    -0.362 C  
HETATM    9  C   UNL     1     -11.960  12.062  64.137  1.00  0.00    -0.369 C  
HETATM   10  C   UNL     1     -12.302  13.313  63.381  1.00  0.00    -0.402 C  
HETATM   11  O   UNL     1     -11.312  11.144  63.277  1.00  0.00    -0.771 OA 
HETATM   12  O   UNL     1     -12.301  15.611  63.906  1.00  0.00    -0.673 OA 
HETATM   13  H   UNL     1     -11.876  10.838  62.577  1.00  0.00     0.000 HD 
HETATM   14  C   UNL     1     -12.573  14.339  64.460  1.00  0.00    -0.216 C  
BRANCH   8  15
HETATM   15  C   UNL     1     -10.698  15.037  66.173  1.00  0.00    -0.328 C  
BRANCH  15  16
HETATM   16  C   UNL     1      -9.258  14.583  66.335  1.00  0.00    -0.264 C  
HETATM   17  C   UNL     1      -8.197  15.166  66.928  1.00  0.00    -0.234 C  
BRANCH  17  18
HETATM   18  C   UNL     1      -8.115  16.497  67.618  1.00  0.00    -0.177 C  
BRANCH  18  19
HETATM   19  C   UNL     1      -6.787  17.218  67.339  1.00  0.00    -0.185 C  
BRANCH  19  20
HETATM   20  C   UNL     1      -6.370  17.221  65.874  1.00  0.00     0.106 C  
BRANCH  20  21
HETATM   21  C   UNL     1      -5.927  18.585  65.443  1.00  0.00    -0.249 C  
HETATM   22  O   UNL     1      -6.042  19.065  64.322  1.00  0.00    -0.462 OA 
BRANCH  21  23
HETATM   23  O   UNL     1      -5.242  19.152  66.474  1.00  0.00    -0.153 OA 
BRANCH  23  24
HETATM   24  C   UNL     1      -5.188  20.553  66.309  1.00  0.00    -0.166 C  
BRANCH  24  25
HETATM   25  C   UNL     1      -5.418  21.305  67.602  1.00  0.00    -0.383 C  
BRANCH  25  26
HETATM   26  C   UNL     1      -6.884  21.325  68.026  1.00  0.00     0.118 C  
BRANCH  26  27
HETATM   27  C   UNL     1      -7.867  20.762  66.989  1.00  0.00    -0.187 C  
BRANCH  27  28
HETATM   28  O   UNL     1      -9.093  20.476  67.626  1.00  0.00    -0.306 OA 
HETATM   29  N   UNL     1      -9.953  19.698  66.815  1.00  0.00    -0.375 N  
HETATM   30  O   UNL     1     -11.050  19.501  67.344  1.00  0.00    -0.433 OA 
HETATM   31  O   UNL     1      -9.529  19.334  65.726  1.00  0.00    -0.391 OA 
ENDBRANCH  27  28
ENDBRANCH  26  27
ENDBRANCH  25  26
ENDBRANCH  24  25
ENDBRANCH  23  24
ENDBRANCH  21  23
ENDBRANCH  20  21
ENDBRANCH  19  20
ENDBRANCH  18  19
ENDBRANCH  17  18
ENDBRANCH  15  16
ENDBRANCH   8  15
ENDBRANCH   5   6
ENDBRANCH   4   5
ENDBRANCH   2   4
BRANCH   2  32
HETATM   32  C   UNL     1     -11.001  10.588  69.798  1.00  0.00    -0.350 C  
BRANCH  32  33
HETATM   33  C   UNL     1      -9.794   9.669  69.649  1.00  0.00    -0.233 C  
BRANCH  33  34
HETATM   34  C   UNL     1     -10.132   8.556  68.711  1.00  0.00    -0.210 A  
HETATM   35  C   UNL     1     -11.073   6.360  68.345  1.00  0.00    -0.374 A  
HETATM   36  C   UNL     1      -9.938   7.519  66.549  1.00  0.00    -0.209 A  
HETATM   37  C   UNL     1     -10.824   7.435  69.192  1.00  0.00    -0.129 A  
HETATM   38  C   UNL     1      -9.687   8.595  67.391  1.00  0.00    -0.227 A  
HETATM   39  C   UNL     1     -10.630   6.402  67.024  1.00  0.00    -0.396 A  
ENDBRANCH  33  34
ENDBRANCH  32  33
ENDBRANCH   2  32
TORSDOF 18
ENDMDL
MODEL      251
REMARK 921   NORMALIZED FREE ENERGY PREDICTED BY IDOCK:   -3.88 KCAL/MOL
REMARK 922        TOTAL FREE ENERGY PREDICTED BY IDOCK:  -12.76 KCAL/MOL
REMARK 923 INTER-LIGAND FREE ENERGY PREDICTED BY IDOCK:  -10.24 KCAL/MOL
REMARK 924 INTRA-LIGAND FREE ENERGY PREDICTED BY IDOCK:   -2.52 KCAL/MOL
REMARK 927      BINDING AFFINITY PREDICTED BY RF-SCORE:    0.00 PKD
ROOT
HETATM    1  O   UNL     1      -7.525  15.464  67.400  1.00  0.00    -0.173 OA 
HETATM    2  C   UNL     1      -8.218  14.825  68.471  1.00  0.00    -0.153 C  
HETATM    3  H   UNL     1      -6.877  16.068  67.743  1.00  0.00     0.000 HD 
ENDROOT
BRANCH   2   4
HETATM    4  C   UNL     1      -9.269  13.845  67.914  1.00  0.00    -0.198 C  
BRANCH   4   5
HETATM    5  C   UNL     1      -9.448  13.878  66.392  1.00  0.00    -0.268 C  
BRANCH   5   6
HETATM    6  C   UNL     1     -10.709  13.175  65.838  1.00  0.00    -0.287 C  
HETATM    7  H   UNL     1     -12.273  11.415  62.577  1.00  0.00     0.000 HD 
HETATM    8  C   UNL     1     -10.650  12.565  64.374  1.00  0.00    -0.376 C  
HETATM    9  C   UNL     1     -11.843  14.205  65.751  1.00  0.00    -0.380 C  
HETATM   10  C   UNL     1     -12.863  13.541  64.872  1.00  0.00    -0.269 C  
HETATM   11  O   UNL     1     -12.414  14.493  67.014  1.00  0.00    -0.547 OA 
HETATM   12  O   UNL     1     -12.786  11.811  63.273  1.00  0.00    -0.627 OA 
HETATM   13  H   UNL     1     -13.117  15.131  66.960  1.00  0.00     0.000 HD 
HETATM   14  C   UNL     1     -12.046  12.910  63.764  1.00  0.00    -0.508 C  
BRANCH   8  15
HETATM   15  C   UNL     1     -10.249  11.057  64.289  1.00  0.00    -0.414 C  
BRANCH  15  16
HETATM   16  C   UNL     1      -9.427  10.664  63.075  1.00  0.00    -0.363 C  
HETATM   17  C   UNL     1      -8.206  10.103  62.964  1.00  0.00    -0.158 C  
BRANCH  17  18
HETATM   18  C   UNL     1      -7.251   9.697  64.050  1.00  0.00    -0.118 C  
BRANCH  18  19
HETATM   19  C   UNL     1      -7.277   8.183  64.312  1.00  0.00    -0.089 C  
BRANCH  19  20
HETATM   20  C   UNL     1      -8.389   7.726  65.247  1.00  0.00    -0.128 C  
BRANCH  20  21
HETATM   21  C   UNL     1      -8.490   6.232  65.273  1.00  0.00    -0.111 C  
HETATM   22  O   UNL     1      -8.644   5.498  64.305  1.00  0.00    -0.109 OA 
BRANCH  21  23
HETATM   23  O   UNL     1      -8.529   5.834  66.574  1.00  0.00    -0.113 OA 
BRANCH  23  24
HETATM   24  C   UNL     1      -9.652   5.007  66.796  1.00  0.00    -0.155 C  
BRANCH  24  25
HETATM   25  C   UNL     1     -10.886   5.788  67.195  1.00  0.00    -0.308 C  
BRANCH  25  26
HETATM   26  C   UNL     1     -10.781   6.392  68.594  1.00  0.00    -0.341 C  
BRANCH  26  27
HETATM   27  C   UNL     1     -10.387   7.875  68.632  1.00  0.00    -0.201 C  
BRANCH  27  28
HETATM   28  O   UNL     1      -9.047   7.984  69.059  1.00  0.00    -0.144 OA 
HETATM   29  N   UNL     1      -8.897   8.883  70.141  1.00  0.00    -0.150 N  
HETATM   30  O   UNL     1      -7.718   9.030  70.474  1.00  0.00    -0.088 OA 
HETATM   31  O   UNL     1      -9.911   9.396  70.596  1.00  0.00    -0.248 OA 
ENDBRANCH  27  28
ENDBRANCH  26  27
ENDBRANCH  25  26
ENDBRANCH  24  25
ENDBRANCH  23  24
ENDBRANCH  21  23
ENDBRANCH  20  21
ENDBRANCH  19  20
ENDBRANCH  18  19
ENDBRANCH  17  18
ENDBRANCH  15  16
ENDBRANCH   8  15
ENDBRANCH   5   6
ENDBRANCH   4   5
ENDBRANCH   2   4
BRANCH   2  32
HETATM   32  C   UNL     1      -8.865  15.929  69.294  1.00  0.00    -0.249 C  
BRANCH  32  33
HETATM   33  C   UNL     1     -10.275  16.243  68.807  1.00  0.00    -0.249 C  
BRANCH  33  34
HETATM   34  C   UNL     1     -10.276  17.568  68.118  1.00  0.00    -0.359 A  
HETATM   35  C   UNL     1     -10.387  18.845  66.068  1.00  0.00    -0.485 A  
HETATM   36  C   UNL     1      -9.928  19.949  68.172  1.00  0.00    -0.551 A  
HETATM   37  C   UNL     1     -10.465  17.623  66.729  1.00  0.00    -0.289 A  
HETATM   38  C   UNL     1     -10.005  18.731  68.837  1.00  0.00    -0.423 A  
HETATM   39  C   UNL     1     -10.118  20.007  66.789  1.00  0.00    -0.607 A  
ENDBRANCH  33  34
ENDBRANCH  32  33
ENDBRANCH   2  32
TORSDOF 18
ENDMDL
MODEL      252
REMARK 921   NORMALIZED FREE ENERGY PREDICTED BY IDOCK:   -3.88 KCAL/MOL
REMARK 922        TOTAL FREE ENERGY PREDICTED BY IDOCK:  -12.75 KCAL/MOL
REMARK 923 INTER-LIGAND FREE ENERGY PREDICTED BY IDOCK:   -9.31 KCAL/MOL
REMARK 924 INTRA-LIGAND FREE ENERGY PREDICTED BY IDOCK:   -3.45 KCAL/MOL
REMARK 927      BINDING AFFINITY PREDICTED BY RF-SCORE:    0.00 PKD
ROOT
HETATM    1  O   UNL     1     -11.590   9.386  68.260  1.00  0.00    -0.189 OA 
HETATM    2  C   UNL     1     -11.777   9.815  69.608  1.00  0.00     0.104 C  
HETATM    3  H   UNL     1     -11.041   8.612  68.236  1.00  0.00     0.000 HD 
ENDROOT
BRANCH   2   4
HETATM    4  C   UNL     1     -12.668  11.071  69.648  1.00  0.00     0.059 C  
BRANCH   4   5
HETATM    5  C   UNL     1     -12.393  12.028  70.813  1.00  0.00    -0.403 C  
BRANCH   5   6
HETATM    6  C   UNL     1     -12.435  13.537  70.481  1.00  0.00    -0.373 C  
HETATM    7  H   UNL     1     -10.151  16.750  69.682  1.00  0.00     0.000 HD 
HETATM    8  C   UNL     1     -11.070  14.275  70.148  1.00  0.00    -0.014 C  
HETATM    9  C   UNL     1     -12.960  14.292  71.710  1.00  0.00    -0.354 C  
HETATM   10  C   UNL     1     -12.608  15.723  71.428  1.00  0.00    -0.516 C  
HETATM   11  O   UNL     1     -14.361  14.166  71.868  1.00  0.00    -0.480 OA 
HETATM   12  O   UNL     1     -11.032  16.792  70.037  1.00  0.00    -0.275 OA 
HETATM   13  H   UNL     1     -14.686  14.633  72.629  1.00  0.00     0.000 HD 
HETATM   14  C   UNL     1     -11.204  15.657  70.863  1.00  0.00    -0.369 C  
BRANCH   8  15
HETATM   15  C   UNL     1     -10.699  14.351  68.632  1.00  0.00    -0.258 C  
BRANCH  15  16
HETATM   16  C   UNL     1      -9.702  13.313  68.149  1.00  0.00    -0.227 C  
HETATM   17  C   UNL     1      -9.701  12.509  67.067  1.00  0.00    -0.213 C  
BRANCH  17  18
HETATM   18  C   UNL     1     -10.732  12.384  65.983  1.00  0.00    -0.294 C  
BRANCH  18  19
HETATM   19  C   UNL     1     -12.123  12.844  66.445  1.00  0.00    -0.400 C  
BRANCH  19  20
HETATM   20  C   UNL     1     -12.704  13.997  65.636  1.00  0.00    -0.515 C  
BRANCH  20  21
HETATM   21  C   UNL     1     -12.033  14.111  64.303  1.00  0.00    -0.435 C  
HETATM   22  O   UNL     1     -12.416  13.614  63.251  1.00  0.00    -0.801 OA 
BRANCH  21  23
HETATM   23  O   UNL     1     -10.841  14.743  64.483  1.00  0.00    -0.324 OA 
BRANCH  23  24
HETATM   24  C   UNL     1     -11.033  15.954  65.184  1.00  0.00    -0.377 C  
BRANCH  24  25
HETATM   25  C   UNL     1      -9.766  16.459  65.840  1.00  0.00    -0.327 C  
BRANCH  25  26
HETATM   26  C   UNL     1     -10.002  17.683  66.722  1.00  0.00    -0.320 C  
BRANCH  26  27
HETATM   27  C   UNL     1      -8.730  18.321  67.301  1.00  0.00    -0.255 C  
BRANCH  27  28
HETATM   28  O   UNL     1      -7.605  17.781  66.642  1.00  0.00    -0.204 OA 
HETATM   29  N   UNL     1      -6.413  17.949  67.386  1.00  0.00    -0.162 N  
HETATM   30  O   UNL     1      -5.418  17.537  66.784  1.00  0.00    -0.134 OA 
HETATM   31  O   UNL     1      -6.503  18.470  68.490  1.00  0.00    -0.218 OA 
ENDBRANCH  27  28
ENDBRANCH  26  27
ENDBRANCH  25  26
ENDBRANCH  24  25
ENDBRANCH  23  24
ENDBRANCH  21  23
ENDBRANCH  20  21
ENDBRANCH  19  20
ENDBRANCH  18  19
ENDBRANCH  17  18
ENDBRANCH  15  16
ENDBRANCH   8  15
ENDBRANCH   5   6
ENDBRANCH   4   5
ENDBRANCH   2   4
BRANCH   2  32
HETATM   32  C   UNL     1     -10.392  10.095  70.174  1.00  0.00    -0.280 C  
BRANCH  32  33
HETATM   33  C   UNL     1      -9.383   9.036  69.745  1.00  0.00    -0.176 C  
BRANCH  33  34
HETATM   34  C   UNL     1      -8.307   9.678  68.932  1.00  0.00    -0.116 A  
HETATM   35  C   UNL     1      -6.542  11.319  68.745  1.00  0.00    -0.062 A  
HETATM   36  C   UNL     1      -7.222  10.030  66.813  1.00  0.00    -0.091 A  
HETATM   37  C   UNL     1      -7.493  10.659  69.517  1.00  0.00    -0.132 A  
HETATM   38  C   UNL     1      -8.172   9.367  67.580  1.00  0.00    -0.114 A  
HETATM   39  C   UNL     1      -6.407  11.005  67.394  1.00  0.00    -0.063 A  
ENDBRANCH  33  34
ENDBRANCH  32  33
ENDBRANCH   2  32
TORSDOF 18
ENDMDL
MODEL      253
REMARK 921   NORMALIZED FREE ENERGY PREDICTED BY IDOCK:   -3.87 KCAL/MOL
REMARK 922        TOTAL FREE ENERGY PREDICTED BY IDOCK:  -12.72 KCAL/MOL
REMARK 923 INTER-LIGAND FREE ENERGY PREDICTED BY IDOCK:   -8.97 KCAL/MOL
REMARK 924 INTRA-LIGAND FREE ENERGY PREDICTED BY IDOCK:   -3.75 KCAL/MOL
REMARK 927      BINDING AFFINITY PREDICTED BY RF-SCORE:    0.00 PKD
ROOT
HETATM    1  O   UNL     1      -8.372   8.137  66.309  1.00  0.00    -0.108 OA 
HETATM    2  C   UNL     1      -9.715   7.701  66.513  1.00  0.00    -0.181 C  
HETATM    3  H   UNL     1      -7.890   7.489  65.808  1.00  0.00     0.000 HD 
ENDROOT
BRANCH   2   4
HETATM    4  C   UNL     1     -10.497   8.751  67.326  1.00  0.00    -0.353 C  
BRANCH   4   5
HETATM    5  C   UNL     1      -9.678   9.965  67.780  1.00  0.00    -0.175 C  
BRANCH   5   6
HETATM    6  C   UNL     1      -9.236   9.974  69.261  1.00  0.00    -0.212 C  
HETATM    7  H   UNL     1      -7.175   7.931  72.046  1.00  0.00     0.000 HD 
HETATM    8  C   UNL     1      -8.262   8.827  69.766  1.00  0.00    -0.117 C  
HETATM    9  C   UNL     1     -10.480   9.802  70.143  1.00  0.00    -0.286 C  
HETATM   10  C   UNL     1      -9.918   9.448  71.489  1.00  0.00    -0.137 C  
HETATM   11  O   UNL     1     -11.247  10.988  70.241  1.00  0.00    -0.439 OA 
HETATM   12  O   UNL     1      -7.872   8.549  72.238  1.00  0.00    -0.219 OA 
HETATM   13  H   UNL     1     -12.017  10.881  70.786  1.00  0.00     0.000 HD 
HETATM   14  C   UNL     1      -8.809   8.464  71.183  1.00  0.00    -0.164 C  
BRANCH   8  15
HETATM   15  C   UNL     1      -6.738   9.167  69.714  1.00  0.00    -0.050 C  
BRANCH  15  16
HETATM   16  C   UNL     1      -6.343  10.498  70.328  1.00  0.00    -0.137 C  
HETATM   17  C   UNL     1      -6.329  11.748  69.822  1.00  0.00    -0.125 C  
BRANCH  17  18
HETATM   18  C   UNL     1      -6.700  12.212  68.442  1.00  0.00    -0.062 C  
BRANCH  18  19
HETATM   19  C   UNL     1      -7.568  13.480  68.467  1.00  0.00    -0.129 C  
BRANCH  19  20
HETATM   20  C   UNL     1      -8.204  13.832  67.129  1.00  0.00    -0.125 C  
BRANCH  20  21
HETATM   21  C   UNL     1      -9.636  13.399  67.083  1.00  0.00    -0.241 C  
HETATM   22  O   UNL     1     -10.310  13.223  66.075  1.00  0.00    -0.277 OA 
BRANCH  21  23
HETATM   23  O   UNL     1     -10.111  13.373  68.359  1.00  0.00    -0.241 OA 
BRANCH  23  24
HETATM   24  C   UNL     1     -11.262  14.183  68.466  1.00  0.00    -0.260 C  
BRANCH  24  25
HETATM   25  C   UNL     1     -11.099  15.304  69.470  1.00  0.00    -0.286 C  
BRANCH  25  26
HETATM   26  C   UNL     1     -10.205  16.433  68.961  1.00  0.00    -0.269 C  
BRANCH  26  27
HETATM   27  C   UNL     1     -10.650  17.066  67.635  1.00  0.00    -0.333 C  
BRANCH  27  28
HETATM   28  O   UNL     1     -10.285  18.429  67.631  1.00  0.00    -0.341 OA 
HETATM   29  N   UNL     1     -10.267  18.979  66.327  1.00  0.00    -0.420 N  
HETATM   30  O   UNL     1      -9.885  20.151  66.315  1.00  0.00    -0.431 OA 
HETATM   31  O   UNL     1     -10.610  18.253  65.403  1.00  0.00    -0.612 OA 
ENDBRANCH  27  28
ENDBRANCH  26  27
ENDBRANCH  25  26
ENDBRANCH  24  25
ENDBRANCH  23  24
ENDBRANCH  21  23
ENDBRANCH  20  21
ENDBRANCH  19  20
ENDBRANCH  18  19
ENDBRANCH  17  18
ENDBRANCH  15  16
ENDBRANCH   8  15
ENDBRANCH   5   6
ENDBRANCH   4   5
ENDBRANCH   2   4
BRANCH   2  32
HETATM   32  C   UNL     1      -9.636   6.371  67.249  1.00  0.00    -0.143 C  
BRANCH  32  33
HETATM   33  C   UNL     1     -10.990   5.958  67.816  1.00  0.00    -0.245 C  
BRANCH  33  34
HETATM   34  C   UNL     1     -10.844   5.652  69.270  1.00  0.00    -0.309 A  
HETATM   35  C   UNL     1     -11.475   6.093  71.562  1.00  0.00    -0.325 A  
HETATM   36  C   UNL     1      -9.667   4.563  71.065  1.00  0.00    -0.259 A  
HETATM   37  C   UNL     1     -11.659   6.314  70.200  1.00  0.00    -0.385 A  
HETATM   38  C   UNL     1      -9.847   4.779  69.704  1.00  0.00    -0.292 A  
HETATM   39  C   UNL     1     -10.480   5.219  71.993  1.00  0.00    -0.283 A  
ENDBRANCH  33  34
ENDBRANCH  32  33
ENDBRANCH   2  32
TORSDOF 18
ENDMDL
MODEL      254
REMARK 921   NORMALIZED FREE ENERGY PREDICTED BY IDOCK:   -3.87 KCAL/MOL
REMARK 922        TOTAL FREE ENERGY PREDICTED BY IDOCK:  -12.72 KCAL/MOL
REMARK 923 INTER-LIGAND FREE ENERGY PREDICTED BY IDOCK:   -9.43 KCAL/MOL
REMARK 924 INTRA-LIGAND FREE ENERGY PREDICTED BY IDOCK:   -3.29 KCAL/MOL
REMARK 927      BINDING AFFINITY PREDICTED BY RF-SCORE:    0.00 PKD
ROOT
HETATM    1  O   UNL     1     -11.466   8.530  69.881  1.00  0.00    -0.457 OA 
HETATM    2  C   UNL     1     -11.111   9.103  71.138  1.00  0.00    -0.323 C  
HETATM    3  H   UNL     1     -12.403   8.379  69.843  1.00  0.00     0.000 HD 
ENDROOT
BRANCH   2   4
HETATM    4  C   UNL     1      -9.591   9.349  71.200  1.00  0.00    -0.220 C  
BRANCH   4   5
HETATM    5  C   UNL     1      -8.721   8.116  70.931  1.00  0.00    -0.152 C  
BRANCH   5   6
HETATM    6  C   UNL     1      -7.799   8.189  69.691  1.00  0.00    -0.103 C  
HETATM    7  H   UNL     1      -7.319   6.869  65.923  1.00  0.00     0.000 HD 
HETATM    8  C   UNL     1      -8.261   7.451  68.364  1.00  0.00    -0.125 C  
HETATM    9  C   UNL     1      -6.467   7.510  70.034  1.00  0.00    -0.034 C  
HETATM   10  C   UNL     1      -5.819   7.299  68.697  1.00  0.00    -0.023 C  
HETATM   11  O   UNL     1      -5.636   8.319  70.846  1.00  0.00    -0.032 OA 
HETATM   12  O   UNL     1      -6.612   7.171  66.480  1.00  0.00    -0.049 OA 
HETATM   13  H   UNL     1      -4.811   7.899  71.058  1.00  0.00     0.000 HD 
HETATM   14  C   UNL     1      -6.946   6.817  67.808  1.00  0.00    -0.083 C  
BRANCH   8  15
HETATM   15  C   UNL     1      -9.050   8.333  67.344  1.00  0.00    -0.155 C  
BRANCH  15  16
HETATM   16  C   UNL     1      -8.941   9.833  67.553  1.00  0.00    -0.138 C  
HETATM   17  C   UNL     1      -9.877  10.802  67.582  1.00  0.00    -0.193 C  
BRANCH  17  18
HETATM   18  C   UNL     1     -11.363  10.687  67.396  1.00  0.00    -0.185 C  
BRANCH  18  19
HETATM   19  C   UNL     1     -12.145  11.577  68.375  1.00  0.00    -0.119 C  
BRANCH  19  20
HETATM   20  C   UNL     1     -11.270  12.379  69.330  1.00  0.00    -0.264 C  
BRANCH  20  21
HETATM   21  C   UNL     1     -12.103  13.239  70.229  1.00  0.00    -0.335 C  
HETATM   22  O   UNL     1     -12.600  12.905  71.297  1.00  0.00    -0.350 OA 
BRANCH  21  23
HETATM   23  O   UNL     1     -12.338  14.416  69.588  1.00  0.00    -0.317 OA 
BRANCH  23  24
HETATM   24  C   UNL     1     -11.116  15.043  69.258  1.00  0.00    -0.272 C  
BRANCH  24  25
HETATM   25  C   UNL     1     -11.205  15.873  67.995  1.00  0.00    -0.319 C  
BRANCH  25  26
HETATM   26  C   UNL     1     -10.737  15.117  66.753  1.00  0.00    -0.311 C  
BRANCH  26  27
HETATM   27  C   UNL     1     -11.770  14.152  66.154  1.00  0.00    -0.393 C  
BRANCH  27  28
HETATM   28  O   UNL     1     -11.889  14.407  64.771  1.00  0.00    -0.389 OA 
HETATM   29  N   UNL     1     -12.622  13.401  64.098  1.00  0.00    -0.203 N  
HETATM   30  O   UNL     1     -12.673  13.589  62.880  1.00  0.00    -0.569 OA 
HETATM   31  O   UNL     1     -13.093  12.496  64.774  1.00  0.00    -0.853 OA 
ENDBRANCH  27  28
ENDBRANCH  26  27
ENDBRANCH  25  26
ENDBRANCH  24  25
ENDBRANCH  23  24
ENDBRANCH  21  23
ENDBRANCH  20  21
ENDBRANCH  19  20
ENDBRANCH  18  19
ENDBRANCH  17  18
ENDBRANCH  15  16
ENDBRANCH   8  15
ENDBRANCH   5   6
ENDBRANCH   4   5
ENDBRANCH   2   4
BRANCH   2  32
HETATM   32  C   UNL     1     -11.562   8.120  72.209  1.00  0.00    -0.436 C  
BRANCH  32  33
HETATM   33  C   UNL     1     -12.228   6.891  71.602  1.00  0.00    -0.403 C  
BRANCH  33  34
HETATM   34  C   UNL     1     -11.303   5.723  71.709  1.00  0.00    -0.240 A  
HETATM   35  C   UNL     1      -9.698   4.241  70.674  1.00  0.00    -0.274 A  
HETATM   36  C   UNL     1     -10.493   3.807  72.918  1.00  0.00    -0.246 A  
HETATM   37  C   UNL     1     -10.503   5.374  70.611  1.00  0.00    -0.329 A  
HETATM   38  C   UNL     1     -11.299   4.937  72.860  1.00  0.00    -0.296 A  
HETATM   39  C   UNL     1      -9.694   3.458  71.827  1.00  0.00    -0.236 A  
ENDBRANCH  33  34
ENDBRANCH  32  33
ENDBRANCH   2  32
TORSDOF 18
ENDMDL
MODEL      255
REMARK 921   NORMALIZED FREE ENERGY PREDICTED BY IDOCK:   -3.86 KCAL/MOL
REMARK 922        TOTAL FREE ENERGY PREDICTED BY IDOCK:  -12.70 KCAL/MOL
REMARK 923 INTER-LIGAND FREE ENERGY PREDICTED BY IDOCK:  -10.36 KCAL/MOL
REMARK 924 INTRA-LIGAND FREE ENERGY PREDICTED BY IDOCK:   -2.34 KCAL/MOL
REMARK 927      BINDING AFFINITY PREDICTED BY RF-SCORE:    0.00 PKD
ROOT
HETATM    1  O   UNL     1     -11.715   9.312  69.582  1.00  0.00    -0.418 OA 
HETATM    2  C   UNL     1     -10.582   9.843  68.897  1.00  0.00    -0.218 C  
HETATM    3  H   UNL     1     -11.434   8.778  70.316  1.00  0.00     0.000 HD 
ENDROOT
BRANCH   2   4
HETATM    4  C   UNL     1     -11.038  10.709  67.707  1.00  0.00    -0.385 C  
BRANCH   4   5
HETATM    5  C   UNL     1      -9.906  11.361  66.906  1.00  0.00    -0.218 C  
BRANCH   5   6
HETATM    6  C   UNL     1     -10.328  12.138  65.637  1.00  0.00    -0.289 C  
HETATM    7  H   UNL     1     -13.146  14.563  64.103  1.00  0.00     0.000 HD 
HETATM    8  C   UNL     1     -11.608  13.074  65.716  1.00  0.00    -0.396 C  
HETATM    9  C   UNL     1     -10.690  11.126  64.543  1.00  0.00    -0.297 C  
HETATM   10  C   UNL     1     -11.427  11.947  63.526  1.00  0.00    -0.523 C  
HETATM   11  O   UNL     1      -9.549  10.536  63.947  1.00  0.00    -0.261 OA 
HETATM   12  O   UNL     1     -12.579  14.003  63.585  1.00  0.00    -0.818 OA 
HETATM   13  H   UNL     1      -9.773   9.909  63.270  1.00  0.00     0.000 HD 
HETATM   14  C   UNL     1     -12.329  12.840  64.350  1.00  0.00    -0.424 C  
BRANCH   8  15
HETATM   15  C   UNL     1     -11.327  14.570  66.065  1.00  0.00    -0.341 C  
BRANCH  15  16
HETATM   16  C   UNL     1      -9.906  15.045  65.821  1.00  0.00    -0.386 C  
HETATM   17  C   UNL     1      -8.885  15.287  66.667  1.00  0.00    -0.328 C  
BRANCH  17  18
HETATM   18  C   UNL     1      -8.852  15.170  68.164  1.00  0.00    -0.169 C  
BRANCH  18  19
HETATM   19  C   UNL     1      -7.990  16.262  68.816  1.00  0.00    -0.221 C  
BRANCH  19  20
HETATM   20  C   UNL     1      -6.495  15.968  68.812  1.00  0.00    -0.119 C  
BRANCH  20  21
HETATM   21  C   UNL     1      -5.730  17.055  69.500  1.00  0.00    -0.193 C  
HETATM   22  O   UNL     1      -5.446  17.102  70.691  1.00  0.00    -0.232 OA 
BRANCH  21  23
HETATM   23  O   UNL     1      -5.527  18.060  68.605  1.00  0.00    -0.159 OA 
BRANCH  23  24
HETATM   24  C   UNL     1      -5.508  19.307  69.269  1.00  0.00    -0.201 C  
BRANCH  24  25
HETATM   25  C   UNL     1      -6.597  20.243  68.791  1.00  0.00    -0.312 C  
BRANCH  25  26
HETATM   26  C   UNL     1      -7.137  19.871  67.412  1.00  0.00    -0.270 C  
BRANCH  26  27
HETATM   27  C   UNL     1      -8.649  20.066  67.232  1.00  0.00    -0.335 C  
BRANCH  27  28
HETATM   28  O   UNL     1      -9.193  18.912  66.630  1.00  0.00    -0.308 OA 
HETATM   29  N   UNL     1     -10.269  19.212  65.762  1.00  0.00    -0.301 N  
HETATM   30  O   UNL     1     -10.788  18.200  65.285  1.00  0.00    -0.628 OA 
HETATM   31  O   UNL     1     -10.552  20.392  65.599  1.00  0.00    -0.222 OA 
ENDBRANCH  27  28
ENDBRANCH  26  27
ENDBRANCH  25  26
ENDBRANCH  24  25
ENDBRANCH  23  24
ENDBRANCH  21  23
ENDBRANCH  20  21
ENDBRANCH  19  20
ENDBRANCH  18  19
ENDBRANCH  17  18
ENDBRANCH  15  16
ENDBRANCH   8  15
ENDBRANCH   5   6
ENDBRANCH   4   5
ENDBRANCH   2   4
BRANCH   2  32
HETATM   32  C   UNL     1      -9.753   8.653  68.436  1.00  0.00    -0.176 C  
BRANCH  32  33
HETATM   33  C   UNL     1     -10.623   7.564  67.820  1.00  0.00    -0.274 C  
BRANCH  33  34
HETATM   34  C   UNL     1     -10.386   6.276  68.540  1.00  0.00    -0.238 A  
HETATM   35  C   UNL     1      -9.831   5.107  70.582  1.00  0.00    -0.274 A  
HETATM   36  C   UNL     1     -10.033   3.896  68.496  1.00  0.00     0.142 A  
HETATM   37  C   UNL     1     -10.131   6.294  69.919  1.00  0.00    -0.216 A  
HETATM   38  C   UNL     1     -10.334   5.078  67.830  1.00  0.00    -0.116 A  
HETATM   39  C   UNL     1      -9.782   3.910  69.871  1.00  0.00    -0.235 A  
ENDBRANCH  33  34
ENDBRANCH  32  33
ENDBRANCH   2  32
TORSDOF 18
ENDMDL
MODEL      256
REMARK 921   NORMALIZED FREE ENERGY PREDICTED BY IDOCK:   -3.86 KCAL/MOL
REMARK 922        TOTAL FREE ENERGY PREDICTED BY IDOCK:  -12.70 KCAL/MOL
REMARK 923 INTER-LIGAND FREE ENERGY PREDICTED BY IDOCK:   -9.87 KCAL/MOL
REMARK 924 INTRA-LIGAND FREE ENERGY PREDICTED BY IDOCK:   -2.83 KCAL/MOL
REMARK 927      BINDING AFFINITY PREDICTED BY RF-SCORE:    0.00 PKD
ROOT
HETATM    1  O   UNL     1     -11.522   6.965  67.133  1.00  0.00    -0.703 OA 
HETATM    2  C   UNL     1     -10.538   6.102  67.700  1.00  0.00    -0.270 C  
HETATM    3  H   UNL     1     -12.292   6.466  66.884  1.00  0.00     0.000 HD 
ENDROOT
BRANCH   2   4
HETATM    4  C   UNL     1      -9.290   6.911  68.104  1.00  0.00    -0.124 C  
BRANCH   4   5
HETATM    5  C   UNL     1      -8.966   6.901  69.601  1.00  0.00    -0.144 C  
BRANCH   5   6
HETATM    6  C   UNL     1      -9.768   5.902  70.467  1.00  0.00    -0.217 C  
HETATM    7  H   UNL     1     -12.380   5.616  73.512  1.00  0.00     0.000 HD 
HETATM    8  C   UNL     1     -10.790   6.481  71.535  1.00  0.00    -0.288 C  
HETATM    9  C   UNL     1      -8.781   5.091  71.317  1.00  0.00    -0.129 C  
HETATM   10  C   UNL     1      -9.650   4.452  72.361  1.00  0.00    -0.198 C  
HETATM   11  O   UNL     1      -8.113   4.091  70.572  1.00  0.00    -0.054 OA 
HETATM   12  O   UNL     1     -11.781   4.926  73.252  1.00  0.00    -0.312 OA 
HETATM   13  H   UNL     1      -7.502   3.589  71.098  1.00  0.00     0.000 HD 
HETATM   14  C   UNL     1     -10.605   5.551  72.777  1.00  0.00    -0.225 C  
BRANCH   8  15
HETATM   15  C   UNL     1     -12.264   6.635  71.041  1.00  0.00    -0.344 C  
BRANCH  15  16
HETATM   16  C   UNL     1     -13.079   7.710  71.737  1.00  0.00    -0.359 C  
HETATM   17  C   UNL     1     -12.897   9.041  71.847  1.00  0.00    -0.451 C  
BRANCH  17  18
HETATM   18  C   UNL     1     -11.781   9.889  71.306  1.00  0.00    -0.472 C  
BRANCH  18  19
HETATM   19  C   UNL     1     -12.074  10.401  69.887  1.00  0.00    -0.252 C  
BRANCH  19  20
HETATM   20  C   UNL     1     -10.944  10.172  68.892  1.00  0.00    -0.261 C  
BRANCH  20  21
HETATM   21  C   UNL     1     -11.062  11.098  67.721  1.00  0.00    -0.285 C  
HETATM   22  O   UNL     1     -10.256  11.218  66.806  1.00  0.00    -0.212 OA 
BRANCH  21  23
HETATM   23  O   UNL     1     -12.149  11.893  67.919  1.00  0.00    -0.558 OA 
BRANCH  23  24
HETATM   24  C   UNL     1     -11.820  13.241  67.657  1.00  0.00    -0.357 C  
BRANCH  24  25
HETATM   25  C   UNL     1     -11.175  13.929  68.841  1.00  0.00    -0.304 C  
BRANCH  25  26
HETATM   26  C   UNL     1     -12.187  14.629  69.746  1.00  0.00    -0.347 C  
BRANCH  26  27
HETATM   27  C   UNL     1     -12.313  14.039  71.157  1.00  0.00    -0.365 C  
BRANCH  27  28
HETATM   28  O   UNL     1     -11.676  14.901  72.074  1.00  0.00    -0.365 OA 
HETATM   29  N   UNL     1     -12.589  15.750  72.742  1.00  0.00    -0.404 N  
HETATM   30  O   UNL     1     -12.028  16.548  73.497  1.00  0.00    -0.453 OA 
HETATM   31  O   UNL     1     -13.780  15.604  72.497  1.00  0.00    -0.511 OA 
ENDBRANCH  27  28
ENDBRANCH  26  27
ENDBRANCH  25  26
ENDBRANCH  24  25
ENDBRANCH  23  24
ENDBRANCH  21  23
ENDBRANCH  20  21
ENDBRANCH  19  20
ENDBRANCH  18  19
ENDBRANCH  17  18
ENDBRANCH  15  16
ENDBRANCH   8  15
ENDBRANCH   5   6
ENDBRANCH   4   5
ENDBRANCH   2   4
BRANCH   2  32
HETATM   32  C   UNL     1     -10.209   5.059  66.641  1.00  0.00    -0.299 C  
BRANCH  32  33
HETATM   33  C   UNL     1      -9.486   3.858  67.237  1.00  0.00    -0.235 C  
BRANCH  33  34
HETATM   34  C   UNL     1      -8.330   3.493  66.364  1.00  0.00    -0.102 A  
HETATM   35  C   UNL     1      -5.940   3.339  66.034  1.00  0.00    -0.023 A  
HETATM   36  C   UNL     1      -7.459   2.873  64.208  1.00  0.00    -0.070 A  
HETATM   37  C   UNL     1      -7.025   3.600  66.866  1.00  0.00    -0.055 A  
HETATM   38  C   UNL     1      -8.545   3.132  65.035  1.00  0.00    -0.106 A  
HETATM   39  C   UNL     1      -6.158   2.976  64.706  1.00  0.00    -0.022 A  
ENDBRANCH  33  34
ENDBRANCH  32  33
ENDBRANCH   2  32
TORSDOF 18
ENDMDL
MODEL      257
REMARK 921   NORMALIZED FREE ENERGY PREDICTED BY IDOCK:   -3.85 KCAL/MOL
REMARK 922        TOTAL FREE ENERGY PREDICTED BY IDOCK:  -12.68 KCAL/MOL
REMARK 923 INTER-LIGAND FREE ENERGY PREDICTED BY IDOCK:   -9.18 KCAL/MOL
REMARK 924 INTRA-LIGAND FREE ENERGY PREDICTED BY IDOCK:   -3.50 KCAL/MOL
REMARK 927      BINDING AFFINITY PREDICTED BY RF-SCORE:    0.00 PKD
ROOT
HETATM    1  O   UNL     1      -9.314   6.305  67.179  1.00  0.00    -0.119 OA 
HETATM    2  C   UNL     1      -8.654   7.464  67.682  1.00  0.00    -0.119 C  
HETATM    3  H   UNL     1      -9.212   6.253  66.235  1.00  0.00     0.000 HD 
ENDROOT
BRANCH   2   4
HETATM    4  C   UNL     1      -8.820   7.548  69.212  1.00  0.00    -0.136 C  
BRANCH   4   5
HETATM    5  C   UNL     1      -9.555   8.793  69.720  1.00  0.00    -0.173 C  
BRANCH   5   6
HETATM    6  C   UNL     1     -11.039   8.598  70.109  1.00  0.00    -0.199 C  
HETATM    7  H   UNL     1     -13.837   9.583  72.825  1.00  0.00     0.000 HD 
HETATM    8  C   UNL     1     -11.606   9.411  71.350  1.00  0.00    -0.451 C  
HETATM    9  C   UNL     1     -11.249   7.133  70.514  1.00  0.00    -0.290 C  
HETATM   10  C   UNL     1     -12.575   7.143  71.217  1.00  0.00    -0.421 C  
HETATM   11  O   UNL     1     -11.304   6.263  69.399  1.00  0.00    -0.417 OA 
HETATM   12  O   UNL     1     -13.865   8.803  72.283  1.00  0.00    -0.422 OA 
HETATM   13  H   UNL     1     -11.434   5.356  69.650  1.00  0.00     0.000 HD 
HETATM   14  C   UNL     1     -12.530   8.385  72.081  1.00  0.00    -0.370 C  
BRANCH   8  15
HETATM   15  C   UNL     1     -12.281  10.778  71.006  1.00  0.00    -0.485 C  
BRANCH  15  16
HETATM   16  C   UNL     1     -12.512  11.042  69.529  1.00  0.00    -0.148 C  
HETATM   17  C   UNL     1     -11.972  11.945  68.687  1.00  0.00    -0.291 C  
BRANCH  17  18
HETATM   18  C   UNL     1     -10.953  13.012  68.972  1.00  0.00    -0.242 C  
BRANCH  18  19
HETATM   19  C   UNL     1     -11.504  14.425  68.729  1.00  0.00    -0.319 C  
BRANCH  19  20
HETATM   20  C   UNL     1     -11.100  15.036  67.393  1.00  0.00    -0.324 C  
BRANCH  20  21
HETATM   21  C   UNL     1      -9.795  15.760  67.505  1.00  0.00    -0.229 C  
HETATM   22  O   UNL     1      -9.616  16.860  68.014  1.00  0.00    -0.238 OA 
BRANCH  21  23
HETATM   23  O   UNL     1      -8.859  15.054  66.814  1.00  0.00    -0.239 OA 
BRANCH  23  24
HETATM   24  C   UNL     1      -7.564  15.512  67.141  1.00  0.00    -0.218 C  
BRANCH  24  25
HETATM   25  C   UNL     1      -6.654  14.403  67.623  1.00  0.00    -0.172 C  
BRANCH  25  26
HETATM   26  C   UNL     1      -7.372  13.388  68.510  1.00  0.00    -0.111 C  
BRANCH  26  27
HETATM   27  C   UNL     1      -7.055  11.918  68.203  1.00  0.00    -0.081 C  
BRANCH  27  28
HETATM   28  O   UNL     1      -6.988  11.745  66.804  1.00  0.00    -0.126 OA 
HETATM   29  N   UNL     1      -6.136  10.678  66.432  1.00  0.00    -0.088 N  
HETATM   30  O   UNL     1      -6.025  10.567  65.209  1.00  0.00    -0.127 OA 
HETATM   31  O   UNL     1      -5.625  10.023  67.331  1.00  0.00    -0.042 OA 
ENDBRANCH  27  28
ENDBRANCH  26  27
ENDBRANCH  25  26
ENDBRANCH  24  25
ENDBRANCH  23  24
ENDBRANCH  21  23
ENDBRANCH  20  21
ENDBRANCH  19  20
ENDBRANCH  18  19
ENDBRANCH  17  18
ENDBRANCH  15  16
ENDBRANCH   8  15
ENDBRANCH   5   6
ENDBRANCH   4   5
ENDBRANCH   2   4
BRANCH   2  32
HETATM   32  C   UNL     1      -9.284   8.663  66.986  1.00  0.00    -0.186 C  
BRANCH  32  33
HETATM   33  C   UNL     1      -9.060   8.622  65.479  1.00  0.00    -0.190 C  
BRANCH  33  34
HETATM   34  C   UNL     1      -9.593   9.875  64.866  1.00  0.00    -0.356 A  
HETATM   35  C   UNL     1      -9.754  11.351  62.958  1.00  0.00    -0.393 A  
HETATM   36  C   UNL     1     -10.694  12.003  65.091  1.00  0.00    -0.332 A  
HETATM   37  C   UNL     1      -9.329  10.149  63.516  1.00  0.00    -0.333 A  
HETATM   38  C   UNL     1     -10.272  10.804  65.653  1.00  0.00    -0.320 A  
HETATM   39  C   UNL     1     -10.435  12.277  63.746  1.00  0.00    -0.476 A  
ENDBRANCH  33  34
ENDBRANCH  32  33
ENDBRANCH   2  32
TORSDOF 18
ENDMDL
MODEL      258
REMARK 921   NORMALIZED FREE ENERGY PREDICTED BY IDOCK:   -3.85 KCAL/MOL
REMARK 922        TOTAL FREE ENERGY PREDICTED BY IDOCK:  -12.68 KCAL/MOL
REMARK 923 INTER-LIGAND FREE ENERGY PREDICTED BY IDOCK:  -10.16 KCAL/MOL
REMARK 924 INTRA-LIGAND FREE ENERGY PREDICTED BY IDOCK:   -2.52 KCAL/MOL
REMARK 927      BINDING AFFINITY PREDICTED BY RF-SCORE:    0.00 PKD
ROOT
HETATM    1  O   UNL     1     -11.100  12.083  69.902  1.00  0.00    -0.477 OA 
HETATM    2  C   UNL     1     -10.788  10.789  69.388  1.00  0.00    -0.244 C  
HETATM    3  H   UNL     1     -10.643  12.228  70.723  1.00  0.00     0.000 HD 
ENDROOT
BRANCH   2   4
HETATM    4  C   UNL     1     -11.528  10.553  68.057  1.00  0.00    -0.230 C  
BRANCH   4   5
HETATM    5  C   UNL     1     -10.624  10.260  66.854  1.00  0.00    -0.282 C  
BRANCH   5   6
HETATM    6  C   UNL     1     -10.440  11.413  65.842  1.00  0.00    -0.309 C  
HETATM    7  H   UNL     1     -11.583  15.165  64.953  1.00  0.00     0.000 HD 
HETATM    8  C   UNL     1     -11.161  12.797  66.135  1.00  0.00    -0.322 C  
HETATM    9  C   UNL     1     -11.031  10.979  64.494  1.00  0.00    -0.088 C  
HETATM   10  C   UNL     1     -11.145  12.262  63.723  1.00  0.00    -0.507 C  
HETATM   11  O   UNL     1     -10.193  10.075  63.798  1.00  0.00    -0.433 OA 
HETATM   12  O   UNL     1     -11.250  14.541  64.319  1.00  0.00    -0.240 OA 
HETATM   13  H   UNL     1     -10.559   9.806  62.963  1.00  0.00     0.000 HD 
HETATM   14  C   UNL     1     -11.675  13.258  64.733  1.00  0.00    -0.355 C  
BRANCH   8  15
HETATM   15  C   UNL     1     -10.303  13.854  66.901  1.00  0.00    -0.266 C  
BRANCH  15  16
HETATM   16  C   UNL     1      -8.915  13.396  67.315  1.00  0.00    -0.221 C  
HETATM   17  C   UNL     1      -8.007  13.936  68.151  1.00  0.00    -0.148 C  
BRANCH  17  18
HETATM   18  C   UNL     1      -8.093  15.210  68.943  1.00  0.00    -0.178 C  
BRANCH  18  19
HETATM   19  C   UNL     1      -6.813  16.054  68.831  1.00  0.00    -0.143 C  
BRANCH  19  20
HETATM   20  C   UNL     1      -6.167  16.033  67.452  1.00  0.00    -0.191 C  
BRANCH  20  21
HETATM   21  C   UNL     1      -5.681  17.396  67.065  1.00  0.00    -0.153 C  
HETATM   22  O   UNL     1      -5.416  17.778  65.932  1.00  0.00    -0.182 OA 
BRANCH  21  23
HETATM   23  O   UNL     1      -5.443  18.099  68.206  1.00  0.00    -0.162 OA 
BRANCH  23  24
HETATM   24  C   UNL     1      -5.914  19.423  68.068  1.00  0.00    -0.207 C  
BRANCH  24  25
HETATM   25  C   UNL     1      -7.030  19.753  69.036  1.00  0.00    -0.372 C  
BRANCH  25  26
HETATM   26  C   UNL     1      -8.415  19.664  68.400  1.00  0.00    -0.352 C  
BRANCH  26  27
HETATM   27  C   UNL     1      -8.441  19.835  66.874  1.00  0.00    -0.320 C  
BRANCH  27  28
HETATM   28  O   UNL     1      -8.955  18.659  66.289  1.00  0.00    -0.388 OA 
HETATM   29  N   UNL     1     -10.206  18.870  65.661  1.00  0.00    -0.102 N  
HETATM   30  O   UNL     1     -10.688  17.831  65.206  1.00  0.00    -0.649 OA 
HETATM   31  O   UNL     1     -10.647  20.012  65.652  1.00  0.00    -0.460 OA 
ENDBRANCH  27  28
ENDBRANCH  26  27
ENDBRANCH  25  26
ENDBRANCH  24  25
ENDBRANCH  23  24
ENDBRANCH  21  23
ENDBRANCH  20  21
ENDBRANCH  19  20
ENDBRANCH  18  19
ENDBRANCH  17  18
ENDBRANCH  15  16
ENDBRANCH   8  15
ENDBRANCH   5   6
ENDBRANCH   4   5
ENDBRANCH   2   4
BRANCH   2  32
HETATM   32  C   UNL     1     -11.213   9.783  70.449  1.00  0.00    -0.362 C  
BRANCH  32  33
HETATM   33  C   UNL     1     -10.037   9.342  71.312  1.00  0.00    -0.361 C  
BRANCH  33  34
HETATM   34  C   UNL     1     -10.200   7.901  71.670  1.00  0.00    -0.239 A  
HETATM   35  C   UNL     1      -9.713   6.061  73.160  1.00  0.00    -0.164 A  
HETATM   36  C   UNL     1     -10.911   5.675  71.093  1.00  0.00    -0.288 A  
HETATM   37  C   UNL     1      -9.635   7.417  72.859  1.00  0.00    -0.224 A  
HETATM   38  C   UNL     1     -10.835   7.029  70.787  1.00  0.00    -0.272 A  
HETATM   39  C   UNL     1     -10.351   5.191  72.278  1.00  0.00    -0.267 A  
ENDBRANCH  33  34
ENDBRANCH  32  33
ENDBRANCH   2  32
TORSDOF 18
ENDMDL
MODEL      259
REMARK 921   NORMALIZED FREE ENERGY PREDICTED BY IDOCK:   -3.84 KCAL/MOL
REMARK 922        TOTAL FREE ENERGY PREDICTED BY IDOCK:  -12.66 KCAL/MOL
REMARK 923 INTER-LIGAND FREE ENERGY PREDICTED BY IDOCK:  -10.46 KCAL/MOL
REMARK 924 INTRA-LIGAND FREE ENERGY PREDICTED BY IDOCK:   -2.20 KCAL/MOL
REMARK 927      BINDING AFFINITY PREDICTED BY RF-SCORE:    0.00 PKD
ROOT
HETATM    1  O   UNL     1      -7.976  10.329  68.357  1.00  0.00    -0.102 OA 
HETATM    2  C   UNL     1      -8.916   9.676  67.505  1.00  0.00    -0.128 C  
HETATM    3  H   UNL     1      -7.114  10.324  67.958  1.00  0.00     0.000 HD 
ENDROOT
BRANCH   2   4
HETATM    4  C   UNL     1     -10.315   9.685  68.152  1.00  0.00    -0.250 C  
BRANCH   4   5
HETATM    5  C   UNL     1     -10.359   9.224  69.612  1.00  0.00    -0.227 C  
BRANCH   5   6
HETATM    6  C   UNL     1     -11.764   8.969  70.205  1.00  0.00    -0.008 C  
HETATM    7  H   UNL     1     -14.250   9.966  73.205  1.00  0.00     0.000 HD 
HETATM    8  C   UNL     1     -12.221   9.827  71.460  1.00  0.00    -0.493 C  
HETATM    9  C   UNL     1     -11.822   7.524  70.719  1.00  0.00    -0.228 C  
HETATM   10  C   UNL     1     -13.045   7.503  71.589  1.00  0.00    -0.401 C  
HETATM   11  O   UNL     1     -11.962   6.580  69.674  1.00  0.00    -0.618 OA 
HETATM   12  O   UNL     1     -14.296   9.152  72.718  1.00  0.00    -0.563 OA 
HETATM   13  H   UNL     1     -11.998   5.686  69.992  1.00  0.00     0.000 HD 
HETATM   14  C   UNL     1     -12.972   8.800  72.366  1.00  0.00    -0.383 C  
BRANCH   8  15
HETATM   15  C   UNL     1     -13.023  11.127  71.130  1.00  0.00    -0.393 C  
BRANCH  15  16
HETATM   16  C   UNL     1     -13.242  12.075  72.295  1.00  0.00    -0.235 C  
HETATM   17  C   UNL     1     -13.721  13.334  72.346  1.00  0.00    -0.678 C  
BRANCH  17  18
HETATM   18  C   UNL     1     -14.187  14.213  71.221  1.00  0.00    -0.084 C  
BRANCH  18  19
HETATM   19  C   UNL     1     -13.350  15.496  71.098  1.00  0.00    -0.553 C  
BRANCH  19  20
HETATM   20  C   UNL     1     -11.904  15.265  70.681  1.00  0.00    -0.376 C  
BRANCH  20  21
HETATM   21  C   UNL     1     -11.817  14.862  69.241  1.00  0.00    -0.318 C  
HETATM   22  O   UNL     1     -11.962  13.732  68.793  1.00  0.00    -0.346 OA 
BRANCH  21  23
HETATM   23  O   UNL     1     -11.403  15.943  68.525  1.00  0.00    -0.343 OA 
BRANCH  23  24
HETATM   24  C   UNL     1     -10.677  15.525  67.388  1.00  0.00    -0.301 C  
BRANCH  24  25
HETATM   25  C   UNL     1      -9.192  15.404  67.652  1.00  0.00    -0.187 C  
BRANCH  25  26
HETATM   26  C   UNL     1      -8.661  16.499  68.574  1.00  0.00    -0.223 C  
BRANCH  26  27
HETATM   27  C   UNL     1      -8.398  17.850  67.894  1.00  0.00    -0.247 C  
BRANCH  27  28
HETATM   28  O   UNL     1      -9.500  18.701  68.122  1.00  0.00    -0.301 OA 
HETATM   29  N   UNL     1     -10.184  19.031  66.929  1.00  0.00    -0.360 N  
HETATM   30  O   UNL     1     -11.108  19.826  67.117  1.00  0.00    -0.366 OA 
HETATM   31  O   UNL     1      -9.791  18.515  65.890  1.00  0.00    -0.507 OA 
ENDBRANCH  27  28
ENDBRANCH  26  27
ENDBRANCH  25  26
ENDBRANCH  24  25
ENDBRANCH  23  24
ENDBRANCH  21  23
ENDBRANCH  20  21
ENDBRANCH  19  20
ENDBRANCH  18  19
ENDBRANCH  17  18
ENDBRANCH  15  16
ENDBRANCH   8  15
ENDBRANCH   5   6
ENDBRANCH   4   5
ENDBRANCH   2   4
BRANCH   2  32
HETATM   32  C   UNL     1      -8.405   8.257  67.298  1.00  0.00    -0.124 C  
BRANCH  32  33
HETATM   33  C   UNL     1      -9.299   7.469  66.347  1.00  0.00    -0.211 C  
BRANCH  33  34
HETATM   34  C   UNL     1      -9.422   6.063  66.836  1.00  0.00    -0.146 A  
HETATM   35  C   UNL     1      -9.131   4.445  68.609  1.00  0.00    -0.171 A  
HETATM   36  C   UNL     1      -9.805   3.728  66.398  1.00  0.00    -0.072 A  
HETATM   37  C   UNL     1      -9.097   5.765  68.167  1.00  0.00    -0.110 A  
HETATM   38  C   UNL     1      -9.773   5.044  65.952  1.00  0.00    -0.182 A  
HETATM   39  C   UNL     1      -9.485   3.428  67.724  1.00  0.00    -0.229 A  
ENDBRANCH  33  34
ENDBRANCH  32  33
ENDBRANCH   2  32
TORSDOF 18
ENDMDL
MODEL      260
REMARK 921   NORMALIZED FREE ENERGY PREDICTED BY IDOCK:   -3.83 KCAL/MOL
REMARK 922        TOTAL FREE ENERGY PREDICTED BY IDOCK:  -12.65 KCAL/MOL
REMARK 923 INTER-LIGAND FREE ENERGY PREDICTED BY IDOCK:   -8.06 KCAL/MOL
REMARK 924 INTRA-LIGAND FREE ENERGY PREDICTED BY IDOCK:   -4.59 KCAL/MOL
REMARK 927      BINDING AFFINITY PREDICTED BY RF-SCORE:    0.00 PKD
ROOT
HETATM    1  O   UNL     1     -11.917  11.956  65.887  1.00  0.00    -0.480 OA 
HETATM    2  C   UNL     1     -11.016  10.852  65.834  1.00  0.00     0.016 C  
HETATM    3  H   UNL     1     -12.005  12.349  65.026  1.00  0.00     0.000 HD 
ENDROOT
BRANCH   2   4
HETATM    4  C   UNL     1     -10.873  10.215  67.230  1.00  0.00    -0.295 C  
BRANCH   4   5
HETATM    5  C   UNL     1     -11.305  11.107  68.399  1.00  0.00    -0.357 C  
BRANCH   5   6
HETATM    6  C   UNL     1     -10.890  10.631  69.810  1.00  0.00    -0.317 C  
HETATM    7  H   UNL     1      -8.733   7.884  71.805  1.00  0.00     0.000 HD 
HETATM    8  C   UNL     1      -9.843   9.443  69.928  1.00  0.00    -0.235 C  
HETATM    9  C   UNL     1     -12.132  10.087  70.527  1.00  0.00    -0.251 C  
HETATM   10  C   UNL     1     -11.569   9.325  71.691  1.00  0.00    -0.463 C  
HETATM   11  O   UNL     1     -12.985  11.115  70.995  1.00  0.00    -0.335 OA 
HETATM   12  O   UNL     1      -9.475   8.352  72.169  1.00  0.00    -0.234 OA 
HETATM   13  H   UNL     1     -13.754  10.778  71.439  1.00  0.00     0.000 HD 
HETATM   14  C   UNL     1     -10.386   8.579  71.111  1.00  0.00    -0.215 C  
BRANCH   8  15
HETATM   15  C   UNL     1      -8.347   9.875  70.060  1.00  0.00    -0.191 C  
BRANCH  15  16
HETATM   16  C   UNL     1      -7.626  10.143  68.752  1.00  0.00    -0.089 C  
HETATM   17  C   UNL     1      -7.383  11.288  68.082  1.00  0.00    -0.088 C  
BRANCH  17  18
HETATM   18  C   UNL     1      -7.781  12.692  68.437  1.00  0.00    -0.133 C  
BRANCH  18  19
HETATM   19  C   UNL     1      -6.709  13.410  69.271  1.00  0.00    -0.072 C  
BRANCH  19  20
HETATM   20  C   UNL     1      -6.989  14.887  69.517  1.00  0.00    -0.180 C  
BRANCH  20  21
HETATM   21  C   UNL     1      -6.848  15.679  68.254  1.00  0.00    -0.119 C  
HETATM   22  O   UNL     1      -6.076  15.445  67.332  1.00  0.00    -0.299 OA 
BRANCH  21  23
HETATM   23  O   UNL     1      -7.623  16.792  68.365  1.00  0.00    -0.186 OA 
BRANCH  23  24
HETATM   24  C   UNL     1      -8.893  16.451  68.881  1.00  0.00    -0.256 C  
BRANCH  24  25
HETATM   25  C   UNL     1     -10.015  16.711  67.900  1.00  0.00    -0.254 C  
BRANCH  25  26
HETATM   26  C   UNL     1     -10.620  15.428  67.335  1.00  0.00    -0.289 C  
BRANCH  26  27
HETATM   27  C   UNL     1     -11.685  14.768  68.222  1.00  0.00    -0.311 C  
BRANCH  27  28
HETATM   28  O   UNL     1     -12.105  15.692  69.201  1.00  0.00    -0.344 OA 
HETATM   29  N   UNL     1     -12.294  15.088  70.467  1.00  0.00    -0.331 N  
HETATM   30  O   UNL     1     -12.723  15.881  71.309  1.00  0.00    -0.467 OA 
HETATM   31  O   UNL     1     -12.029  13.898  70.571  1.00  0.00    -0.323 OA 
ENDBRANCH  27  28
ENDBRANCH  26  27
ENDBRANCH  25  26
ENDBRANCH  24  25
ENDBRANCH  23  24
ENDBRANCH  21  23
ENDBRANCH  20  21
ENDBRANCH  19  20
ENDBRANCH  18  19
ENDBRANCH  17  18
ENDBRANCH  15  16
ENDBRANCH   8  15
ENDBRANCH   5   6
ENDBRANCH   4   5
ENDBRANCH   2   4
BRANCH   2  32
HETATM   32  C   UNL     1      -9.687  11.395  65.330  1.00  0.00    -0.276 C  
BRANCH  32  33
HETATM   33  C   UNL     1      -9.121  10.544  64.199  1.00  0.00    -0.258 C  
BRANCH  33  34
HETATM   34  C   UNL     1      -7.903   9.828  64.682  1.00  0.00    -0.136 A  
HETATM   35  C   UNL     1      -6.919   8.033  65.970  1.00  0.00    -0.058 A  
HETATM   36  C   UNL     1      -5.516   9.731  64.968  1.00  0.00    -0.060 A  
HETATM   37  C   UNL     1      -8.047   8.662  65.448  1.00  0.00    -0.121 A  
HETATM   38  C   UNL     1      -6.638  10.362  64.445  1.00  0.00    -0.014 A  
HETATM   39  C   UNL     1      -5.655   8.568  65.729  1.00  0.00    -0.042 A  
ENDBRANCH  33  34
ENDBRANCH  32  33
ENDBRANCH   2  32
TORSDOF 18
ENDMDL
MODEL      261
REMARK 921   NORMALIZED FREE ENERGY PREDICTED BY IDOCK:   -3.81 KCAL/MOL
REMARK 922        TOTAL FREE ENERGY PREDICTED BY IDOCK:  -12.61 KCAL/MOL
REMARK 923 INTER-LIGAND FREE ENERGY PREDICTED BY IDOCK:   -9.46 KCAL/MOL
REMARK 924 INTRA-LIGAND FREE ENERGY PREDICTED BY IDOCK:   -3.16 KCAL/MOL
REMARK 927      BINDING AFFINITY PREDICTED BY RF-SCORE:    0.00 PKD
ROOT
HETATM    1  O   UNL     1      -8.815   6.687  66.570  1.00  0.00    -0.128 OA 
HETATM    2  C   UNL     1     -10.012   6.079  67.053  1.00  0.00    -0.163 C  
HETATM    3  H   UNL     1      -8.203   6.020  66.281  1.00  0.00     0.000 HD 
ENDROOT
BRANCH   2   4
HETATM    4  C   UNL     1     -11.005   7.161  67.523  1.00  0.00    -0.261 C  
BRANCH   4   5
HETATM    5  C   UNL     1     -10.487   8.600  67.437  1.00  0.00    -0.351 C  
BRANCH   5   6
HETATM    6  C   UNL     1     -10.025   9.240  68.767  1.00  0.00    -0.193 C  
HETATM    7  H   UNL     1      -7.621   8.731  71.951  1.00  0.00     0.000 HD 
HETATM    8  C   UNL     1      -8.875   8.521  69.591  1.00  0.00    -0.137 C  
HETATM    9  C   UNL     1     -11.211   9.251  69.740  1.00  0.00    -0.085 C  
HETATM   10  C   UNL     1     -10.577   9.523  71.073  1.00  0.00    -0.392 C  
HETATM   11  O   UNL     1     -12.152  10.265  69.441  1.00  0.00    -0.512 OA 
HETATM   12  O   UNL     1      -8.402   9.273  71.948  1.00  0.00    -0.265 OA 
HETATM   13  H   UNL     1     -12.886  10.272  70.044  1.00  0.00     0.000 HD 
HETATM   14  C   UNL     1      -9.333   8.661  71.078  1.00  0.00    -0.202 C  
BRANCH   8  15
HETATM   15  C   UNL     1      -7.424   9.022  69.298  1.00  0.00    -0.075 C  
BRANCH  15  16
HETATM   16  C   UNL     1      -7.200  10.514  69.466  1.00  0.00    -0.137 C  
HETATM   17  C   UNL     1      -7.402  11.549  68.627  1.00  0.00    -0.106 C  
BRANCH  17  18
HETATM   18  C   UNL     1      -7.915  11.534  67.215  1.00  0.00    -0.153 C  
BRANCH  18  19
HETATM   19  C   UNL     1      -8.641  12.837  66.845  1.00  0.00    -0.140 C  
BRANCH  19  20
HETATM   20  C   UNL     1      -9.986  12.634  66.160  1.00  0.00    -0.269 C  
BRANCH  20  21
HETATM   21  C   UNL     1     -11.085  12.486  67.166  1.00  0.00    -0.276 C  
HETATM   22  O   UNL     1     -12.077  11.776  67.059  1.00  0.00    -0.575 OA 
BRANCH  21  23
HETATM   23  O   UNL     1     -10.869  13.387  68.163  1.00  0.00    -0.240 OA 
BRANCH  23  24
HETATM   24  C   UNL     1     -11.907  14.343  68.188  1.00  0.00    -0.327 C  
BRANCH  24  25
HETATM   25  C   UNL     1     -11.482  15.655  68.811  1.00  0.00    -0.382 C  
BRANCH  25  26
HETATM   26  C   UNL     1     -10.965  15.495  70.239  1.00  0.00    -0.352 C  
BRANCH  26  27
HETATM   27  C   UNL     1     -11.928  14.786  71.202  1.00  0.00    -0.335 C  
BRANCH  27  28
HETATM   28  O   UNL     1     -11.518  15.035  72.529  1.00  0.00    -0.357 OA 
HETATM   29  N   UNL     1     -12.569  15.531  73.336  1.00  0.00    -0.463 N  
HETATM   30  O   UNL     1     -12.197  15.810  74.478  1.00  0.00    -0.606 OA 
HETATM   31  O   UNL     1     -13.677  15.628  72.824  1.00  0.00    -0.543 OA 
ENDBRANCH  27  28
ENDBRANCH  26  27
ENDBRANCH  25  26
ENDBRANCH  24  25
ENDBRANCH  23  24
ENDBRANCH  21  23
ENDBRANCH  20  21
ENDBRANCH  19  20
ENDBRANCH  18  19
ENDBRANCH  17  18
ENDBRANCH  15  16
ENDBRANCH   8  15
ENDBRANCH   5   6
ENDBRANCH   4   5
ENDBRANCH   2   4
BRANCH   2  32
HETATM   32  C   UNL     1      -9.605   5.161  68.197  1.00  0.00    -0.173 C  
BRANCH  32  33
HETATM   33  C   UNL     1     -10.290   5.549  69.503  1.00  0.00    -0.357 C  
BRANCH  33  34
HETATM   34  C   UNL     1      -9.586   4.891  70.644  1.00  0.00    -0.254 A  
HETATM   35  C   UNL     1      -7.662   3.696  71.490  1.00  0.00    -0.057 A  
HETATM   36  C   UNL     1      -9.609   4.023  72.889  1.00  0.00    -0.169 A  
HETATM   37  C   UNL     1      -8.293   4.381  70.455  1.00  0.00    -0.086 A  
HETATM   38  C   UNL     1     -10.243   4.709  71.860  1.00  0.00    -0.254 A  
HETATM   39  C   UNL     1      -8.320   3.518  72.705  1.00  0.00    -0.081 A  
ENDBRANCH  33  34
ENDBRANCH  32  33
ENDBRANCH   2  32
TORSDOF 18
ENDMDL
MODEL      262
REMARK 921   NORMALIZED FREE ENERGY PREDICTED BY IDOCK:   -3.80 KCAL/MOL
REMARK 922        TOTAL FREE ENERGY PREDICTED BY IDOCK:  -12.59 KCAL/MOL
REMARK 923 INTER-LIGAND FREE ENERGY PREDICTED BY IDOCK:   -9.21 KCAL/MOL
REMARK 924 INTRA-LIGAND FREE ENERGY PREDICTED BY IDOCK:   -3.37 KCAL/MOL
REMARK 927      BINDING AFFINITY PREDICTED BY RF-SCORE:    0.00 PKD
ROOT
HETATM    1  O   UNL     1      -6.274   9.562  64.549  1.00  0.00    -0.076 OA 
HETATM    2  C   UNL     1      -7.618   9.971  64.795  1.00  0.00    -0.143 C  
HETATM    3  H   UNL     1      -6.197   9.200  63.673  1.00  0.00     0.000 HD 
ENDROOT
BRANCH   2   4
HETATM    4  C   UNL     1      -7.743  10.558  66.215  1.00  0.00    -0.135 C  
BRANCH   4   5
HETATM    5  C   UNL     1      -8.616   9.747  67.180  1.00  0.00    -0.129 C  
BRANCH   5   6
HETATM    6  C   UNL     1      -7.902   9.169  68.424  1.00  0.00    -0.102 C  
HETATM    7  H   UNL     1      -7.319   9.695  72.368  1.00  0.00     0.000 HD 
HETATM    8  C   UNL     1      -8.181   9.842  69.834  1.00  0.00    -0.196 C  
HETATM    9  C   UNL     1      -6.388   9.336  68.239  1.00  0.00    -0.054 C  
HETATM   10  C   UNL     1      -5.833   9.107  69.615  1.00  0.00    -0.033 C  
HETATM   11  O   UNL     1      -5.841   8.390  67.339  1.00  0.00    -0.041 OA 
HETATM   12  O   UNL     1      -6.723   9.227  71.794  1.00  0.00    -0.285 OA 
HETATM   13  H   UNL     1      -4.904   8.494  67.225  1.00  0.00     0.000 HD 
HETATM   14  C   UNL     1      -6.782   9.854  70.529  1.00  0.00    -0.123 C  
BRANCH   8  15
HETATM   15  C   UNL     1      -9.328   9.193  70.674  1.00  0.00    -0.312 C  
BRANCH  15  16
HETATM   16  C   UNL     1     -10.238   8.244  69.916  1.00  0.00    -0.201 C  
HETATM   17  C   UNL     1     -11.209   7.408  70.336  1.00  0.00    -0.284 C  
BRANCH  17  18
HETATM   18  C   UNL     1     -11.689   7.146  71.735  1.00  0.00    -0.324 C  
BRANCH  18  19
HETATM   19  C   UNL     1     -12.334   8.387  72.373  1.00  0.00    -0.412 C  
BRANCH  19  20
HETATM   20  C   UNL     1     -13.379   9.070  71.500  1.00  0.00    -0.394 C  
BRANCH  20  21
HETATM   21  C   UNL     1     -13.081  10.529  71.346  1.00  0.00    -0.410 C  
HETATM   22  O   UNL     1     -13.364  11.416  72.142  1.00  0.00    -0.469 OA 
BRANCH  21  23
HETATM   23  O   UNL     1     -12.568  10.727  70.101  1.00  0.00    -0.327 OA 
BRANCH  23  24
HETATM   24  C   UNL     1     -12.006  12.019  70.005  1.00  0.00    -0.324 C  
BRANCH  24  25
HETATM   25  C   UNL     1     -11.152  12.197  68.769  1.00  0.00    -0.297 C  
BRANCH  25  26
HETATM   26  C   UNL     1     -11.876  12.938  67.648  1.00  0.00    -0.400 C  
BRANCH  26  27
HETATM   27  C   UNL     1     -11.630  12.383  66.238  1.00  0.00    -0.393 C  
BRANCH  27  28
HETATM   28  O   UNL     1     -12.518  13.007  65.336  1.00  0.00    -0.469 OA 
HETATM   29  N   UNL     1     -11.887  13.373  64.123  1.00  0.00    -0.422 N  
HETATM   30  O   UNL     1     -12.645  13.977  63.360  1.00  0.00    -0.845 OA 
HETATM   31  O   UNL     1     -10.710  13.067  63.983  1.00  0.00    -0.400 OA 
ENDBRANCH  27  28
ENDBRANCH  26  27
ENDBRANCH  25  26
ENDBRANCH  24  25
ENDBRANCH  23  24
ENDBRANCH  21  23
ENDBRANCH  20  21
ENDBRANCH  19  20
ENDBRANCH  18  19
ENDBRANCH  17  18
ENDBRANCH  15  16
ENDBRANCH   8  15
ENDBRANCH   5   6
ENDBRANCH   4   5
ENDBRANCH   2   4
BRANCH   2  32
HETATM   32  C   UNL     1      -8.490   8.735  64.624  1.00  0.00    -0.169 C  
BRANCH  32  33
HETATM   33  C   UNL     1      -7.653   7.465  64.515  1.00  0.00    -0.110 C  
BRANCH  33  34
HETATM   34  C   UNL     1      -8.419   6.319  65.091  1.00  0.00    -0.087 A  
HETATM   35  C   UNL     1      -9.159   4.023  64.929  1.00  0.00    -0.140 A  
HETATM   36  C   UNL     1      -9.997   5.457  66.690  1.00  0.00    -0.220 A  
HETATM   37  C   UNL     1      -8.386   5.074  64.445  1.00  0.00    -0.136 A  
HETATM   38  C   UNL     1      -9.227   6.509  66.211  1.00  0.00    -0.160 A  
HETATM   39  C   UNL     1      -9.964   4.215  66.050  1.00  0.00    -0.193 A  
ENDBRANCH  33  34
ENDBRANCH  32  33
ENDBRANCH   2  32
TORSDOF 18
ENDMDL
MODEL      263
REMARK 921   NORMALIZED FREE ENERGY PREDICTED BY IDOCK:   -3.79 KCAL/MOL
REMARK 922        TOTAL FREE ENERGY PREDICTED BY IDOCK:  -12.56 KCAL/MOL
REMARK 923 INTER-LIGAND FREE ENERGY PREDICTED BY IDOCK:   -8.78 KCAL/MOL
REMARK 924 INTRA-LIGAND FREE ENERGY PREDICTED BY IDOCK:   -3.78 KCAL/MOL
REMARK 927      BINDING AFFINITY PREDICTED BY RF-SCORE:    0.00 PKD
ROOT
HETATM    1  O   UNL     1      -8.615   5.813  67.773  1.00  0.00    -0.104 OA 
HETATM    2  C   UNL     1      -9.878   5.230  68.088  1.00  0.00    -0.150 C  
HETATM    3  H   UNL     1      -7.977   5.134  67.586  1.00  0.00     0.000 HD 
ENDROOT
BRANCH   2   4
HETATM    4  C   UNL     1     -10.912   6.332  68.391  1.00  0.00    -0.409 C  
BRANCH   4   5
HETATM    5  C   UNL     1     -10.398   7.767  68.232  1.00  0.00    -0.239 C  
BRANCH   5   6
HETATM    6  C   UNL     1     -10.019   8.504  69.537  1.00  0.00    -0.193 C  
HETATM    7  H   UNL     1      -7.457   8.504  72.637  1.00  0.00     0.000 HD 
HETATM    8  C   UNL     1      -8.728   8.024  70.327  1.00  0.00    -0.134 C  
HETATM    9  C   UNL     1     -11.153   8.313  70.553  1.00  0.00    -0.249 C  
HETATM   10  C   UNL     1     -10.536   8.721  71.859  1.00  0.00    -0.425 C  
HETATM   11  O   UNL     1     -12.275   9.130  70.277  1.00  0.00    -0.457 OA 
HETATM   12  O   UNL     1      -8.324   8.892  72.657  1.00  0.00    -0.392 OA 
HETATM   13  H   UNL     1     -12.977   9.012  70.906  1.00  0.00     0.000 HD 
HETATM   14  C   UNL     1      -9.154   8.103  71.828  1.00  0.00    -0.174 C  
BRANCH   8  15
HETATM   15  C   UNL     1      -7.406   8.779  69.977  1.00  0.00    -0.053 C  
BRANCH  15  16
HETATM   16  C   UNL     1      -7.537  10.281  69.796  1.00  0.00    -0.168 C  
HETATM   17  C   UNL     1      -7.767  11.034  68.703  1.00  0.00    -0.132 C  
BRANCH  17  18
HETATM   18  C   UNL     1      -7.955  10.597  67.278  1.00  0.00    -0.116 C  
BRANCH  18  19
HETATM   19  C   UNL     1      -8.974  11.472  66.529  1.00  0.00    -0.190 C  
BRANCH  19  20
HETATM   20  C   UNL     1     -10.387  10.904  66.500  1.00  0.00    -0.299 C  
BRANCH  20  21
HETATM   21  C   UNL     1     -11.245  11.543  67.547  1.00  0.00    -0.298 C  
HETATM   22  O   UNL     1     -12.199  11.029  68.118  1.00  0.00    -0.578 OA 
BRANCH  21  23
HETATM   23  O   UNL     1     -10.877  12.849  67.655  1.00  0.00    -0.225 OA 
BRANCH  23  24
HETATM   24  C   UNL     1     -11.897  13.686  67.150  1.00  0.00    -0.396 C  
BRANCH  24  25
HETATM   25  C   UNL     1     -11.398  14.641  66.087  1.00  0.00    -0.350 C  
BRANCH  25  26
HETATM   26  C   UNL     1     -10.148  15.406  66.515  1.00  0.00    -0.282 C  
BRANCH  26  27
HETATM   27  C   UNL     1     -10.396  16.844  66.990  1.00  0.00    -0.307 C  
BRANCH  27  28
HETATM   28  O   UNL     1      -9.226  17.334  67.606  1.00  0.00    -0.226 OA 
HETATM   29  N   UNL     1      -8.621  18.376  66.864  1.00  0.00    -0.263 N  
HETATM   30  O   UNL     1      -7.562  18.762  67.367  1.00  0.00    -0.226 OA 
HETATM   31  O   UNL     1      -9.191  18.752  65.848  1.00  0.00    -0.457 OA 
ENDBRANCH  27  28
ENDBRANCH  26  27
ENDBRANCH  25  26
ENDBRANCH  24  25
ENDBRANCH  23  24
ENDBRANCH  21  23
ENDBRANCH  20  21
ENDBRANCH  19  20
ENDBRANCH  18  19
ENDBRANCH  17  18
ENDBRANCH  15  16
ENDBRANCH   8  15
ENDBRANCH   5   6
ENDBRANCH   4   5
ENDBRANCH   2   4
BRANCH   2  32
HETATM   32  C   UNL     1      -9.654   4.327  69.293  1.00  0.00    -0.261 C  
BRANCH  32  33
HETATM   33  C   UNL     1     -10.411   4.826  70.519  1.00  0.00    -0.187 C  
BRANCH  33  34
HETATM   34  C   UNL     1      -9.598   4.558  71.743  1.00  0.00    -0.220 A  
HETATM   35  C   UNL     1      -9.490   4.229  74.136  1.00  0.00    -0.120 A  
HETATM   36  C   UNL     1      -7.458   4.382  72.830  1.00  0.00    -0.080 A  
HETATM   37  C   UNL     1     -10.244   4.399  72.978  1.00  0.00    -0.225 A  
HETATM   38  C   UNL     1      -8.206   4.551  71.671  1.00  0.00    -0.102 A  
HETATM   39  C   UNL     1      -8.098   4.221  74.061  1.00  0.00    -0.092 A  
ENDBRANCH  33  34
ENDBRANCH  32  33
ENDBRANCH   2  32
TORSDOF 18
ENDMDL
MODEL      264
REMARK 921   NORMALIZED FREE ENERGY PREDICTED BY IDOCK:   -3.78 KCAL/MOL
REMARK 922        TOTAL FREE ENERGY PREDICTED BY IDOCK:  -12.55 KCAL/MOL
REMARK 923 INTER-LIGAND FREE ENERGY PREDICTED BY IDOCK:  -10.49 KCAL/MOL
REMARK 924 INTRA-LIGAND FREE ENERGY PREDICTED BY IDOCK:   -2.06 KCAL/MOL
REMARK 927      BINDING AFFINITY PREDICTED BY RF-SCORE:    0.00 PKD
ROOT
HETATM    1  O   UNL     1      -9.934  13.567  68.809  1.00  0.00    -0.370 OA 
HETATM    2  C   UNL     1     -11.308  13.295  69.076  1.00  0.00    -0.285 C  
HETATM    3  H   UNL     1      -9.686  14.403  69.188  1.00  0.00     0.000 HD 
ENDROOT
BRANCH   2   4
HETATM    4  C   UNL     1     -11.711  11.940  68.462  1.00  0.00    -0.388 C  
BRANCH   4   5
HETATM    5  C   UNL     1     -10.570  11.163  67.796  1.00  0.00    -0.248 C  
BRANCH   5   6
HETATM    6  C   UNL     1     -10.747  10.842  66.294  1.00  0.00    -0.241 C  
HETATM    7  H   UNL     1      -8.786   9.771  62.950  1.00  0.00     0.000 HD 
HETATM    8  C   UNL     1      -9.483  10.343  65.475  1.00  0.00    -0.267 C  
HETATM    9  C   UNL     1     -11.161  12.128  65.567  1.00  0.00    -0.334 C  
HETATM   10  C   UNL     1     -10.936  11.808  64.118  1.00  0.00    -0.437 C  
HETATM   11  O   UNL     1     -12.521  12.460  65.778  1.00  0.00    -0.615 OA 
HETATM   12  O   UNL     1      -9.616  10.233  62.962  1.00  0.00    -0.315 OA 
HETATM   13  H   UNL     1     -12.777  13.256  65.328  1.00  0.00     0.000 HD 
HETATM   14  C   UNL     1      -9.613  11.072  64.099  1.00  0.00    -0.266 C  
BRANCH   8  15
HETATM   15  C   UNL     1      -9.309   8.793  65.385  1.00  0.00    -0.095 C  
BRANCH  15  16
HETATM   16  C   UNL     1      -7.903   8.276  65.628  1.00  0.00    -0.104 C  
HETATM   17  C   UNL     1      -7.261   7.926  66.761  1.00  0.00    -0.088 C  
BRANCH  17  18
HETATM   18  C   UNL     1      -7.761   7.959  68.178  1.00  0.00    -0.125 C  
BRANCH  18  19
HETATM   19  C   UNL     1      -7.075   6.907  69.063  1.00  0.00    -0.088 C  
BRANCH  19  20
HETATM   20  C   UNL     1      -6.935   5.535  68.414  1.00  0.00    -0.064 C  
BRANCH  20  21
HETATM   21  C   UNL     1      -7.765   4.515  69.129  1.00  0.00    -0.059 C  
HETATM   22  O   UNL     1      -7.355   3.657  69.901  1.00  0.00    -0.042 OA 
BRANCH  21  23
HETATM   23  O   UNL     1      -9.041   4.608  68.664  1.00  0.00    -0.105 OA 
BRANCH  23  24
HETATM   24  C   UNL     1      -9.958   4.447  69.726  1.00  0.00    -0.154 C  
BRANCH  24  25
HETATM   25  C   UNL     1     -10.258   5.745  70.444  1.00  0.00    -0.288 C  
BRANCH  25  26
HETATM   26  C   UNL     1     -11.466   6.479  69.867  1.00  0.00    -0.467 C  
BRANCH  26  27
HETATM   27  C   UNL     1     -12.552   6.845  70.888  1.00  0.00    -0.201 C  
BRANCH  27  28
HETATM   28  O   UNL     1     -12.818   8.228  70.801  1.00  0.00     0.072 OA 
HETATM   29  N   UNL     1     -12.373   8.937  71.941  1.00  0.00    -0.349 N  
HETATM   30  O   UNL     1     -12.662  10.135  71.896  1.00  0.00    -0.409 OA 
HETATM   31  O   UNL     1     -11.785   8.302  72.808  1.00  0.00    -0.397 OA 
ENDBRANCH  27  28
ENDBRANCH  26  27
ENDBRANCH  25  26
ENDBRANCH  24  25
ENDBRANCH  23  24
ENDBRANCH  21  23
ENDBRANCH  20  21
ENDBRANCH  19  20
ENDBRANCH  18  19
ENDBRANCH  17  18
ENDBRANCH  15  16
ENDBRANCH   8  15
ENDBRANCH   5   6
ENDBRANCH   4   5
ENDBRANCH   2   4
BRANCH   2  32
HETATM   32  C   UNL     1     -12.107  14.441  68.471  1.00  0.00    -0.278 C  
BRANCH  32  33
HETATM   33  C   UNL     1     -11.842  15.757  69.195  1.00  0.00    -0.367 C  
BRANCH  33  34
HETATM   34  C   UNL     1     -12.409  15.684  70.575  1.00  0.00    -0.443 A  
HETATM   35  C   UNL     1     -12.086  15.830  72.966  1.00  0.00    -0.601 A  
HETATM   36  C   UNL     1     -14.211  15.107  72.062  1.00  0.00    -0.673 A  
HETATM   37  C   UNL     1     -11.588  15.973  71.674  1.00  0.00    -0.538 A  
HETATM   38  C   UNL     1     -13.719  15.248  70.771  1.00  0.00    -0.255 A  
HETATM   39  C   UNL     1     -13.396  15.397  73.159  1.00  0.00    -0.608 A  
ENDBRANCH  33  34
ENDBRANCH  32  33
ENDBRANCH   2  32
TORSDOF 18
ENDMDL
MODEL      265
REMARK 921   NORMALIZED FREE ENERGY PREDICTED BY IDOCK:   -3.78 KCAL/MOL
REMARK 922        TOTAL FREE ENERGY PREDICTED BY IDOCK:  -12.54 KCAL/MOL
REMARK 923 INTER-LIGAND FREE ENERGY PREDICTED BY IDOCK:   -9.92 KCAL/MOL
REMARK 924 INTRA-LIGAND FREE ENERGY PREDICTED BY IDOCK:   -2.62 KCAL/MOL
REMARK 927      BINDING AFFINITY PREDICTED BY RF-SCORE:    0.00 PKD
ROOT
HETATM    1  O   UNL     1      -8.911   6.697  67.433  1.00  0.00    -0.115 OA 
HETATM    2  C   UNL     1      -8.247   7.603  68.311  1.00  0.00    -0.125 C  
HETATM    3  H   UNL     1      -8.662   6.870  66.532  1.00  0.00     0.000 HD 
ENDROOT
BRANCH   2   4
HETATM    4  C   UNL     1      -8.651   7.321  69.771  1.00  0.00    -0.141 C  
BRANCH   4   5
HETATM    5  C   UNL     1      -9.477   8.424  70.442  1.00  0.00    -0.179 C  
BRANCH   5   6
HETATM    6  C   UNL     1     -11.005   8.193  70.498  1.00  0.00    -0.248 C  
HETATM    7  H   UNL     1     -14.298   8.794  72.728  1.00  0.00     0.000 HD 
HETATM    8  C   UNL     1     -11.818   8.816  71.711  1.00  0.00    -0.414 C  
HETATM    9  C   UNL     1     -11.267   6.687  70.627  1.00  0.00    -0.317 C  
HETATM   10  C   UNL     1     -12.705   6.609  71.049  1.00  0.00    -0.084 C  
HETATM   11  O   UNL     1     -11.088   5.996  69.404  1.00  0.00    -0.366 OA 
HETATM   12  O   UNL     1     -14.206   8.106  72.079  1.00  0.00    -0.396 OA 
HETATM   13  H   UNL     1     -11.250   5.064  69.484  1.00  0.00     0.000 HD 
HETATM   14  C   UNL     1     -12.851   7.705  72.083  1.00  0.00    -0.133 C  
BRANCH   8  15
HETATM   15  C   UNL     1     -12.434  10.229  71.453  1.00  0.00    -0.528 C  
BRANCH  15  16
HETATM   16  C   UNL     1     -12.643  10.596  69.995  1.00  0.00    -0.232 C  
HETATM   17  C   UNL     1     -12.284  11.685  69.286  1.00  0.00    -0.228 C  
BRANCH  17  18
HETATM   18  C   UNL     1     -11.555  12.914  69.748  1.00  0.00    -0.288 C  
BRANCH  18  19
HETATM   19  C   UNL     1     -12.313  13.659  70.858  1.00  0.00    -0.450 C  
BRANCH  19  20
HETATM   20  C   UNL     1     -12.881  15.008  70.435  1.00  0.00    -0.332 C  
BRANCH  20  21
HETATM   21  C   UNL     1     -11.843  16.082  70.529  1.00  0.00    -0.292 C  
HETATM   22  O   UNL     1     -11.506  16.679  71.544  1.00  0.00    -0.267 OA 
BRANCH  21  23
HETATM   23  O   UNL     1     -11.437  16.389  69.267  1.00  0.00    -0.275 OA 
BRANCH  23  24
HETATM   24  C   UNL     1     -10.219  17.103  69.307  1.00  0.00    -0.231 C  
BRANCH  24  25
HETATM   25  C   UNL     1      -9.082  16.362  68.638  1.00  0.00    -0.233 C  
BRANCH  25  26
HETATM   26  C   UNL     1      -9.550  15.465  67.494  1.00  0.00    -0.206 C  
BRANCH  26  27
HETATM   27  C   UNL     1      -9.246  15.997  66.086  1.00  0.00    -0.352 C  
BRANCH  27  28
HETATM   28  O   UNL     1      -9.567  17.370  66.034  1.00  0.00    -0.464 OA 
HETATM   29  N   UNL     1      -8.424  18.186  65.864  1.00  0.00     0.026 N  
HETATM   30  O   UNL     1      -8.694  19.389  65.883  1.00  0.00    -0.427 OA 
HETATM   31  O   UNL     1      -7.344  17.625  65.731  1.00  0.00    -0.486 OA 
ENDBRANCH  27  28
ENDBRANCH  26  27
ENDBRANCH  25  26
ENDBRANCH  24  25
ENDBRANCH  23  24
ENDBRANCH  21  23
ENDBRANCH  20  21
ENDBRANCH  19  20
ENDBRANCH  18  19
ENDBRANCH  17  18
ENDBRANCH  15  16
ENDBRANCH   8  15
ENDBRANCH   5   6
ENDBRANCH   4   5
ENDBRANCH   2   4
BRANCH   2  32
HETATM   32  C   UNL     1      -8.652   9.005  67.880  1.00  0.00    -0.125 C  
BRANCH  32  33
HETATM   33  C   UNL     1      -8.361   9.248  66.404  1.00  0.00    -0.120 C  
BRANCH  33  34
HETATM   34  C   UNL     1      -9.343  10.236  65.863  1.00  0.00    -0.226 A  
HETATM   35  C   UNL     1     -10.609  11.099  63.993  1.00  0.00    -0.436 A  
HETATM   36  C   UNL     1     -10.627  12.255  66.118  1.00  0.00    -0.281 A  
HETATM   37  C   UNL     1      -9.757  10.136  64.527  1.00  0.00    -0.361 A  
HETATM   38  C   UNL     1      -9.776  11.297  66.656  1.00  0.00    -0.222 A  
HETATM   39  C   UNL     1     -11.043  12.157  64.788  1.00  0.00    -0.364 A  
ENDBRANCH  33  34
ENDBRANCH  32  33
ENDBRANCH   2  32
TORSDOF 18
ENDMDL
MODEL      266
REMARK 921   NORMALIZED FREE ENERGY PREDICTED BY IDOCK:   -3.77 KCAL/MOL
REMARK 922        TOTAL FREE ENERGY PREDICTED BY IDOCK:  -12.52 KCAL/MOL
REMARK 923 INTER-LIGAND FREE ENERGY PREDICTED BY IDOCK:  -10.46 KCAL/MOL
REMARK 924 INTRA-LIGAND FREE ENERGY PREDICTED BY IDOCK:   -2.05 KCAL/MOL
REMARK 927      BINDING AFFINITY PREDICTED BY RF-SCORE:    0.00 PKD
ROOT
HETATM    1  O   UNL     1     -11.086  14.335  70.713  1.00  0.00    -0.478 OA 
HETATM    2  C   UNL     1     -11.432  15.007  69.503  1.00  0.00    -0.294 C  
HETATM    3  H   UNL     1     -10.874  14.967  71.390  1.00  0.00     0.000 HD 
ENDROOT
BRANCH   2   4
HETATM    4  C   UNL     1     -11.777  13.981  68.406  1.00  0.00    -0.389 C  
BRANCH   4   5
HETATM    5  C   UNL     1     -11.022  14.164  67.085  1.00  0.00    -0.304 C  
BRANCH   5   6
HETATM    6  C   UNL     1     -11.287  13.100  65.994  1.00  0.00    -0.337 C  
HETATM    7  H   UNL     1      -9.510  10.714  63.288  1.00  0.00     0.000 HD 
HETATM    8  C   UNL     1     -10.041  12.408  65.295  1.00  0.00    -0.285 C  
HETATM    9  C   UNL     1     -12.026  13.770  64.828  1.00  0.00    -0.404 C  
HETATM   10  C   UNL     1     -11.894  12.782  63.706  1.00  0.00    -0.572 C  
HETATM   11  O   UNL     1     -13.395  13.995  65.109  1.00  0.00    -0.703 OA 
HETATM   12  O   UNL     1     -10.411  11.011  63.233  1.00  0.00    -0.337 OA 
HETATM   13  H   UNL     1     -13.852  14.410  64.387  1.00  0.00     0.000 HD 
HETATM   14  C   UNL     1     -10.459  12.308  63.794  1.00  0.00    -0.444 C  
BRANCH   8  15
HETATM   15  C   UNL     1      -9.568  11.066  65.939  1.00  0.00    -0.255 C  
BRANCH  15  16
HETATM   16  C   UNL     1      -9.162  11.147  67.400  1.00  0.00    -0.157 C  
HETATM   17  C   UNL     1      -9.444  10.352  68.452  1.00  0.00    -0.151 C  
BRANCH  17  18
HETATM   18  C   UNL     1     -10.288   9.110  68.498  1.00  0.00    -0.236 C  
BRANCH  18  19
HETATM   19  C   UNL     1      -9.966   8.143  67.349  1.00  0.00    -0.271 C  
BRANCH  19  20
HETATM   20  C   UNL     1     -11.031   7.082  67.104  1.00  0.00    -0.393 C  
BRANCH  20  21
HETATM   21  C   UNL     1     -11.023   6.051  68.189  1.00  0.00    -0.246 C  
HETATM   22  O   UNL     1     -11.463   6.188  69.324  1.00  0.00    -0.404 OA 
BRANCH  21  23
HETATM   23  O   UNL     1     -10.311   4.978  67.748  1.00  0.00    -0.136 OA 
BRANCH  23  24
HETATM   24  C   UNL     1      -9.579   4.409  68.813  1.00  0.00    -0.155 C  
BRANCH  24  25
HETATM   25  C   UNL     1      -9.022   3.043  68.478  1.00  0.00    -0.190 C  
BRANCH  25  26
HETATM   26  C   UNL     1      -8.789   2.846  66.982  1.00  0.00    -0.160 C  
BRANCH  26  27
HETATM   27  C   UNL     1      -7.459   3.402  66.454  1.00  0.00    -0.076 C  
BRANCH  27  28
HETATM   28  O   UNL     1      -7.721   4.282  65.383  1.00  0.00    -0.084 OA 
HETATM   29  N   UNL     1      -7.452   5.631  65.716  1.00  0.00    -0.077 N  
HETATM   30  O   UNL     1      -7.742   6.410  64.804  1.00  0.00    -0.091 OA 
HETATM   31  O   UNL     1      -6.990   5.859  66.827  1.00  0.00    -0.065 OA 
ENDBRANCH  27  28
ENDBRANCH  26  27
ENDBRANCH  25  26
ENDBRANCH  24  25
ENDBRANCH  23  24
ENDBRANCH  21  23
ENDBRANCH  20  21
ENDBRANCH  19  20
ENDBRANCH  18  19
ENDBRANCH  17  18
ENDBRANCH  15  16
ENDBRANCH   8  15
ENDBRANCH   5   6
ENDBRANCH   4   5
ENDBRANCH   2   4
BRANCH   2  32
HETATM   32  C   UNL     1     -10.229  15.856  69.116  1.00  0.00    -0.234 C  
BRANCH  32  33
HETATM   33  C   UNL     1     -10.454  17.330  69.433  1.00  0.00    -0.142 C  
BRANCH  33  34
HETATM   34  C   UNL     1      -9.847  18.165  68.353  1.00  0.00    -0.380 A  
HETATM   35  C   UNL     1     -10.130  19.662  66.476  1.00  0.00    -0.568 A  
HETATM   36  C   UNL     1      -7.934  18.823  67.050  1.00  0.00    -0.254 A  
HETATM   37  C   UNL     1     -10.679  18.944  67.534  1.00  0.00    -0.509 A  
HETATM   38  C   UNL     1      -8.476  18.104  68.109  1.00  0.00    -0.282 A  
HETATM   39  C   UNL     1      -8.759  19.601  66.235  1.00  0.00    -0.401 A  
ENDBRANCH  33  34
ENDBRANCH  32  33
ENDBRANCH   2  32
TORSDOF 18
ENDMDL
MODEL      267
REMARK 921   NORMALIZED FREE ENERGY PREDICTED BY IDOCK:   -3.76 KCAL/MOL
REMARK 922        TOTAL FREE ENERGY PREDICTED BY IDOCK:  -12.50 KCAL/MOL
REMARK 923 INTER-LIGAND FREE ENERGY PREDICTED BY IDOCK:   -9.25 KCAL/MOL
REMARK 924 INTRA-LIGAND FREE ENERGY PREDICTED BY IDOCK:   -3.25 KCAL/MOL
REMARK 927      BINDING AFFINITY PREDICTED BY RF-SCORE:    0.00 PKD
ROOT
HETATM    1  O   UNL     1     -12.303  10.504  68.531  1.00  0.00    -0.765 OA 
HETATM    2  C   UNL     1     -11.763  11.822  68.456  1.00  0.00    -0.330 C  
HETATM    3  H   UNL     1     -13.234  10.542  68.718  1.00  0.00     0.000 HD 
ENDROOT
BRANCH   2   4
HETATM    4  C   UNL     1     -10.253  11.760  68.151  1.00  0.00    -0.210 C  
BRANCH   4   5
HETATM    5  C   UNL     1      -9.843  10.726  67.097  1.00  0.00    -0.216 C  
BRANCH   5   6
HETATM    6  C   UNL     1      -9.137   9.456  67.626  1.00  0.00    -0.131 C  
HETATM    7  H   UNL     1      -6.030   8.144  69.816  1.00  0.00     0.000 HD 
HETATM    8  C   UNL     1      -7.905   9.632  68.611  1.00  0.00    -0.081 C  
HETATM    9  C   UNL     1      -8.538   8.700  66.433  1.00  0.00    -0.119 C  
HETATM   10  C   UNL     1      -7.582   7.732  67.067  1.00  0.00    -0.100 C  
HETATM   11  O   UNL     1      -9.513   7.992  65.690  1.00  0.00    -0.422 OA 
HETATM   12  O   UNL     1      -6.464   7.635  69.141  1.00  0.00    -0.038 OA 
HETATM   13  H   UNL     1      -9.142   7.524  64.952  1.00  0.00     0.000 HD 
HETATM   14  C   UNL     1      -6.889   8.542  68.143  1.00  0.00    -0.069 C  
BRANCH   8  15
HETATM   15  C   UNL     1      -8.252   9.600  70.134  1.00  0.00    -0.206 C  
BRANCH  15  16
HETATM   16  C   UNL     1      -9.691   9.254  70.471  1.00  0.00    -0.316 C  
HETATM   17  C   UNL     1     -10.233   8.184  71.087  1.00  0.00    -0.234 C  
BRANCH  17  18
HETATM   18  C   UNL     1      -9.552   6.962  71.632  1.00  0.00    -0.161 C  
BRANCH  18  19
HETATM   19  C   UNL     1      -9.219   5.941  70.533  1.00  0.00    -0.167 C  
BRANCH  19  20
HETATM   20  C   UNL     1     -10.432   5.421  69.771  1.00  0.00    -0.378 C  
BRANCH  20  21
HETATM   21  C   UNL     1     -10.282   5.654  68.300  1.00  0.00    -0.186 C  
HETATM   22  O   UNL     1     -11.068   6.253  67.575  1.00  0.00    -0.348 OA 
BRANCH  21  23
HETATM   23  O   UNL     1      -9.193   4.959  67.871  1.00  0.00    -0.113 OA 
BRANCH  23  24
HETATM   24  C   UNL     1      -9.577   3.672  67.434  1.00  0.00    -0.149 C  
BRANCH  24  25
HETATM   25  C   UNL     1      -8.512   2.627  67.681  1.00  0.00    -0.104 C  
BRANCH  25  26
HETATM   26  C   UNL     1      -7.714   2.881  68.958  1.00  0.00    -0.048 C  
BRANCH  26  27
HETATM   27  C   UNL     1      -8.061   1.959  70.135  1.00  0.00    -0.041 C  
BRANCH  27  28
HETATM   28  O   UNL     1      -9.245   2.422  70.747  1.00  0.00    -0.105 OA 
HETATM   29  N   UNL     1      -9.100   2.593  72.144  1.00  0.00    -0.082 N  
HETATM   30  O   UNL     1     -10.151   2.935  72.691  1.00  0.00    -0.142 OA 
HETATM   31  O   UNL     1      -7.995   2.382  72.628  1.00  0.00    -0.052 OA 
ENDBRANCH  27  28
ENDBRANCH  26  27
ENDBRANCH  25  26
ENDBRANCH  24  25
ENDBRANCH  23  24
ENDBRANCH  21  23
ENDBRANCH  20  21
ENDBRANCH  19  20
ENDBRANCH  18  19
ENDBRANCH  17  18
ENDBRANCH  15  16
ENDBRANCH   8  15
ENDBRANCH   5   6
ENDBRANCH   4   5
ENDBRANCH   2   4
BRANCH   2  32
HETATM   32  C   UNL     1     -12.035  12.483  69.799  1.00  0.00    -0.359 C  
BRANCH  32  33
HETATM   33  C   UNL     1     -11.742  13.978  69.761  1.00  0.00    -0.375 C  
BRANCH  33  34
HETATM   34  C   UNL     1     -12.322  14.626  70.976  1.00  0.00    -0.403 A  
HETATM   35  C   UNL     1     -14.265  15.277  72.258  1.00  0.00    -0.642 A  
HETATM   36  C   UNL     1     -12.055  15.984  72.945  1.00  0.00    -0.626 A  
HETATM   37  C   UNL     1     -13.711  14.607  71.172  1.00  0.00    -0.374 A  
HETATM   38  C   UNL     1     -11.496  15.317  71.862  1.00  0.00    -0.504 A  
HETATM   39  C   UNL     1     -13.438  15.965  73.144  1.00  0.00    -0.650 A  
ENDBRANCH  33  34
ENDBRANCH  32  33
ENDBRANCH   2  32
TORSDOF 18
ENDMDL
MODEL      268
REMARK 921   NORMALIZED FREE ENERGY PREDICTED BY IDOCK:   -3.75 KCAL/MOL
REMARK 922        TOTAL FREE ENERGY PREDICTED BY IDOCK:  -12.49 KCAL/MOL
REMARK 923 INTER-LIGAND FREE ENERGY PREDICTED BY IDOCK:   -9.12 KCAL/MOL
REMARK 924 INTRA-LIGAND FREE ENERGY PREDICTED BY IDOCK:   -3.37 KCAL/MOL
REMARK 927      BINDING AFFINITY PREDICTED BY RF-SCORE:    0.00 PKD
ROOT
HETATM    1  O   UNL     1     -12.045  12.769  63.006  1.00  0.00    -0.659 OA 
HETATM    2  C   UNL     1     -10.680  12.587  63.379  1.00  0.00    -0.276 C  
HETATM    3  H   UNL     1     -12.199  13.672  62.755  1.00  0.00     0.000 HD 
ENDROOT
BRANCH   2   4
HETATM    4  C   UNL     1     -10.430  11.122  63.785  1.00  0.00    -0.444 C  
BRANCH   4   5
HETATM    5  C   UNL     1     -10.554  10.832  65.285  1.00  0.00    -0.230 C  
BRANCH   5   6
HETATM    6  C   UNL     1      -9.238  10.504  66.027  1.00  0.00    -0.205 C  
HETATM    7  H   UNL     1      -6.048  12.136  67.855  1.00  0.00     0.000 HD 
HETATM    8  C   UNL     1      -8.401  11.702  66.646  1.00  0.00    -0.154 C  
HETATM    9  C   UNL     1      -8.262   9.863  65.031  1.00  0.00    -0.143 C  
HETATM   10  C   UNL     1      -6.936   9.938  65.730  1.00  0.00    -0.109 C  
HETATM   11  O   UNL     1      -8.579   8.512  64.750  1.00  0.00    -0.293 OA 
HETATM   12  O   UNL     1      -6.061  11.268  67.469  1.00  0.00    -0.052 OA 
HETATM   13  H   UNL     1      -7.976   8.116  64.133  1.00  0.00     0.000 HD 
HETATM   14  C   UNL     1      -6.917  11.322  66.345  1.00  0.00    -0.052 C  
BRANCH   8  15
HETATM   15  C   UNL     1      -8.706  12.033  68.143  1.00  0.00    -0.177 C  
BRANCH  15  16
HETATM   16  C   UNL     1      -8.866  10.833  69.059  1.00  0.00    -0.135 C  
HETATM   17  C   UNL     1      -9.949  10.108  69.404  1.00  0.00    -0.247 C  
BRANCH  17  18
HETATM   18  C   UNL     1     -11.379  10.287  68.980  1.00  0.00    -0.237 C  
BRANCH  18  19
HETATM   19  C   UNL     1     -12.293  10.665  70.156  1.00  0.00    -0.370 C  
BRANCH  19  20
HETATM   20  C   UNL     1     -11.919  10.008  71.479  1.00  0.00    -0.438 C  
BRANCH  20  21
HETATM   21  C   UNL     1     -12.713   8.758  71.702  1.00  0.00    -0.348 C  
HETATM   22  O   UNL     1     -13.764   8.457  71.149  1.00  0.00    -0.167 OA 
BRANCH  21  23
HETATM   23  O   UNL     1     -12.146   8.076  72.734  1.00  0.00    -0.297 OA 
BRANCH  23  24
HETATM   24  C   UNL     1     -11.996   6.714  72.393  1.00  0.00    -0.146 C  
BRANCH  24  25
HETATM   25  C   UNL     1     -11.385   5.894  73.508  1.00  0.00     0.204 C  
BRANCH  25  26
HETATM   26  C   UNL     1     -10.151   6.552  74.122  1.00  0.00    -0.374 C  
BRANCH  26  27
HETATM   27  C   UNL     1      -8.904   6.556  73.227  1.00  0.00    -0.124 C  
BRANCH  27  28
HETATM   28  O   UNL     1      -7.840   7.166  73.924  1.00  0.00    -0.103 OA 
HETATM   29  N   UNL     1      -7.443   8.391  73.338  1.00  0.00    -0.104 N  
HETATM   30  O   UNL     1      -6.471   8.894  73.907  1.00  0.00    -0.299 OA 
HETATM   31  O   UNL     1      -8.079   8.788  72.371  1.00  0.00    -0.368 OA 
ENDBRANCH  27  28
ENDBRANCH  26  27
ENDBRANCH  25  26
ENDBRANCH  24  25
ENDBRANCH  23  24
ENDBRANCH  21  23
ENDBRANCH  20  21
ENDBRANCH  19  20
ENDBRANCH  18  19
ENDBRANCH  17  18
ENDBRANCH  15  16
ENDBRANCH   8  15
ENDBRANCH   5   6
ENDBRANCH   4   5
ENDBRANCH   2   4
BRANCH   2  32
HETATM   32  C   UNL     1     -10.413  13.540  64.536  1.00  0.00    -0.426 C  
BRANCH  32  33
HETATM   33  C   UNL     1     -11.707  14.093  65.122  1.00  0.00    -0.361 C  
BRANCH  33  34
HETATM   34  C   UNL     1     -11.481  14.471  66.549  1.00  0.00    -0.366 A  
HETATM   35  C   UNL     1     -11.919  14.088  68.896  1.00  0.00    -0.387 A  
HETATM   36  C   UNL     1     -10.642  16.019  68.189  1.00  0.00    -0.286 A  
HETATM   37  C   UNL     1     -12.057  13.697  67.567  1.00  0.00    -0.352 A  
HETATM   38  C   UNL     1     -10.777  15.633  66.861  1.00  0.00    -0.307 A  
HETATM   39  C   UNL     1     -11.212  15.248  69.206  1.00  0.00    -0.291 A  
ENDBRANCH  33  34
ENDBRANCH  32  33
ENDBRANCH   2  32
TORSDOF 18
ENDMDL
MODEL      269
REMARK 921   NORMALIZED FREE ENERGY PREDICTED BY IDOCK:   -3.75 KCAL/MOL
REMARK 922        TOTAL FREE ENERGY PREDICTED BY IDOCK:  -12.48 KCAL/MOL
REMARK 923 INTER-LIGAND FREE ENERGY PREDICTED BY IDOCK:   -8.42 KCAL/MOL
REMARK 924 INTRA-LIGAND FREE ENERGY PREDICTED BY IDOCK:   -4.06 KCAL/MOL
REMARK 927      BINDING AFFINITY PREDICTED BY RF-SCORE:    0.00 PKD
ROOT
HETATM    1  O   UNL     1      -8.950   6.427  64.974  1.00  0.00    -0.361 OA 
HETATM    2  C   UNL     1      -8.802   6.730  66.360  1.00  0.00    -0.144 C  
HETATM    3  H   UNL     1      -9.348   7.160  64.519  1.00  0.00     0.000 HD 
ENDROOT
BRANCH   2   4
HETATM    4  C   UNL     1      -8.158   5.541  67.099  1.00  0.00    -0.101 C  
BRANCH   4   5
HETATM    5  C   UNL     1      -9.050   4.865  68.145  1.00  0.00    -0.134 C  
BRANCH   5   6
HETATM    6  C   UNL     1      -8.319   4.117  69.285  1.00  0.00    -0.083 C  
HETATM    7  H   UNL     1      -5.818   4.595  72.398  1.00  0.00     0.000 HD 
HETATM    8  C   UNL     1      -7.485   4.969  70.332  1.00  0.00    -0.062 C  
HETATM    9  C   UNL     1      -7.271   3.186  68.663  1.00  0.00    -0.049 C  
HETATM   10  C   UNL     1      -6.390   2.815  69.821  1.00  0.00    -0.028 C  
HETATM   11  O   UNL     1      -7.842   2.018  68.104  1.00  0.00    -0.057 OA 
HETATM   12  O   UNL     1      -5.937   3.780  71.924  1.00  0.00    -0.012 OA 
HETATM   13  H   UNL     1      -7.193   1.441  67.719  1.00  0.00     0.000 HD 
HETATM   14  C   UNL     1      -6.201   4.114  70.576  1.00  0.00    -0.019 C  
BRANCH   8  15
HETATM   15  C   UNL     1      -8.255   5.386  71.626  1.00  0.00    -0.118 C  
BRANCH  15  16
HETATM   16  C   UNL     1      -9.667   4.844  71.751  1.00  0.00    -0.223 C  
HETATM   17  C   UNL     1     -10.804   5.406  72.207  1.00  0.00    -0.286 C  
BRANCH  17  18
HETATM   18  C   UNL     1     -11.019   6.785  72.764  1.00  0.00    -0.303 C  
BRANCH  18  19
HETATM   19  C   UNL     1     -12.014   7.603  71.927  1.00  0.00    -0.331 C  
BRANCH  19  20
HETATM   20  C   UNL     1     -12.201   9.039  72.400  1.00  0.00    -0.322 C  
BRANCH  20  21
HETATM   21  C   UNL     1     -12.787   9.890  71.317  1.00  0.00    -0.390 C  
HETATM   22  O   UNL     1     -13.853   9.703  70.743  1.00  0.00    -0.105 OA 
BRANCH  21  23
HETATM   23  O   UNL     1     -11.866  10.832  70.975  1.00  0.00    -0.323 OA 
BRANCH  23  24
HETATM   24  C   UNL     1     -12.020  11.192  69.618  1.00  0.00    -0.359 C  
BRANCH  24  25
HETATM   25  C   UNL     1     -11.721  12.653  69.361  1.00  0.00    -0.387 C  
BRANCH  25  26
HETATM   26  C   UNL     1     -10.875  12.876  68.109  1.00  0.00    -0.257 C  
BRANCH  26  27
HETATM   27  C   UNL     1     -11.608  13.551  66.942  1.00  0.00    -0.363 C  
BRANCH  27  28
HETATM   28  O   UNL     1     -12.474  12.614  66.339  1.00  0.00    -0.448 OA 
HETATM   29  N   UNL     1     -12.721  12.906  64.976  1.00  0.00    -0.483 N  
HETATM   30  O   UNL     1     -13.528  12.126  64.465  1.00  0.00    -0.614 OA 
HETATM   31  O   UNL     1     -12.134  13.863  64.488  1.00  0.00    -0.409 OA 
ENDBRANCH  27  28
ENDBRANCH  26  27
ENDBRANCH  25  26
ENDBRANCH  24  25
ENDBRANCH  23  24
ENDBRANCH  21  23
ENDBRANCH  20  21
ENDBRANCH  19  20
ENDBRANCH  18  19
ENDBRANCH  17  18
ENDBRANCH  15  16
ENDBRANCH   8  15
ENDBRANCH   5   6
ENDBRANCH   4   5
ENDBRANCH   2   4
BRANCH   2  32
HETATM   32  C   UNL     1     -10.196   7.030  66.893  1.00  0.00    -0.318 C  
BRANCH  32  33
HETATM   33  C   UNL     1     -10.417   8.526  67.085  1.00  0.00    -0.370 C  
BRANCH  33  34
HETATM   34  C   UNL     1      -9.574   9.009  68.220  1.00  0.00    -0.158 A  
HETATM   35  C   UNL     1      -7.768  10.401  69.024  1.00  0.00    -0.116 A  
HETATM   36  C   UNL     1      -8.841   8.814  70.504  1.00  0.00    -0.200 A  
HETATM   37  C   UNL     1      -8.612  10.003  67.991  1.00  0.00    -0.121 A  
HETATM   38  C   UNL     1      -9.686   8.414  69.476  1.00  0.00    -0.177 A  
HETATM   39  C   UNL     1      -7.883   9.806  70.279  1.00  0.00    -0.190 A  
ENDBRANCH  33  34
ENDBRANCH  32  33
ENDBRANCH   2  32
TORSDOF 18
ENDMDL
MODEL      270
REMARK 921   NORMALIZED FREE ENERGY PREDICTED BY IDOCK:   -3.75 KCAL/MOL
REMARK 922        TOTAL FREE ENERGY PREDICTED BY IDOCK:  -12.48 KCAL/MOL
REMARK 923 INTER-LIGAND FREE ENERGY PREDICTED BY IDOCK:  -10.08 KCAL/MOL
REMARK 924 INTRA-LIGAND FREE ENERGY PREDICTED BY IDOCK:   -2.40 KCAL/MOL
REMARK 927      BINDING AFFINITY PREDICTED BY RF-SCORE:    0.00 PKD
ROOT
HETATM    1  O   UNL     1      -7.751   4.680  67.251  1.00  0.00    -0.088 OA 
HETATM    2  C   UNL     1      -8.943   5.428  67.479  1.00  0.00    -0.108 C  
HETATM    3  H   UNL     1      -7.804   3.837  67.687  1.00  0.00     0.000 HD 
ENDROOT
BRANCH   2   4
HETATM    4  C   UNL     1      -8.857   6.794  66.771  1.00  0.00    -0.127 C  
BRANCH   4   5
HETATM    5  C   UNL     1      -7.982   7.838  67.474  1.00  0.00    -0.123 C  
BRANCH   5   6
HETATM    6  C   UNL     1      -8.533   9.282  67.505  1.00  0.00    -0.115 C  
HETATM    7  H   UNL     1      -8.011  12.987  66.030  1.00  0.00     0.000 HD 
HETATM    8  C   UNL     1      -7.888  10.357  66.531  1.00  0.00    -0.124 C  
HETATM    9  C   UNL     1      -8.287   9.868  68.901  1.00  0.00    -0.124 C  
HETATM   10  C   UNL     1      -8.498  11.342  68.712  1.00  0.00    -0.089 C  
HETATM   11  O   UNL     1      -9.195   9.375  69.868  1.00  0.00    -0.175 OA 
HETATM   12  O   UNL     1      -8.443  12.792  66.854  1.00  0.00    -0.181 OA 
HETATM   13  H   UNL     1      -9.042   9.738  70.732  1.00  0.00     0.000 HD 
HETATM   14  C   UNL     1      -7.809  11.653  67.400  1.00  0.00    -0.147 C  
BRANCH   8  15
HETATM   15  C   UNL     1      -8.602  10.530  65.152  1.00  0.00    -0.187 C  
BRANCH  15  16
HETATM   16  C   UNL     1     -10.118  10.460  65.186  1.00  0.00    -0.379 C  
HETATM   17  C   UNL     1     -11.063  11.238  64.622  1.00  0.00    -0.223 C  
BRANCH  17  18
HETATM   18  C   UNL     1     -10.892  12.464  63.771  1.00  0.00    -0.500 C  
BRANCH  18  19
HETATM   19  C   UNL     1     -11.477  13.721  64.434  1.00  0.00    -0.392 C  
BRANCH  19  20
HETATM   20  C   UNL     1     -10.434  14.684  64.986  1.00  0.00    -0.447 C  
BRANCH  20  21
HETATM   21  C   UNL     1     -10.885  16.104  64.846  1.00  0.00    -0.334 C  
HETATM   22  O   UNL     1     -11.736  16.523  64.070  1.00  0.00    -1.111 OA 
BRANCH  21  23
HETATM   23  O   UNL     1     -10.086  16.880  65.628  1.00  0.00    -0.546 OA 
BRANCH  23  24
HETATM   24  C   UNL     1      -9.195  16.071  66.367  1.00  0.00    -0.305 C  
BRANCH  24  25
HETATM   25  C   UNL     1      -8.502  16.827  67.479  1.00  0.00    -0.203 C  
BRANCH  25  26
HETATM   26  C   UNL     1      -9.433  17.785  68.217  1.00  0.00    -0.290 C  
BRANCH  26  27
HETATM   27  C   UNL     1      -8.903  19.218  68.371  1.00  0.00    -0.352 C  
BRANCH  27  28
HETATM   28  O   UNL     1      -8.227  19.587  67.189  1.00  0.00    -0.264 OA 
HETATM   29  N   UNL     1      -7.001  20.243  67.451  1.00  0.00    -0.253 N  
HETATM   30  O   UNL     1      -6.440  20.624  66.420  1.00  0.00    -0.228 OA 
HETATM   31  O   UNL     1      -6.660  20.359  68.621  1.00  0.00    -0.300 OA 
ENDBRANCH  27  28
ENDBRANCH  26  27
ENDBRANCH  25  26
ENDBRANCH  24  25
ENDBRANCH  23  24
ENDBRANCH  21  23
ENDBRANCH  20  21
ENDBRANCH  19  20
ENDBRANCH  18  19
ENDBRANCH  17  18
ENDBRANCH  15  16
ENDBRANCH   8  15
ENDBRANCH   5   6
ENDBRANCH   4   5
ENDBRANCH   2   4
BRANCH   2  32
HETATM   32  C   UNL     1      -9.077   5.588  68.987  1.00  0.00    -0.131 C  
BRANCH  32  33
HETATM   33  C   UNL     1     -10.521   5.426  69.446  1.00  0.00    -0.331 C  
BRANCH  33  34
HETATM   34  C   UNL     1     -10.742   6.236  70.681  1.00  0.00    -0.321 A  
HETATM   35  C   UNL     1     -12.032   7.894  71.877  1.00  0.00    -0.347 A  
HETATM   36  C   UNL     1      -9.970   7.042  72.813  1.00  0.00    -0.204 A  
HETATM   37  C   UNL     1     -11.862   7.076  70.764  1.00  0.00    -0.401 A  
HETATM   38  C   UNL     1      -9.795   6.222  71.704  1.00  0.00    -0.184 A  
HETATM   39  C   UNL     1     -11.086   7.877  72.900  1.00  0.00    -0.442 A  
ENDBRANCH  33  34
ENDBRANCH  32  33
ENDBRANCH   2  32
TORSDOF 18
ENDMDL
MODEL      271
REMARK 921   NORMALIZED FREE ENERGY PREDICTED BY IDOCK:   -3.75 KCAL/MOL
REMARK 922        TOTAL FREE ENERGY PREDICTED BY IDOCK:  -12.48 KCAL/MOL
REMARK 923 INTER-LIGAND FREE ENERGY PREDICTED BY IDOCK:   -9.38 KCAL/MOL
REMARK 924 INTRA-LIGAND FREE ENERGY PREDICTED BY IDOCK:   -3.09 KCAL/MOL
REMARK 927      BINDING AFFINITY PREDICTED BY RF-SCORE:    0.00 PKD
ROOT
HETATM    1  O   UNL     1      -6.959   8.634  69.022  1.00  0.00    -0.062 OA 
HETATM    2  C   UNL     1      -6.965   7.430  68.259  1.00  0.00    -0.079 C  
HETATM    3  H   UNL     1      -6.114   8.753  69.441  1.00  0.00     0.000 HD 
ENDROOT
BRANCH   2   4
HETATM    4  C   UNL     1      -8.335   7.237  67.579  1.00  0.00    -0.116 C  
BRANCH   4   5
HETATM    5  C   UNL     1      -9.305   8.414  67.727  1.00  0.00    -0.150 C  
BRANCH   5   6
HETATM    6  C   UNL     1     -10.501   8.197  68.684  1.00  0.00    -0.195 C  
HETATM    7  H   UNL     1     -11.652   8.379  72.533  1.00  0.00     0.000 HD 
HETATM    8  C   UNL     1     -10.320   8.573  70.215  1.00  0.00    -0.218 C  
HETATM    9  C   UNL     1     -10.831   6.699  68.719  1.00  0.00    -0.267 C  
HETATM   10  C   UNL     1     -11.715   6.556  69.924  1.00  0.00    -0.349 C  
HETATM   11  O   UNL     1     -11.525   6.267  67.563  1.00  0.00    -0.626 OA 
HETATM   12  O   UNL     1     -12.066   7.835  71.874  1.00  0.00    -0.284 OA 
HETATM   13  H   UNL     1     -11.729   5.340  67.585  1.00  0.00     0.000 HD 
HETATM   14  C   UNL     1     -11.055   7.423  70.975  1.00  0.00    -0.258 C  
BRANCH   8  15
HETATM   15  C   UNL     1     -10.769  10.017  70.611  1.00  0.00    -0.325 C  
BRANCH  15  16
HETATM   16  C   UNL     1     -11.828  10.640  69.720  1.00  0.00    -0.377 C  
HETATM   17  C   UNL     1     -11.731  11.401  68.612  1.00  0.00    -0.394 C  
BRANCH  17  18
HETATM   18  C   UNL     1     -10.498  11.889  67.906  1.00  0.00    -0.225 C  
BRANCH  18  19
HETATM   19  C   UNL     1     -10.732  13.221  67.177  1.00  0.00    -0.264 C  
BRANCH  19  20
HETATM   20  C   UNL     1     -11.910  14.028  67.705  1.00  0.00    -0.419 C  
BRANCH  20  21
HETATM   21  C   UNL     1     -11.481  15.402  68.115  1.00  0.00    -0.343 C  
HETATM   22  O   UNL     1     -11.719  15.949  69.185  1.00  0.00    -0.376 OA 
BRANCH  21  23
HETATM   23  O   UNL     1     -10.902  16.002  67.040  1.00  0.00    -0.309 OA 
BRANCH  23  24
HETATM   24  C   UNL     1     -10.104  17.089  67.460  1.00  0.00    -0.294 C  
BRANCH  24  25
HETATM   25  C   UNL     1     -10.770  18.429  67.230  1.00  0.00    -0.389 C  
BRANCH  25  26
HETATM   26  C   UNL     1      -9.936  19.366  66.360  1.00  0.00    -0.498 C  
BRANCH  26  27
HETATM   27  C   UNL     1      -8.423  19.313  66.614  1.00  0.00    -0.316 C  
BRANCH  27  28
HETATM   28  O   UNL     1      -8.137  19.979  67.824  1.00  0.00    -0.293 OA 
HETATM   29  N   UNL     1      -7.197  19.278  68.617  1.00  0.00    -0.317 N  
HETATM   30  O   UNL     1      -6.994  19.825  69.704  1.00  0.00    -0.337 OA 
HETATM   31  O   UNL     1      -6.721  18.250  68.153  1.00  0.00    -0.203 OA 
ENDBRANCH  27  28
ENDBRANCH  26  27
ENDBRANCH  25  26
ENDBRANCH  24  25
ENDBRANCH  23  24
ENDBRANCH  21  23
ENDBRANCH  20  21
ENDBRANCH  19  20
ENDBRANCH  18  19
ENDBRANCH  17  18
ENDBRANCH  15  16
ENDBRANCH   8  15
ENDBRANCH   5   6
ENDBRANCH   4   5
ENDBRANCH   2   4
BRANCH   2  32
HETATM   32  C   UNL     1      -6.658   6.297  69.227  1.00  0.00    -0.044 C  
BRANCH  32  33
HETATM   33  C   UNL     1      -7.301   6.529  70.590  1.00  0.00    -0.079 C  
BRANCH  33  34
HETATM   34  C   UNL     1      -8.119   5.336  70.961  1.00  0.00    -0.112 A  
HETATM   35  C   UNL     1      -9.289   3.328  70.294  1.00  0.00    -0.242 A  
HETATM   36  C   UNL     1      -9.437   4.129  72.573  1.00  0.00    -0.175 A  
HETATM   37  C   UNL     1      -8.460   4.400  69.974  1.00  0.00    -0.087 A  
HETATM   38  C   UNL     1      -8.610   5.201  72.258  1.00  0.00    -0.125 A  
HETATM   39  C   UNL     1      -9.776   3.193  71.592  1.00  0.00    -0.235 A  
ENDBRANCH  33  34
ENDBRANCH  32  33
ENDBRANCH   2  32
TORSDOF 18
ENDMDL
MODEL      272
REMARK 921   NORMALIZED FREE ENERGY PREDICTED BY IDOCK:   -3.75 KCAL/MOL
REMARK 922        TOTAL FREE ENERGY PREDICTED BY IDOCK:  -12.47 KCAL/MOL
REMARK 923 INTER-LIGAND FREE ENERGY PREDICTED BY IDOCK:   -9.52 KCAL/MOL
REMARK 924 INTRA-LIGAND FREE ENERGY PREDICTED BY IDOCK:   -2.95 KCAL/MOL
REMARK 927      BINDING AFFINITY PREDICTED BY RF-SCORE:    0.00 PKD
ROOT
HETATM    1  O   UNL     1      -5.562   8.018  70.219  1.00  0.00    -0.023 OA 
HETATM    2  C   UNL     1      -6.269   9.003  69.468  1.00  0.00    -0.040 C  
HETATM    3  H   UNL     1      -4.650   7.993  69.951  1.00  0.00     0.000 HD 
ENDROOT
BRANCH   2   4
HETATM    4  C   UNL     1      -7.747   9.043  69.902  1.00  0.00    -0.076 C  
BRANCH   4   5
HETATM    5  C   UNL     1      -8.528   7.744  69.672  1.00  0.00    -0.133 C  
BRANCH   5   6
HETATM    6  C   UNL     1      -9.899   7.638  70.378  1.00  0.00    -0.183 C  
HETATM    7  H   UNL     1     -12.785   9.766  72.201  1.00  0.00     0.000 HD 
HETATM    8  C   UNL     1     -10.625   8.978  70.822  1.00  0.00    -0.300 C  
HETATM    9  C   UNL     1      -9.710   6.878  71.698  1.00  0.00    -0.161 C  
HETATM   10  C   UNL     1     -10.974   7.160  72.457  1.00  0.00    -0.309 C  
HETATM   11  O   UNL     1      -9.567   5.483  71.508  1.00  0.00    -0.146 OA 
HETATM   12  O   UNL     1     -12.623   8.841  72.350  1.00  0.00    -0.385 OA 
HETATM   13  H   UNL     1      -9.450   5.013  72.325  1.00  0.00     0.000 HD 
HETATM   14  C   UNL     1     -11.231   8.633  72.220  1.00  0.00    -0.328 C  
BRANCH   8  15
HETATM   15  C   UNL     1     -11.641   9.566  69.791  1.00  0.00     0.035 C  
BRANCH  15  16
HETATM   16  C   UNL     1     -11.550  11.064  69.562  1.00  0.00    -0.384 C  
HETATM   17  C   UNL     1     -12.099  12.105  70.220  1.00  0.00    -0.385 C  
BRANCH  17  18
HETATM   18  C   UNL     1     -13.013  12.092  71.412  1.00  0.00    -0.357 C  
BRANCH  18  19
HETATM   19  C   UNL     1     -13.426  13.508  71.845  1.00  0.00    -0.528 C  
BRANCH  19  20
HETATM   20  C   UNL     1     -12.569  14.098  72.958  1.00  0.00    -0.222 C  
BRANCH  20  21
HETATM   21  C   UNL     1     -11.976  15.408  72.542  1.00  0.00    -0.447 C  
HETATM   22  O   UNL     1     -12.188  16.498  73.059  1.00  0.00    -0.478 OA 
BRANCH  21  23
HETATM   23  O   UNL     1     -11.269  15.207  71.397  1.00  0.00    -0.339 OA 
BRANCH  23  24
HETATM   24  C   UNL     1     -11.578  16.210  70.452  1.00  0.00    -0.277 C  
BRANCH  24  25
HETATM   25  C   UNL     1     -11.152  15.844  69.047  1.00  0.00    -0.294 C  
BRANCH  25  26
HETATM   26  C   UNL     1     -10.177  16.850  68.440  1.00  0.00    -0.322 C  
BRANCH  26  27
HETATM   27  C   UNL     1      -9.711  16.524  67.014  1.00  0.00    -0.250 C  
BRANCH  27  28
HETATM   28  O   UNL     1     -10.678  16.987  66.097  1.00  0.00    -0.234 OA 
HETATM   29  N   UNL     1     -10.731  16.198  64.923  1.00  0.00    -0.368 N  
HETATM   30  O   UNL     1     -11.529  16.639  64.093  1.00  0.00    -1.131 OA 
HETATM   31  O   UNL     1     -10.002  15.216  64.868  1.00  0.00    -0.251 OA 
ENDBRANCH  27  28
ENDBRANCH  26  27
ENDBRANCH  25  26
ENDBRANCH  24  25
ENDBRANCH  23  24
ENDBRANCH  21  23
ENDBRANCH  20  21
ENDBRANCH  19  20
ENDBRANCH  18  19
ENDBRANCH  17  18
ENDBRANCH  15  16
ENDBRANCH   8  15
ENDBRANCH   5   6
ENDBRANCH   4   5
ENDBRANCH   2   4
BRANCH   2  32
HETATM   32  C   UNL     1      -6.128   8.619  68.002  1.00  0.00    -0.051 C  
BRANCH  32  33
HETATM   33  C   UNL     1      -6.378   9.808  67.081  1.00  0.00    -0.068 C  
BRANCH  33  34
HETATM   34  C   UNL     1      -7.840   9.912  66.793  1.00  0.00    -0.109 A  
HETATM   35  C   UNL     1      -9.880   8.886  66.001  1.00  0.00    -0.277 A  
HETATM   36  C   UNL     1      -9.826  11.245  66.536  1.00  0.00    -0.239 A  
HETATM   37  C   UNL     1      -8.537   8.779  66.348  1.00  0.00    -0.138 A  
HETATM   38  C   UNL     1      -8.485  11.144  66.884  1.00  0.00    -0.147 A  
HETATM   39  C   UNL     1     -10.524  10.118  66.095  1.00  0.00    -0.173 A  
ENDBRANCH  33  34
ENDBRANCH  32  33
ENDBRANCH   2  32
TORSDOF 18
ENDMDL
MODEL      273
REMARK 921   NORMALIZED FREE ENERGY PREDICTED BY IDOCK:   -3.72 KCAL/MOL
REMARK 922        TOTAL FREE ENERGY PREDICTED BY IDOCK:  -12.42 KCAL/MOL
REMARK 923 INTER-LIGAND FREE ENERGY PREDICTED BY IDOCK:   -9.87 KCAL/MOL
REMARK 924 INTRA-LIGAND FREE ENERGY PREDICTED BY IDOCK:   -2.56 KCAL/MOL
REMARK 927      BINDING AFFINITY PREDICTED BY RF-SCORE:    0.00 PKD
ROOT
HETATM    1  O   UNL     1      -7.629   8.526  67.511  1.00  0.00    -0.095 OA 
HETATM    2  C   UNL     1      -8.790   8.824  66.739  1.00  0.00    -0.129 C  
HETATM    3  H   UNL     1      -7.702   8.912  68.376  1.00  0.00     0.000 HD 
ENDROOT
BRANCH   2   4
HETATM    4  C   UNL     1      -8.671   8.197  65.336  1.00  0.00    -0.128 C  
BRANCH   4   5
HETATM    5  C   UNL     1      -8.032   6.804  65.298  1.00  0.00    -0.127 C  
BRANCH   5   6
HETATM    6  C   UNL     1      -8.905   5.639  65.820  1.00  0.00    -0.156 C  
HETATM    7  H   UNL     1      -9.277   2.934  68.773  1.00  0.00     0.000 HD 
HETATM    8  C   UNL     1      -8.539   4.992  67.223  1.00  0.00    -0.104 C  
HETATM    9  C   UNL     1      -8.784   4.464  64.841  1.00  0.00    -0.135 C  
HETATM   10  C   UNL     1      -9.335   3.299  65.611  1.00  0.00    -0.128 C  
HETATM   11  O   UNL     1      -9.541   4.658  63.661  1.00  0.00    -0.342 OA 
HETATM   12  O   UNL     1      -9.642   2.832  67.901  1.00  0.00    -0.194 OA 
HETATM   13  H   UNL     1      -9.467   3.930  63.055  1.00  0.00     0.000 HD 
HETATM   14  C   UNL     1      -8.754   3.461  66.999  1.00  0.00    -0.122 C  
BRANCH   8  15
HETATM   15  C   UNL     1      -9.290   5.590  68.455  1.00  0.00    -0.143 C  
BRANCH  15  16
HETATM   16  C   UNL     1      -8.456   5.758  69.712  1.00  0.00    -0.123 C  
HETATM   17  C   UNL     1      -8.577   5.225  70.945  1.00  0.00    -0.133 C  
BRANCH  17  18
HETATM   18  C   UNL     1      -9.623   4.281  71.466  1.00  0.00    -0.234 C  
BRANCH  18  19
HETATM   19  C   UNL     1     -10.574   4.957  72.465  1.00  0.00    -0.271 C  
BRANCH  19  20
HETATM   20  C   UNL     1     -11.129   6.296  71.996  1.00  0.00    -0.313 C  
BRANCH  20  21
HETATM   21  C   UNL     1     -10.785   7.389  72.959  1.00  0.00    -0.364 C  
HETATM   22  O   UNL     1     -10.154   7.266  74.002  1.00  0.00    -0.307 OA 
BRANCH  21  23
HETATM   23  O   UNL     1     -11.417   8.524  72.554  1.00  0.00    -0.371 OA 
BRANCH  23  24
HETATM   24  C   UNL     1     -10.677   9.154  71.529  1.00  0.00    -0.367 C  
BRANCH  24  25
HETATM   25  C   UNL     1     -11.544   9.616  70.378  1.00  0.00    -0.299 C  
BRANCH  25  26
HETATM   26  C   UNL     1     -12.796  10.360  70.838  1.00  0.00    -0.482 C  
BRANCH  26  27
HETATM   27  C   UNL     1     -12.573  11.830  71.221  1.00  0.00    -0.296 C  
BRANCH  27  28
HETATM   28  O   UNL     1     -12.068  12.525  70.102  1.00  0.00    -0.340 OA 
HETATM   29  N   UNL     1     -12.403  13.900  70.124  1.00  0.00    -0.342 N  
HETATM   30  O   UNL     1     -12.019  14.496  69.115  1.00  0.00    -0.313 OA 
HETATM   31  O   UNL     1     -13.018  14.317  71.097  1.00  0.00    -0.327 OA 
ENDBRANCH  27  28
ENDBRANCH  26  27
ENDBRANCH  25  26
ENDBRANCH  24  25
ENDBRANCH  23  24
ENDBRANCH  21  23
ENDBRANCH  20  21
ENDBRANCH  19  20
ENDBRANCH  18  19
ENDBRANCH  17  18
ENDBRANCH  15  16
ENDBRANCH   8  15
ENDBRANCH   5   6
ENDBRANCH   4   5
ENDBRANCH   2   4
BRANCH   2  32
HETATM   32  C   UNL     1      -8.890  10.340  66.666  1.00  0.00    -0.148 C  
BRANCH  32  33
HETATM   33  C   UNL     1     -10.274  10.835  67.070  1.00  0.00    -0.261 C  
BRANCH  33  34
HETATM   34  C   UNL     1     -10.924  11.495  65.898  1.00  0.00    -0.301 A  
HETATM   35  C   UNL     1     -11.103  11.773  63.503  1.00  0.00    -0.503 A  
HETATM   36  C   UNL     1     -12.355  13.207  64.997  1.00  0.00    -0.511 A  
HETATM   37  C   UNL     1     -10.562  11.108  64.599  1.00  0.00    -0.386 A  
HETATM   38  C   UNL     1     -11.818  12.546  66.095  1.00  0.00    -0.459 A  
HETATM   39  C   UNL     1     -11.999  12.822  63.703  1.00  0.00    -0.616 A  
ENDBRANCH  33  34
ENDBRANCH  32  33
ENDBRANCH   2  32
TORSDOF 18
ENDMDL
MODEL      274
REMARK 921   NORMALIZED FREE ENERGY PREDICTED BY IDOCK:   -3.71 KCAL/MOL
REMARK 922        TOTAL FREE ENERGY PREDICTED BY IDOCK:  -12.39 KCAL/MOL
REMARK 923 INTER-LIGAND FREE ENERGY PREDICTED BY IDOCK:   -9.47 KCAL/MOL
REMARK 924 INTRA-LIGAND FREE ENERGY PREDICTED BY IDOCK:   -2.92 KCAL/MOL
REMARK 927      BINDING AFFINITY PREDICTED BY RF-SCORE:    0.00 PKD
ROOT
HETATM    1  O   UNL     1      -5.769   9.683  67.002  1.00  0.00    -0.049 OA 
HETATM    2  C   UNL     1      -7.079  10.193  66.764  1.00  0.00    -0.092 C  
HETATM    3  H   UNL     1      -5.531   9.062  66.323  1.00  0.00     0.000 HD 
ENDROOT
BRANCH   2   4
HETATM    4  C   UNL     1      -7.465  11.201  67.865  1.00  0.00    -0.094 C  
BRANCH   4   5
HETATM    5  C   UNL     1      -8.942  11.184  68.274  1.00  0.00    -0.166 C  
BRANCH   5   6
HETATM    6  C   UNL     1      -9.746  12.471  67.979  1.00  0.00    -0.215 C  
HETATM    7  H   UNL     1      -9.949  16.416  68.738  1.00  0.00     0.000 HD 
HETATM    8  C   UNL     1      -9.202  13.848  68.552  1.00  0.00    -0.154 C  
HETATM    9  C   UNL     1     -11.133  12.338  68.622  1.00  0.00    -0.249 C  
HETATM   10  C   UNL     1     -11.669  13.740  68.610  1.00  0.00    -0.391 C  
HETATM   11  O   UNL     1     -11.995  11.489  67.887  1.00  0.00    -0.618 OA 
HETATM   12  O   UNL     1     -10.689  15.880  68.476  1.00  0.00    -0.249 OA 
HETATM   13  H   UNL     1     -12.853  11.407  68.285  1.00  0.00     0.000 HD 
HETATM   14  C   UNL     1     -10.490  14.594  69.027  1.00  0.00    -0.246 C  
BRANCH   8  15
HETATM   15  C   UNL     1      -8.287  14.665  67.584  1.00  0.00    -0.186 C  
BRANCH  15  16
HETATM   16  C   UNL     1      -6.817  14.288  67.597  1.00  0.00    -0.201 C  
HETATM   17  C   UNL     1      -5.812  14.632  68.428  1.00  0.00    -0.105 C  
BRANCH  17  18
HETATM   18  C   UNL     1      -5.846  15.538  69.625  1.00  0.00    -0.128 C  
BRANCH  18  19
HETATM   19  C   UNL     1      -5.703  17.019  69.241  1.00  0.00    -0.179 C  
BRANCH  19  20
HETATM   20  C   UNL     1      -7.026  17.759  69.089  1.00  0.00    -0.209 C  
BRANCH  20  21
HETATM   21  C   UNL     1      -6.816  19.124  68.511  1.00  0.00    -0.277 C  
HETATM   22  O   UNL     1      -6.999  20.191  69.083  1.00  0.00    -0.254 OA 
BRANCH  21  23
HETATM   23  O   UNL     1      -6.524  18.982  67.189  1.00  0.00    -0.188 OA 
BRANCH  23  24
HETATM   24  C   UNL     1      -7.622  18.415  66.506  1.00  0.00    -0.240 C  
BRANCH  24  25
HETATM   25  C   UNL     1      -8.723  19.416  66.231  1.00  0.00    -0.364 C  
BRANCH  25  26
HETATM   26  C   UNL     1     -10.109  18.892  66.600  1.00  0.00    -0.437 C  
BRANCH  26  27
HETATM   27  C   UNL     1     -10.828  18.118  65.486  1.00  0.00     0.165 C  
BRANCH  27  28
HETATM   28  O   UNL     1     -10.270  16.825  65.391  1.00  0.00    -0.599 OA 
HETATM   29  N   UNL     1     -11.095  15.933  64.666  1.00  0.00    -0.440 N  
HETATM   30  O   UNL     1     -10.641  14.787  64.637  1.00  0.00    -0.374 OA 
HETATM   31  O   UNL     1     -12.125  16.383  64.181  1.00  0.00    -0.802 OA 
ENDBRANCH  27  28
ENDBRANCH  26  27
ENDBRANCH  25  26
ENDBRANCH  24  25
ENDBRANCH  23  24
ENDBRANCH  21  23
ENDBRANCH  20  21
ENDBRANCH  19  20
ENDBRANCH  18  19
ENDBRANCH  17  18
ENDBRANCH  15  16
ENDBRANCH   8  15
ENDBRANCH   5   6
ENDBRANCH   4   5
ENDBRANCH   2   4
BRANCH   2  32
HETATM   32  C   UNL     1      -8.019   8.996  66.749  1.00  0.00    -0.107 C  
BRANCH  32  33
HETATM   33  C   UNL     1      -8.255   8.482  65.334  1.00  0.00    -0.145 C  
BRANCH  33  34
HETATM   34  C   UNL     1      -8.928   9.545  64.528  1.00  0.00    -0.256 A  
HETATM   35  C   UNL     1      -8.904  11.043  62.630  1.00  0.00    -0.334 A  
HETATM   36  C   UNL     1     -10.672  11.184  64.278  1.00  0.00    -0.403 A  
HETATM   37  C   UNL     1      -8.326   9.998  63.345  1.00  0.00    -0.170 A  
HETATM   38  C   UNL     1     -10.099  10.140  64.994  1.00  0.00    -0.305 A  
HETATM   39  C   UNL     1     -10.076  11.635  63.097  1.00  0.00    -0.409 A  
ENDBRANCH  33  34
ENDBRANCH  32  33
ENDBRANCH   2  32
TORSDOF 18
ENDMDL
MODEL      275
REMARK 921   NORMALIZED FREE ENERGY PREDICTED BY IDOCK:   -3.69 KCAL/MOL
REMARK 922        TOTAL FREE ENERGY PREDICTED BY IDOCK:  -12.36 KCAL/MOL
REMARK 923 INTER-LIGAND FREE ENERGY PREDICTED BY IDOCK:   -9.32 KCAL/MOL
REMARK 924 INTRA-LIGAND FREE ENERGY PREDICTED BY IDOCK:   -3.04 KCAL/MOL
REMARK 927      BINDING AFFINITY PREDICTED BY RF-SCORE:    0.00 PKD
ROOT
HETATM    1  O   UNL     1     -11.772   6.324  66.606  1.00  0.00    -0.453 OA 
HETATM    2  C   UNL     1     -10.630   6.903  67.236  1.00  0.00    -0.322 C  
HETATM    3  H   UNL     1     -11.979   5.488  67.008  1.00  0.00     0.000 HD 
ENDROOT
BRANCH   2   4
HETATM    4  C   UNL     1     -10.295   8.259  66.585  1.00  0.00    -0.293 C  
BRANCH   4   5
HETATM    5  C   UNL     1     -10.529   9.484  67.476  1.00  0.00    -0.336 C  
BRANCH   5   6
HETATM    6  C   UNL     1      -9.263  10.181  68.025  1.00  0.00    -0.142 C  
HETATM    7  H   UNL     1      -5.259  10.366  67.696  1.00  0.00     0.000 HD 
HETATM    8  C   UNL     1      -7.866   9.854  67.345  1.00  0.00    -0.098 C  
HETATM    9  C   UNL     1      -9.062   9.748  69.484  1.00  0.00    -0.216 C  
HETATM   10  C   UNL     1      -7.650  10.157  69.787  1.00  0.00    -0.175 C  
HETATM   11  O   UNL     1      -9.951  10.399  70.372  1.00  0.00    -0.348 OA 
HETATM   12  O   UNL     1      -5.746  10.613  68.473  1.00  0.00    -0.041 OA 
HETATM   13  H   UNL     1      -9.826  10.131  71.275  1.00  0.00     0.000 HD 
HETATM   14  C   UNL     1      -6.874   9.764  68.548  1.00  0.00    -0.056 C  
BRANCH   8  15
HETATM   15  C   UNL     1      -7.431  10.826  66.203  1.00  0.00    -0.129 C  
BRANCH  15  16
HETATM   16  C   UNL     1      -7.363  10.217  64.814  1.00  0.00    -0.134 C  
HETATM   17  C   UNL     1      -8.310  10.024  63.874  1.00  0.00    -0.167 C  
BRANCH  17  18
HETATM   18  C   UNL     1      -9.775  10.354  63.928  1.00  0.00    -0.367 C  
BRANCH  18  19
HETATM   19  C   UNL     1     -10.045  11.848  63.685  1.00  0.00    -0.450 C  
BRANCH  19  20
HETATM   20  C   UNL     1     -11.511  12.191  63.455  1.00  0.00    -0.544 C  
BRANCH  20  21
HETATM   21  C   UNL     1     -12.071  12.961  64.611  1.00  0.00    -0.418 C  
HETATM   22  O   UNL     1     -13.075  12.679  65.253  1.00  0.00    -0.611 OA 
BRANCH  21  23
HETATM   23  O   UNL     1     -11.356  14.112  64.737  1.00  0.00    -0.342 OA 
BRANCH  23  24
HETATM   24  C   UNL     1     -11.645  14.731  65.973  1.00  0.00    -0.286 C  
BRANCH  24  25
HETATM   25  C   UNL     1     -10.536  15.646  66.444  1.00  0.00    -0.309 C  
BRANCH  25  26
HETATM   26  C   UNL     1     -10.630  15.977  67.932  1.00  0.00    -0.301 C  
BRANCH  26  27
HETATM   27  C   UNL     1      -9.468  16.813  68.486  1.00  0.00    -0.245 C  
BRANCH  27  28
HETATM   28  O   UNL     1      -8.992  17.669  67.471  1.00  0.00    -0.233 OA 
HETATM   29  N   UNL     1      -9.324  19.024  67.706  1.00  0.00    -0.297 N  
HETATM   30  O   UNL     1      -8.965  19.765  66.788  1.00  0.00    -0.325 OA 
HETATM   31  O   UNL     1      -9.911  19.289  68.747  1.00  0.00    -0.409 OA 
ENDBRANCH  27  28
ENDBRANCH  26  27
ENDBRANCH  25  26
ENDBRANCH  24  25
ENDBRANCH  23  24
ENDBRANCH  21  23
ENDBRANCH  20  21
ENDBRANCH  19  20
ENDBRANCH  18  19
ENDBRANCH  17  18
ENDBRANCH  15  16
ENDBRANCH   8  15
ENDBRANCH   5   6
ENDBRANCH   4   5
ENDBRANCH   2   4
BRANCH   2  32
HETATM   32  C   UNL     1      -9.490   5.908  67.073  1.00  0.00    -0.134 C  
BRANCH  32  33
HETATM   33  C   UNL     1      -8.323   6.231  68.000  1.00  0.00    -0.114 C  
BRANCH  33  34
HETATM   34  C   UNL     1      -8.624   5.717  69.370  1.00  0.00    -0.106 A  
HETATM   35  C   UNL     1      -9.746   4.113  70.789  1.00  0.00    -0.266 A  
HETATM   36  C   UNL     1      -8.570   5.992  71.760  1.00  0.00    -0.134 A  
HETATM   37  C   UNL     1      -9.394   4.553  69.517  1.00  0.00    -0.221 A  
HETATM   38  C   UNL     1      -8.216   6.436  70.492  1.00  0.00    -0.118 A  
HETATM   39  C   UNL     1      -9.334   4.832  71.909  1.00  0.00    -0.181 A  
ENDBRANCH  33  34
ENDBRANCH  32  33
ENDBRANCH   2  32
TORSDOF 18
ENDMDL
MODEL      276
REMARK 921   NORMALIZED FREE ENERGY PREDICTED BY IDOCK:   -3.69 KCAL/MOL
REMARK 922        TOTAL FREE ENERGY PREDICTED BY IDOCK:  -12.36 KCAL/MOL
REMARK 923 INTER-LIGAND FREE ENERGY PREDICTED BY IDOCK:   -8.96 KCAL/MOL
REMARK 924 INTRA-LIGAND FREE ENERGY PREDICTED BY IDOCK:   -3.40 KCAL/MOL
REMARK 927      BINDING AFFINITY PREDICTED BY RF-SCORE:    0.00 PKD
ROOT
HETATM    1  O   UNL     1      -9.076   6.874  64.968  1.00  0.00    -0.240 OA 
HETATM    2  C   UNL     1      -8.618   6.994  66.314  1.00  0.00    -0.139 C  
HETATM    3  H   UNL     1      -8.930   7.687  64.499  1.00  0.00     0.000 HD 
ENDROOT
BRANCH   2   4
HETATM    4  C   UNL     1      -8.855   5.676  67.076  1.00  0.00    -0.111 C  
BRANCH   4   5
HETATM    5  C   UNL     1      -9.868   5.759  68.222  1.00  0.00    -0.170 C  
BRANCH   5   6
HETATM    6  C   UNL     1      -9.658   4.771  69.392  1.00  0.00    -0.249 C  
HETATM    7  H   UNL     1      -7.787   4.265  72.916  1.00  0.00     0.000 HD 
HETATM    8  C   UNL     1      -8.807   5.253  70.643  1.00  0.00    -0.148 C  
HETATM    9  C   UNL     1      -8.877   3.558  68.872  1.00  0.00    -0.110 C  
HETATM   10  C   UNL     1      -8.408   2.872  70.122  1.00  0.00    -0.077 C  
HETATM   11  O   UNL     1      -9.683   2.674  68.115  1.00  0.00    -0.225 OA 
HETATM   12  O   UNL     1      -8.074   3.555  72.354  1.00  0.00    -0.067 OA 
HETATM   13  H   UNL     1      -9.199   1.923  67.793  1.00  0.00     0.000 HD 
HETATM   14  C   UNL     1      -7.949   4.003  71.018  1.00  0.00    -0.063 C  
BRANCH   8  15
HETATM   15  C   UNL     1      -9.630   5.865  71.821  1.00  0.00    -0.171 C  
BRANCH  15  16
HETATM   16  C   UNL     1     -11.139   5.780  71.680  1.00  0.00    -0.290 C  
HETATM   17  C   UNL     1     -12.103   6.715  71.794  1.00  0.00    -0.400 C  
BRANCH  17  18
HETATM   18  C   UNL     1     -11.969   8.175  72.121  1.00  0.00    -0.413 C  
BRANCH  18  19
HETATM   19  C   UNL     1     -11.777   9.038  70.864  1.00  0.00    -0.327 C  
BRANCH  19  20
HETATM   20  C   UNL     1     -12.147  10.505  71.048  1.00  0.00    -0.492 C  
BRANCH  20  21
HETATM   21  C   UNL     1     -12.076  11.245  69.749  1.00  0.00    -0.325 C  
HETATM   22  O   UNL     1     -11.974  10.747  68.634  1.00  0.00    -0.449 OA 
BRANCH  21  23
HETATM   23  O   UNL     1     -11.997  12.575  70.024  1.00  0.00    -0.332 OA 
BRANCH  23  24
HETATM   24  C   UNL     1     -11.190  13.224  69.064  1.00  0.00    -0.270 C  
BRANCH  24  25
HETATM   25  C   UNL     1     -11.918  14.333  68.338  1.00  0.00    -0.344 C  
BRANCH  25  26
HETATM   26  C   UNL     1     -11.427  15.724  68.731  1.00  0.00    -0.391 C  
BRANCH  26  27
HETATM   27  C   UNL     1     -10.519  16.408  67.699  1.00  0.00    -0.302 C  
BRANCH  27  28
HETATM   28  O   UNL     1     -10.788  15.871  66.423  1.00  0.00    -0.288 OA 
HETATM   29  N   UNL     1     -10.792  16.861  65.411  1.00  0.00    -0.213 N  
HETATM   30  O   UNL     1     -11.091  16.405  64.305  1.00  0.00    -0.845 OA 
HETATM   31  O   UNL     1     -10.518  18.008  65.740  1.00  0.00    -0.573 OA 
ENDBRANCH  27  28
ENDBRANCH  26  27
ENDBRANCH  25  26
ENDBRANCH  24  25
ENDBRANCH  23  24
ENDBRANCH  21  23
ENDBRANCH  20  21
ENDBRANCH  19  20
ENDBRANCH  18  19
ENDBRANCH  17  18
ENDBRANCH  15  16
ENDBRANCH   8  15
ENDBRANCH   5   6
ENDBRANCH   4   5
ENDBRANCH   2   4
BRANCH   2  32
HETATM   32  C   UNL     1      -9.392   8.146  66.938  1.00  0.00    -0.219 C  
BRANCH  32  33
HETATM   33  C   UNL     1      -8.479   9.315  67.291  1.00  0.00    -0.125 C  
BRANCH  33  34
HETATM   34  C   UNL     1      -7.954   9.130  68.677  1.00  0.00    -0.101 A  
HETATM   35  C   UNL     1      -6.260   8.244  70.157  1.00  0.00    -0.031 A  
HETATM   36  C   UNL     1      -8.262   9.261  71.060  1.00  0.00    -0.122 A  
HETATM   37  C   UNL     1      -6.719   8.492  68.867  1.00  0.00    -0.053 A  
HETATM   38  C   UNL     1      -8.725   9.511  69.774  1.00  0.00    -0.204 A  
HETATM   39  C   UNL     1      -7.031   8.628  71.252  1.00  0.00    -0.082 A  
ENDBRANCH  33  34
ENDBRANCH  32  33
ENDBRANCH   2  32
TORSDOF 18
ENDMDL
MODEL      277
REMARK 921   NORMALIZED FREE ENERGY PREDICTED BY IDOCK:   -3.69 KCAL/MOL
REMARK 922        TOTAL FREE ENERGY PREDICTED BY IDOCK:  -12.35 KCAL/MOL
REMARK 923 INTER-LIGAND FREE ENERGY PREDICTED BY IDOCK:  -10.84 KCAL/MOL
REMARK 924 INTRA-LIGAND FREE ENERGY PREDICTED BY IDOCK:   -1.52 KCAL/MOL
REMARK 927      BINDING AFFINITY PREDICTED BY RF-SCORE:    0.00 PKD
ROOT
HETATM    1  O   UNL     1     -11.638   6.766  66.942  1.00  0.00    -0.683 OA 
HETATM    2  C   UNL     1     -10.608   7.588  67.487  1.00  0.00    -0.261 C  
HETATM    3  H   UNL     1     -12.368   6.711  67.547  1.00  0.00     0.000 HD 
ENDROOT
BRANCH   2   4
HETATM    4  C   UNL     1      -9.423   7.678  66.504  1.00  0.00    -0.250 C  
BRANCH   4   5
HETATM    5  C   UNL     1      -8.625   8.985  66.565  1.00  0.00    -0.129 C  
BRANCH   5   6
HETATM    6  C   UNL     1      -9.373  10.263  66.120  1.00  0.00    -0.211 C  
HETATM    7  H   UNL     1     -13.014  11.937  65.771  1.00  0.00     0.000 HD 
HETATM    8  C   UNL     1     -10.942  10.338  66.351  1.00  0.00     0.077 C  
HETATM    9  C   UNL     1      -9.227  10.408  64.600  1.00  0.00    -0.240 C  
HETATM   10  C   UNL     1     -10.273  11.422  64.236  1.00  0.00    -0.367 C  
HETATM   11  O   UNL     1      -7.949  10.881  64.218  1.00  0.00    -0.356 OA 
HETATM   12  O   UNL     1     -12.255  12.188  65.257  1.00  0.00    -0.484 OA 
HETATM   13  H   UNL     1      -7.859  10.971  63.277  1.00  0.00     0.000 HD 
HETATM   14  C   UNL     1     -11.482  11.022  65.055  1.00  0.00     0.448 C  
BRANCH   8  15
HETATM   15  C   UNL     1     -11.394  11.009  67.688  1.00  0.00    -0.355 C  
BRANCH  15  16
HETATM   16  C   UNL     1     -10.404  11.986  68.297  1.00  0.00    -0.211 C  
HETATM   17  C   UNL     1     -10.538  13.269  68.688  1.00  0.00    -0.264 C  
BRANCH  17  18
HETATM   18  C   UNL     1     -11.749  14.154  68.622  1.00  0.00    -0.385 C  
BRANCH  18  19
HETATM   19  C   UNL     1     -12.007  14.686  67.204  1.00  0.00    -0.310 C  
BRANCH  19  20
HETATM   20  C   UNL     1     -10.744  14.973  66.402  1.00  0.00    -0.322 C  
BRANCH  20  21
HETATM   21  C   UNL     1     -10.500  16.446  66.290  1.00  0.00    -0.293 C  
HETATM   22  O   UNL     1      -9.930  17.020  65.370  1.00  0.00    -0.556 OA 
BRANCH  21  23
HETATM   23  O   UNL     1     -10.893  17.029  67.455  1.00  0.00    -0.305 OA 
BRANCH  23  24
HETATM   24  C   UNL     1      -9.982  18.043  67.823  1.00  0.00    -0.326 C  
BRANCH  24  25
HETATM   25  C   UNL     1     -10.494  19.433  67.512  1.00  0.00    -0.577 C  
BRANCH  25  26
HETATM   26  C   UNL     1      -9.485  20.279  66.739  1.00  0.00    -0.518 C  
BRANCH  26  27
HETATM   27  C   UNL     1      -8.031  19.794  66.822  1.00  0.00    -0.296 C  
BRANCH  27  28
HETATM   28  O   UNL     1      -7.442  19.887  65.544  1.00  0.00    -0.325 OA 
HETATM   29  N   UNL     1      -6.614  18.778  65.249  1.00  0.00    -0.252 N  
HETATM   30  O   UNL     1      -6.047  18.888  64.160  1.00  0.00    -0.444 OA 
HETATM   31  O   UNL     1      -6.554  17.880  66.079  1.00  0.00    -0.236 OA 
ENDBRANCH  27  28
ENDBRANCH  26  27
ENDBRANCH  25  26
ENDBRANCH  24  25
ENDBRANCH  23  24
ENDBRANCH  21  23
ENDBRANCH  20  21
ENDBRANCH  19  20
ENDBRANCH  18  19
ENDBRANCH  17  18
ENDBRANCH  15  16
ENDBRANCH   8  15
ENDBRANCH   5   6
ENDBRANCH   4   5
ENDBRANCH   2   4
BRANCH   2  32
HETATM   32  C   UNL     1     -10.192   6.952  68.805  1.00  0.00    -0.179 C  
BRANCH  32  33
HETATM   33  C   UNL     1     -11.399   6.483  69.610  1.00  0.00    -0.443 C  
BRANCH  33  34
HETATM   34  C   UNL     1     -10.929   5.732  70.813  1.00  0.00    -0.312 A  
HETATM   35  C   UNL     1      -9.638   3.921  71.761  1.00  0.00    -0.227 A  
HETATM   36  C   UNL     1     -11.073   5.267  73.170  1.00  0.00    -0.384 A  
HETATM   37  C   UNL     1     -10.019   4.676  70.656  1.00  0.00    -0.293 A  
HETATM   38  C   UNL     1     -11.457   6.024  72.070  1.00  0.00    -0.343 A  
HETATM   39  C   UNL     1     -10.165   4.216  73.016  1.00  0.00    -0.224 A  
ENDBRANCH  33  34
ENDBRANCH  32  33
ENDBRANCH   2  32
TORSDOF 18
ENDMDL
MODEL      278
REMARK 921   NORMALIZED FREE ENERGY PREDICTED BY IDOCK:   -3.68 KCAL/MOL
REMARK 922        TOTAL FREE ENERGY PREDICTED BY IDOCK:  -12.34 KCAL/MOL
REMARK 923 INTER-LIGAND FREE ENERGY PREDICTED BY IDOCK:   -8.83 KCAL/MOL
REMARK 924 INTRA-LIGAND FREE ENERGY PREDICTED BY IDOCK:   -3.51 KCAL/MOL
REMARK 927      BINDING AFFINITY PREDICTED BY RF-SCORE:    0.00 PKD
ROOT
HETATM    1  O   UNL     1     -10.696  18.961  65.459  1.00  0.00    -0.556 OA 
HETATM    2  C   UNL     1     -10.521  18.104  66.585  1.00  0.00    -0.339 C  
HETATM    3  H   UNL     1     -11.343  18.596  64.867  1.00  0.00     0.000 HD 
ENDROOT
BRANCH   2   4
HETATM    4  C   UNL     1      -9.472  18.696  67.546  1.00  0.00    -0.311 C  
BRANCH   4   5
HETATM    5  C   UNL     1      -9.097  17.801  68.733  1.00  0.00    -0.208 C  
BRANCH   5   6
HETATM    6  C   UNL     1      -7.781  17.001  68.595  1.00  0.00    -0.251 C  
HETATM    7  H   UNL     1      -6.071  13.425  69.275  1.00  0.00     0.000 HD 
HETATM    8  C   UNL     1      -7.787  15.464  68.992  1.00  0.00    -0.194 C  
HETATM    9  C   UNL     1      -6.739  17.611  69.542  1.00  0.00    -0.103 C  
HETATM   10  C   UNL     1      -5.666  16.564  69.615  1.00  0.00    -0.182 C  
HETATM   11  O   UNL     1      -6.195  18.820  69.046  1.00  0.00    -0.224 OA 
HETATM   12  O   UNL     1      -5.594  14.244  69.204  1.00  0.00    -0.086 OA 
HETATM   13  H   UNL     1      -5.549  19.198  69.632  1.00  0.00     0.000 HD 
HETATM   14  C   UNL     1      -6.426  15.259  69.729  1.00  0.00    -0.169 C  
BRANCH   8  15
HETATM   15  C   UNL     1      -8.058  14.468  67.819  1.00  0.00    -0.166 C  
BRANCH  15  16
HETATM   16  C   UNL     1      -8.837  13.218  68.187  1.00  0.00    -0.187 C  
HETATM   17  C   UNL     1      -8.659  11.923  67.858  1.00  0.00    -0.162 C  
BRANCH  17  18
HETATM   18  C   UNL     1      -7.604  11.308  66.984  1.00  0.00    -0.143 C  
BRANCH  18  19
HETATM   19  C   UNL     1      -7.590   9.774  67.078  1.00  0.00    -0.092 C  
BRANCH  19  20
HETATM   20  C   UNL     1      -8.580   9.198  68.083  1.00  0.00    -0.129 C  
BRANCH  20  21
HETATM   21  C   UNL     1      -9.792   8.654  67.393  1.00  0.00    -0.192 C  
HETATM   22  O   UNL     1     -10.899   9.177  67.349  1.00  0.00    -0.243 OA 
BRANCH  21  23
HETATM   23  O   UNL     1      -9.496   7.404  66.943  1.00  0.00    -0.146 OA 
BRANCH  23  24
HETATM   24  C   UNL     1     -10.451   6.477  67.416  1.00  0.00    -0.252 C  
BRANCH  24  25
HETATM   25  C   UNL     1      -9.931   5.629  68.557  1.00  0.00    -0.205 C  
BRANCH  25  26
HETATM   26  C   UNL     1     -10.777   5.751  69.822  1.00  0.00    -0.418 C  
BRANCH  26  27
HETATM   27  C   UNL     1     -10.476   6.983  70.688  1.00  0.00    -0.210 C  
BRANCH  27  28
HETATM   28  O   UNL     1     -11.598   7.839  70.674  1.00  0.00    -0.281 OA 
HETATM   29  N   UNL     1     -11.275   9.158  71.071  1.00  0.00    -0.286 N  
HETATM   30  O   UNL     1     -12.265   9.892  71.122  1.00  0.00    -0.320 OA 
HETATM   31  O   UNL     1     -10.101   9.404  71.316  1.00  0.00    -0.302 OA 
ENDBRANCH  27  28
ENDBRANCH  26  27
ENDBRANCH  25  26
ENDBRANCH  24  25
ENDBRANCH  23  24
ENDBRANCH  21  23
ENDBRANCH  20  21
ENDBRANCH  19  20
ENDBRANCH  18  19
ENDBRANCH  17  18
ENDBRANCH  15  16
ENDBRANCH   8  15
ENDBRANCH   5   6
ENDBRANCH   4   5
ENDBRANCH   2   4
BRANCH   2  32
HETATM   32  C   UNL     1     -10.080  16.753  66.041  1.00  0.00    -0.350 C  
BRANCH  32  33
HETATM   33  C   UNL     1     -11.109  16.167  65.081  1.00  0.00    -0.256 C  
BRANCH  33  34
HETATM   34  C   UNL     1     -11.118  14.680  65.213  1.00  0.00    -0.363 A  
HETATM   35  C   UNL     1     -10.295  12.524  64.490  1.00  0.00    -0.362 A  
HETATM   36  C   UNL     1     -12.104  12.668  66.092  1.00  0.00    -0.399 A  
HETATM   37  C   UNL     1     -10.238  13.913  64.433  1.00  0.00     0.067 A  
HETATM   38  C   UNL     1     -12.051  14.056  66.039  1.00  0.00    -0.461 A  
HETATM   39  C   UNL     1     -11.227  11.902  65.319  1.00  0.00    -0.351 A  
ENDBRANCH  33  34
ENDBRANCH  32  33
ENDBRANCH   2  32
TORSDOF 18
ENDMDL
MODEL      279
REMARK 921   NORMALIZED FREE ENERGY PREDICTED BY IDOCK:   -3.65 KCAL/MOL
REMARK 922        TOTAL FREE ENERGY PREDICTED BY IDOCK:  -12.27 KCAL/MOL
REMARK 923 INTER-LIGAND FREE ENERGY PREDICTED BY IDOCK:   -9.40 KCAL/MOL
REMARK 924 INTRA-LIGAND FREE ENERGY PREDICTED BY IDOCK:   -2.87 KCAL/MOL
REMARK 927      BINDING AFFINITY PREDICTED BY RF-SCORE:    0.00 PKD
ROOT
HETATM    1  O   UNL     1      -9.413   8.354  65.517  1.00  0.00    -0.431 OA 
HETATM    2  C   UNL     1     -10.080   9.133  66.508  1.00  0.00    -0.287 C  
HETATM    3  H   UNL     1     -10.023   7.752  65.108  1.00  0.00     0.000 HD 
ENDROOT
BRANCH   2   4
HETATM    4  C   UNL     1      -9.091  10.110  67.172  1.00  0.00    -0.149 C  
BRANCH   4   5
HETATM    5  C   UNL     1      -8.795  11.382  66.370  1.00  0.00    -0.193 C  
BRANCH   5   6
HETATM    6  C   UNL     1      -9.138  12.721  67.063  1.00  0.00    -0.220 C  
HETATM    7  H   UNL     1     -11.214  16.143  66.664  1.00  0.00     0.000 HD 
HETATM    8  C   UNL     1     -10.190  13.684  66.365  1.00  0.00    -0.292 C  
HETATM    9  C   UNL     1      -7.864  13.574  67.134  1.00  0.00    -0.007 C  
HETATM   10  C   UNL     1      -8.371  14.949  67.457  1.00  0.00    -0.195 C  
HETATM   11  O   UNL     1      -6.975  13.141  68.146  1.00  0.00    -0.083 OA 
HETATM   12  O   UNL     1     -10.447  16.041  67.216  1.00  0.00    -0.298 OA 
HETATM   13  H   UNL     1      -6.186  13.669  68.191  1.00  0.00     0.000 HD 
HETATM   14  C   UNL     1      -9.593  15.112  66.578  1.00  0.00    -0.271 C  
BRANCH   8  15
HETATM   15  C   UNL     1     -11.671  13.512  66.832  1.00  0.00    -0.424 C  
BRANCH  15  16
HETATM   16  C   UNL     1     -11.901  13.608  68.329  1.00  0.00    -0.404 C  
HETATM   17  C   UNL     1     -12.031  12.658  69.277  1.00  0.00    -0.301 C  
BRANCH  17  18
HETATM   18  C   UNL     1     -12.000  11.164  69.128  1.00  0.00    -0.413 C  
BRANCH  18  19
HETATM   19  C   UNL     1     -12.179  10.439  70.471  1.00  0.00    -0.412 C  
BRANCH  19  20
HETATM   20  C   UNL     1     -10.929   9.726  70.971  1.00  0.00    -0.402 C  
BRANCH  20  21
HETATM   21  C   UNL     1     -11.277   8.663  71.966  1.00  0.00    -0.364 C  
HETATM   22  O   UNL     1     -12.401   8.248  72.222  1.00  0.00    -0.345 OA 
BRANCH  21  23
HETATM   23  O   UNL     1     -10.146   8.333  72.646  1.00  0.00    -0.289 OA 
BRANCH  23  24
HETATM   24  C   UNL     1     -10.389   7.226  73.488  1.00  0.00    -0.366 C  
BRANCH  24  25
HETATM   25  C   UNL     1      -9.137   6.726  74.175  1.00  0.00    -0.219 C  
BRANCH  25  26
HETATM   26  C   UNL     1      -8.365   5.708  73.338  1.00  0.00    -0.116 C  
BRANCH  26  27
HETATM   27  C   UNL     1      -8.470   4.255  73.824  1.00  0.00    -0.092 C  
BRANCH  27  28
HETATM   28  O   UNL     1      -9.826   3.945  74.056  1.00  0.00    -0.110 OA 
HETATM   29  N   UNL     1     -10.188   2.682  73.531  1.00  0.00    -0.108 N  
HETATM   30  O   UNL     1     -11.388   2.436  73.676  1.00  0.00    -0.213 OA 
HETATM   31  O   UNL     1      -9.306   2.012  73.009  1.00  0.00    -0.075 OA 
ENDBRANCH  27  28
ENDBRANCH  26  27
ENDBRANCH  25  26
ENDBRANCH  24  25
ENDBRANCH  23  24
ENDBRANCH  21  23
ENDBRANCH  20  21
ENDBRANCH  19  20
ENDBRANCH  18  19
ENDBRANCH  17  18
ENDBRANCH  15  16
ENDBRANCH   8  15
ENDBRANCH   5   6
ENDBRANCH   4   5
ENDBRANCH   2   4
BRANCH   2  32
HETATM   32  C   UNL     1     -10.660   8.153  67.518  1.00  0.00    -0.291 C  
BRANCH  32  33
HETATM   33  C   UNL     1     -10.623   6.720  66.999  1.00  0.00    -0.405 C  
BRANCH  33  34
HETATM   34  C   UNL     1     -10.281   5.797  68.122  1.00  0.00    -0.235 A  
HETATM   35  C   UNL     1      -9.321   3.712  68.881  1.00  0.00    -0.235 A  
HETATM   36  C   UNL     1     -10.485   5.159  70.434  1.00  0.00    -0.287 A  
HETATM   37  C   UNL     1      -9.573   4.616  67.854  1.00  0.00    -0.205 A  
HETATM   38  C   UNL     1     -10.739   6.065  69.411  1.00  0.00    -0.403 A  
HETATM   39  C   UNL     1      -9.777   3.983  70.170  1.00  0.00    -0.265 A  
ENDBRANCH  33  34
ENDBRANCH  32  33
ENDBRANCH   2  32
TORSDOF 18
ENDMDL
MODEL      280
REMARK 921   NORMALIZED FREE ENERGY PREDICTED BY IDOCK:   -3.64 KCAL/MOL
REMARK 922        TOTAL FREE ENERGY PREDICTED BY IDOCK:  -12.25 KCAL/MOL
REMARK 923 INTER-LIGAND FREE ENERGY PREDICTED BY IDOCK:   -9.89 KCAL/MOL
REMARK 924 INTRA-LIGAND FREE ENERGY PREDICTED BY IDOCK:   -2.35 KCAL/MOL
REMARK 927      BINDING AFFINITY PREDICTED BY RF-SCORE:    0.00 PKD
ROOT
HETATM    1  O   UNL     1     -10.888   9.065  68.987  1.00  0.00    -0.374 OA 
HETATM    2  C   UNL     1     -10.450   9.833  70.106  1.00  0.00    -0.286 C  
HETATM    3  H   UNL     1     -11.713   9.404  68.660  1.00  0.00     0.000 HD 
ENDROOT
BRANCH   2   4
HETATM    4  C   UNL     1      -9.112   9.284  70.638  1.00  0.00    -0.309 C  
BRANCH   4   5
HETATM    5  C   UNL     1      -8.016   9.108  69.582  1.00  0.00    -0.103 C  
BRANCH   5   6
HETATM    6  C   UNL     1      -7.379  10.408  69.037  1.00  0.00    -0.097 C  
HETATM    7  H   UNL     1      -5.720  12.092  65.783  1.00  0.00     0.000 HD 
HETATM    8  C   UNL     1      -6.982  10.467  67.501  1.00  0.00    -0.084 C  
HETATM    9  C   UNL     1      -6.046  10.638  69.761  1.00  0.00    -0.074 C  
HETATM   10  C   UNL     1      -5.354  11.669  68.917  1.00  0.00    -0.049 C  
HETATM   11  O   UNL     1      -6.219  11.134  71.075  1.00  0.00    -0.415 OA 
HETATM   12  O   UNL     1      -5.557  12.373  66.675  1.00  0.00    -0.263 OA 
HETATM   13  H   UNL     1      -5.394  11.277  71.523  1.00  0.00     0.000 HD 
HETATM   14  C   UNL     1      -5.614  11.221  67.494  1.00  0.00    -0.047 C  
BRANCH   8  15
HETATM   15  C   UNL     1      -8.068  11.062  66.548  1.00  0.00    -0.161 C  
BRANCH  15  16
HETATM   16  C   UNL     1      -8.549  12.459  66.895  1.00  0.00    -0.171 C  
HETATM   17  C   UNL     1      -9.783  12.948  67.129  1.00  0.00    -0.221 C  
BRANCH  17  18
HETATM   18  C   UNL     1     -11.104  12.232  67.101  1.00  0.00    -0.330 C  
BRANCH  18  19
HETATM   19  C   UNL     1     -11.962  12.542  68.337  1.00  0.00    -0.271 C  
BRANCH  19  20
HETATM   20  C   UNL     1     -11.281  13.435  69.366  1.00  0.00    -0.235 C  
BRANCH  20  21
HETATM   21  C   UNL     1     -12.250  14.410  69.959  1.00  0.00    -0.351 C  
HETATM   22  O   UNL     1     -13.153  14.150  70.745  1.00  0.00    -0.321 OA 
BRANCH  21  23
HETATM   23  O   UNL     1     -12.053  15.618  69.363  1.00  0.00    -0.356 OA 
BRANCH  23  24
HETATM   24  C   UNL     1     -10.747  16.085  69.632  1.00  0.00    -0.316 C  
BRANCH  24  25
HETATM   25  C   UNL     1     -10.372  17.289  68.796  1.00  0.00    -0.358 C  
BRANCH  25  26
HETATM   26  C   UNL     1     -10.295  16.977  67.304  1.00  0.00    -0.311 C  
BRANCH  26  27
HETATM   27  C   UNL     1     -10.131  18.201  66.392  1.00  0.00    -0.389 C  
BRANCH  27  28
HETATM   28  O   UNL     1      -9.494  19.231  67.115  1.00  0.00    -0.310 OA 
HETATM   29  N   UNL     1      -8.184  19.488  66.648  1.00  0.00    -0.294 N  
HETATM   30  O   UNL     1      -7.602  20.344  67.320  1.00  0.00    -0.300 OA 
HETATM   31  O   UNL     1      -7.794  18.853  65.677  1.00  0.00    -0.459 OA 
ENDBRANCH  27  28
ENDBRANCH  26  27
ENDBRANCH  25  26
ENDBRANCH  24  25
ENDBRANCH  23  24
ENDBRANCH  21  23
ENDBRANCH  20  21
ENDBRANCH  19  20
ENDBRANCH  18  19
ENDBRANCH  17  18
ENDBRANCH  15  16
ENDBRANCH   8  15
ENDBRANCH   5   6
ENDBRANCH   4   5
ENDBRANCH   2   4
BRANCH   2  32
HETATM   32  C   UNL     1     -11.548   9.741  71.156  1.00  0.00    -0.469 C  
BRANCH  32  33
HETATM   33  C   UNL     1     -12.253   8.390  71.118  1.00  0.00    -0.248 C  
BRANCH  33  34
HETATM   34  C   UNL     1     -11.437   7.385  71.863  1.00  0.00    -0.300 A  
HETATM   35  C   UNL     1     -10.584   5.131  72.056  1.00  0.00    -0.266 A  
HETATM   36  C   UNL     1     -10.223   6.732  73.835  1.00  0.00    -0.396 A  
HETATM   37  C   UNL     1     -11.276   6.097  71.331  1.00  0.00    -0.346 A  
HETATM   38  C   UNL     1     -10.912   7.700  73.115  1.00  0.00    -0.411 A  
HETATM   39  C   UNL     1     -10.059   5.449  73.307  1.00  0.00    -0.198 A  
ENDBRANCH  33  34
ENDBRANCH  32  33
ENDBRANCH   2  32
TORSDOF 18
ENDMDL
MODEL      281
REMARK 921   NORMALIZED FREE ENERGY PREDICTED BY IDOCK:   -3.61 KCAL/MOL
REMARK 922        TOTAL FREE ENERGY PREDICTED BY IDOCK:  -12.20 KCAL/MOL
REMARK 923 INTER-LIGAND FREE ENERGY PREDICTED BY IDOCK:   -8.78 KCAL/MOL
REMARK 924 INTRA-LIGAND FREE ENERGY PREDICTED BY IDOCK:   -3.41 KCAL/MOL
REMARK 927      BINDING AFFINITY PREDICTED BY RF-SCORE:    0.00 PKD
ROOT
HETATM    1  O   UNL     1     -11.733   6.501  67.054  1.00  0.00    -0.611 OA 
HETATM    2  C   UNL     1     -10.658   6.051  67.876  1.00  0.00    -0.267 C  
HETATM    3  H   UNL     1     -11.470   6.499  66.140  1.00  0.00     0.000 HD 
ENDROOT
BRANCH   2   4
HETATM    4  C   UNL     1     -11.084   6.054  69.357  1.00  0.00    -0.445 C  
BRANCH   4   5
HETATM    5  C   UNL     1     -11.277   7.442  69.975  1.00  0.00    -0.200 C  
BRANCH   5   6
HETATM    6  C   UNL     1     -10.446   7.746  71.243  1.00  0.00    -0.230 C  
HETATM    7  H   UNL     1      -7.106   6.749  73.251  1.00  0.00     0.000 HD 
HETATM    8  C   UNL     1      -9.047   7.016  71.422  1.00  0.00    -0.147 C  
HETATM    9  C   UNL     1     -11.246   7.294  72.471  1.00  0.00    -0.301 C  
HETATM   10  C   UNL     1     -10.229   7.276  73.575  1.00  0.00    -0.404 C  
HETATM   11  O   UNL     1     -12.293   8.188  72.799  1.00  0.00    -0.611 OA 
HETATM   12  O   UNL     1      -7.876   7.138  73.648  1.00  0.00    -0.101 OA 
HETATM   13  H   UNL     1     -12.788   7.908  73.560  1.00  0.00     0.000 HD 
HETATM   14  C   UNL     1      -9.002   6.656  72.941  1.00  0.00    -0.128 C  
BRANCH   8  15
HETATM   15  C   UNL     1      -7.806   7.803  70.893  1.00  0.00    -0.089 C  
BRANCH  15  16
HETATM   16  C   UNL     1      -7.931   9.316  70.913  1.00  0.00    -0.161 C  
HETATM   17  C   UNL     1      -8.085  10.214  69.919  1.00  0.00    -0.139 C  
BRANCH  17  18
HETATM   18  C   UNL     1      -8.166   9.979  68.438  1.00  0.00    -0.106 C  
BRANCH  18  19
HETATM   19  C   UNL     1      -9.194  10.896  67.757  1.00  0.00    -0.155 C  
BRANCH  19  20
HETATM   20  C   UNL     1     -10.606  10.326  67.705  1.00  0.00    -0.296 C  
BRANCH  20  21
HETATM   21  C   UNL     1     -11.559  11.180  68.482  1.00  0.00    -0.314 C  
HETATM   22  O   UNL     1     -11.946  10.979  69.627  1.00  0.00    -0.303 OA 
BRANCH  21  23
HETATM   23  O   UNL     1     -12.039  12.143  67.649  1.00  0.00    -0.522 OA 
BRANCH  23  24
HETATM   24  C   UNL     1     -12.165  13.367  68.342  1.00  0.00    -0.092 C  
BRANCH  24  25
HETATM   25  C   UNL     1     -11.682  14.551  67.533  1.00  0.00    -0.413 C  
BRANCH  25  26
HETATM   26  C   UNL     1     -10.938  15.583  68.376  1.00  0.00    -0.297 C  
BRANCH  26  27
HETATM   27  C   UNL     1     -10.605  16.896  67.652  1.00  0.00    -0.325 C  
BRANCH  27  28
HETATM   28  O   UNL     1      -9.348  17.359  68.095  1.00  0.00    -0.261 OA 
HETATM   29  N   UNL     1      -9.399  18.695  68.559  1.00  0.00    -0.335 N  
HETATM   30  O   UNL     1      -8.290  19.124  68.887  1.00  0.00    -0.352 OA 
HETATM   31  O   UNL     1     -10.491  19.248  68.574  1.00  0.00    -0.339 OA 
ENDBRANCH  27  28
ENDBRANCH  26  27
ENDBRANCH  25  26
ENDBRANCH  24  25
ENDBRANCH  23  24
ENDBRANCH  21  23
ENDBRANCH  20  21
ENDBRANCH  19  20
ENDBRANCH  18  19
ENDBRANCH  17  18
ENDBRANCH  15  16
ENDBRANCH   8  15
ENDBRANCH   5   6
ENDBRANCH   4   5
ENDBRANCH   2   4
BRANCH   2  32
HETATM   32  C   UNL     1      -9.492   6.998  67.628  1.00  0.00    -0.134 C  
BRANCH  32  33
HETATM   33  C   UNL     1      -8.280   6.265  67.066  1.00  0.00    -0.109 C  
BRANCH  33  34
HETATM   34  C   UNL     1      -7.859   6.913  65.788  1.00  0.00    -0.106 A  
HETATM   35  C   UNL     1      -6.314   7.045  63.934  1.00  0.00    -0.043 A  
HETATM   36  C   UNL     1      -8.047   8.712  64.201  1.00  0.00    -0.162 A  
HETATM   37  C   UNL     1      -6.761   6.399  65.082  1.00  0.00    -0.046 A  
HETATM   38  C   UNL     1      -8.499   8.071  65.348  1.00  0.00    -0.155 A  
HETATM   39  C   UNL     1      -6.956   8.200  63.494  1.00  0.00    -0.084 A  
ENDBRANCH  33  34
ENDBRANCH  32  33
ENDBRANCH   2  32
TORSDOF 18
ENDMDL
MODEL      282
REMARK 921   NORMALIZED FREE ENERGY PREDICTED BY IDOCK:   -3.61 KCAL/MOL
REMARK 922        TOTAL FREE ENERGY PREDICTED BY IDOCK:  -12.20 KCAL/MOL
REMARK 923 INTER-LIGAND FREE ENERGY PREDICTED BY IDOCK:   -9.13 KCAL/MOL
REMARK 924 INTRA-LIGAND FREE ENERGY PREDICTED BY IDOCK:   -3.07 KCAL/MOL
REMARK 927      BINDING AFFINITY PREDICTED BY RF-SCORE:    0.00 PKD
ROOT
HETATM    1  O   UNL     1     -11.713   6.677  68.516  1.00  0.00    -0.450 OA 
HETATM    2  C   UNL     1     -10.579   6.705  67.651  1.00  0.00    -0.263 C  
HETATM    3  H   UNL     1     -11.783   5.828  68.937  1.00  0.00     0.000 HD 
ENDROOT
BRANCH   2   4
HETATM    4  C   UNL     1     -10.464   8.083  66.970  1.00  0.00    -0.410 C  
BRANCH   4   5
HETATM    5  C   UNL     1     -10.726   9.284  67.884  1.00  0.00    -0.248 C  
BRANCH   5   6
HETATM    6  C   UNL     1      -9.481   9.944  68.520  1.00  0.00    -0.149 C  
HETATM    7  H   UNL     1      -5.471  10.181  68.311  1.00  0.00     0.000 HD 
HETATM    8  C   UNL     1      -8.064   9.681  67.852  1.00  0.00    -0.106 C  
HETATM    9  C   UNL     1      -9.313   9.397  69.944  1.00  0.00    -0.214 C  
HETATM   10  C   UNL     1      -7.913   9.790  70.315  1.00  0.00    -0.185 C  
HETATM   11  O   UNL     1     -10.230   9.969  70.858  1.00  0.00    -0.334 OA 
HETATM   12  O   UNL     1      -5.980  10.362  69.092  1.00  0.00    -0.037 OA 
HETATM   13  H   UNL     1     -10.126   9.630  71.740  1.00  0.00     0.000 HD 
HETATM   14  C   UNL     1      -7.102   9.502  69.070  1.00  0.00    -0.066 C  
BRANCH   8  15
HETATM   15  C   UNL     1      -7.608  10.745  66.803  1.00  0.00    -0.129 C  
BRANCH  15  16
HETATM   16  C   UNL     1      -7.486  10.245  65.375  1.00  0.00    -0.145 C  
HETATM   17  C   UNL     1      -8.395  10.125  64.387  1.00  0.00    -0.171 C  
BRANCH  17  18
HETATM   18  C   UNL     1      -9.862  10.449  64.410  1.00  0.00    -0.395 C  
BRANCH  18  19
HETATM   19  C   UNL     1     -10.148  11.810  65.063  1.00  0.00    -0.302 C  
BRANCH  19  20
HETATM   20  C   UNL     1     -10.653  12.876  64.099  1.00  0.00    -0.442 C  
BRANCH  20  21
HETATM   21  C   UNL     1     -11.709  13.723  64.738  1.00  0.00    -0.381 C  
HETATM   22  O   UNL     1     -12.651  14.262  64.170  1.00  0.00    -0.689 OA 
BRANCH  21  23
HETATM   23  O   UNL     1     -11.365  13.915  66.041  1.00  0.00    -0.314 OA 
BRANCH  23  24
HETATM   24  C   UNL     1     -10.989  15.260  66.252  1.00  0.00    -0.300 C  
BRANCH  24  25
HETATM   25  C   UNL     1     -10.383  15.493  67.619  1.00  0.00    -0.269 C  
BRANCH  25  26
HETATM   26  C   UNL     1     -11.306  16.270  68.554  1.00  0.00    -0.330 C  
BRANCH  26  27
HETATM   27  C   UNL     1     -11.673  15.543  69.856  1.00  0.00    -0.352 C  
BRANCH  27  28
HETATM   28  O   UNL     1     -11.662  14.151  69.624  1.00  0.00    -0.278 OA 
HETATM   29  N   UNL     1     -12.200  13.419  70.709  1.00  0.00    -0.359 N  
HETATM   30  O   UNL     1     -12.132  12.200  70.536  1.00  0.00    -0.364 OA 
HETATM   31  O   UNL     1     -12.645  14.055  71.655  1.00  0.00    -0.331 OA 
ENDBRANCH  27  28
ENDBRANCH  26  27
ENDBRANCH  25  26
ENDBRANCH  24  25
ENDBRANCH  23  24
ENDBRANCH  21  23
ENDBRANCH  20  21
ENDBRANCH  19  20
ENDBRANCH  18  19
ENDBRANCH  17  18
ENDBRANCH  15  16
ENDBRANCH   8  15
ENDBRANCH   5   6
ENDBRANCH   4   5
ENDBRANCH   2   4
BRANCH   2  32
HETATM   32  C   UNL     1     -10.780   5.593  66.632  1.00  0.00    -0.339 C  
BRANCH  32  33
HETATM   33  C   UNL     1      -9.459   5.153  66.009  1.00  0.00    -0.170 C  
BRANCH  33  34
HETATM   34  C   UNL     1      -8.675   4.374  67.014  1.00  0.00    -0.108 A  
HETATM   35  C   UNL     1      -6.584   3.964  68.156  1.00  0.00    -0.042 A  
HETATM   36  C   UNL     1      -8.468   2.482  68.486  1.00  0.00    -0.094 A  
HETATM   37  C   UNL     1      -7.346   4.734  67.281  1.00  0.00    -0.077 A  
HETATM   38  C   UNL     1      -9.233   3.246  67.615  1.00  0.00    -0.237 A  
HETATM   39  C   UNL     1      -7.145   2.839  68.757  1.00  0.00    -0.048 A  
ENDBRANCH  33  34
ENDBRANCH  32  33
ENDBRANCH   2  32
TORSDOF 18
ENDMDL
MODEL      283
REMARK 921   NORMALIZED FREE ENERGY PREDICTED BY IDOCK:   -3.61 KCAL/MOL
REMARK 922        TOTAL FREE ENERGY PREDICTED BY IDOCK:  -12.19 KCAL/MOL
REMARK 923 INTER-LIGAND FREE ENERGY PREDICTED BY IDOCK:   -8.07 KCAL/MOL
REMARK 924 INTRA-LIGAND FREE ENERGY PREDICTED BY IDOCK:   -4.12 KCAL/MOL
REMARK 927      BINDING AFFINITY PREDICTED BY RF-SCORE:    0.00 PKD
ROOT
HETATM    1  O   UNL     1     -10.039   7.997  66.108  1.00  0.00    -0.475 OA 
HETATM    2  C   UNL     1      -8.870   8.699  65.690  1.00  0.00    -0.187 C  
HETATM    3  H   UNL     1     -10.594   7.810  65.359  1.00  0.00     0.000 HD 
ENDROOT
BRANCH   2   4
HETATM    4  C   UNL     1      -7.970   9.002  66.903  1.00  0.00    -0.105 C  
BRANCH   4   5
HETATM    5  C   UNL     1      -8.351   8.270  68.195  1.00  0.00    -0.129 C  
BRANCH   5   6
HETATM    6  C   UNL     1      -7.230   8.118  69.249  1.00  0.00    -0.072 C  
HETATM    7  H   UNL     1      -5.217   5.448  71.483  1.00  0.00     0.000 HD 
HETATM    8  C   UNL     1      -6.805   6.654  69.693  1.00  0.00    -0.058 C  
HETATM    9  C   UNL     1      -7.699   8.768  70.557  1.00  0.00    -0.089 C  
HETATM   10  C   UNL     1      -6.737   8.243  71.582  1.00  0.00    -0.067 C  
HETATM   11  O   UNL     1      -7.633  10.181  70.518  1.00  0.00    -0.413 OA 
HETATM   12  O   UNL     1      -5.313   6.367  71.702  1.00  0.00    -0.025 OA 
HETATM   13  H   UNL     1      -7.924  10.583  71.328  1.00  0.00     0.000 HD 
HETATM   14  C   UNL     1      -6.583   6.778  71.234  1.00  0.00    -0.053 C  
BRANCH   8  15
HETATM   15  C   UNL     1      -5.610   6.032  68.902  1.00  0.00    -0.011 C  
BRANCH  15  16
HETATM   16  C   UNL     1      -5.879   4.681  68.264  1.00  0.00    -0.025 C  
HETATM   17  C   UNL     1      -6.625   4.328  67.198  1.00  0.00    -0.046 C  
BRANCH  17  18
HETATM   18  C   UNL     1      -7.458   5.196  66.299  1.00  0.00    -0.087 C  
BRANCH  18  19
HETATM   19  C   UNL     1      -8.945   4.812  66.331  1.00  0.00    -0.113 C  
BRANCH  19  20
HETATM   20  C   UNL     1      -9.425   4.269  67.671  1.00  0.00    -0.217 C  
BRANCH  20  21
HETATM   21  C   UNL     1     -10.280   5.271  68.382  1.00  0.00    -0.137 C  
HETATM   22  O   UNL     1     -11.085   6.036  67.865  1.00  0.00    -0.301 OA 
BRANCH  21  23
HETATM   23  O   UNL     1      -9.907   5.291  69.691  1.00  0.00    -0.167 OA 
BRANCH  23  24
HETATM   24  C   UNL     1     -11.002   5.660  70.503  1.00  0.00    -0.197 C  
BRANCH  24  25
HETATM   25  C   UNL     1     -10.697   6.844  71.395  1.00  0.00    -0.247 C  
BRANCH  25  26
HETATM   26  C   UNL     1     -11.700   7.984  71.233  1.00  0.00    -0.311 C  
BRANCH  26  27
HETATM   27  C   UNL     1     -11.127   9.390  71.457  1.00  0.00    -0.376 C  
BRANCH  27  28
HETATM   28  O   UNL     1     -12.048  10.344  70.975  1.00  0.00    -0.326 OA 
HETATM   29  N   UNL     1     -11.527  11.100  69.897  1.00  0.00    -0.296 N  
HETATM   30  O   UNL     1     -12.306  11.977  69.516  1.00  0.00    -0.154 OA 
HETATM   31  O   UNL     1     -10.409  10.810  69.491  1.00  0.00    -0.215 OA 
ENDBRANCH  27  28
ENDBRANCH  26  27
ENDBRANCH  25  26
ENDBRANCH  24  25
ENDBRANCH  23  24
ENDBRANCH  21  23
ENDBRANCH  20  21
ENDBRANCH  19  20
ENDBRANCH  18  19
ENDBRANCH  17  18
ENDBRANCH  15  16
ENDBRANCH   8  15
ENDBRANCH   5   6
ENDBRANCH   4   5
ENDBRANCH   2   4
BRANCH   2  32
HETATM   32  C   UNL     1      -9.346   9.977  65.015  1.00  0.00    -0.314 C  
BRANCH  32  33
HETATM   33  C   UNL     1      -9.709  11.052  66.033  1.00  0.00    -0.265 C  
BRANCH  33  34
HETATM   34  C   UNL     1     -10.738  11.962  65.447  1.00  0.00    -0.330 A  
HETATM   35  C   UNL     1     -11.835  12.877  63.496  1.00  0.00    -0.605 A  
HETATM   36  C   UNL     1     -12.331  13.748  65.699  1.00  0.00    -0.517 A  
HETATM   37  C   UNL     1     -10.935  11.976  64.058  1.00  0.00    -0.442 A  
HETATM   38  C   UNL     1     -11.434  12.850  66.265  1.00  0.00    -0.395 A  
HETATM   39  C   UNL     1     -12.532  13.762  64.317  1.00  0.00    -0.308 A  
ENDBRANCH  33  34
ENDBRANCH  32  33
ENDBRANCH   2  32
TORSDOF 18
ENDMDL
MODEL      284
REMARK 921   NORMALIZED FREE ENERGY PREDICTED BY IDOCK:   -3.61 KCAL/MOL
REMARK 922        TOTAL FREE ENERGY PREDICTED BY IDOCK:  -12.19 KCAL/MOL
REMARK 923 INTER-LIGAND FREE ENERGY PREDICTED BY IDOCK:  -10.30 KCAL/MOL
REMARK 924 INTRA-LIGAND FREE ENERGY PREDICTED BY IDOCK:   -1.89 KCAL/MOL
REMARK 927      BINDING AFFINITY PREDICTED BY RF-SCORE:    0.00 PKD
ROOT
HETATM    1  O   UNL     1      -9.942  13.457  68.982  1.00  0.00    -0.424 OA 
HETATM    2  C   UNL     1     -11.156  14.099  68.598  1.00  0.00    -0.262 C  
HETATM    3  H   UNL     1      -9.448  14.016  69.570  1.00  0.00     0.000 HD 
ENDROOT
BRANCH   2   4
HETATM    4  C   UNL     1     -11.958  13.192  67.643  1.00  0.00    -0.363 C  
BRANCH   4   5
HETATM    5  C   UNL     1     -11.287  11.858  67.297  1.00  0.00    -0.393 C  
BRANCH   5   6
HETATM    6  C   UNL     1     -11.225  11.495  65.795  1.00  0.00    -0.228 C  
HETATM    7  H   UNL     1      -8.720  10.811  62.723  1.00  0.00     0.000 HD 
HETATM    8  C   UNL     1      -9.801  11.253  65.136  1.00  0.00    -0.298 C  
HETATM    9  C   UNL     1     -11.800  12.665  64.986  1.00  0.00    -0.395 C  
HETATM   10  C   UNL     1     -11.352  12.384  63.582  1.00  0.00    -0.556 C  
HETATM   11  O   UNL     1     -13.214  12.719  65.036  1.00  0.00    -0.768 OA 
HETATM   12  O   UNL     1      -9.622  11.097  62.628  1.00  0.00    -0.304 OA 
HETATM   13  H   UNL     1     -13.570  13.443  64.535  1.00  0.00     0.000 HD 
HETATM   14  C   UNL     1      -9.916  11.929  63.732  1.00  0.00    -0.355 C  
BRANCH   8  15
HETATM   15  C   UNL     1      -9.314   9.769  65.115  1.00  0.00    -0.322 C  
BRANCH  15  16
HETATM   16  C   UNL     1      -7.993   9.503  65.814  1.00  0.00    -0.111 C  
HETATM   17  C   UNL     1      -7.710   9.092  67.066  1.00  0.00    -0.098 C  
BRANCH  17  18
HETATM   18  C   UNL     1      -8.653   8.777  68.192  1.00  0.00    -0.134 C  
BRANCH  18  19
HETATM   19  C   UNL     1      -8.054   7.775  69.192  1.00  0.00    -0.125 C  
BRANCH  19  20
HETATM   20  C   UNL     1      -7.052   6.803  68.583  1.00  0.00    -0.082 C  
BRANCH  20  21
HETATM   21  C   UNL     1      -7.290   5.408  69.071  1.00  0.00    -0.070 C  
HETATM   22  O   UNL     1      -6.445   4.532  69.207  1.00  0.00    -0.034 OA 
BRANCH  21  23
HETATM   23  O   UNL     1      -8.633   5.230  69.202  1.00  0.00    -0.100 OA 
BRANCH  23  24
HETATM   24  C   UNL     1      -8.911   4.451  70.347  1.00  0.00    -0.087 C  
BRANCH  24  25
HETATM   25  C   UNL     1      -9.264   5.290  71.556  1.00  0.00    -0.173 C  
BRANCH  25  26
HETATM   26  C   UNL     1     -10.682   5.853  71.494  1.00  0.00    -0.313 C  
BRANCH  26  27
HETATM   27  C   UNL     1     -10.831   7.294  72.004  1.00  0.00    -0.233 C  
BRANCH  27  28
HETATM   28  O   UNL     1     -11.948   7.889  71.381  1.00  0.00    -0.291 OA 
HETATM   29  N   UNL     1     -11.670   9.191  70.902  1.00  0.00    -0.284 N  
HETATM   30  O   UNL     1     -12.662   9.738  70.415  1.00  0.00    -0.070 OA 
HETATM   31  O   UNL     1     -10.526   9.608  71.029  1.00  0.00    -0.304 OA 
ENDBRANCH  27  28
ENDBRANCH  26  27
ENDBRANCH  25  26
ENDBRANCH  24  25
ENDBRANCH  23  24
ENDBRANCH  21  23
ENDBRANCH  20  21
ENDBRANCH  19  20
ENDBRANCH  18  19
ENDBRANCH  17  18
ENDBRANCH  15  16
ENDBRANCH   8  15
ENDBRANCH   5   6
ENDBRANCH   4   5
ENDBRANCH   2   4
BRANCH   2  32
HETATM   32  C   UNL     1     -10.766  15.408  67.928  1.00  0.00    -0.286 C  
BRANCH  32  33
HETATM   33  C   UNL     1     -10.509  16.510  68.949  1.00  0.00    -0.304 C  
BRANCH  33  34
HETATM   34  C   UNL     1     -10.434  17.827  68.247  1.00  0.00    -0.368 A  
HETATM   35  C   UNL     1     -10.467  19.089  66.186  1.00  0.00    -0.541 A  
HETATM   36  C   UNL     1      -9.954  20.184  68.281  1.00  0.00    -0.452 A  
HETATM   37  C   UNL     1     -10.615  17.879  66.857  1.00  0.00    -0.271 A  
HETATM   38  C   UNL     1     -10.100  18.979  68.957  1.00  0.00    -0.335 A  
HETATM   39  C   UNL     1     -10.137  20.240  66.897  1.00  0.00    -0.565 A  
ENDBRANCH  33  34
ENDBRANCH  32  33
ENDBRANCH   2  32
TORSDOF 18
ENDMDL
MODEL      285
REMARK 921   NORMALIZED FREE ENERGY PREDICTED BY IDOCK:   -3.60 KCAL/MOL
REMARK 922        TOTAL FREE ENERGY PREDICTED BY IDOCK:  -12.18 KCAL/MOL
REMARK 923 INTER-LIGAND FREE ENERGY PREDICTED BY IDOCK:   -9.91 KCAL/MOL
REMARK 924 INTRA-LIGAND FREE ENERGY PREDICTED BY IDOCK:   -2.26 KCAL/MOL
REMARK 927      BINDING AFFINITY PREDICTED BY RF-SCORE:    0.00 PKD
ROOT
HETATM    1  O   UNL     1     -10.066  13.705  68.891  1.00  0.00    -0.387 OA 
HETATM    2  C   UNL     1     -11.157  14.441  68.341  1.00  0.00    -0.255 C  
HETATM    3  H   UNL     1      -9.595  14.238  69.520  1.00  0.00     0.000 HD 
ENDROOT
BRANCH   2   4
HETATM    4  C   UNL     1     -11.921  13.575  67.320  1.00  0.00    -0.408 C  
BRANCH   4   5
HETATM    5  C   UNL     1     -11.481  12.109  67.252  1.00  0.00    -0.413 C  
BRANCH   5   6
HETATM    6  C   UNL     1     -11.372  11.493  65.838  1.00  0.00    -0.174 C  
HETATM    7  H   UNL     1      -8.780  10.091  63.101  1.00  0.00     0.000 HD 
HETATM    8  C   UNL     1      -9.944  11.023  65.328  1.00  0.00    -0.320 C  
HETATM    9  C   UNL     1     -11.788  12.555  64.811  1.00  0.00    -0.383 C  
HETATM   10  C   UNL     1     -11.293  12.003  63.506  1.00  0.00    -0.528 C  
HETATM   11  O   UNL     1     -13.191  12.736  64.753  1.00  0.00    -0.812 OA 
HETATM   12  O   UNL     1      -9.644  10.431  62.898  1.00  0.00    -0.315 OA 
HETATM   13  H   UNL     1     -13.448  13.393  64.117  1.00  0.00     0.000 HD 
HETATM   14  C   UNL     1      -9.917  11.460  63.829  1.00  0.00    -0.341 C  
BRANCH   8  15
HETATM   15  C   UNL     1      -9.600   9.521  65.583  1.00  0.00    -0.346 C  
BRANCH  15  16
HETATM   16  C   UNL     1      -8.632   9.255  66.722  1.00  0.00    -0.134 C  
HETATM   17  C   UNL     1      -8.826   9.130  68.050  1.00  0.00    -0.129 C  
BRANCH  17  18
HETATM   18  C   UNL     1     -10.104   9.236  68.832  1.00  0.00    -0.207 C  
BRANCH  18  19
HETATM   19  C   UNL     1     -10.091   8.359  70.093  1.00  0.00    -0.193 C  
BRANCH  19  20
HETATM   20  C   UNL     1      -9.958   9.135  71.397  1.00  0.00    -0.373 C  
BRANCH  20  21
HETATM   21  C   UNL     1      -8.885   8.553  72.263  1.00  0.00    -0.208 C  
HETATM   22  O   UNL     1      -8.857   8.558  73.488  1.00  0.00    -0.279 OA 
BRANCH  21  23
HETATM   23  O   UNL     1      -7.868   8.142  71.457  1.00  0.00    -0.091 OA 
BRANCH  23  24
HETATM   24  C   UNL     1      -7.287   6.962  71.971  1.00  0.00    -0.087 C  
BRANCH  24  25
HETATM   25  C   UNL     1      -7.948   5.705  71.447  1.00  0.00    -0.113 C  
BRANCH  25  26
HETATM   26  C   UNL     1      -7.643   5.442  69.975  1.00  0.00    -0.069 C  
BRANCH  26  27
HETATM   27  C   UNL     1      -8.824   4.907  69.152  1.00  0.00    -0.092 C  
BRANCH  27  28
HETATM   28  O   UNL     1      -8.621   5.229  67.794  1.00  0.00    -0.105 OA 
HETATM   29  N   UNL     1      -9.794   5.719  67.173  1.00  0.00    -0.134 N  
HETATM   30  O   UNL     1      -9.636   5.940  65.970  1.00  0.00    -0.126 OA 
HETATM   31  O   UNL     1     -10.789   5.855  67.873  1.00  0.00    -0.271 OA 
ENDBRANCH  27  28
ENDBRANCH  26  27
ENDBRANCH  25  26
ENDBRANCH  24  25
ENDBRANCH  23  24
ENDBRANCH  21  23
ENDBRANCH  20  21
ENDBRANCH  19  20
ENDBRANCH  18  19
ENDBRANCH  17  18
ENDBRANCH  15  16
ENDBRANCH   8  15
ENDBRANCH   5   6
ENDBRANCH   4   5
ENDBRANCH   2   4
BRANCH   2  32
HETATM   32  C   UNL     1     -10.562  15.680  67.687  1.00  0.00    -0.294 C  
BRANCH  32  33
HETATM   33  C   UNL     1     -10.555  16.871  68.638  1.00  0.00    -0.360 C  
BRANCH  33  34
HETATM   34  C   UNL     1     -10.206  18.108  67.877  1.00  0.00    -0.391 A  
HETATM   35  C   UNL     1      -9.328  19.140  65.874  1.00  0.00     0.046 A  
HETATM   36  C   UNL     1      -9.865  20.490  67.810  1.00  0.00    -0.431 A  
HETATM   37  C   UNL     1      -9.732  17.999  66.561  1.00  0.00    -0.338 A  
HETATM   38  C   UNL     1     -10.269  19.354  68.500  1.00  0.00    -0.492 A  
HETATM   39  C   UNL     1      -9.395  20.384  66.498  1.00  0.00    -0.360 A  
ENDBRANCH  33  34
ENDBRANCH  32  33
ENDBRANCH   2  32
TORSDOF 18
ENDMDL
MODEL      286
REMARK 921   NORMALIZED FREE ENERGY PREDICTED BY IDOCK:   -3.60 KCAL/MOL
REMARK 922        TOTAL FREE ENERGY PREDICTED BY IDOCK:  -12.18 KCAL/MOL
REMARK 923 INTER-LIGAND FREE ENERGY PREDICTED BY IDOCK:   -9.35 KCAL/MOL
REMARK 924 INTRA-LIGAND FREE ENERGY PREDICTED BY IDOCK:   -2.83 KCAL/MOL
REMARK 927      BINDING AFFINITY PREDICTED BY RF-SCORE:    0.00 PKD
ROOT
HETATM    1  O   UNL     1     -12.018  12.237  62.928  1.00  0.00    -0.626 OA 
HETATM    2  C   UNL     1     -10.693  12.133  63.447  1.00  0.00    -0.409 C  
HETATM    3  H   UNL     1     -12.160  13.104  62.566  1.00  0.00     0.000 HD 
ENDROOT
BRANCH   2   4
HETATM    4  C   UNL     1     -10.462  10.727  64.034  1.00  0.00    -0.287 C  
BRANCH   4   5
HETATM    5  C   UNL     1     -10.410  10.661  65.564  1.00  0.00    -0.297 C  
BRANCH   5   6
HETATM    6  C   UNL     1      -9.055  10.250  66.185  1.00  0.00    -0.181 C  
HETATM    7  H   UNL     1      -5.582  11.672  67.632  1.00  0.00     0.000 HD 
HETATM    8  C   UNL     1      -8.071  11.395  66.677  1.00  0.00    -0.155 C  
HETATM    9  C   UNL     1      -8.237   9.506  65.121  1.00  0.00    -0.133 C  
HETATM   10  C   UNL     1      -6.846   9.495  65.683  1.00  0.00    -0.087 C  
HETATM   11  O   UNL     1      -8.684   8.178  64.920  1.00  0.00    -0.373 OA 
HETATM   12  O   UNL     1      -5.700  10.797  67.280  1.00  0.00    -0.044 OA 
HETATM   13  H   UNL     1      -8.177   7.718  64.261  1.00  0.00     0.000 HD 
HETATM   14  C   UNL     1      -6.658  10.888  66.244  1.00  0.00    -0.126 C  
BRANCH   8  15
HETATM   15  C   UNL     1      -8.198  11.789  68.183  1.00  0.00    -0.153 C  
BRANCH  15  16
HETATM   16  C   UNL     1      -8.087  10.642  69.172  1.00  0.00    -0.143 C  
HETATM   17  C   UNL     1      -9.011  10.027  69.936  1.00  0.00    -0.178 C  
BRANCH  17  18
HETATM   18  C   UNL     1     -10.482  10.312  70.053  1.00  0.00    -0.293 C  
BRANCH  18  19
HETATM   19  C   UNL     1     -11.142   9.516  71.189  1.00  0.00    -0.450 C  
BRANCH  19  20
HETATM   20  C   UNL     1     -10.488   8.170  71.475  1.00  0.00    -0.276 C  
BRANCH  20  21
HETATM   21  C   UNL     1     -11.126   7.080  70.671  1.00  0.00    -0.272 C  
HETATM   22  O   UNL     1     -11.807   6.160  71.106  1.00  0.00    -0.244 OA 
BRANCH  21  23
HETATM   23  O   UNL     1     -10.700   7.201  69.384  1.00  0.00    -0.231 OA 
BRANCH  23  24
HETATM   24  C   UNL     1     -11.135   6.095  68.622  1.00  0.00    -0.294 C  
BRANCH  24  25
HETATM   25  C   UNL     1     -10.890   6.271  67.139  1.00  0.00    -0.460 C  
BRANCH  25  26
HETATM   26  C   UNL     1     -10.411   4.990  66.459  1.00  0.00    -0.325 C  
BRANCH  26  27
HETATM   27  C   UNL     1      -9.471   4.118  67.304  1.00  0.00    -0.189 C  
BRANCH  27  28
HETATM   28  O   UNL     1      -9.372   2.842  66.713  1.00  0.00    -0.137 OA 
HETATM   29  N   UNL     1      -8.110   2.622  66.111  1.00  0.00    -0.082 N  
HETATM   30  O   UNL     1      -8.044   1.532  65.537  1.00  0.00    -0.071 OA 
HETATM   31  O   UNL     1      -7.270   3.506  66.220  1.00  0.00    -0.065 OA 
ENDBRANCH  27  28
ENDBRANCH  26  27
ENDBRANCH  25  26
ENDBRANCH  24  25
ENDBRANCH  23  24
ENDBRANCH  21  23
ENDBRANCH  20  21
ENDBRANCH  19  20
ENDBRANCH  18  19
ENDBRANCH  17  18
ENDBRANCH  15  16
ENDBRANCH   8  15
ENDBRANCH   5   6
ENDBRANCH   4   5
ENDBRANCH   2   4
BRANCH   2  32
HETATM   32  C   UNL     1     -10.554  13.212  64.511  1.00  0.00    -0.425 C  
BRANCH  32  33
HETATM   33  C   UNL     1     -11.880  13.487  65.213  1.00  0.00    -0.373 C  
BRANCH  33  34
HETATM   34  C   UNL     1     -11.616  13.895  66.625  1.00  0.00    -0.392 A  
HETATM   35  C   UNL     1     -10.555  15.401  68.191  1.00  0.00    -0.263 A  
HETATM   36  C   UNL     1     -11.708  13.427  68.984  1.00  0.00    -0.368 A  
HETATM   37  C   UNL     1     -10.874  15.058  66.880  1.00  0.00    -0.315 A  
HETATM   38  C   UNL     1     -12.029  13.079  67.678  1.00  0.00    -0.353 A  
HETATM   39  C   UNL     1     -10.972  14.586  69.241  1.00  0.00    -0.282 A  
ENDBRANCH  33  34
ENDBRANCH  32  33
ENDBRANCH   2  32
TORSDOF 18
ENDMDL
MODEL      287
REMARK 921   NORMALIZED FREE ENERGY PREDICTED BY IDOCK:   -3.60 KCAL/MOL
REMARK 922        TOTAL FREE ENERGY PREDICTED BY IDOCK:  -12.17 KCAL/MOL
REMARK 923 INTER-LIGAND FREE ENERGY PREDICTED BY IDOCK:   -8.67 KCAL/MOL
REMARK 924 INTRA-LIGAND FREE ENERGY PREDICTED BY IDOCK:   -3.50 KCAL/MOL
REMARK 927      BINDING AFFINITY PREDICTED BY RF-SCORE:    0.00 PKD
ROOT
HETATM    1  O   UNL     1     -11.523   6.687  68.660  1.00  0.00    -0.576 OA 
HETATM    2  C   UNL     1     -10.453   6.840  67.729  1.00  0.00    -0.222 C  
HETATM    3  H   UNL     1     -11.449   5.853  69.110  1.00  0.00     0.000 HD 
ENDROOT
BRANCH   2   4
HETATM    4  C   UNL     1     -10.573   8.192  66.999  1.00  0.00    -0.346 C  
BRANCH   4   5
HETATM    5  C   UNL     1     -10.797   9.405  67.909  1.00  0.00    -0.215 C  
BRANCH   5   6
HETATM    6  C   UNL     1      -9.541   9.975  68.609  1.00  0.00    -0.158 C  
HETATM    7  H   UNL     1      -5.526  10.140  68.442  1.00  0.00     0.000 HD 
HETATM    8  C   UNL     1      -8.127   9.743  67.927  1.00  0.00    -0.112 C  
HETATM    9  C   UNL     1      -9.396   9.296  69.977  1.00  0.00    -0.209 C  
HETATM   10  C   UNL     1      -7.990   9.622  70.390  1.00  0.00    -0.191 C  
HETATM   11  O   UNL     1     -10.306   9.803  70.936  1.00  0.00    -0.286 OA 
HETATM   12  O   UNL     1      -6.037  10.260  69.234  1.00  0.00    -0.037 OA 
HETATM   13  H   UNL     1     -10.215   9.383  71.783  1.00  0.00     0.000 HD 
HETATM   14  C   UNL     1      -7.177   9.431  69.127  1.00  0.00    -0.066 C  
BRANCH   8  15
HETATM   15  C   UNL     1      -7.640  10.887  66.981  1.00  0.00    -0.122 C  
BRANCH  15  16
HETATM   16  C   UNL     1      -7.131  10.442  65.622  1.00  0.00    -0.142 C  
HETATM   17  C   UNL     1      -7.781  10.085  64.496  1.00  0.00    -0.145 C  
BRANCH  17  18
HETATM   18  C   UNL     1      -9.260  10.004  64.245  1.00  0.00    -0.318 C  
BRANCH  18  19
HETATM   19  C   UNL     1      -9.953  11.367  64.395  1.00  0.00    -0.321 C  
BRANCH  19  20
HETATM   20  C   UNL     1     -10.868  11.737  63.235  1.00  0.00    -0.400 C  
BRANCH  20  21
HETATM   21  C   UNL     1     -12.122  12.391  63.726  1.00  0.00    -0.529 C  
HETATM   22  O   UNL     1     -13.269  12.030  63.493  1.00  0.00    -0.724 OA 
BRANCH  21  23
HETATM   23  O   UNL     1     -11.776  13.544  64.360  1.00  0.00    -0.374 OA 
BRANCH  23  24
HETATM   24  C   UNL     1     -12.447  13.638  65.600  1.00  0.00    -0.496 C  
BRANCH  24  25
HETATM   25  C   UNL     1     -11.569  14.193  66.701  1.00  0.00    -0.399 C  
BRANCH  25  26
HETATM   26  C   UNL     1     -10.110  14.347  66.278  1.00  0.00    -0.308 C  
BRANCH  26  27
HETATM   27  C   UNL     1      -9.382  15.555  66.885  1.00  0.00    -0.233 C  
BRANCH  27  28
HETATM   28  O   UNL     1     -10.320  16.368  67.555  1.00  0.00    -0.275 OA 
HETATM   29  N   UNL     1     -10.258  16.218  68.961  1.00  0.00    -0.244 N  
HETATM   30  O   UNL     1     -11.120  16.878  69.546  1.00  0.00    -0.174 OA 
HETATM   31  O   UNL     1      -9.397  15.474  69.413  1.00  0.00    -0.254 OA 
ENDBRANCH  27  28
ENDBRANCH  26  27
ENDBRANCH  25  26
ENDBRANCH  24  25
ENDBRANCH  23  24
ENDBRANCH  21  23
ENDBRANCH  20  21
ENDBRANCH  19  20
ENDBRANCH  18  19
ENDBRANCH  17  18
ENDBRANCH  15  16
ENDBRANCH   8  15
ENDBRANCH   5   6
ENDBRANCH   4   5
ENDBRANCH   2   4
BRANCH   2  32
HETATM   32  C   UNL     1     -10.547   5.672  66.758  1.00  0.00    -0.372 C  
BRANCH  32  33
HETATM   33  C   UNL     1      -9.395   5.673  65.760  1.00  0.00    -0.078 C  
BRANCH  33  34
HETATM   34  C   UNL     1      -8.098   5.678  66.502  1.00  0.00    -0.105 A  
HETATM   35  C   UNL     1      -5.931   6.674  66.894  1.00  0.00    -0.021 A  
HETATM   36  C   UNL     1      -6.535   4.595  67.976  1.00  0.00    -0.041 A  
HETATM   37  C   UNL     1      -7.173   6.706  66.268  1.00  0.00    -0.072 A  
HETATM   38  C   UNL     1      -7.776   4.622  67.354  1.00  0.00    -0.090 A  
HETATM   39  C   UNL     1      -5.612   5.619  67.747  1.00  0.00    -0.012 A  
ENDBRANCH  33  34
ENDBRANCH  32  33
ENDBRANCH   2  32
TORSDOF 18
ENDMDL
MODEL      288
REMARK 921   NORMALIZED FREE ENERGY PREDICTED BY IDOCK:   -3.60 KCAL/MOL
REMARK 922        TOTAL FREE ENERGY PREDICTED BY IDOCK:  -12.16 KCAL/MOL
REMARK 923 INTER-LIGAND FREE ENERGY PREDICTED BY IDOCK:  -10.02 KCAL/MOL
REMARK 924 INTRA-LIGAND FREE ENERGY PREDICTED BY IDOCK:   -2.14 KCAL/MOL
REMARK 927      BINDING AFFINITY PREDICTED BY RF-SCORE:    0.00 PKD
ROOT
HETATM    1  O   UNL     1     -11.728  14.091  70.699  1.00  0.00    -0.464 OA 
HETATM    2  C   UNL     1     -11.819  14.580  69.363  1.00  0.00    -0.325 C  
HETATM    3  H   UNL     1     -11.748  14.815  71.315  1.00  0.00     0.000 HD 
ENDROOT
BRANCH   2   4
HETATM    4  C   UNL     1     -11.786  13.406  68.364  1.00  0.00    -0.390 C  
BRANCH   4   5
HETATM    5  C   UNL     1     -10.948  13.647  67.104  1.00  0.00    -0.299 C  
BRANCH   5   6
HETATM    6  C   UNL     1     -11.192  12.676  65.926  1.00  0.00    -0.350 C  
HETATM    7  H   UNL     1      -9.362  10.515  63.069  1.00  0.00     0.000 HD 
HETATM    8  C   UNL     1      -9.932  12.042  65.198  1.00  0.00    -0.265 C  
HETATM    9  C   UNL     1     -11.908  13.440  64.804  1.00  0.00    -0.380 C  
HETATM   10  C   UNL     1     -11.753  12.547  63.608  1.00  0.00    -0.594 C  
HETATM   11  O   UNL     1     -13.282  13.645  65.075  1.00  0.00    -0.729 OA 
HETATM   12  O   UNL     1     -10.262  10.818  63.021  1.00  0.00    -0.265 OA 
HETATM   13  H   UNL     1     -13.725  14.117  64.381  1.00  0.00     0.000 HD 
HETATM   14  C   UNL     1     -10.320  12.065  63.685  1.00  0.00    -0.450 C  
BRANCH   8  15
HETATM   15  C   UNL     1      -9.472  10.651  65.739  1.00  0.00    -0.244 C  
BRANCH  15  16
HETATM   16  C   UNL     1     -10.106  10.215  67.048  1.00  0.00    -0.277 C  
HETATM   17  C   UNL     1     -10.555   9.015  67.469  1.00  0.00    -0.306 C  
BRANCH  17  18
HETATM   18  C   UNL     1     -10.575   7.704  66.736  1.00  0.00    -0.256 C  
BRANCH  18  19
HETATM   19  C   UNL     1      -9.368   6.821  67.087  1.00  0.00    -0.154 C  
BRANCH  19  20
HETATM   20  C   UNL     1      -8.750   6.100  65.895  1.00  0.00    -0.158 C  
BRANCH  20  21
HETATM   21  C   UNL     1      -9.221   4.681  65.822  1.00  0.00    -0.147 C  
HETATM   22  O   UNL     1     -10.375   4.306  65.660  1.00  0.00    -0.235 OA 
BRANCH  21  23
HETATM   23  O   UNL     1      -8.166   3.871  66.110  1.00  0.00    -0.100 OA 
BRANCH  23  24
HETATM   24  C   UNL     1      -8.626   2.603  66.529  1.00  0.00    -0.112 C  
BRANCH  24  25
HETATM   25  C   UNL     1      -7.844   2.053  67.702  1.00  0.00    -0.060 C  
BRANCH  25  26
HETATM   26  C   UNL     1      -7.886   2.966  68.925  1.00  0.00    -0.051 C  
BRANCH  26  27
HETATM   27  C   UNL     1      -9.242   3.027  69.643  1.00  0.00    -0.149 C  
BRANCH  27  28
HETATM   28  O   UNL     1      -9.846   4.275  69.381  1.00  0.00    -0.202 OA 
HETATM   29  N   UNL     1     -10.348   4.889  70.552  1.00  0.00    -0.216 N  
HETATM   30  O   UNL     1     -10.933   5.949  70.317  1.00  0.00    -0.312 OA 
HETATM   31  O   UNL     1     -10.157   4.316  71.617  1.00  0.00    -0.186 OA 
ENDBRANCH  27  28
ENDBRANCH  26  27
ENDBRANCH  25  26
ENDBRANCH  24  25
ENDBRANCH  23  24
ENDBRANCH  21  23
ENDBRANCH  20  21
ENDBRANCH  19  20
ENDBRANCH  18  19
ENDBRANCH  17  18
ENDBRANCH  15  16
ENDBRANCH   8  15
ENDBRANCH   5   6
ENDBRANCH   4   5
ENDBRANCH   2   4
BRANCH   2  32
HETATM   32  C   UNL     1     -10.639  15.520  69.159  1.00  0.00    -0.234 C  
BRANCH  32  33
HETATM   33  C   UNL     1     -11.093  16.909  68.726  1.00  0.00    -0.160 C  
BRANCH  33  34
HETATM   34  C   UNL     1      -9.899  17.722  68.344  1.00  0.00    -0.347 A  
HETATM   35  C   UNL     1      -7.505  17.890  68.054  1.00  0.00    -0.233 A  
HETATM   36  C   UNL     1      -8.906  19.849  67.815  1.00  0.00    -0.390 A  
HETATM   37  C   UNL     1      -8.631  17.121  68.330  1.00  0.00    -0.241 A  
HETATM   38  C   UNL     1     -10.034  19.086  68.089  1.00  0.00    -0.449 A  
HETATM   39  C   UNL     1      -7.643  19.253  67.797  1.00  0.00    -0.292 A  
ENDBRANCH  33  34
ENDBRANCH  32  33
ENDBRANCH   2  32
TORSDOF 18
ENDMDL
MODEL      289
REMARK 921   NORMALIZED FREE ENERGY PREDICTED BY IDOCK:   -3.59 KCAL/MOL
REMARK 922        TOTAL FREE ENERGY PREDICTED BY IDOCK:  -12.16 KCAL/MOL
REMARK 923 INTER-LIGAND FREE ENERGY PREDICTED BY IDOCK:   -9.77 KCAL/MOL
REMARK 924 INTRA-LIGAND FREE ENERGY PREDICTED BY IDOCK:   -2.39 KCAL/MOL
REMARK 927      BINDING AFFINITY PREDICTED BY RF-SCORE:    0.00 PKD
ROOT
HETATM    1  O   UNL     1      -7.311   9.210  66.613  1.00  0.00    -0.085 OA 
HETATM    2  C   UNL     1      -8.535   8.536  66.325  1.00  0.00    -0.124 C  
HETATM    3  H   UNL     1      -7.366   9.644  67.457  1.00  0.00     0.000 HD 
ENDROOT
BRANCH   2   4
HETATM    4  C   UNL     1      -8.445   7.833  64.957  1.00  0.00    -0.052 C  
BRANCH   4   5
HETATM    5  C   UNL     1      -7.830   6.430  64.985  1.00  0.00    -0.112 C  
BRANCH   5   6
HETATM    6  C   UNL     1      -8.748   5.292  65.488  1.00  0.00    -0.149 C  
HETATM    7  H   UNL     1      -9.054   2.318  68.179  1.00  0.00     0.000 HD 
HETATM    8  C   UNL     1      -8.295   4.466  66.766  1.00  0.00    -0.105 C  
HETATM    9  C   UNL     1      -8.851   4.226  64.389  1.00  0.00    -0.144 C  
HETATM   10  C   UNL     1      -9.424   3.034  65.099  1.00  0.00    -0.103 C  
HETATM   11  O   UNL     1      -9.710   4.613  63.334  1.00  0.00    -0.353 OA 
HETATM   12  O   UNL     1      -9.521   2.345  67.352  1.00  0.00    -0.130 OA 
HETATM   13  H   UNL     1      -9.773   3.954  62.653  1.00  0.00     0.000 HD 
HETATM   14  C   UNL     1      -8.680   2.992  66.418  1.00  0.00    -0.133 C  
BRANCH   8  15
HETATM   15  C   UNL     1      -8.845   4.985  68.133  1.00  0.00    -0.110 C  
BRANCH  15  16
HETATM   16  C   UNL     1      -8.067   6.128  68.760  1.00  0.00    -0.105 C  
HETATM   17  C   UNL     1      -8.338   6.922  69.815  1.00  0.00    -0.132 C  
BRANCH  17  18
HETATM   18  C   UNL     1      -9.544   6.924  70.710  1.00  0.00    -0.167 C  
BRANCH  18  19
HETATM   19  C   UNL     1     -10.776   7.540  70.028  1.00  0.00    -0.248 C  
BRANCH  19  20
HETATM   20  C   UNL     1     -11.279   8.822  70.680  1.00  0.00    -0.294 C  
BRANCH  20  21
HETATM   21  C   UNL     1     -10.855  10.025  69.897  1.00  0.00    -0.285 C  
HETATM   22  O   UNL     1      -9.704  10.349  69.630  1.00  0.00    -0.205 OA 
BRANCH  21  23
HETATM   23  O   UNL     1     -11.960  10.782  69.654  1.00  0.00    -0.300 OA 
BRANCH  23  24
HETATM   24  C   UNL     1     -12.619  11.085  70.866  1.00  0.00    -0.391 C  
BRANCH  24  25
HETATM   25  C   UNL     1     -12.630  12.566  71.174  1.00  0.00    -0.349 C  
BRANCH  25  26
HETATM   26  C   UNL     1     -13.741  12.964  72.143  1.00  0.00    -0.505 C  
BRANCH  26  27
HETATM   27  C   UNL     1     -14.179  14.433  72.061  1.00  0.00    -0.552 C  
BRANCH  27  28
HETATM   28  O   UNL     1     -13.089  15.214  71.621  1.00  0.00    -0.330 OA 
HETATM   29  N   UNL     1     -12.533  15.999  72.659  1.00  0.00    -0.462 N  
HETATM   30  O   UNL     1     -11.623  16.730  72.263  1.00  0.00    -0.329 OA 
HETATM   31  O   UNL     1     -13.008  15.871  73.781  1.00  0.00    -0.539 OA 
ENDBRANCH  27  28
ENDBRANCH  26  27
ENDBRANCH  25  26
ENDBRANCH  24  25
ENDBRANCH  23  24
ENDBRANCH  21  23
ENDBRANCH  20  21
ENDBRANCH  19  20
ENDBRANCH  18  19
ENDBRANCH  17  18
ENDBRANCH  15  16
ENDBRANCH   8  15
ENDBRANCH   5   6
ENDBRANCH   4   5
ENDBRANCH   2   4
BRANCH   2  32
HETATM   32  C   UNL     1      -9.630   9.593  66.339  1.00  0.00    -0.268 C  
BRANCH  32  33
HETATM   33  C   UNL     1      -9.495  10.561  65.170  1.00  0.00    -0.285 C  
BRANCH  33  34
HETATM   34  C   UNL     1     -10.506  11.651  65.311  1.00  0.00    -0.323 A  
HETATM   35  C   UNL     1     -11.943  13.301  64.282  1.00  0.00    -0.477 A  
HETATM   36  C   UNL     1     -11.713  13.212  66.689  1.00  0.00    -0.427 A  
HETATM   37  C   UNL     1     -11.060  12.231  64.160  1.00  0.00    -0.423 A  
HETATM   38  C   UNL     1     -10.831  12.144  66.574  1.00  0.00    -0.307 A  
HETATM   39  C   UNL     1     -12.268  13.790  65.545  1.00  0.00    -0.470 A  
ENDBRANCH  33  34
ENDBRANCH  32  33
ENDBRANCH   2  32
TORSDOF 18
ENDMDL
MODEL      290
REMARK 921   NORMALIZED FREE ENERGY PREDICTED BY IDOCK:   -3.58 KCAL/MOL
REMARK 922        TOTAL FREE ENERGY PREDICTED BY IDOCK:  -12.14 KCAL/MOL
REMARK 923 INTER-LIGAND FREE ENERGY PREDICTED BY IDOCK:  -10.54 KCAL/MOL
REMARK 924 INTRA-LIGAND FREE ENERGY PREDICTED BY IDOCK:   -1.60 KCAL/MOL
REMARK 927      BINDING AFFINITY PREDICTED BY RF-SCORE:    0.00 PKD
ROOT
HETATM    1  O   UNL     1     -12.488   7.986  72.453  1.00  0.00    -0.483 OA 
HETATM    2  C   UNL     1     -11.100   8.269  72.625  1.00  0.00    -0.330 C  
HETATM    3  H   UNL     1     -12.927   7.976  73.296  1.00  0.00     0.000 HD 
ENDROOT
BRANCH   2   4
HETATM    4  C   UNL     1     -10.388   8.284  71.258  1.00  0.00    -0.256 C  
BRANCH   4   5
HETATM    5  C   UNL     1     -11.269   8.684  70.070  1.00  0.00    -0.098 C  
BRANCH   5   6
HETATM    6  C   UNL     1     -10.871   9.984  69.332  1.00  0.00    -0.270 C  
HETATM    7  H   UNL     1     -12.290  13.455  67.878  1.00  0.00     0.000 HD 
HETATM    8  C   UNL     1     -11.977  11.104  69.128  1.00  0.00    -0.413 C  
HETATM    9  C   UNL     1     -10.457   9.623  67.899  1.00  0.00    -0.246 C  
HETATM   10  C   UNL     1     -10.464  10.942  67.182  1.00  0.00    -0.281 C  
HETATM   11  O   UNL     1      -9.165   9.050  67.834  1.00  0.00    -0.140 OA 
HETATM   12  O   UNL     1     -11.503  13.023  67.566  1.00  0.00    -0.289 OA 
HETATM   13  H   UNL     1      -8.908   8.827  66.947  1.00  0.00     0.000 HD 
HETATM   14  C   UNL     1     -11.717  11.630  67.680  1.00  0.00    -0.228 C  
BRANCH   8  15
HETATM   15  C   UNL     1     -12.026  12.209  70.231  1.00  0.00    -0.389 C  
BRANCH  15  16
HETATM   16  C   UNL     1     -12.951  11.926  71.401  1.00  0.00    -0.385 C  
HETATM   17  C   UNL     1     -13.600  12.749  72.249  1.00  0.00    -0.563 C  
BRANCH  17  18
HETATM   18  C   UNL     1     -13.590  14.250  72.301  1.00  0.00    -0.573 C  
BRANCH  18  19
HETATM   19  C   UNL     1     -12.208  14.812  72.669  1.00  0.00    -0.338 C  
BRANCH  19  20
HETATM   20  C   UNL     1     -11.865  16.131  71.990  1.00  0.00    -0.615 C  
BRANCH  20  21
HETATM   21  C   UNL     1     -11.647  15.939  70.521  1.00  0.00    -0.381 C  
HETATM   22  O   UNL     1     -12.481  15.561  69.707  1.00  0.00    -0.303 OA 
BRANCH  21  23
HETATM   23  O   UNL     1     -10.323  16.116  70.263  1.00  0.00    -0.143 OA 
BRANCH  23  24
HETATM   24  C   UNL     1     -10.135  16.485  68.913  1.00  0.00    -0.266 C  
BRANCH  24  25
HETATM   25  C   UNL     1     -10.568  17.906  68.627  1.00  0.00    -0.158 C  
BRANCH  25  26
HETATM   26  C   UNL     1      -9.393  18.848  68.380  1.00  0.00    -0.396 C  
BRANCH  26  27
HETATM   27  C   UNL     1      -8.465  18.441  67.226  1.00  0.00    -0.254 C  
BRANCH  27  28
HETATM   28  O   UNL     1      -7.282  19.205  67.296  1.00  0.00    -0.215 OA 
HETATM   29  N   UNL     1      -6.414  18.958  66.206  1.00  0.00    -0.190 N  
HETATM   30  O   UNL     1      -5.351  19.577  66.298  1.00  0.00    -0.158 OA 
HETATM   31  O   UNL     1      -6.801  18.185  65.339  1.00  0.00    -0.482 OA 
ENDBRANCH  27  28
ENDBRANCH  26  27
ENDBRANCH  25  26
ENDBRANCH  24  25
ENDBRANCH  23  24
ENDBRANCH  21  23
ENDBRANCH  20  21
ENDBRANCH  19  20
ENDBRANCH  18  19
ENDBRANCH  17  18
ENDBRANCH  15  16
ENDBRANCH   8  15
ENDBRANCH   5   6
ENDBRANCH   4   5
ENDBRANCH   2   4
BRANCH   2  32
HETATM   32  C   UNL     1     -10.542   7.183  73.533  1.00  0.00    -0.416 C  
BRANCH  32  33
HETATM   33  C   UNL     1      -9.554   6.285  72.797  1.00  0.00    -0.155 C  
BRANCH  33  34
HETATM   34  C   UNL     1      -9.789   4.864  73.193  1.00  0.00    -0.173 A  
HETATM   35  C   UNL     1     -11.335   3.073  73.691  1.00  0.00    -0.242 A  
HETATM   36  C   UNL     1      -8.959   2.767  74.032  1.00  0.00    -0.079 A  
HETATM   37  C   UNL     1     -11.101   4.371  73.246  1.00  0.00    -0.368 A  
HETATM   38  C   UNL     1      -8.720   4.062  73.589  1.00  0.00    -0.094 A  
HETATM   39  C   UNL     1     -10.264   2.272  74.084  1.00  0.00    -0.172 A  
ENDBRANCH  33  34
ENDBRANCH  32  33
ENDBRANCH   2  32
TORSDOF 18
ENDMDL
MODEL      291
REMARK 921   NORMALIZED FREE ENERGY PREDICTED BY IDOCK:   -3.58 KCAL/MOL
REMARK 922        TOTAL FREE ENERGY PREDICTED BY IDOCK:  -12.14 KCAL/MOL
REMARK 923 INTER-LIGAND FREE ENERGY PREDICTED BY IDOCK:   -9.93 KCAL/MOL
REMARK 924 INTRA-LIGAND FREE ENERGY PREDICTED BY IDOCK:   -2.21 KCAL/MOL
REMARK 927      BINDING AFFINITY PREDICTED BY RF-SCORE:    0.00 PKD
ROOT
HETATM    1  O   UNL     1      -7.839  15.172  67.612  1.00  0.00    -0.133 OA 
HETATM    2  C   UNL     1      -8.456  14.323  68.578  1.00  0.00    -0.164 C  
HETATM    3  H   UNL     1      -7.258  15.789  68.042  1.00  0.00     0.000 HD 
ENDROOT
BRANCH   2   4
HETATM    4  C   UNL     1      -9.398  13.322  67.882  1.00  0.00    -0.214 C  
BRANCH   4   5
HETATM    5  C   UNL     1      -9.642  13.586  66.392  1.00  0.00    -0.268 C  
BRANCH   5   6
HETATM    6  C   UNL     1     -10.910  12.943  65.783  1.00  0.00    -0.292 C  
HETATM    7  H   UNL     1     -12.481  11.442  62.399  1.00  0.00     0.000 HD 
HETATM    8  C   UNL     1     -10.851  12.437  64.280  1.00  0.00    -0.395 C  
HETATM    9  C   UNL     1     -12.029  13.992  65.766  1.00  0.00    -0.404 C  
HETATM   10  C   UNL     1     -13.053  13.408  64.837  1.00  0.00    -0.009 C  
HETATM   11  O   UNL     1     -12.603  14.198  67.043  1.00  0.00    -0.539 OA 
HETATM   12  O   UNL     1     -12.992  11.795  63.119  1.00  0.00    -0.576 OA 
HETATM   13  H   UNL     1     -13.295  14.848  67.032  1.00  0.00     0.000 HD 
HETATM   14  C   UNL     1     -12.239  12.846  63.691  1.00  0.00    -0.499 C  
BRANCH   8  15
HETATM   15  C   UNL     1     -10.471  10.934  64.090  1.00  0.00    -0.397 C  
BRANCH  15  16
HETATM   16  C   UNL     1      -9.461  10.647  62.994  1.00  0.00    -0.363 C  
HETATM   17  C   UNL     1      -8.155  10.316  63.044  1.00  0.00    -0.157 C  
BRANCH  17  18
HETATM   18  C   UNL     1      -7.272  10.139  64.246  1.00  0.00    -0.108 C  
BRANCH  18  19
HETATM   19  C   UNL     1      -7.116   8.663  64.644  1.00  0.00    -0.081 C  
BRANCH  19  20
HETATM   20  C   UNL     1      -8.318   8.080  65.377  1.00  0.00    -0.161 C  
BRANCH  20  21
HETATM   21  C   UNL     1      -8.144   6.612  65.612  1.00  0.00    -0.125 C  
HETATM   22  O   UNL     1      -7.834   5.774  64.774  1.00  0.00    -0.100 OA 
BRANCH  21  23
HETATM   23  O   UNL     1      -8.530   6.340  66.889  1.00  0.00    -0.109 OA 
BRANCH  23  24
HETATM   24  C   UNL     1      -9.385   5.216  66.909  1.00  0.00    -0.128 C  
BRANCH  24  25
HETATM   25  C   UNL     1     -10.847   5.593  67.016  1.00  0.00    -0.265 C  
BRANCH  25  26
HETATM   26  C   UNL     1     -11.137   6.525  68.190  1.00  0.00    -0.332 C  
BRANCH  26  27
HETATM   27  C   UNL     1     -10.897   8.016  67.911  1.00  0.00     0.026 C  
BRANCH  27  28
HETATM   28  O   UNL     1     -10.605   8.670  69.126  1.00  0.00    -0.224 OA 
HETATM   29  N   UNL     1     -11.006  10.027  69.119  1.00  0.00    -0.228 N  
HETATM   30  O   UNL     1     -10.693  10.617  70.156  1.00  0.00    -0.238 OA 
HETATM   31  O   UNL     1     -11.585  10.440  68.123  1.00  0.00    -0.355 OA 
ENDBRANCH  27  28
ENDBRANCH  26  27
ENDBRANCH  25  26
ENDBRANCH  24  25
ENDBRANCH  23  24
ENDBRANCH  21  23
ENDBRANCH  20  21
ENDBRANCH  19  20
ENDBRANCH  18  19
ENDBRANCH  17  18
ENDBRANCH  15  16
ENDBRANCH   8  15
ENDBRANCH   5   6
ENDBRANCH   4   5
ENDBRANCH   2   4
BRANCH   2  32
HETATM   32  C   UNL     1      -9.215  15.230  69.536  1.00  0.00    -0.196 C  
BRANCH  32  33
HETATM   33  C   UNL     1     -10.676  15.385  69.128  1.00  0.00    -0.246 C  
BRANCH  33  34
HETATM   34  C   UNL     1     -11.553  14.964  70.261  1.00  0.00    -0.332 A  
HETATM   35  C   UNL     1     -12.425  15.372  72.479  1.00  0.00    -0.466 A  
HETATM   36  C   UNL     1     -12.924  13.300  71.332  1.00  0.00    -0.398 A  
HETATM   37  C   UNL     1     -11.674  15.794  71.386  1.00  0.00    -0.508 A  
HETATM   38  C   UNL     1     -12.176  13.717  70.237  1.00  0.00    -0.423 A  
HETATM   39  C   UNL     1     -13.048  14.126  72.452  1.00  0.00    -0.525 A  
ENDBRANCH  33  34
ENDBRANCH  32  33
ENDBRANCH   2  32
TORSDOF 18
ENDMDL
MODEL      292
REMARK 921   NORMALIZED FREE ENERGY PREDICTED BY IDOCK:   -3.58 KCAL/MOL
REMARK 922        TOTAL FREE ENERGY PREDICTED BY IDOCK:  -12.13 KCAL/MOL
REMARK 923 INTER-LIGAND FREE ENERGY PREDICTED BY IDOCK:   -9.05 KCAL/MOL
REMARK 924 INTRA-LIGAND FREE ENERGY PREDICTED BY IDOCK:   -3.08 KCAL/MOL
REMARK 927      BINDING AFFINITY PREDICTED BY RF-SCORE:    0.00 PKD
ROOT
HETATM    1  O   UNL     1      -7.664   9.083  70.344  1.00  0.00    -0.080 OA 
HETATM    2  C   UNL     1      -8.986   8.585  70.151  1.00  0.00    -0.147 C  
HETATM    3  H   UNL     1      -7.026   8.419  70.110  1.00  0.00     0.000 HD 
ENDROOT
BRANCH   2   4
HETATM    4  C   UNL     1     -10.021   9.663  70.530  1.00  0.00    -0.318 C  
BRANCH   4   5
HETATM    5  C   UNL     1     -10.939  10.114  69.389  1.00  0.00    -0.285 C  
BRANCH   5   6
HETATM    6  C   UNL     1     -12.018  11.159  69.753  1.00  0.00    -0.428 C  
HETATM    7  H   UNL     1     -12.597  15.005  70.777  1.00  0.00     0.000 HD 
HETATM    8  C   UNL     1     -11.567  12.665  69.973  1.00  0.00    -0.199 C  
HETATM    9  C   UNL     1     -12.638  10.770  71.102  1.00  0.00    -0.428 C  
HETATM   10  C   UNL     1     -13.367  12.009  71.531  1.00  0.00    -0.123 C  
HETATM   11  O   UNL     1     -13.549   9.692  70.992  1.00  0.00    -0.532 OA 
HETATM   12  O   UNL     1     -13.196  14.297  70.987  1.00  0.00    -0.350 OA 
HETATM   13  H   UNL     1     -13.933   9.451  71.827  1.00  0.00     0.000 HD 
HETATM   14  C   UNL     1     -12.414  13.137  71.197  1.00  0.00    -0.287 C  
BRANCH   8  15
HETATM   15  C   UNL     1     -11.658  13.585  68.713  1.00  0.00    -0.362 C  
BRANCH  15  16
HETATM   16  C   UNL     1     -12.086  12.897  67.429  1.00  0.00    -0.258 C  
HETATM   17  C   UNL     1     -11.398  12.570  66.317  1.00  0.00    -0.386 C  
BRANCH  17  18
HETATM   18  C   UNL     1      -9.950  12.810  65.998  1.00  0.00    -0.277 C  
BRANCH  18  19
HETATM   19  C   UNL     1      -9.130  11.511  65.995  1.00  0.00    -0.206 C  
BRANCH  19  20
HETATM   20  C   UNL     1      -8.337  11.266  67.272  1.00  0.00    -0.145 C  
BRANCH  20  21
HETATM   21  C   UNL     1      -6.913  11.700  67.112  1.00  0.00    -0.144 C  
HETATM   22  O   UNL     1      -6.103  11.253  66.309  1.00  0.00    -0.141 OA 
BRANCH  21  23
HETATM   23  O   UNL     1      -6.624  12.578  68.111  1.00  0.00    -0.064 OA 
BRANCH  23  24
HETATM   24  C   UNL     1      -6.165  13.798  67.569  1.00  0.00    -0.014 C  
BRANCH  24  25
HETATM   25  C   UNL     1      -6.736  15.007  68.277  1.00  0.00    -0.116 C  
BRANCH  25  26
HETATM   26  C   UNL     1      -8.222  14.862  68.596  1.00  0.00    -0.157 C  
BRANCH  26  27
HETATM   27  C   UNL     1      -8.914  16.149  69.068  1.00  0.00    -0.247 C  
BRANCH  27  28
HETATM   28  O   UNL     1      -9.773  16.610  68.048  1.00  0.00    -0.234 OA 
HETATM   29  N   UNL     1      -9.755  18.019  67.923  1.00  0.00    -0.287 N  
HETATM   30  O   UNL     1     -10.554  18.429  67.077  1.00  0.00    -0.395 OA 
HETATM   31  O   UNL     1      -8.988  18.642  68.645  1.00  0.00    -0.324 OA 
ENDBRANCH  27  28
ENDBRANCH  26  27
ENDBRANCH  25  26
ENDBRANCH  24  25
ENDBRANCH  23  24
ENDBRANCH  21  23
ENDBRANCH  20  21
ENDBRANCH  19  20
ENDBRANCH  18  19
ENDBRANCH  17  18
ENDBRANCH  15  16
ENDBRANCH   8  15
ENDBRANCH   5   6
ENDBRANCH   4   5
ENDBRANCH   2   4
BRANCH   2  32
HETATM   32  C   UNL     1      -9.120   7.350  71.029  1.00  0.00    -0.152 C  
BRANCH  32  33
HETATM   33  C   UNL     1     -10.453   6.643  70.809  1.00  0.00    -0.251 C  
BRANCH  33  34
HETATM   34  C   UNL     1     -10.451   5.343  71.546  1.00  0.00    -0.289 A  
HETATM   35  C   UNL     1     -10.930   4.094  73.559  1.00  0.00    -0.360 A  
HETATM   36  C   UNL     1      -9.763   3.044  71.717  1.00  0.00    -0.231 A  
HETATM   37  C   UNL     1     -11.000   5.280  72.835  1.00  0.00    -0.343 A  
HETATM   38  C   UNL     1      -9.830   4.226  70.990  1.00  0.00    -0.251 A  
HETATM   39  C   UNL     1     -10.312   2.977  73.000  1.00  0.00    -0.244 A  
ENDBRANCH  33  34
ENDBRANCH  32  33
ENDBRANCH   2  32
TORSDOF 18
ENDMDL
MODEL      293
REMARK 921   NORMALIZED FREE ENERGY PREDICTED BY IDOCK:   -3.57 KCAL/MOL
REMARK 922        TOTAL FREE ENERGY PREDICTED BY IDOCK:  -12.11 KCAL/MOL
REMARK 923 INTER-LIGAND FREE ENERGY PREDICTED BY IDOCK:   -9.71 KCAL/MOL
REMARK 924 INTRA-LIGAND FREE ENERGY PREDICTED BY IDOCK:   -2.40 KCAL/MOL
REMARK 927      BINDING AFFINITY PREDICTED BY RF-SCORE:    0.00 PKD
ROOT
HETATM    1  O   UNL     1     -11.481   6.559  67.443  1.00  0.00    -0.740 OA 
HETATM    2  C   UNL     1     -10.699   5.945  68.465  1.00  0.00    -0.255 C  
HETATM    3  H   UNL     1     -12.072   5.924  67.056  1.00  0.00     0.000 HD 
ENDROOT
BRANCH   2   4
HETATM    4  C   UNL     1      -9.741   6.976  69.093  1.00  0.00    -0.156 C  
BRANCH   4   5
HETATM    5  C   UNL     1     -10.179   7.526  70.455  1.00  0.00    -0.202 C  
BRANCH   5   6
HETATM    6  C   UNL     1     -11.373   8.509  70.442  1.00  0.00    -0.193 C  
HETATM    7  H   UNL     1     -12.468  12.294  71.247  1.00  0.00     0.000 HD 
HETATM    8  C   UNL     1     -11.103  10.028  70.817  1.00  0.00    -0.407 C  
HETATM    9  C   UNL     1     -12.390   8.054  71.498  1.00  0.00    -0.308 C  
HETATM   10  C   UNL     1     -13.286   9.246  71.667  1.00  0.00    -0.461 C  
HETATM   11  O   UNL     1     -13.151   6.938  71.075  1.00  0.00    -0.429 OA 
HETATM   12  O   UNL     1     -13.064  11.553  71.235  1.00  0.00    -0.336 OA 
HETATM   13  H   UNL     1     -13.781   6.657  71.728  1.00  0.00     0.000 HD 
HETATM   14  C   UNL     1     -12.338  10.426  71.686  1.00  0.00    -0.304 C  
BRANCH   8  15
HETATM   15  C   UNL     1     -10.813  10.977  69.610  1.00  0.00    -0.241 C  
BRANCH  15  16
HETATM   16  C   UNL     1      -9.445  10.824  68.971  1.00  0.00    -0.179 C  
HETATM   17  C   UNL     1      -9.069  10.373  67.757  1.00  0.00    -0.134 C  
BRANCH  17  18
HETATM   18  C   UNL     1      -9.924   9.853  66.637  1.00  0.00    -0.277 C  
BRANCH  18  19
HETATM   19  C   UNL     1     -11.005  10.859  66.213  1.00  0.00    -0.130 C  
BRANCH  19  20
HETATM   20  C   UNL     1     -10.463  12.136  65.585  1.00  0.00    -0.290 C  
BRANCH  20  21
HETATM   21  C   UNL     1     -11.415  12.681  64.566  1.00  0.00    -0.339 C  
HETATM   22  O   UNL     1     -11.315  12.576  63.350  1.00  0.00    -0.466 OA 
BRANCH  21  23
HETATM   23  O   UNL     1     -12.338  13.441  65.215  1.00  0.00    -0.415 OA 
BRANCH  23  24
HETATM   24  C   UNL     1     -11.725  14.164  66.262  1.00  0.00    -0.390 C  
BRANCH  24  25
HETATM   25  C   UNL     1     -12.245  13.773  67.628  1.00  0.00    -0.229 C  
BRANCH  25  26
HETATM   26  C   UNL     1     -11.388  14.317  68.768  1.00  0.00    -0.303 C  
BRANCH  26  27
HETATM   27  C   UNL     1     -12.062  15.394  69.631  1.00  0.00    -0.327 C  
BRANCH  27  28
HETATM   28  O   UNL     1     -13.008  14.780  70.478  1.00  0.00    -0.350 OA 
HETATM   29  N   UNL     1     -13.032  15.358  71.769  1.00  0.00    -0.396 N  
HETATM   30  O   UNL     1     -13.812  14.780  72.531  1.00  0.00    -0.448 OA 
HETATM   31  O   UNL     1     -12.301  16.318  71.973  1.00  0.00    -0.440 OA 
ENDBRANCH  27  28
ENDBRANCH  26  27
ENDBRANCH  25  26
ENDBRANCH  24  25
ENDBRANCH  23  24
ENDBRANCH  21  23
ENDBRANCH  20  21
ENDBRANCH  19  20
ENDBRANCH  18  19
ENDBRANCH  17  18
ENDBRANCH  15  16
ENDBRANCH   8  15
ENDBRANCH   5   6
ENDBRANCH   4   5
ENDBRANCH   2   4
BRANCH   2  32
HETATM   32  C   UNL     1      -9.937   4.804  67.806  1.00  0.00    -0.169 C  
BRANCH  32  33
HETATM   33  C   UNL     1      -8.510   4.701  68.332  1.00  0.00    -0.094 C  
BRANCH  33  34
HETATM   34  C   UNL     1      -7.559   4.686  67.180  1.00  0.00    -0.086 A  
HETATM   35  C   UNL     1      -5.798   3.573  65.952  1.00  0.00    -0.019 A  
HETATM   36  C   UNL     1      -6.479   5.817  65.351  1.00  0.00    -0.042 A  
HETATM   37  C   UNL     1      -6.743   3.563  66.974  1.00  0.00    -0.049 A  
HETATM   38  C   UNL     1      -7.424   5.812  66.370  1.00  0.00    -0.086 A  
HETATM   39  C   UNL     1      -5.667   4.699  65.142  1.00  0.00    -0.014 A  
ENDBRANCH  33  34
ENDBRANCH  32  33
ENDBRANCH   2  32
TORSDOF 18
ENDMDL
MODEL      294
REMARK 921   NORMALIZED FREE ENERGY PREDICTED BY IDOCK:   -3.57 KCAL/MOL
REMARK 922        TOTAL FREE ENERGY PREDICTED BY IDOCK:  -12.10 KCAL/MOL
REMARK 923 INTER-LIGAND FREE ENERGY PREDICTED BY IDOCK:  -10.21 KCAL/MOL
REMARK 924 INTRA-LIGAND FREE ENERGY PREDICTED BY IDOCK:   -1.89 KCAL/MOL
REMARK 927      BINDING AFFINITY PREDICTED BY RF-SCORE:    0.00 PKD
ROOT
HETATM    1  O   UNL     1     -11.405  14.451  70.938  1.00  0.00    -0.517 OA 
HETATM    2  C   UNL     1     -11.734  14.832  69.603  1.00  0.00    -0.314 C  
HETATM    3  H   UNL     1     -11.423  15.210  71.509  1.00  0.00     0.000 HD 
ENDROOT
BRANCH   2   4
HETATM    4  C   UNL     1     -11.705  13.600  68.676  1.00  0.00    -0.389 C  
BRANCH   4   5
HETATM    5  C   UNL     1     -10.861  13.761  67.407  1.00  0.00    -0.285 C  
BRANCH   5   6
HETATM    6  C   UNL     1     -11.258  12.870  66.207  1.00  0.00    -0.337 C  
HETATM    7  H   UNL     1      -9.792  10.623  63.210  1.00  0.00     0.000 HD 
HETATM    8  C   UNL     1     -10.106  12.123  65.410  1.00  0.00    -0.282 C  
HETATM    9  C   UNL     1     -11.917  13.755  65.140  1.00  0.00    -0.379 C  
HETATM   10  C   UNL     1     -11.909  12.896  63.909  1.00  0.00    -0.541 C  
HETATM   11  O   UNL     1     -13.247  14.106  65.470  1.00  0.00    -0.688 OA 
HETATM   12  O   UNL     1     -10.652  11.029  63.207  1.00  0.00    -0.312 OA 
HETATM   13  H   UNL     1     -13.656  14.653  64.810  1.00  0.00     0.000 HD 
HETATM   14  C   UNL     1     -10.541  12.248  63.914  1.00  0.00    -0.427 C  
BRANCH   8  15
HETATM   15  C   UNL     1      -9.794  10.668  65.885  1.00  0.00    -0.296 C  
BRANCH  15  16
HETATM   16  C   UNL     1     -10.496  10.230  67.158  1.00  0.00    -0.311 C  
HETATM   17  C   UNL     1     -10.837   9.009  67.618  1.00  0.00    -0.133 C  
BRANCH  17  18
HETATM   18  C   UNL     1     -10.628   7.667  66.977  1.00  0.00    -0.406 C  
BRANCH  18  19
HETATM   19  C   UNL     1      -9.364   6.964  67.495  1.00  0.00    -0.130 C  
BRANCH  19  20
HETATM   20  C   UNL     1      -8.899   7.436  68.866  1.00  0.00    -0.131 C  
BRANCH  20  21
HETATM   21  C   UNL     1      -7.437   7.179  69.057  1.00  0.00    -0.094 C  
HETATM   22  O   UNL     1      -6.625   6.917  68.179  1.00  0.00    -0.054 OA 
BRANCH  21  23
HETATM   23  O   UNL     1      -7.186   7.141  70.394  1.00  0.00    -0.068 OA 
BRANCH  23  24
HETATM   24  C   UNL     1      -6.302   6.081  70.694  1.00  0.00    -0.039 C  
BRANCH  24  25
HETATM   25  C   UNL     1      -7.021   4.826  71.139  1.00  0.00    -0.047 C  
BRANCH  25  26
HETATM   26  C   UNL     1      -8.069   5.092  72.217  1.00  0.00    -0.110 C  
BRANCH  26  27
HETATM   27  C   UNL     1      -9.509   4.728  71.827  1.00  0.00    -0.149 C  
BRANCH  27  28
HETATM   28  O   UNL     1     -10.241   5.915  71.612  1.00  0.00    -0.192 OA 
HETATM   29  N   UNL     1     -11.306   6.066  72.532  1.00  0.00    -0.293 N  
HETATM   30  O   UNL     1     -11.987   7.069  72.306  1.00  0.00    -0.276 OA 
HETATM   31  O   UNL     1     -11.426   5.214  73.403  1.00  0.00    -0.299 OA 
ENDBRANCH  27  28
ENDBRANCH  26  27
ENDBRANCH  25  26
ENDBRANCH  24  25
ENDBRANCH  23  24
ENDBRANCH  21  23
ENDBRANCH  20  21
ENDBRANCH  19  20
ENDBRANCH  18  19
ENDBRANCH  17  18
ENDBRANCH  15  16
ENDBRANCH   8  15
ENDBRANCH   5   6
ENDBRANCH   4   5
ENDBRANCH   2   4
BRANCH   2  32
HETATM   32  C   UNL     1     -10.708  15.873  69.180  1.00  0.00    -0.259 C  
BRANCH  32  33
HETATM   33  C   UNL     1     -11.277  16.838  68.146  1.00  0.00    -0.154 C  
BRANCH  33  34
HETATM   34  C   UNL     1     -10.237  17.848  67.787  1.00  0.00    -0.372 A  
HETATM   35  C   UNL     1      -9.663  19.993  66.832  1.00  0.00    -0.557 A  
HETATM   36  C   UNL     1      -7.924  18.448  67.498  1.00  0.00    -0.241 A  
HETATM   37  C   UNL     1     -10.629  19.080  67.243  1.00  0.00    -0.554 A  
HETATM   38  C   UNL     1      -8.885  17.532  67.911  1.00  0.00    -0.247 A  
HETATM   39  C   UNL     1      -8.312  19.677  66.959  1.00  0.00    -0.328 A  
ENDBRANCH  33  34
ENDBRANCH  32  33
ENDBRANCH   2  32
TORSDOF 18
ENDMDL
MODEL      295
REMARK 921   NORMALIZED FREE ENERGY PREDICTED BY IDOCK:   -3.55 KCAL/MOL
REMARK 922        TOTAL FREE ENERGY PREDICTED BY IDOCK:  -12.08 KCAL/MOL
REMARK 923 INTER-LIGAND FREE ENERGY PREDICTED BY IDOCK:   -8.80 KCAL/MOL
REMARK 924 INTRA-LIGAND FREE ENERGY PREDICTED BY IDOCK:   -3.28 KCAL/MOL
REMARK 927      BINDING AFFINITY PREDICTED BY RF-SCORE:    0.00 PKD
ROOT
HETATM    1  O   UNL     1     -11.580   6.532  66.878  1.00  0.00    -0.725 OA 
HETATM    2  C   UNL     1     -10.659   5.869  67.742  1.00  0.00    -0.259 C  
HETATM    3  H   UNL     1     -11.272   6.494  65.980  1.00  0.00     0.000 HD 
ENDROOT
BRANCH   2   4
HETATM    4  C   UNL     1     -11.158   5.931  69.199  1.00  0.00    -0.328 C  
BRANCH   4   5
HETATM    5  C   UNL     1     -11.351   7.343  69.761  1.00  0.00    -0.039 C  
BRANCH   5   6
HETATM    6  C   UNL     1     -10.597   7.665  71.072  1.00  0.00    -0.226 C  
HETATM    7  H   UNL     1      -7.280   6.842  73.193  1.00  0.00     0.000 HD 
HETATM    8  C   UNL     1      -9.158   7.029  71.290  1.00  0.00    -0.152 C  
HETATM    9  C   UNL     1     -11.413   7.118  72.251  1.00  0.00    -0.271 C  
HETATM   10  C   UNL     1     -10.443   7.138  73.397  1.00  0.00    -0.410 C  
HETATM   11  O   UNL     1     -12.534   7.926  72.559  1.00  0.00    -0.538 OA 
HETATM   12  O   UNL     1      -8.092   7.164  73.568  1.00  0.00    -0.104 OA 
HETATM   13  H   UNL     1     -13.039   7.588  73.289  1.00  0.00     0.000 HD 
HETATM   14  C   UNL     1      -9.149   6.626  72.799  1.00  0.00    -0.136 C  
BRANCH   8  15
HETATM   15  C   UNL     1      -7.955   7.918  70.838  1.00  0.00    -0.093 C  
BRANCH  15  16
HETATM   16  C   UNL     1      -8.251   9.400  70.700  1.00  0.00    -0.207 C  
HETATM   17  C   UNL     1      -8.387  10.188  69.615  1.00  0.00    -0.174 C  
BRANCH  17  18
HETATM   18  C   UNL     1      -8.267   9.824  68.162  1.00  0.00    -0.109 C  
BRANCH  18  19
HETATM   19  C   UNL     1      -9.293  10.563  67.289  1.00  0.00    -0.164 C  
BRANCH  19  20
HETATM   20  C   UNL     1     -10.710  10.010  67.381  1.00  0.00    -0.336 C  
BRANCH  20  21
HETATM   21  C   UNL     1     -11.635  11.003  68.012  1.00  0.00    -0.249 C  
HETATM   22  O   UNL     1     -12.213  10.877  69.085  1.00  0.00    -0.421 OA 
BRANCH  21  23
HETATM   23  O   UNL     1     -11.842  12.012  67.122  1.00  0.00    -0.565 OA 
BRANCH  23  24
HETATM   24  C   UNL     1     -11.602  13.260  67.738  1.00  0.00    -0.342 C  
BRANCH  24  25
HETATM   25  C   UNL     1     -11.617  14.411  66.756  1.00  0.00    -0.399 C  
BRANCH  25  26
HETATM   26  C   UNL     1     -10.480  15.404  66.986  1.00  0.00    -0.295 C  
BRANCH  26  27
HETATM   27  C   UNL     1     -10.404  16.552  65.969  1.00  0.00    -0.345 C  
BRANCH  27  28
HETATM   28  O   UNL     1      -9.055  16.928  65.800  1.00  0.00    -0.523 OA 
HETATM   29  N   UNL     1      -8.845  18.307  66.036  1.00  0.00    -0.073 N  
HETATM   30  O   UNL     1      -7.679  18.650  65.826  1.00  0.00    -0.491 OA 
HETATM   31  O   UNL     1      -9.807  18.971  66.399  1.00  0.00    -0.342 OA 
ENDBRANCH  27  28
ENDBRANCH  26  27
ENDBRANCH  25  26
ENDBRANCH  24  25
ENDBRANCH  23  24
ENDBRANCH  21  23
ENDBRANCH  20  21
ENDBRANCH  19  20
ENDBRANCH  18  19
ENDBRANCH  17  18
ENDBRANCH  15  16
ENDBRANCH   8  15
ENDBRANCH   5   6
ENDBRANCH   4   5
ENDBRANCH   2   4
BRANCH   2  32
HETATM   32  C   UNL     1      -9.321   6.576  67.580  1.00  0.00    -0.118 C  
BRANCH  32  33
HETATM   33  C   UNL     1      -8.501   5.979  66.443  1.00  0.00    -0.118 C  
BRANCH  33  34
HETATM   34  C   UNL     1      -7.333   5.241  67.010  1.00  0.00    -0.083 A  
HETATM   35  C   UNL     1      -5.616   3.558  66.760  1.00  0.00    -0.022 A  
HETATM   36  C   UNL     1      -5.938   4.668  68.886  1.00  0.00    -0.025 A  
HETATM   37  C   UNL     1      -6.654   4.307  66.214  1.00  0.00    -0.042 A  
HETATM   38  C   UNL     1      -6.975   5.419  68.346  1.00  0.00    -0.061 A  
HETATM   39  C   UNL     1      -5.259   3.738  68.094  1.00  0.00    -0.012 A  
ENDBRANCH  33  34
ENDBRANCH  32  33
ENDBRANCH   2  32
TORSDOF 18
ENDMDL
MODEL      296
REMARK 921   NORMALIZED FREE ENERGY PREDICTED BY IDOCK:   -3.54 KCAL/MOL
REMARK 922        TOTAL FREE ENERGY PREDICTED BY IDOCK:  -12.05 KCAL/MOL
REMARK 923 INTER-LIGAND FREE ENERGY PREDICTED BY IDOCK:   -9.45 KCAL/MOL
REMARK 924 INTRA-LIGAND FREE ENERGY PREDICTED BY IDOCK:   -2.60 KCAL/MOL
REMARK 927      BINDING AFFINITY PREDICTED BY RF-SCORE:    0.00 PKD
ROOT
HETATM    1  O   UNL     1      -7.840   9.175  70.258  1.00  0.00    -0.092 OA 
HETATM    2  C   UNL     1      -9.117   8.540  70.302  1.00  0.00    -0.154 C  
HETATM    3  H   UNL     1      -7.173   8.551  69.997  1.00  0.00     0.000 HD 
ENDROOT
BRANCH   2   4
HETATM    4  C   UNL     1     -10.199   9.553  70.725  1.00  0.00    -0.363 C  
BRANCH   4   5
HETATM    5  C   UNL     1     -11.155   9.988  69.609  1.00  0.00    -0.300 C  
BRANCH   5   6
HETATM    6  C   UNL     1     -12.236  11.022  70.000  1.00  0.00    -0.418 C  
HETATM    7  H   UNL     1     -12.823  14.849  71.088  1.00  0.00     0.000 HD 
HETATM    8  C   UNL     1     -11.789  12.526  70.238  1.00  0.00    -0.305 C  
HETATM    9  C   UNL     1     -12.840  10.609  71.349  1.00  0.00    -0.451 C  
HETATM   10  C   UNL     1     -13.571  11.838  71.804  1.00  0.00     0.003 C  
HETATM   11  O   UNL     1     -13.747   9.529  71.232  1.00  0.00    -0.416 OA 
HETATM   12  O   UNL     1     -13.416  14.135  71.293  1.00  0.00    -0.333 OA 
HETATM   13  H   UNL     1     -14.121   9.273  72.067  1.00  0.00     0.000 HD 
HETATM   14  C   UNL     1     -12.627  12.976  71.478  1.00  0.00    -0.178 C  
BRANCH   8  15
HETATM   15  C   UNL     1     -11.898  13.465  68.994  1.00  0.00    -0.378 C  
BRANCH  15  16
HETATM   16  C   UNL     1     -12.156  12.770  67.669  1.00  0.00    -0.200 C  
HETATM   17  C   UNL     1     -11.404  12.657  66.556  1.00  0.00    -0.377 C  
BRANCH  17  18
HETATM   18  C   UNL     1     -10.040  13.220  66.278  1.00  0.00    -0.294 C  
BRANCH  18  19
HETATM   19  C   UNL     1      -8.932  12.164  66.422  1.00  0.00    -0.138 C  
BRANCH  19  20
HETATM   20  C   UNL     1      -8.169  12.231  67.739  1.00  0.00    -0.161 C  
BRANCH  20  21
HETATM   21  C   UNL     1      -6.892  12.995  67.583  1.00  0.00    -0.154 C  
HETATM   22  O   UNL     1      -5.934  12.675  66.890  1.00  0.00    -0.262 OA 
BRANCH  21  23
HETATM   23  O   UNL     1      -6.915  14.039  68.456  1.00  0.00    -0.088 OA 
BRANCH  23  24
HETATM   24  C   UNL     1      -6.572  15.237  67.791  1.00  0.00    -0.162 C  
BRANCH  24  25
HETATM   25  C   UNL     1      -7.499  16.383  68.133  1.00  0.00    -0.152 C  
BRANCH  25  26
HETATM   26  C   UNL     1      -8.958  15.951  68.256  1.00  0.00    -0.184 C  
BRANCH  26  27
HETATM   27  C   UNL     1      -9.988  17.063  68.008  1.00  0.00    -0.283 C  
BRANCH  27  28
HETATM   28  O   UNL     1     -10.776  16.718  66.890  1.00  0.00    -0.257 OA 
HETATM   29  N   UNL     1     -10.400  17.426  65.724  1.00  0.00    -0.286 N  
HETATM   30  O   UNL     1     -11.130  17.174  64.762  1.00  0.00    -0.909 OA 
HETATM   31  O   UNL     1      -9.440  18.181  65.806  1.00  0.00    -0.483 OA 
ENDBRANCH  27  28
ENDBRANCH  26  27
ENDBRANCH  25  26
ENDBRANCH  24  25
ENDBRANCH  23  24
ENDBRANCH  21  23
ENDBRANCH  20  21
ENDBRANCH  19  20
ENDBRANCH  18  19
ENDBRANCH  17  18
ENDBRANCH  15  16
ENDBRANCH   8  15
ENDBRANCH   5   6
ENDBRANCH   4   5
ENDBRANCH   2   4
BRANCH   2  32
HETATM   32  C   UNL     1      -9.002   7.396  71.299  1.00  0.00    -0.140 C  
BRANCH  32  33
HETATM   33  C   UNL     1     -10.170   6.424  71.180  1.00  0.00    -0.224 C  
BRANCH  33  34
HETATM   34  C   UNL     1     -10.172   5.819  69.815  1.00  0.00    -0.303 A  
HETATM   35  C   UNL     1     -10.790   5.953  67.481  1.00  0.00    -0.335 A  
HETATM   36  C   UNL     1      -9.799   3.931  68.369  1.00  0.00    -0.012 A  
HETATM   37  C   UNL     1     -10.712   6.541  68.740  1.00  0.00    -0.320 A  
HETATM   38  C   UNL     1      -9.718   4.514  69.628  1.00  0.00    -0.288 A  
HETATM   39  C   UNL     1     -10.334   4.649  67.297  1.00  0.00    -0.051 A  
ENDBRANCH  33  34
ENDBRANCH  32  33
ENDBRANCH   2  32
TORSDOF 18
ENDMDL
MODEL      297
REMARK 921   NORMALIZED FREE ENERGY PREDICTED BY IDOCK:   -3.53 KCAL/MOL
REMARK 922        TOTAL FREE ENERGY PREDICTED BY IDOCK:  -12.04 KCAL/MOL
REMARK 923 INTER-LIGAND FREE ENERGY PREDICTED BY IDOCK:  -10.23 KCAL/MOL
REMARK 924 INTRA-LIGAND FREE ENERGY PREDICTED BY IDOCK:   -1.80 KCAL/MOL
REMARK 927      BINDING AFFINITY PREDICTED BY RF-SCORE:    0.00 PKD
ROOT
HETATM    1  O   UNL     1      -8.871   6.072  67.309  1.00  0.00    -0.109 OA 
HETATM    2  C   UNL     1      -8.125   7.280  67.179  1.00  0.00    -0.114 C  
HETATM    3  H   UNL     1      -8.788   5.549  66.520  1.00  0.00     0.000 HD 
ENDROOT
BRANCH   2   4
HETATM    4  C   UNL     1      -8.260   8.128  68.459  1.00  0.00    -0.125 C  
BRANCH   4   5
HETATM    5  C   UNL     1      -8.691   7.355  69.710  1.00  0.00    -0.141 C  
BRANCH   5   6
HETATM    6  C   UNL     1     -10.185   7.456  70.094  1.00  0.00    -0.207 C  
HETATM    7  H   UNL     1     -12.898   9.725  72.009  1.00  0.00     0.000 HD 
HETATM    8  C   UNL     1     -10.687   8.767  70.834  1.00  0.00    -0.282 C  
HETATM    9  C   UNL     1     -10.510   6.335  71.089  1.00  0.00    -0.223 C  
HETATM   10  C   UNL     1     -11.831   6.745  71.671  1.00  0.00    -0.370 C  
HETATM   11  O   UNL     1     -10.634   5.070  70.465  1.00  0.00    -0.209 OA 
HETATM   12  O   UNL     1     -12.987   8.791  71.860  1.00  0.00    -0.331 OA 
HETATM   13  H   UNL     1     -10.835   4.376  71.082  1.00  0.00     0.000 HD 
HETATM   14  C   UNL     1     -11.689   8.234  71.908  1.00  0.00    -0.322 C  
BRANCH   8  15
HETATM   15  C   UNL     1     -11.252   9.890  69.906  1.00  0.00    -0.298 C  
BRANCH  15  16
HETATM   16  C   UNL     1     -11.831  11.099  70.618  1.00  0.00    -0.403 C  
HETATM   17  C   UNL     1     -12.145  12.333  70.175  1.00  0.00    -0.364 C  
BRANCH  17  18
HETATM   18  C   UNL     1     -11.997  12.906  68.794  1.00  0.00    -0.290 C  
BRANCH  18  19
HETATM   19  C   UNL     1     -11.001  14.076  68.753  1.00  0.00    -0.282 C  
BRANCH  19  20
HETATM   20  C   UNL     1     -11.643  15.441  68.539  1.00  0.00    -0.373 C  
BRANCH  20  21
HETATM   21  C   UNL     1     -10.683  16.392  67.895  1.00  0.00    -0.332 C  
HETATM   22  O   UNL     1      -9.699  16.092  67.230  1.00  0.00    -0.229 OA 
BRANCH  21  23
HETATM   23  O   UNL     1     -11.006  17.652  68.294  1.00  0.00    -0.259 OA 
BRANCH  23  24
HETATM   24  C   UNL     1      -9.834  18.393  68.561  1.00  0.00    -0.376 C  
BRANCH  24  25
HETATM   25  C   UNL     1      -9.826  19.745  67.881  1.00  0.00    -0.522 C  
BRANCH  25  26
HETATM   26  C   UNL     1      -9.145  19.718  66.514  1.00  0.00    -0.450 C  
BRANCH  26  27
HETATM   27  C   UNL     1      -7.613  19.805  66.551  1.00  0.00    -0.278 C  
BRANCH  27  28
HETATM   28  O   UNL     1      -7.095  18.584  67.033  1.00  0.00    -0.194 OA 
HETATM   29  N   UNL     1      -6.492  17.813  66.011  1.00  0.00    -0.256 N  
HETATM   30  O   UNL     1      -6.097  16.717  66.417  1.00  0.00    -0.297 OA 
HETATM   31  O   UNL     1      -6.444  18.299  64.889  1.00  0.00    -0.348 OA 
ENDBRANCH  27  28
ENDBRANCH  26  27
ENDBRANCH  25  26
ENDBRANCH  24  25
ENDBRANCH  23  24
ENDBRANCH  21  23
ENDBRANCH  20  21
ENDBRANCH  19  20
ENDBRANCH  18  19
ENDBRANCH  17  18
ENDBRANCH  15  16
ENDBRANCH   8  15
ENDBRANCH   5   6
ENDBRANCH   4   5
ENDBRANCH   2   4
BRANCH   2  32
HETATM   32  C   UNL     1      -8.681   8.010  65.965  1.00  0.00    -0.183 C  
BRANCH  32  33
HETATM   33  C   UNL     1      -9.838   8.929  66.340  1.00  0.00    -0.353 C  
BRANCH  33  34
HETATM   34  C   UNL     1      -9.826  10.127  65.448  1.00  0.00    -0.375 A  
HETATM   35  C   UNL     1     -10.118  12.510  65.162  1.00  0.00    -0.266 A  
HETATM   36  C   UNL     1      -9.756  11.083  63.240  1.00  0.00    -0.396 A  
HETATM   37  C   UNL     1     -10.047  11.399  65.997  1.00  0.00    -0.275 A  
HETATM   38  C   UNL     1      -9.684   9.971  64.070  1.00  0.00    -0.157 A  
HETATM   39  C   UNL     1      -9.972  12.352  63.785  1.00  0.00    -0.241 A  
ENDBRANCH  33  34
ENDBRANCH  32  33
ENDBRANCH   2  32
TORSDOF 18
ENDMDL
MODEL      298
REMARK 921   NORMALIZED FREE ENERGY PREDICTED BY IDOCK:   -3.53 KCAL/MOL
REMARK 922        TOTAL FREE ENERGY PREDICTED BY IDOCK:  -12.02 KCAL/MOL
REMARK 923 INTER-LIGAND FREE ENERGY PREDICTED BY IDOCK:   -9.86 KCAL/MOL
REMARK 924 INTRA-LIGAND FREE ENERGY PREDICTED BY IDOCK:   -2.16 KCAL/MOL
REMARK 927      BINDING AFFINITY PREDICTED BY RF-SCORE:    0.00 PKD
ROOT
HETATM    1  O   UNL     1      -9.413  14.892  66.809  1.00  0.00    -0.228 OA 
HETATM    2  C   UNL     1     -10.365  15.366  67.760  1.00  0.00    -0.253 C  
HETATM    3  H   UNL     1      -8.640  15.444  66.816  1.00  0.00     0.000 HD 
ENDROOT
BRANCH   2   4
HETATM    4  C   UNL     1     -11.619  14.470  67.749  1.00  0.00    -0.390 C  
BRANCH   4   5
HETATM    5  C   UNL     1     -11.837  13.672  66.459  1.00  0.00    -0.441 C  
BRANCH   5   6
HETATM    6  C   UNL     1     -11.626  12.143  66.559  1.00  0.00    -0.425 C  
HETATM    7  H   UNL     1     -10.359   9.193  68.982  1.00  0.00     0.000 HD 
HETATM    8  C   UNL     1     -11.146  11.537  67.945  1.00  0.00    -0.317 C  
HETATM    9  C   UNL     1     -10.510  11.740  65.586  1.00  0.00    -0.265 C  
HETATM   10  C   UNL     1     -10.133  10.356  66.027  1.00  0.00    -0.307 C  
HETATM   11  O   UNL     1     -10.946  11.712  64.239  1.00  0.00    -0.325 OA 
HETATM   12  O   UNL     1     -10.373   9.141  68.033  1.00  0.00    -0.201 OA 
HETATM   13  H   UNL     1     -10.255  11.462  63.637  1.00  0.00     0.000 HD 
HETATM   14  C   UNL     1     -10.111  10.439  67.538  1.00  0.00    -0.192 C  
BRANCH   8  15
HETATM   15  C   UNL     1     -12.285  11.048  68.896  1.00  0.00    -0.100 C  
BRANCH  15  16
HETATM   16  C   UNL     1     -12.089  11.362  70.368  1.00  0.00    -0.473 C  
HETATM   17  C   UNL     1     -12.464  10.700  71.482  1.00  0.00    -0.471 C  
BRANCH  17  18
HETATM   18  C   UNL     1     -13.229   9.413  71.603  1.00  0.00    -0.470 C  
BRANCH  18  19
HETATM   19  C   UNL     1     -12.303   8.189  71.682  1.00  0.00    -0.347 C  
BRANCH  19  20
HETATM   20  C   UNL     1     -11.336   8.208  72.859  1.00  0.00    -0.301 C  
BRANCH  20  21
HETATM   21  C   UNL     1     -10.460   6.995  72.855  1.00  0.00    -0.254 C  
HETATM   22  O   UNL     1      -9.398   6.863  73.451  1.00  0.00    -0.137 OA 
BRANCH  21  23
HETATM   23  O   UNL     1     -10.971   6.108  71.958  1.00  0.00    -0.235 OA 
BRANCH  23  24
HETATM   24  C   UNL     1     -10.417   4.826  72.172  1.00  0.00    -0.175 C  
BRANCH  24  25
HETATM   25  C   UNL     1      -9.943   4.171  70.892  1.00  0.00    -0.207 C  
BRANCH  25  26
HETATM   26  C   UNL     1     -10.204   5.027  69.655  1.00  0.00    -0.306 C  
BRANCH  26  27
HETATM   27  C   UNL     1      -8.944   5.526  68.933  1.00  0.00    -0.114 C  
BRANCH  27  28
HETATM   28  O   UNL     1      -7.812   5.207  69.711  1.00  0.00    -0.070 OA 
HETATM   29  N   UNL     1      -7.297   6.331  70.400  1.00  0.00    -0.086 N  
HETATM   30  O   UNL     1      -6.269   6.069  71.030  1.00  0.00    -0.036 OA 
HETATM   31  O   UNL     1      -7.902   7.389  70.288  1.00  0.00    -0.092 OA 
ENDBRANCH  27  28
ENDBRANCH  26  27
ENDBRANCH  25  26
ENDBRANCH  24  25
ENDBRANCH  23  24
ENDBRANCH  21  23
ENDBRANCH  20  21
ENDBRANCH  19  20
ENDBRANCH  18  19
ENDBRANCH  17  18
ENDBRANCH  15  16
ENDBRANCH   8  15
ENDBRANCH   5   6
ENDBRANCH   4   5
ENDBRANCH   2   4
BRANCH   2  32
HETATM   32  C   UNL     1     -10.699  16.798  67.368  1.00  0.00    -0.244 C  
BRANCH  32  33
HETATM   33  C   UNL     1     -10.265  17.792  68.439  1.00  0.00    -0.384 C  
BRANCH  33  34
HETATM   34  C   UNL     1      -9.161  18.644  67.904  1.00  0.00    -0.314 A  
HETATM   35  C   UNL     1      -7.065  19.796  68.259  1.00  0.00    -0.336 A  
HETATM   36  C   UNL     1      -8.272  20.068  66.179  1.00  0.00    -0.302 A  
HETATM   37  C   UNL     1      -8.059  18.939  68.721  1.00  0.00    -0.354 A  
HETATM   38  C   UNL     1      -9.267  19.212  66.635  1.00  0.00    -0.367 A  
HETATM   39  C   UNL     1      -7.172  20.360  66.990  1.00  0.00    -0.347 A  
ENDBRANCH  33  34
ENDBRANCH  32  33
ENDBRANCH   2  32
TORSDOF 18
ENDMDL
MODEL      299
REMARK 921   NORMALIZED FREE ENERGY PREDICTED BY IDOCK:   -3.52 KCAL/MOL
REMARK 922        TOTAL FREE ENERGY PREDICTED BY IDOCK:  -12.00 KCAL/MOL
REMARK 923 INTER-LIGAND FREE ENERGY PREDICTED BY IDOCK:   -9.70 KCAL/MOL
REMARK 924 INTRA-LIGAND FREE ENERGY PREDICTED BY IDOCK:   -2.30 KCAL/MOL
REMARK 927      BINDING AFFINITY PREDICTED BY RF-SCORE:    0.00 PKD
ROOT
HETATM    1  O   UNL     1      -7.829  15.640  66.125  1.00  0.00    -0.106 OA 
HETATM    2  C   UNL     1      -6.833  15.332  67.099  1.00  0.00     0.060 C  
HETATM    3  H   UNL     1      -7.568  16.399  65.617  1.00  0.00     0.000 HD 
ENDROOT
BRANCH   2   4
HETATM    4  C   UNL     1      -7.257  14.100  67.922  1.00  0.00    -0.165 C  
BRANCH   4   5
HETATM    5  C   UNL     1      -8.676  13.591  67.647  1.00  0.00    -0.194 C  
BRANCH   5   6
HETATM    6  C   UNL     1      -9.701  13.774  68.791  1.00  0.00    -0.069 C  
HETATM    7  H   UNL     1     -13.627  14.041  69.620  1.00  0.00     0.000 HD 
HETATM    8  C   UNL     1     -11.247  13.682  68.442  1.00  0.00    -0.306 C  
HETATM    9  C   UNL     1      -9.546  15.190  69.363  1.00  0.00    -0.192 C  
HETATM   10  C   UNL     1     -10.796  15.388  70.170  1.00  0.00    -0.328 C  
HETATM   11  O   UNL     1      -8.411  15.319  70.199  1.00  0.00    -0.215 OA 
HETATM   12  O   UNL     1     -12.938  14.402  70.164  1.00  0.00    -0.222 OA 
HETATM   13  H   UNL     1      -8.315  16.195  70.552  1.00  0.00     0.000 HD 
HETATM   14  C   UNL     1     -11.895  14.813  69.302  1.00  0.00    -0.318 C  
BRANCH   8  15
HETATM   15  C   UNL     1     -11.892  12.270  68.615  1.00  0.00    -0.354 C  
BRANCH  15  16
HETATM   16  C   UNL     1     -11.563  11.554  69.912  1.00  0.00    -0.387 C  
HETATM   17  C   UNL     1     -11.011  10.348  70.154  1.00  0.00    -0.365 C  
BRANCH  17  18
HETATM   18  C   UNL     1     -10.553   9.306  69.173  1.00  0.00    -0.228 C  
BRANCH  18  19
HETATM   19  C   UNL     1      -9.025   9.293  69.007  1.00  0.00    -0.140 C  
BRANCH  19  20
HETATM   20  C   UNL     1      -8.537   8.611  67.735  1.00  0.00    -0.136 C  
BRANCH  20  21
HETATM   21  C   UNL     1      -7.756   9.561  66.881  1.00  0.00    -0.098 C  
HETATM   22  O   UNL     1      -7.228  10.603  67.250  1.00  0.00    -0.086 OA 
BRANCH  21  23
HETATM   23  O   UNL     1      -7.854   9.145  65.589  1.00  0.00    -0.093 OA 
BRANCH  23  24
HETATM   24  C   UNL     1      -9.206   9.144  65.179  1.00  0.00    -0.153 C  
BRANCH  24  25
HETATM   25  C   UNL     1      -9.568  10.354  64.346  1.00  0.00    -0.375 C  
BRANCH  25  26
HETATM   26  C   UNL     1     -10.425  11.364  65.106  1.00  0.00    -0.351 C  
BRANCH  26  27
HETATM   27  C   UNL     1     -11.784  11.676  64.463  1.00  0.00    -0.111 C  
BRANCH  27  28
HETATM   28  O   UNL     1     -12.505  12.543  65.310  1.00  0.00    -0.608 OA 
HETATM   29  N   UNL     1     -12.803  13.780  64.690  1.00  0.00    -0.119 N  
HETATM   30  O   UNL     1     -13.377  14.564  65.450  1.00  0.00    -0.458 OA 
HETATM   31  O   UNL     1     -12.463  13.923  63.522  1.00  0.00    -0.810 OA 
ENDBRANCH  27  28
ENDBRANCH  26  27
ENDBRANCH  25  26
ENDBRANCH  24  25
ENDBRANCH  23  24
ENDBRANCH  21  23
ENDBRANCH  20  21
ENDBRANCH  19  20
ENDBRANCH  18  19
ENDBRANCH  17  18
ENDBRANCH  15  16
ENDBRANCH   8  15
ENDBRANCH   5   6
ENDBRANCH   4   5
ENDBRANCH   2   4
BRANCH   2  32
HETATM   32  C   UNL     1      -6.685  16.566  67.977  1.00  0.00    -0.147 C  
BRANCH  32  33
HETATM   33  C   UNL     1      -6.572  17.840  67.146  1.00  0.00    -0.191 C  
BRANCH  33  34
HETATM   34  C   UNL     1      -7.843  18.617  67.260  1.00  0.00    -0.240 A  
HETATM   35  C   UNL     1      -9.411  20.188  66.303  1.00  0.00    -0.450 A  
HETATM   36  C   UNL     1      -9.685  19.423  68.582  1.00  0.00    -0.504 A  
HETATM   37  C   UNL     1      -8.272  19.399  66.177  1.00  0.00    -0.319 A  
HETATM   38  C   UNL     1      -8.548  18.632  68.462  1.00  0.00    -0.370 A  
HETATM   39  C   UNL     1     -10.116  20.200  67.505  1.00  0.00    -0.549 A  
ENDBRANCH  33  34
ENDBRANCH  32  33
ENDBRANCH   2  32
TORSDOF 18
ENDMDL
MODEL      300
REMARK 921   NORMALIZED FREE ENERGY PREDICTED BY IDOCK:   -3.52 KCAL/MOL
REMARK 922        TOTAL FREE ENERGY PREDICTED BY IDOCK:  -12.00 KCAL/MOL
REMARK 923 INTER-LIGAND FREE ENERGY PREDICTED BY IDOCK:   -8.62 KCAL/MOL
REMARK 924 INTRA-LIGAND FREE ENERGY PREDICTED BY IDOCK:   -3.38 KCAL/MOL
REMARK 927      BINDING AFFINITY PREDICTED BY RF-SCORE:    0.00 PKD
ROOT
HETATM    1  O   UNL     1      -8.920  11.097  64.644  1.00  0.00    -0.344 OA 
HETATM    2  C   UNL     1      -9.537   9.884  65.073  1.00  0.00    -0.297 C  
HETATM    3  H   UNL     1      -8.589  11.000  63.758  1.00  0.00     0.000 HD 
ENDROOT
BRANCH   2   4
HETATM    4  C   UNL     1     -10.073  10.041  66.509  1.00  0.00    -0.296 C  
BRANCH   4   5
HETATM    5  C   UNL     1      -9.806  11.402  67.159  1.00  0.00    -0.212 C  
BRANCH   5   6
HETATM    6  C   UNL     1      -8.694  11.440  68.233  1.00  0.00    -0.160 C  
HETATM    7  H   UNL     1      -4.730  11.087  68.815  1.00  0.00     0.000 HD 
HETATM    8  C   UNL     1      -7.184  11.317  67.761  1.00  0.00    -0.088 C  
HETATM    9  C   UNL     1      -8.877  10.236  69.167  1.00  0.00    -0.176 C  
HETATM   10  C   UNL     1      -7.573  10.154  69.904  1.00  0.00    -0.174 C  
HETATM   11  O   UNL     1      -9.937  10.416  70.087  1.00  0.00    -0.422 OA 
HETATM   12  O   UNL     1      -5.388  10.934  69.484  1.00  0.00    -0.038 OA 
HETATM   13  H   UNL     1     -10.050   9.671  70.665  1.00  0.00     0.000 HD 
HETATM   14  C   UNL     1      -6.525  10.398  68.838  1.00  0.00    -0.052 C  
BRANCH   8  15
HETATM   15  C   UNL     1      -6.446  12.671  67.509  1.00  0.00    -0.158 C  
BRANCH  15  16
HETATM   16  C   UNL     1      -6.519  13.678  68.643  1.00  0.00    -0.094 C  
HETATM   17  C   UNL     1      -7.452  14.597  68.965  1.00  0.00    -0.136 C  
BRANCH  17  18
HETATM   18  C   UNL     1      -8.740  14.921  68.263  1.00  0.00    -0.166 C  
BRANCH  18  19
HETATM   19  C   UNL     1      -9.803  15.478  69.223  1.00  0.00    -0.270 C  
BRANCH  19  20
HETATM   20  C   UNL     1     -11.237  15.311  68.737  1.00  0.00    -0.293 C  
BRANCH  20  21
HETATM   21  C   UNL     1     -11.796  13.986  69.155  1.00  0.00    -0.350 C  
HETATM   22  O   UNL     1     -11.892  13.568  70.302  1.00  0.00    -0.309 OA 
BRANCH  21  23
HETATM   23  O   UNL     1     -12.049  13.261  68.031  1.00  0.00    -0.332 OA 
BRANCH  23  24
HETATM   24  C   UNL     1     -12.376  14.122  66.960  1.00  0.00    -0.218 C  
BRANCH  24  25
HETATM   25  C   UNL     1     -12.134  13.492  65.606  1.00  0.00    -0.467 C  
BRANCH  25  26
HETATM   26  C   UNL     1     -10.987  14.149  64.841  1.00  0.00    -0.405 C  
BRANCH  26  27
HETATM   27  C   UNL     1     -10.925  15.679  64.952  1.00  0.00    -0.431 C  
BRANCH  27  28
HETATM   28  O   UNL     1      -9.578  16.076  65.083  1.00  0.00    -0.281 OA 
HETATM   29  N   UNL     1      -9.436  17.264  65.839  1.00  0.00    -0.095 N  
HETATM   30  O   UNL     1      -8.266  17.649  65.900  1.00  0.00    -0.534 OA 
HETATM   31  O   UNL     1     -10.451  17.755  66.316  1.00  0.00    -0.360 OA 
ENDBRANCH  27  28
ENDBRANCH  26  27
ENDBRANCH  25  26
ENDBRANCH  24  25
ENDBRANCH  23  24
ENDBRANCH  21  23
ENDBRANCH  20  21
ENDBRANCH  19  20
ENDBRANCH  18  19
ENDBRANCH  17  18
ENDBRANCH  15  16
ENDBRANCH   8  15
ENDBRANCH   5   6
ENDBRANCH   4   5
ENDBRANCH   2   4
BRANCH   2  32
HETATM   32  C   UNL     1      -8.473   8.799  64.989  1.00  0.00    -0.193 C  
BRANCH  32  33
HETATM   33  C   UNL     1      -8.299   8.075  66.320  1.00  0.00    -0.121 C  
BRANCH  33  34
HETATM   34  C   UNL     1      -8.821   6.682  66.196  1.00  0.00    -0.160 A  
HETATM   35  C   UNL     1      -8.551   4.425  65.371  1.00  0.00    -0.122 A  
HETATM   36  C   UNL     1     -10.616   5.097  66.438  1.00  0.00    -0.336 A  
HETATM   37  C   UNL     1      -8.039   5.705  65.561  1.00  0.00    -0.123 A  
HETATM   38  C   UNL     1     -10.110   6.376  66.631  1.00  0.00    -0.206 A  
HETATM   39  C   UNL     1      -9.838   4.122  65.809  1.00  0.00    -0.207 A  
ENDBRANCH  33  34
ENDBRANCH  32  33
ENDBRANCH   2  32
TORSDOF 18
ENDMDL
MODEL      301
REMARK 921   NORMALIZED FREE ENERGY PREDICTED BY IDOCK:   -3.49 KCAL/MOL
REMARK 922        TOTAL FREE ENERGY PREDICTED BY IDOCK:  -11.95 KCAL/MOL
REMARK 923 INTER-LIGAND FREE ENERGY PREDICTED BY IDOCK:   -8.51 KCAL/MOL
REMARK 924 INTRA-LIGAND FREE ENERGY PREDICTED BY IDOCK:   -3.44 KCAL/MOL
REMARK 927      BINDING AFFINITY PREDICTED BY RF-SCORE:    0.00 PKD
ROOT
HETATM    1  O   UNL     1      -9.705   9.486  64.752  1.00  0.00    -0.441 OA 
HETATM    2  C   UNL     1     -10.160   9.912  66.035  1.00  0.00    -0.244 C  
HETATM    3  H   UNL     1     -10.161   8.695  64.489  1.00  0.00     0.000 HD 
ENDROOT
BRANCH   2   4
HETATM    4  C   UNL     1      -9.420  11.195  66.462  1.00  0.00    -0.215 C  
BRANCH   4   5
HETATM    5  C   UNL     1     -10.019  12.500  65.927  1.00  0.00    -0.269 C  
BRANCH   5   6
HETATM    6  C   UNL     1      -9.978  13.713  66.886  1.00  0.00    -0.260 C  
HETATM    7  H   UNL     1     -12.017  16.959  68.102  1.00  0.00     0.000 HD 
HETATM    8  C   UNL     1     -11.254  14.653  66.968  1.00  0.00    -0.348 C  
HETATM    9  C   UNL     1      -8.863  14.661  66.424  1.00  0.00    -0.078 C  
HETATM   10  C   UNL     1      -9.153  15.938  67.157  1.00  0.00    -0.226 C  
HETATM   11  O   UNL     1      -7.573  14.193  66.769  1.00  0.00    -0.242 OA 
HETATM   12  O   UNL     1     -11.074  16.862  68.166  1.00  0.00    -0.347 OA 
HETATM   13  H   UNL     1      -6.883  14.780  66.483  1.00  0.00     0.000 HD 
HETATM   14  C   UNL     1     -10.656  16.093  67.055  1.00  0.00    -0.292 C  
BRANCH   8  15
HETATM   15  C   UNL     1     -12.280  14.297  68.092  1.00  0.00    -0.164 C  
BRANCH  15  16
HETATM   16  C   UNL     1     -11.678  13.833  69.406  1.00  0.00    -0.379 C  
HETATM   17  C   UNL     1     -11.554  12.606  69.950  1.00  0.00    -0.248 C  
BRANCH  17  18
HETATM   18  C   UNL     1     -12.004  11.281  69.403  1.00  0.00    -0.410 C  
BRANCH  18  19
HETATM   19  C   UNL     1     -12.293  10.260  70.515  1.00  0.00    -0.371 C  
BRANCH  19  20
HETATM   20  C   UNL     1     -11.051   9.595  71.095  1.00  0.00    -0.444 C  
BRANCH  20  21
HETATM   21  C   UNL     1     -11.422   8.493  72.038  1.00  0.00    -0.361 C  
HETATM   22  O   UNL     1     -12.528   7.982  72.159  1.00  0.00    -0.312 OA 
BRANCH  21  23
HETATM   23  O   UNL     1     -10.352   8.250  72.844  1.00  0.00    -0.302 OA 
BRANCH  23  24
HETATM   24  C   UNL     1     -10.497   6.997  73.480  1.00  0.00    -0.375 C  
BRANCH  24  25
HETATM   25  C   UNL     1      -9.221   6.183  73.469  1.00  0.00    -0.133 C  
BRANCH  25  26
HETATM   26  C   UNL     1      -8.782   5.784  72.062  1.00  0.00    -0.137 C  
BRANCH  26  27
HETATM   27  C   UNL     1      -9.684   4.754  71.368  1.00  0.00    -0.175 C  
BRANCH  27  28
HETATM   28  O   UNL     1     -10.578   5.429  70.510  1.00  0.00    -0.271 OA 
HETATM   29  N   UNL     1     -10.231   5.284  69.146  1.00  0.00    -0.216 N  
HETATM   30  O   UNL     1     -10.973   5.927  68.399  1.00  0.00    -0.274 OA 
HETATM   31  O   UNL     1      -9.270   4.574  68.879  1.00  0.00    -0.115 OA 
ENDBRANCH  27  28
ENDBRANCH  26  27
ENDBRANCH  25  26
ENDBRANCH  24  25
ENDBRANCH  23  24
ENDBRANCH  21  23
ENDBRANCH  20  21
ENDBRANCH  19  20
ENDBRANCH  18  19
ENDBRANCH  17  18
ENDBRANCH  15  16
ENDBRANCH   8  15
ENDBRANCH   5   6
ENDBRANCH   4   5
ENDBRANCH   2   4
BRANCH   2  32
HETATM   32  C   UNL     1      -9.890   8.765  66.998  1.00  0.00    -0.279 C  
BRANCH  32  33
HETATM   33  C   UNL     1      -8.510   8.156  66.777  1.00  0.00    -0.123 C  
BRANCH  33  34
HETATM   34  C   UNL     1      -7.813   8.023  68.092  1.00  0.00    -0.126 A  
HETATM   35  C   UNL     1      -7.366   8.887  70.305  1.00  0.00    -0.067 A  
HETATM   36  C   UNL     1      -6.150   6.966  69.474  1.00  0.00    -0.033 A  
HETATM   37  C   UNL     1      -8.070   8.956  69.107  1.00  0.00    -0.117 A  
HETATM   38  C   UNL     1      -6.851   7.031  68.276  1.00  0.00    -0.074 A  
HETATM   39  C   UNL     1      -6.407   7.892  70.488  1.00  0.00    -0.037 A  
ENDBRANCH  33  34
ENDBRANCH  32  33
ENDBRANCH   2  32
TORSDOF 18
ENDMDL
MODEL      302
REMARK 921   NORMALIZED FREE ENERGY PREDICTED BY IDOCK:   -3.48 KCAL/MOL
REMARK 922        TOTAL FREE ENERGY PREDICTED BY IDOCK:  -11.94 KCAL/MOL
REMARK 923 INTER-LIGAND FREE ENERGY PREDICTED BY IDOCK:   -9.77 KCAL/MOL
REMARK 924 INTRA-LIGAND FREE ENERGY PREDICTED BY IDOCK:   -2.16 KCAL/MOL
REMARK 927      BINDING AFFINITY PREDICTED BY RF-SCORE:    0.00 PKD
ROOT
HETATM    1  O   UNL     1      -9.805   7.306  67.152  1.00  0.00    -0.158 OA 
HETATM    2  C   UNL     1      -9.101   8.546  67.112  1.00  0.00    -0.140 C  
HETATM    3  H   UNL     1      -9.973   6.995  66.270  1.00  0.00     0.000 HD 
ENDROOT
BRANCH   2   4
HETATM    4  C   UNL     1      -8.829   9.049  68.543  1.00  0.00    -0.134 C  
BRANCH   4   5
HETATM    5  C   UNL     1      -9.517   8.252  69.655  1.00  0.00    -0.163 C  
BRANCH   5   6
HETATM    6  C   UNL     1     -10.958   8.685  70.015  1.00  0.00    -0.208 C  
HETATM    7  H   UNL     1     -13.210  11.802  71.192  1.00  0.00     0.000 HD 
HETATM    8  C   UNL     1     -11.228  10.218  70.329  1.00  0.00    -0.395 C  
HETATM    9  C   UNL     1     -11.372   7.975  71.310  1.00  0.00    -0.264 C  
HETATM   10  C   UNL     1     -12.586   8.733  71.761  1.00  0.00    -0.409 C  
HETATM   11  O   UNL     1     -11.706   6.615  71.103  1.00  0.00    -0.314 OA 
HETATM   12  O   UNL     1     -13.436  10.891  71.337  1.00  0.00    -0.192 OA 
HETATM   13  H   UNL     1     -11.962   6.176  71.905  1.00  0.00     0.000 HD 
HETATM   14  C   UNL     1     -12.226  10.186  71.530  1.00  0.00    -0.380 C  
BRANCH   8  15
HETATM   15  C   UNL     1     -11.689  11.082  69.112  1.00  0.00    -0.403 C  
BRANCH  15  16
HETATM   16  C   UNL     1     -11.434  12.574  69.234  1.00  0.00    -0.353 C  
HETATM   17  C   UNL     1     -11.543  13.577  68.339  1.00  0.00    -0.378 C  
BRANCH  17  18
HETATM   18  C   UNL     1     -11.950  13.513  66.895  1.00  0.00    -0.447 C  
BRANCH  18  19
HETATM   19  C   UNL     1     -10.861  14.056  65.957  1.00  0.00    -0.295 C  
BRANCH  19  20
HETATM   20  C   UNL     1     -11.211  15.377  65.285  1.00  0.00    -0.313 C  
BRANCH  20  21
HETATM   21  C   UNL     1     -10.279  16.465  65.720  1.00  0.00    -0.348 C  
HETATM   22  O   UNL     1      -9.056  16.446  65.648  1.00  0.00    -0.446 OA 
BRANCH  21  23
HETATM   23  O   UNL     1     -11.014  17.426  66.345  1.00  0.00    -0.018 OA 
BRANCH  23  24
HETATM   24  C   UNL     1     -10.429  17.753  67.588  1.00  0.00    -0.388 C  
BRANCH  24  25
HETATM   25  C   UNL     1     -10.399  19.243  67.848  1.00  0.00    -0.518 C  
BRANCH  25  26
HETATM   26  C   UNL     1      -9.621  20.016  66.785  1.00  0.00    -0.543 C  
BRANCH  26  27
HETATM   27  C   UNL     1      -8.227  20.492  67.217  1.00  0.00    -0.300 C  
BRANCH  27  28
HETATM   28  O   UNL     1      -7.608  19.474  67.973  1.00  0.00    -0.278 OA 
HETATM   29  N   UNL     1      -6.742  18.672  67.192  1.00  0.00    -0.196 N  
HETATM   30  O   UNL     1      -6.250  17.742  67.835  1.00  0.00    -0.158 OA 
HETATM   31  O   UNL     1      -6.595  18.979  66.016  1.00  0.00    -0.202 OA 
ENDBRANCH  27  28
ENDBRANCH  26  27
ENDBRANCH  25  26
ENDBRANCH  24  25
ENDBRANCH  23  24
ENDBRANCH  21  23
ENDBRANCH  20  21
ENDBRANCH  19  20
ENDBRANCH  18  19
ENDBRANCH  17  18
ENDBRANCH  15  16
ENDBRANCH   8  15
ENDBRANCH   5   6
ENDBRANCH   4   5
ENDBRANCH   2   4
BRANCH   2  32
HETATM   32  C   UNL     1      -9.976   9.519  66.334  1.00  0.00    -0.339 C  
BRANCH  32  33
HETATM   33  C   UNL     1      -9.210  10.778  65.944  1.00  0.00    -0.214 C  
BRANCH  33  34
HETATM   34  C   UNL     1      -8.332  10.480  64.773  1.00  0.00    -0.125 A  
HETATM   35  C   UNL     1      -6.148   9.922  63.900  1.00  0.00    -0.123 A  
HETATM   36  C   UNL     1      -7.971  10.436  62.394  1.00  0.00    -0.189 A  
HETATM   37  C   UNL     1      -6.993  10.123  64.988  1.00  0.00    -0.135 A  
HETATM   38  C   UNL     1      -8.819  10.638  63.476  1.00  0.00    -0.189 A  
HETATM   39  C   UNL     1      -6.637  10.079  62.605  1.00  0.00    -0.121 A  
ENDBRANCH  33  34
ENDBRANCH  32  33
ENDBRANCH   2  32
TORSDOF 18
ENDMDL
MODEL      303
REMARK 921   NORMALIZED FREE ENERGY PREDICTED BY IDOCK:   -3.48 KCAL/MOL
REMARK 922        TOTAL FREE ENERGY PREDICTED BY IDOCK:  -11.92 KCAL/MOL
REMARK 923 INTER-LIGAND FREE ENERGY PREDICTED BY IDOCK:   -8.79 KCAL/MOL
REMARK 924 INTRA-LIGAND FREE ENERGY PREDICTED BY IDOCK:   -3.13 KCAL/MOL
REMARK 927      BINDING AFFINITY PREDICTED BY RF-SCORE:    0.00 PKD
ROOT
HETATM    1  O   UNL     1     -11.298   9.161  67.643  1.00  0.00    -0.329 OA 
HETATM    2  C   UNL     1     -11.379   9.978  68.809  1.00  0.00    -0.060 C  
HETATM    3  H   UNL     1     -11.082   8.268  67.883  1.00  0.00     0.000 HD 
ENDROOT
BRANCH   2   4
HETATM    4  C   UNL     1     -11.730  11.427  68.420  1.00  0.00    -0.373 C  
BRANCH   4   5
HETATM    5  C   UNL     1     -11.362  12.488  69.463  1.00  0.00    -0.240 C  
BRANCH   5   6
HETATM    6  C   UNL     1     -10.764  13.805  68.915  1.00  0.00    -0.249 C  
HETATM    7  H   UNL     1      -7.319  15.689  68.044  1.00  0.00     0.000 HD 
HETATM    8  C   UNL     1      -9.193  13.890  68.705  1.00  0.00    -0.013 C  
HETATM    9  C   UNL     1     -11.052  14.927  69.921  1.00  0.00    -0.259 C  
HETATM   10  C   UNL     1     -10.130  16.033  69.498  1.00  0.00    -0.266 C  
HETATM   11  O   UNL     1     -12.394  15.375  69.868  1.00  0.00    -0.452 OA 
HETATM   12  O   UNL     1      -8.138  16.130  68.241  1.00  0.00    -0.146 OA 
HETATM   13  H   UNL     1     -12.572  16.070  70.490  1.00  0.00     0.000 HD 
HETATM   14  C   UNL     1      -8.826  15.331  69.183  1.00  0.00    -0.238 C  
BRANCH   8  15
HETATM   15  C   UNL     1      -8.685  13.521  67.274  1.00  0.00    -0.228 C  
BRANCH  15  16
HETATM   16  C   UNL     1      -8.751  12.047  66.916  1.00  0.00    -0.193 C  
HETATM   17  C   UNL     1      -9.318  11.404  65.876  1.00  0.00    -0.247 C  
BRANCH  17  18
HETATM   18  C   UNL     1     -10.097  11.973  64.725  1.00  0.00    -0.286 C  
BRANCH  18  19
HETATM   19  C   UNL     1     -11.554  12.285  65.104  1.00  0.00    -0.402 C  
BRANCH  19  20
HETATM   20  C   UNL     1     -11.791  13.720  65.556  1.00  0.00    -0.378 C  
BRANCH  20  21
HETATM   21  C   UNL     1     -12.243  14.576  64.414  1.00  0.00    -0.458 C  
HETATM   22  O   UNL     1     -12.903  14.211  63.449  1.00  0.00    -0.570 OA 
BRANCH  21  23
HETATM   23  O   UNL     1     -11.672  15.804  64.554  1.00  0.00    -0.346 OA 
BRANCH  23  24
HETATM   24  C   UNL     1     -10.835  15.824  65.692  1.00  0.00    -0.307 C  
BRANCH  24  25
HETATM   25  C   UNL     1     -10.900  17.135  66.445  1.00  0.00     0.058 C  
BRANCH  25  26
HETATM   26  C   UNL     1     -10.469  18.330  65.598  1.00  0.00    -0.109 C  
BRANCH  26  27
HETATM   27  C   UNL     1     -10.214  19.624  66.383  1.00  0.00    -0.488 C  
BRANCH  27  28
HETATM   28  O   UNL     1      -9.067  19.455  67.187  1.00  0.00    -0.290 OA 
HETATM   29  N   UNL     1      -9.353  19.583  68.567  1.00  0.00    -0.367 N  
HETATM   30  O   UNL     1      -8.342  19.500  69.269  1.00  0.00    -0.237 OA 
HETATM   31  O   UNL     1     -10.520  19.761  68.889  1.00  0.00    -0.299 OA 
ENDBRANCH  27  28
ENDBRANCH  26  27
ENDBRANCH  25  26
ENDBRANCH  24  25
ENDBRANCH  23  24
ENDBRANCH  21  23
ENDBRANCH  20  21
ENDBRANCH  19  20
ENDBRANCH  18  19
ENDBRANCH  17  18
ENDBRANCH  15  16
ENDBRANCH   8  15
ENDBRANCH   5   6
ENDBRANCH   4   5
ENDBRANCH   2   4
BRANCH   2  32
HETATM   32  C   UNL     1     -10.023   9.897  69.495  1.00  0.00    -0.240 C  
BRANCH  32  33
HETATM   33  C   UNL     1      -9.486   8.470  69.517  1.00  0.00    -0.165 C  
BRANCH  33  34
HETATM   34  C   UNL     1      -8.641   8.241  68.307  1.00  0.00    -0.133 A  
HETATM   35  C   UNL     1      -6.804   8.927  66.893  1.00  0.00    -0.077 A  
HETATM   36  C   UNL     1      -8.245   7.100  66.226  1.00  0.00    -0.124 A  
HETATM   37  C   UNL     1      -7.548   9.083  68.059  1.00  0.00    -0.092 A  
HETATM   38  C   UNL     1      -8.990   7.252  67.388  1.00  0.00    -0.122 A  
HETATM   39  C   UNL     1      -7.153   7.936  65.977  1.00  0.00    -0.062 A  
ENDBRANCH  33  34
ENDBRANCH  32  33
ENDBRANCH   2  32
TORSDOF 18
ENDMDL
MODEL      304
REMARK 921   NORMALIZED FREE ENERGY PREDICTED BY IDOCK:   -3.47 KCAL/MOL
REMARK 922        TOTAL FREE ENERGY PREDICTED BY IDOCK:  -11.91 KCAL/MOL
REMARK 923 INTER-LIGAND FREE ENERGY PREDICTED BY IDOCK:   -8.69 KCAL/MOL
REMARK 924 INTRA-LIGAND FREE ENERGY PREDICTED BY IDOCK:   -3.22 KCAL/MOL
REMARK 927      BINDING AFFINITY PREDICTED BY RF-SCORE:    0.00 PKD
ROOT
HETATM    1  O   UNL     1      -5.840   8.345  64.406  1.00  0.00    -0.062 OA 
HETATM    2  C   UNL     1      -7.213   8.709  64.276  1.00  0.00    -0.094 C  
HETATM    3  H   UNL     1      -5.562   7.838  63.652  1.00  0.00     0.000 HD 
ENDROOT
BRANCH   2   4
HETATM    4  C   UNL     1      -7.663   9.531  65.499  1.00  0.00    -0.105 C  
BRANCH   4   5
HETATM    5  C   UNL     1      -8.521   8.770  66.515  1.00  0.00    -0.120 C  
BRANCH   5   6
HETATM    6  C   UNL     1      -7.938   8.643  67.941  1.00  0.00    -0.107 C  
HETATM    7  H   UNL     1      -8.080  10.185  71.653  1.00  0.00     0.000 HD 
HETATM    8  C   UNL     1      -8.536   9.567  69.085  1.00  0.00    -0.140 C  
HETATM    9  C   UNL     1      -6.456   9.038  67.900  1.00  0.00    -0.057 C  
HETATM   10  C   UNL     1      -6.101   9.247  69.343  1.00  0.00    -0.037 C  
HETATM   11  O   UNL     1      -5.638   8.023  67.347  1.00  0.00    -0.035 OA 
HETATM   12  O   UNL     1      -7.337   9.712  71.296  1.00  0.00    -0.322 OA 
HETATM   13  H   UNL     1      -4.721   8.267  67.322  1.00  0.00     0.000 HD 
HETATM   14  C   UNL     1      -7.284  10.001  69.913  1.00  0.00    -0.145 C  
BRANCH   8  15
HETATM   15  C   UNL     1      -9.694   8.936  69.923  1.00  0.00    -0.185 C  
BRANCH  15  16
HETATM   16  C   UNL     1     -10.496   7.854  69.223  1.00  0.00    -0.221 C  
HETATM   17  C   UNL     1     -11.045   6.711  69.678  1.00  0.00    -0.390 C  
BRANCH  17  18
HETATM   18  C   UNL     1     -11.015   6.136  71.066  1.00  0.00    -0.354 C  
BRANCH  18  19
HETATM   19  C   UNL     1     -12.210   6.598  71.915  1.00  0.00    -0.381 C  
BRANCH  19  20
HETATM   20  C   UNL     1     -13.319   7.276  71.121  1.00  0.00    -0.256 C  
BRANCH  20  21
HETATM   21  C   UNL     1     -13.668   8.607  71.711  1.00  0.00    -0.417 C  
HETATM   22  O   UNL     1     -14.344   8.802  72.713  1.00  0.00    -0.569 OA 
BRANCH  21  23
HETATM   23  O   UNL     1     -13.226   9.575  70.862  1.00  0.00    -0.233 OA 
BRANCH  23  24
HETATM   24  C   UNL     1     -12.421  10.503  71.559  1.00  0.00    -0.387 C  
BRANCH  24  25
HETATM   25  C   UNL     1     -12.762  11.939  71.228  1.00  0.00    -0.401 C  
BRANCH  25  26
HETATM   26  C   UNL     1     -13.622  12.607  72.299  1.00  0.00    -0.508 C  
BRANCH  26  27
HETATM   27  C   UNL     1     -13.128  13.985  72.762  1.00  0.00    -0.440 C  
BRANCH  27  28
HETATM   28  O   UNL     1     -12.197  14.479  71.824  1.00  0.00    -0.339 OA 
HETATM   29  N   UNL     1     -12.789  15.360  70.888  1.00  0.00    -0.450 N  
HETATM   30  O   UNL     1     -11.991  15.742  70.029  1.00  0.00    -0.353 OA 
HETATM   31  O   UNL     1     -13.976  15.623  71.031  1.00  0.00    -0.534 OA 
ENDBRANCH  27  28
ENDBRANCH  26  27
ENDBRANCH  25  26
ENDBRANCH  24  25
ENDBRANCH  23  24
ENDBRANCH  21  23
ENDBRANCH  20  21
ENDBRANCH  19  20
ENDBRANCH  18  19
ENDBRANCH  17  18
ENDBRANCH  15  16
ENDBRANCH   8  15
ENDBRANCH   5   6
ENDBRANCH   4   5
ENDBRANCH   2   4
BRANCH   2  32
HETATM   32  C   UNL     1      -7.999   7.411  64.156  1.00  0.00    -0.092 C  
BRANCH  32  33
HETATM   33  C   UNL     1      -7.172   6.208  64.595  1.00  0.00    -0.064 C  
BRANCH  33  34
HETATM   34  C   UNL     1      -7.928   5.439  65.628  1.00  0.00    -0.107 A  
HETATM   35  C   UNL     1      -9.994   4.420  66.364  1.00  0.00    -0.252 A  
HETATM   36  C   UNL     1      -8.086   4.526  67.849  1.00  0.00    -0.092 A  
HETATM   37  C   UNL     1      -9.257   5.066  65.376  1.00  0.00    -0.144 A  
HETATM   38  C   UNL     1      -7.346   5.171  66.866  1.00  0.00    -0.086 A  
HETATM   39  C   UNL     1      -9.408   4.151  67.600  1.00  0.00    -0.208 A  
ENDBRANCH  33  34
ENDBRANCH  32  33
ENDBRANCH   2  32
TORSDOF 18
ENDMDL
MODEL      305
REMARK 921   NORMALIZED FREE ENERGY PREDICTED BY IDOCK:   -3.47 KCAL/MOL
REMARK 922        TOTAL FREE ENERGY PREDICTED BY IDOCK:  -11.91 KCAL/MOL
REMARK 923 INTER-LIGAND FREE ENERGY PREDICTED BY IDOCK:   -8.50 KCAL/MOL
REMARK 924 INTRA-LIGAND FREE ENERGY PREDICTED BY IDOCK:   -3.41 KCAL/MOL
REMARK 927      BINDING AFFINITY PREDICTED BY RF-SCORE:    0.00 PKD
ROOT
HETATM    1  O   UNL     1     -12.278  10.404  68.685  1.00  0.00    -0.750 OA 
HETATM    2  C   UNL     1     -11.889  11.755  68.443  1.00  0.00    -0.282 C  
HETATM    3  H   UNL     1     -13.143  10.377  69.077  1.00  0.00     0.000 HD 
ENDROOT
BRANCH   2   4
HETATM    4  C   UNL     1     -10.487  11.799  67.806  1.00  0.00    -0.219 C  
BRANCH   4   5
HETATM    5  C   UNL     1     -10.320  10.949  66.542  1.00  0.00    -0.299 C  
BRANCH   5   6
HETATM    6  C   UNL     1      -9.336   9.760  66.643  1.00  0.00    -0.200 C  
HETATM    7  H   UNL     1      -6.528   7.690  64.642  1.00  0.00     0.000 HD 
HETATM    8  C   UNL     1      -8.340   9.499  65.436  1.00  0.00    -0.144 C  
HETATM    9  C   UNL     1     -10.149   8.461  66.725  1.00  0.00    -0.303 C  
HETATM   10  C   UNL     1      -9.139   7.388  66.438  1.00  0.00    -0.196 C  
HETATM   11  O   UNL     1     -10.718   8.253  68.004  1.00  0.00    -0.413 OA 
HETATM   12  O   UNL     1      -7.042   7.342  65.361  1.00  0.00    -0.058 OA 
HETATM   13  H   UNL     1     -11.221   7.449  68.054  1.00  0.00     0.000 HD 
HETATM   14  C   UNL     1      -8.320   7.944  65.293  1.00  0.00    -0.133 C  
BRANCH   8  15
HETATM   15  C   UNL     1      -6.934  10.168  65.568  1.00  0.00    -0.131 C  
BRANCH  15  16
HETATM   16  C   UNL     1      -6.785  11.161  66.706  1.00  0.00    -0.135 C  
HETATM   17  C   UNL     1      -6.087  11.104  67.858  1.00  0.00    -0.049 C  
BRANCH  17  18
HETATM   18  C   UNL     1      -5.227   9.991  68.387  1.00  0.00    -0.035 C  
BRANCH  18  19
HETATM   19  C   UNL     1      -6.059   8.834  68.963  1.00  0.00    -0.043 C  
BRANCH  19  20
HETATM   20  C   UNL     1      -6.786   9.168  70.259  1.00  0.00    -0.055 C  
BRANCH  20  21
HETATM   21  C   UNL     1      -8.260   8.949  70.121  1.00  0.00    -0.125 C  
HETATM   22  O   UNL     1      -9.136   9.796  70.255  1.00  0.00    -0.237 OA 
BRANCH  21  23
HETATM   23  O   UNL     1      -8.477   7.615  69.962  1.00  0.00    -0.132 OA 
BRANCH  23  24
HETATM   24  C   UNL     1      -8.539   6.979  71.222  1.00  0.00    -0.119 C  
BRANCH  24  25
HETATM   25  C   UNL     1      -7.440   5.959  71.419  1.00  0.00    -0.096 C  
BRANCH  25  26
HETATM   26  C   UNL     1      -7.871   4.541  71.050  1.00  0.00    -0.073 C  
BRANCH  26  27
HETATM   27  C   UNL     1      -7.329   4.026  69.708  1.00  0.00    -0.049 C  
BRANCH  27  28
HETATM   28  O   UNL     1      -8.398   3.907  68.796  1.00  0.00    -0.073 OA 
HETATM   29  N   UNL     1      -8.626   2.567  68.403  1.00  0.00    -0.073 N  
HETATM   30  O   UNL     1      -9.517   2.468  67.556  1.00  0.00    -0.167 OA 
HETATM   31  O   UNL     1      -7.934   1.700  68.922  1.00  0.00    -0.046 OA 
ENDBRANCH  27  28
ENDBRANCH  26  27
ENDBRANCH  25  26
ENDBRANCH  24  25
ENDBRANCH  23  24
ENDBRANCH  21  23
ENDBRANCH  20  21
ENDBRANCH  19  20
ENDBRANCH  18  19
ENDBRANCH  17  18
ENDBRANCH  15  16
ENDBRANCH   8  15
ENDBRANCH   5   6
ENDBRANCH   4   5
ENDBRANCH   2   4
BRANCH   2  32
HETATM   32  C   UNL     1     -11.914  12.464  69.789  1.00  0.00    -0.359 C  
BRANCH  32  33
HETATM   33  C   UNL     1     -11.912  13.980  69.629  1.00  0.00    -0.393 C  
BRANCH  33  34
HETATM   34  C   UNL     1     -12.355  14.613  70.907  1.00  0.00    -0.406 A  
HETATM   35  C   UNL     1     -14.074  14.951  72.573  1.00  0.00    -0.478 A  
HETATM   36  C   UNL     1     -12.008  16.208  72.675  1.00  0.00    -0.653 A  
HETATM   37  C   UNL     1     -13.622  14.306  71.426  1.00  0.00    -0.395 A  
HETATM   38  C   UNL     1     -11.551  15.566  71.531  1.00  0.00    -0.487 A  
HETATM   39  C   UNL     1     -13.268  15.902  73.196  1.00  0.00    -0.692 A  
ENDBRANCH  33  34
ENDBRANCH  32  33
ENDBRANCH   2  32
TORSDOF 18
ENDMDL
MODEL      306
REMARK 921   NORMALIZED FREE ENERGY PREDICTED BY IDOCK:   -3.47 KCAL/MOL
REMARK 922        TOTAL FREE ENERGY PREDICTED BY IDOCK:  -11.90 KCAL/MOL
REMARK 923 INTER-LIGAND FREE ENERGY PREDICTED BY IDOCK:   -9.99 KCAL/MOL
REMARK 924 INTRA-LIGAND FREE ENERGY PREDICTED BY IDOCK:   -1.91 KCAL/MOL
REMARK 927      BINDING AFFINITY PREDICTED BY RF-SCORE:    0.00 PKD
ROOT
HETATM    1  O   UNL     1      -8.093   8.606  67.066  1.00  0.00    -0.099 OA 
HETATM    2  C   UNL     1      -8.030   8.861  65.664  1.00  0.00    -0.098 C  
HETATM    3  H   UNL     1      -7.384   8.029  67.326  1.00  0.00     0.000 HD 
ENDROOT
BRANCH   2   4
HETATM    4  C   UNL     1      -9.180   9.797  65.243  1.00  0.00    -0.294 C  
BRANCH   4   5
HETATM    5  C   UNL     1      -9.037  11.251  65.704  1.00  0.00    -0.203 C  
BRANCH   5   6
HETATM    6  C   UNL     1     -10.069  12.252  65.135  1.00  0.00    -0.284 C  
HETATM    7  H   UNL     1     -13.619  14.007  65.841  1.00  0.00     0.000 HD 
HETATM    8  C   UNL     1     -11.331  12.623  66.025  1.00  0.00    -0.369 C  
HETATM    9  C   UNL     1     -10.689  11.647  63.869  1.00  0.00    -0.398 C  
HETATM   10  C   UNL     1     -11.905  12.492  63.626  1.00  0.00    -0.610 C  
HETATM   11  O   UNL     1      -9.825  11.720  62.750  1.00  0.00    -0.518 OA 
HETATM   12  O   UNL     1     -13.239  13.890  64.977  1.00  0.00    -0.729 OA 
HETATM   13  H   UNL     1     -10.208  11.345  61.966  1.00  0.00     0.000 HD 
HETATM   14  C   UNL     1     -12.510  12.679  65.002  1.00  0.00    -0.487 C  
BRANCH   8  15
HETATM   15  C   UNL     1     -11.173  13.895  66.918  1.00  0.00    -0.324 C  
BRANCH  15  16
HETATM   16  C   UNL     1     -11.910  13.860  68.245  1.00  0.00    -0.412 C  
HETATM   17  C   UNL     1     -11.846  13.001  69.282  1.00  0.00    -0.370 C  
BRANCH  17  18
HETATM   18  C   UNL     1     -11.003  11.767  69.436  1.00  0.00    -0.185 C  
BRANCH  18  19
HETATM   19  C   UNL     1     -11.846  10.519  69.739  1.00  0.00    -0.329 C  
BRANCH  19  20
HETATM   20  C   UNL     1     -12.813  10.682  70.904  1.00  0.00    -0.473 C  
BRANCH  20  21
HETATM   21  C   UNL     1     -12.916   9.418  71.699  1.00  0.00    -0.391 C  
HETATM   22  O   UNL     1     -13.757   9.162  72.552  1.00  0.00    -0.474 OA 
BRANCH  21  23
HETATM   23  O   UNL     1     -11.826   8.653  71.418  1.00  0.00    -0.275 OA 
BRANCH  23  24
HETATM   24  C   UNL     1     -11.231   8.195  72.614  1.00  0.00    -0.378 C  
BRANCH  24  25
HETATM   25  C   UNL     1     -11.086   6.690  72.660  1.00  0.00    -0.291 C  
BRANCH  25  26
HETATM   26  C   UNL     1     -11.189   6.041  71.281  1.00  0.00    -0.323 C  
BRANCH  26  27
HETATM   27  C   UNL     1      -9.847   5.642  70.650  1.00  0.00    -0.187 C  
BRANCH  27  28
HETATM   28  O   UNL     1     -10.094   4.930  69.457  1.00  0.00    -0.221 OA 
HETATM   29  N   UNL     1      -9.602   3.605  69.508  1.00  0.00    -0.179 N  
HETATM   30  O   UNL     1      -9.759   3.001  68.444  1.00  0.00    -0.116 OA 
HETATM   31  O   UNL     1      -9.091   3.231  70.556  1.00  0.00    -0.096 OA 
ENDBRANCH  27  28
ENDBRANCH  26  27
ENDBRANCH  25  26
ENDBRANCH  24  25
ENDBRANCH  23  24
ENDBRANCH  21  23
ENDBRANCH  20  21
ENDBRANCH  19  20
ENDBRANCH  18  19
ENDBRANCH  17  18
ENDBRANCH  15  16
ENDBRANCH   8  15
ENDBRANCH   5   6
ENDBRANCH   4   5
ENDBRANCH   2   4
BRANCH   2  32
HETATM   32  C   UNL     1      -8.127   7.510  64.970  1.00  0.00    -0.127 C  
BRANCH  32  33
HETATM   33  C   UNL     1      -7.628   6.380  65.862  1.00  0.00    -0.084 C  
BRANCH  33  34
HETATM   34  C   UNL     1      -8.113   5.074  65.324  1.00  0.00    -0.117 A  
HETATM   35  C   UNL     1      -7.734   3.122  63.949  1.00  0.00    -0.076 A  
HETATM   36  C   UNL     1      -9.895   3.494  64.974  1.00  0.00    -0.111 A  
HETATM   37  C   UNL     1      -7.263   4.300  64.520  1.00  0.00    -0.069 A  
HETATM   38  C   UNL     1      -9.429   4.671  65.547  1.00  0.00    -0.178 A  
HETATM   39  C   UNL     1      -9.049   2.720  64.176  1.00  0.00    -0.111 A  
ENDBRANCH  33  34
ENDBRANCH  32  33
ENDBRANCH   2  32
TORSDOF 18
ENDMDL
MODEL      307
REMARK 921   NORMALIZED FREE ENERGY PREDICTED BY IDOCK:   -3.46 KCAL/MOL
REMARK 922        TOTAL FREE ENERGY PREDICTED BY IDOCK:  -11.88 KCAL/MOL
REMARK 923 INTER-LIGAND FREE ENERGY PREDICTED BY IDOCK:   -9.85 KCAL/MOL
REMARK 924 INTRA-LIGAND FREE ENERGY PREDICTED BY IDOCK:   -2.03 KCAL/MOL
REMARK 927      BINDING AFFINITY PREDICTED BY RF-SCORE:    0.00 PKD
ROOT
HETATM    1  O   UNL     1      -6.475   8.379  68.820  1.00  0.00    -0.051 OA 
HETATM    2  C   UNL     1      -6.810   7.117  69.393  1.00  0.00    -0.050 C  
HETATM    3  H   UNL     1      -5.534   8.508  68.838  1.00  0.00     0.000 HD 
ENDROOT
BRANCH   2   4
HETATM    4  C   UNL     1      -8.337   6.908  69.363  1.00  0.00    -0.132 C  
BRANCH   4   5
HETATM    5  C   UNL     1      -9.118   7.934  68.536  1.00  0.00    -0.132 C  
BRANCH   5   6
HETATM    6  C   UNL     1     -10.380   8.529  69.201  1.00  0.00    -0.227 C  
HETATM    7  H   UNL     1     -11.673  11.317  71.795  1.00  0.00     0.000 HD 
HETATM    8  C   UNL     1     -10.211   9.796  70.142  1.00  0.00    -0.328 C  
HETATM    9  C   UNL     1     -10.987   7.470  70.131  1.00  0.00    -0.254 C  
HETATM   10  C   UNL     1     -11.942   8.250  70.986  1.00  0.00    -0.260 C  
HETATM   11  O   UNL     1     -11.689   6.464  69.425  1.00  0.00    -0.619 OA 
HETATM   12  O   UNL     1     -12.148  10.523  71.580  1.00  0.00    -0.330 OA 
HETATM   13  H   UNL     1     -12.064   5.808  70.001  1.00  0.00     0.000 HD 
HETATM   14  C   UNL     1     -11.187   9.517  71.330  1.00  0.00    -0.382 C  
BRANCH   8  15
HETATM   15  C   UNL     1     -10.401  11.182  69.446  1.00  0.00    -0.090 C  
BRANCH  15  16
HETATM   16  C   UNL     1     -11.523  11.254  68.426  1.00  0.00    -0.377 C  
HETATM   17  C   UNL     1     -11.527  11.096  67.087  1.00  0.00    -0.163 C  
BRANCH  17  18
HETATM   18  C   UNL     1     -10.376  10.805  66.167  1.00  0.00    -0.300 C  
BRANCH  18  19
HETATM   19  C   UNL     1     -10.599  11.371  64.756  1.00  0.00    -0.377 C  
BRANCH  19  20
HETATM   20  C   UNL     1     -11.898  12.150  64.590  1.00  0.00    -0.400 C  
BRANCH  20  21
HETATM   21  C   UNL     1     -11.636  13.527  64.065  1.00  0.00    -0.353 C  
HETATM   22  O   UNL     1     -12.423  14.229  63.441  1.00  0.00    -0.761 OA 
BRANCH  21  23
HETATM   23  O   UNL     1     -10.322  13.815  64.273  1.00  0.00    -0.331 OA 
BRANCH  23  24
HETATM   24  C   UNL     1     -10.106  14.154  65.627  1.00  0.00    -0.328 C  
BRANCH  24  25
HETATM   25  C   UNL     1     -10.979  15.300  66.091  1.00  0.00    -0.307 C  
BRANCH  25  26
HETATM   26  C   UNL     1     -10.798  15.623  67.572  1.00  0.00    -0.316 C  
BRANCH  26  27
HETATM   27  C   UNL     1     -10.731  17.119  67.908  1.00  0.00    -0.355 C  
BRANCH  27  28
HETATM   28  O   UNL     1     -10.721  17.859  66.706  1.00  0.00    -0.279 OA 
HETATM   29  N   UNL     1     -10.747  19.256  66.932  1.00  0.00    -0.456 N  
HETATM   30  O   UNL     1     -10.804  19.903  65.884  1.00  0.00    -0.410 OA 
HETATM   31  O   UNL     1     -10.721  19.641  68.094  1.00  0.00    -0.358 OA 
ENDBRANCH  27  28
ENDBRANCH  26  27
ENDBRANCH  25  26
ENDBRANCH  24  25
ENDBRANCH  23  24
ENDBRANCH  21  23
ENDBRANCH  20  21
ENDBRANCH  19  20
ENDBRANCH  18  19
ENDBRANCH  17  18
ENDBRANCH  15  16
ENDBRANCH   8  15
ENDBRANCH   5   6
ENDBRANCH   4   5
ENDBRANCH   2   4
BRANCH   2  32
HETATM   32  C   UNL     1      -6.277   7.128  70.818  1.00  0.00    -0.036 C  
BRANCH  32  33
HETATM   33  C   UNL     1      -7.014   8.140  71.689  1.00  0.00    -0.072 C  
BRANCH  33  34
HETATM   34  C   UNL     1      -7.848   7.413  72.693  1.00  0.00    -0.110 A  
HETATM   35  C   UNL     1      -8.347   5.378  73.899  1.00  0.00    -0.114 A  
HETATM   36  C   UNL     1      -9.798   7.304  74.099  1.00  0.00    -0.178 A  
HETATM   37  C   UNL     1      -7.528   6.088  73.026  1.00  0.00    -0.094 A  
HETATM   38  C   UNL     1      -8.984   8.018  73.228  1.00  0.00    -0.338 A  
HETATM   39  C   UNL     1      -9.480   5.986  74.434  1.00  0.00    -0.182 A  
ENDBRANCH  33  34
ENDBRANCH  32  33
ENDBRANCH   2  32
TORSDOF 18
ENDMDL
MODEL      308
REMARK 921   NORMALIZED FREE ENERGY PREDICTED BY IDOCK:   -3.45 KCAL/MOL
REMARK 922        TOTAL FREE ENERGY PREDICTED BY IDOCK:  -11.86 KCAL/MOL
REMARK 923 INTER-LIGAND FREE ENERGY PREDICTED BY IDOCK:   -9.17 KCAL/MOL
REMARK 924 INTRA-LIGAND FREE ENERGY PREDICTED BY IDOCK:   -2.69 KCAL/MOL
REMARK 927      BINDING AFFINITY PREDICTED BY RF-SCORE:    0.00 PKD
ROOT
HETATM    1  O   UNL     1     -12.507  10.836  68.868  1.00  0.00    -0.782 OA 
HETATM    2  C   UNL     1     -11.414  11.655  68.458  1.00  0.00    -0.298 C  
HETATM    3  H   UNL     1     -13.330  11.232  68.604  1.00  0.00     0.000 HD 
ENDROOT
BRANCH   2   4
HETATM    4  C   UNL     1     -10.080  11.013  68.886  1.00  0.00    -0.212 C  
BRANCH   4   5
HETATM    5  C   UNL     1      -9.100  10.726  67.743  1.00  0.00    -0.151 C  
BRANCH   5   6
HETATM    6  C   UNL     1      -8.756   9.239  67.496  1.00  0.00    -0.116 C  
HETATM    7  H   UNL     1      -6.861   6.717  65.001  1.00  0.00     0.000 HD 
HETATM    8  C   UNL     1      -7.805   8.877  66.278  1.00  0.00    -0.102 C  
HETATM    9  C   UNL     1     -10.053   8.485  67.175  1.00  0.00    -0.262 C  
HETATM   10  C   UNL     1      -9.577   7.186  66.593  1.00  0.00    -0.226 C  
HETATM   11  O   UNL     1     -10.838   8.235  68.326  1.00  0.00    -0.436 OA 
HETATM   12  O   UNL     1      -7.575   6.468  65.577  1.00  0.00    -0.080 OA 
HETATM   13  H   UNL     1     -11.641   7.768  68.128  1.00  0.00     0.000 HD 
HETATM   14  C   UNL     1      -8.440   7.582  65.676  1.00  0.00    -0.132 C  
BRANCH   8  15
HETATM   15  C   UNL     1      -6.285   8.767  66.621  1.00  0.00    -0.058 C  
BRANCH  15  16
HETATM   16  C   UNL     1      -5.956   8.603  68.093  1.00  0.00    -0.046 C  
HETATM   17  C   UNL     1      -5.594   7.524  68.815  1.00  0.00    -0.023 C  
BRANCH  17  18
HETATM   18  C   UNL     1      -5.416   6.102  68.363  1.00  0.00    -0.008 C  
BRANCH  18  19
HETATM   19  C   UNL     1      -6.647   5.234  68.669  1.00  0.00    -0.048 C  
BRANCH  19  20
HETATM   20  C   UNL     1      -7.039   5.198  70.141  1.00  0.00    -0.054 C  
BRANCH  20  21
HETATM   21  C   UNL     1      -8.458   5.635  70.330  1.00  0.00    -0.127 C  
HETATM   22  O   UNL     1      -8.919   6.740  70.069  1.00  0.00    -0.141 OA 
BRANCH  21  23
HETATM   23  O   UNL     1      -9.123   4.642  70.981  1.00  0.00    -0.123 OA 
BRANCH  23  24
HETATM   24  C   UNL     1      -9.486   5.067  72.278  1.00  0.00    -0.139 C  
BRANCH  24  25
HETATM   25  C   UNL     1     -10.933   5.500  72.369  1.00  0.00    -0.310 C  
BRANCH  25  26
HETATM   26  C   UNL     1     -11.090   6.994  72.646  1.00  0.00    -0.317 C  
BRANCH  26  27
HETATM   27  C   UNL     1     -12.371   7.627  72.085  1.00  0.00    -0.241 C  
BRANCH  27  28
HETATM   28  O   UNL     1     -12.170   9.016  71.936  1.00  0.00    -0.335 OA 
HETATM   29  N   UNL     1     -13.332   9.765  72.239  1.00  0.00    -0.428 N  
HETATM   30  O   UNL     1     -13.178  10.973  72.047  1.00  0.00    -0.499 OA 
HETATM   31  O   UNL     1     -14.315   9.150  72.632  1.00  0.00    -0.561 OA 
ENDBRANCH  27  28
ENDBRANCH  26  27
ENDBRANCH  25  26
ENDBRANCH  24  25
ENDBRANCH  23  24
ENDBRANCH  21  23
ENDBRANCH  20  21
ENDBRANCH  19  20
ENDBRANCH  18  19
ENDBRANCH  17  18
ENDBRANCH  15  16
ENDBRANCH   8  15
ENDBRANCH   5   6
ENDBRANCH   4   5
ENDBRANCH   2   4
BRANCH   2  32
HETATM   32  C   UNL     1     -11.616  13.013  69.114  1.00  0.00    -0.368 C  
BRANCH  32  33
HETATM   33  C   UNL     1     -10.646  14.054  68.566  1.00  0.00    -0.260 C  
BRANCH  33  34
HETATM   34  C   UNL     1     -10.972  14.327  67.134  1.00  0.00    -0.305 A  
HETATM   35  C   UNL     1     -10.449  15.457  65.061  1.00  0.00    -0.411 A  
HETATM   36  C   UNL     1     -12.496  14.184  65.277  1.00  0.00    -0.474 A  
HETATM   37  C   UNL     1     -10.112  15.132  66.372  1.00  0.00    -0.286 A  
HETATM   38  C   UNL     1     -12.164  13.856  66.586  1.00  0.00    -0.465 A  
HETATM   39  C   UNL     1     -11.640  14.983  64.515  1.00  0.00    -0.346 A  
ENDBRANCH  33  34
ENDBRANCH  32  33
ENDBRANCH   2  32
TORSDOF 18
ENDMDL
MODEL      309
REMARK 921   NORMALIZED FREE ENERGY PREDICTED BY IDOCK:   -3.42 KCAL/MOL
REMARK 922        TOTAL FREE ENERGY PREDICTED BY IDOCK:  -11.79 KCAL/MOL
REMARK 923 INTER-LIGAND FREE ENERGY PREDICTED BY IDOCK:   -9.18 KCAL/MOL
REMARK 924 INTRA-LIGAND FREE ENERGY PREDICTED BY IDOCK:   -2.61 KCAL/MOL
REMARK 927      BINDING AFFINITY PREDICTED BY RF-SCORE:    0.00 PKD
ROOT
HETATM    1  O   UNL     1      -8.778   5.234  67.948  1.00  0.00    -0.104 OA 
HETATM    2  C   UNL     1      -9.569   5.903  68.928  1.00  0.00    -0.132 C  
HETATM    3  H   UNL     1      -9.332   4.716  67.377  1.00  0.00     0.000 HD 
ENDROOT
BRANCH   2   4
HETATM    4  C   UNL     1      -8.670   6.745  69.854  1.00  0.00    -0.141 C  
BRANCH   4   5
HETATM    5  C   UNL     1      -9.384   7.383  71.050  1.00  0.00    -0.157 C  
BRANCH   5   6
HETATM    6  C   UNL     1     -10.732   8.079  70.748  1.00  0.00    -0.236 C  
HETATM    7  H   UNL     1     -12.443  11.630  69.951  1.00  0.00     0.000 HD 
HETATM    8  C   UNL     1     -10.719   9.626  70.393  1.00  0.00    -0.356 C  
HETATM    9  C   UNL     1     -11.610   8.006  72.004  1.00  0.00    -0.316 C  
HETATM   10  C   UNL     1     -12.695   9.009  71.740  1.00  0.00    -0.431 C  
HETATM   11  O   UNL     1     -12.179   6.725  72.197  1.00  0.00    -0.425 OA 
HETATM   12  O   UNL     1     -12.899  10.887  70.329  1.00  0.00    -0.267 OA 
HETATM   13  H   UNL     1     -12.723   6.680  72.975  1.00  0.00     0.000 HD 
HETATM   14  C   UNL     1     -11.969  10.194  71.138  1.00  0.00    -0.386 C  
BRANCH   8  15
HETATM   15  C   UNL     1     -10.648   9.966  68.870  1.00  0.00    -0.239 C  
BRANCH  15  16
HETATM   16  C   UNL     1      -9.298   9.747  68.212  1.00  0.00    -0.134 C  
HETATM   17  C   UNL     1      -8.644  10.441  67.259  1.00  0.00    -0.126 C  
BRANCH  17  18
HETATM   18  C   UNL     1      -9.079  11.677  66.525  1.00  0.00    -0.200 C  
BRANCH  18  19
HETATM   19  C   UNL     1     -10.197  11.390  65.510  1.00  0.00    -0.312 C  
BRANCH  19  20
HETATM   20  C   UNL     1     -11.598  11.722  66.008  1.00  0.00    -0.206 C  
BRANCH  20  21
HETATM   21  C   UNL     1     -12.303  12.640  65.059  1.00  0.00    -0.497 C  
HETATM   22  O   UNL     1     -13.513  12.712  64.882  1.00  0.00    -0.599 OA 
BRANCH  21  23
HETATM   23  O   UNL     1     -11.362  13.283  64.316  1.00  0.00    -0.365 OA 
BRANCH  23  24
HETATM   24  C   UNL     1     -11.578  14.678  64.359  1.00  0.00    -0.305 C  
BRANCH  24  25
HETATM   25  C   UNL     1     -10.594  15.397  65.257  1.00  0.00    -0.450 C  
BRANCH  25  26
HETATM   26  C   UNL     1     -11.205  15.819  66.591  1.00  0.00    -0.000 C  
BRANCH  26  27
HETATM   27  C   UNL     1     -10.831  14.931  67.787  1.00  0.00    -0.286 C  
BRANCH  27  28
HETATM   28  O   UNL     1      -9.426  14.884  67.902  1.00  0.00    -0.196 OA 
HETATM   29  N   UNL     1      -8.976  15.269  69.187  1.00  0.00    -0.221 N  
HETATM   30  O   UNL     1      -7.745  15.291  69.270  1.00  0.00    -0.182 OA 
HETATM   31  O   UNL     1      -9.825  15.533  70.028  1.00  0.00    -0.283 OA 
ENDBRANCH  27  28
ENDBRANCH  26  27
ENDBRANCH  25  26
ENDBRANCH  24  25
ENDBRANCH  23  24
ENDBRANCH  21  23
ENDBRANCH  20  21
ENDBRANCH  19  20
ENDBRANCH  18  19
ENDBRANCH  17  18
ENDBRANCH  15  16
ENDBRANCH   8  15
ENDBRANCH   5   6
ENDBRANCH   4   5
ENDBRANCH   2   4
BRANCH   2  32
HETATM   32  C   UNL     1     -10.312   4.824  69.701  1.00  0.00    -0.078 C  
BRANCH  32  33
HETATM   33  C   UNL     1      -9.358   3.783  70.275  1.00  0.00    -0.238 C  
BRANCH  33  34
HETATM   34  C   UNL     1      -9.835   3.368  71.628  1.00  0.00    -0.222 A  
HETATM   35  C   UNL     1     -10.348   3.945  73.920  1.00  0.00    -0.239 A  
HETATM   36  C   UNL     1     -10.416   1.637  73.196  1.00  0.00    -0.203 A  
HETATM   37  C   UNL     1      -9.981   4.334  72.635  1.00  0.00    -0.210 A  
HETATM   38  C   UNL     1     -10.051   2.020  71.911  1.00  0.00    -0.203 A  
HETATM   39  C   UNL     1     -10.565   2.597  74.199  1.00  0.00    -0.236 A  
ENDBRANCH  33  34
ENDBRANCH  32  33
ENDBRANCH   2  32
TORSDOF 18
ENDMDL
MODEL      310
REMARK 921   NORMALIZED FREE ENERGY PREDICTED BY IDOCK:   -3.41 KCAL/MOL
REMARK 922        TOTAL FREE ENERGY PREDICTED BY IDOCK:  -11.78 KCAL/MOL
REMARK 923 INTER-LIGAND FREE ENERGY PREDICTED BY IDOCK:   -9.14 KCAL/MOL
REMARK 924 INTRA-LIGAND FREE ENERGY PREDICTED BY IDOCK:   -2.64 KCAL/MOL
REMARK 927      BINDING AFFINITY PREDICTED BY RF-SCORE:    0.00 PKD
ROOT
HETATM    1  O   UNL     1      -8.280   7.752  66.901  1.00  0.00    -0.113 OA 
HETATM    2  C   UNL     1      -7.626   8.950  67.314  1.00  0.00    -0.089 C  
HETATM    3  H   UNL     1      -8.571   7.831  66.000  1.00  0.00     0.000 HD 
ENDROOT
BRANCH   2   4
HETATM    4  C   UNL     1      -7.154   8.822  68.776  1.00  0.00    -0.063 C  
BRANCH   4   5
HETATM    5  C   UNL     1      -7.917   7.794  69.618  1.00  0.00    -0.116 C  
BRANCH   5   6
HETATM    6  C   UNL     1      -7.154   7.195  70.822  1.00  0.00    -0.066 C  
HETATM    7  H   UNL     1      -6.402   3.785  72.818  1.00  0.00     0.000 HD 
HETATM    8  C   UNL     1      -7.190   5.622  71.031  1.00  0.00    -0.076 C  
HETATM    9  C   UNL     1      -7.774   7.743  72.114  1.00  0.00    -0.094 C  
HETATM   10  C   UNL     1      -7.236   6.836  73.182  1.00  0.00    -0.076 C  
HETATM   11  O   UNL     1      -7.387   9.078  72.381  1.00  0.00    -0.337 OA 
HETATM   12  O   UNL     1      -6.342   4.654  73.197  1.00  0.00    -0.037 OA 
HETATM   13  H   UNL     1      -7.771   9.418  73.181  1.00  0.00     0.000 HD 
HETATM   14  C   UNL     1      -7.332   5.451  72.577  1.00  0.00    -0.095 C  
BRANCH   8  15
HETATM   15  C   UNL     1      -6.006   4.831  70.387  1.00  0.00    -0.018 C  
BRANCH  15  16
HETATM   16  C   UNL     1      -6.400   3.615  69.568  1.00  0.00    -0.029 C  
HETATM   17  C   UNL     1      -7.238   3.473  68.522  1.00  0.00    -0.050 C  
BRANCH  17  18
HETATM   18  C   UNL     1      -8.076   4.514  67.836  1.00  0.00    -0.092 C  
BRANCH  18  19
HETATM   19  C   UNL     1      -9.577   4.327  68.108  1.00  0.00    -0.196 C  
BRANCH  19  20
HETATM   20  C   UNL     1      -9.992   4.595  69.549  1.00  0.00    -0.266 C  
BRANCH  20  21
HETATM   21  C   UNL     1     -10.786   5.860  69.654  1.00  0.00    -0.374 C  
HETATM   22  O   UNL     1     -11.237   6.514  68.722  1.00  0.00    -0.293 OA 
BRANCH  21  23
HETATM   23  O   UNL     1     -10.801   6.242  70.960  1.00  0.00    -0.246 OA 
BRANCH  23  24
HETATM   24  C   UNL     1     -12.041   6.837  71.279  1.00  0.00    -0.370 C  
BRANCH  24  25
HETATM   25  C   UNL     1     -11.890   8.138  72.036  1.00  0.00    -0.392 C  
BRANCH  25  26
HETATM   26  C   UNL     1     -13.047   9.105  71.794  1.00  0.00    -0.456 C  
BRANCH  26  27
HETATM   27  C   UNL     1     -12.631  10.542  71.447  1.00  0.00    -0.434 C  
BRANCH  27  28
HETATM   28  O   UNL     1     -13.339  11.438  72.275  1.00  0.00    -0.410 OA 
HETATM   29  N   UNL     1     -13.174  12.786  71.877  1.00  0.00    -0.445 N  
HETATM   30  O   UNL     1     -13.738  13.576  72.638  1.00  0.00    -0.681 OA 
HETATM   31  O   UNL     1     -12.510  13.001  70.871  1.00  0.00    -0.367 OA 
ENDBRANCH  27  28
ENDBRANCH  26  27
ENDBRANCH  25  26
ENDBRANCH  24  25
ENDBRANCH  23  24
ENDBRANCH  21  23
ENDBRANCH  20  21
ENDBRANCH  19  20
ENDBRANCH  18  19
ENDBRANCH  17  18
ENDBRANCH  15  16
ENDBRANCH   8  15
ENDBRANCH   5   6
ENDBRANCH   4   5
ENDBRANCH   2   4
BRANCH   2  32
HETATM   32  C   UNL     1      -8.635  10.078  67.151  1.00  0.00    -0.128 C  
BRANCH  32  33
HETATM   33  C   UNL     1      -9.790   9.674  66.242  1.00  0.00    -0.323 C  
BRANCH  33  34
HETATM   34  C   UNL     1     -10.519  10.899  65.796  1.00  0.00    -0.275 A  
HETATM   35  C   UNL     1     -11.882  12.820  66.338  1.00  0.00    -0.472 A  
HETATM   36  C   UNL     1     -11.408  12.270  64.030  1.00  0.00    -0.469 A  
HETATM   37  C   UNL     1     -11.134  11.722  66.751  1.00  0.00    -0.360 A  
HETATM   38  C   UNL     1     -10.660  11.173  64.436  1.00  0.00    -0.411 A  
HETATM   39  C   UNL     1     -12.019  13.094  64.979  1.00  0.00    -0.423 A  
ENDBRANCH  33  34
ENDBRANCH  32  33
ENDBRANCH   2  32
TORSDOF 18
ENDMDL
MODEL      311
REMARK 921   NORMALIZED FREE ENERGY PREDICTED BY IDOCK:   -3.41 KCAL/MOL
REMARK 922        TOTAL FREE ENERGY PREDICTED BY IDOCK:  -11.78 KCAL/MOL
REMARK 923 INTER-LIGAND FREE ENERGY PREDICTED BY IDOCK:   -8.54 KCAL/MOL
REMARK 924 INTRA-LIGAND FREE ENERGY PREDICTED BY IDOCK:   -3.24 KCAL/MOL
REMARK 927      BINDING AFFINITY PREDICTED BY RF-SCORE:    0.00 PKD
ROOT
HETATM    1  O   UNL     1     -11.175  12.116  64.428  1.00  0.00    -0.311 OA 
HETATM    2  C   UNL     1     -10.431  10.960  64.806  1.00  0.00    -0.303 C  
HETATM    3  H   UNL     1     -11.413  12.067  63.510  1.00  0.00     0.000 HD 
ENDROOT
BRANCH   2   4
HETATM    4  C   UNL     1     -10.045  11.039  66.296  1.00  0.00    -0.282 C  
BRANCH   4   5
HETATM    5  C   UNL     1     -11.079  10.462  67.268  1.00  0.00    -0.251 C  
BRANCH   5   6
HETATM    6  C   UNL     1     -10.612   9.267  68.132  1.00  0.00    -0.248 C  
HETATM    7  H   UNL     1      -8.448   8.251  71.366  1.00  0.00     0.000 HD 
HETATM    8  C   UNL     1      -9.783   9.569  69.451  1.00  0.00    -0.190 C  
HETATM    9  C   UNL     1      -9.656   8.406  67.296  1.00  0.00    -0.165 C  
HETATM   10  C   UNL     1      -8.986   7.528  68.312  1.00  0.00    -0.130 C  
HETATM   11  O   UNL     1     -10.334   7.606  66.345  1.00  0.00    -0.488 OA 
HETATM   12  O   UNL     1      -8.636   7.667  70.640  1.00  0.00    -0.132 OA 
HETATM   13  H   UNL     1      -9.742   7.073  65.828  1.00  0.00     0.000 HD 
HETATM   14  C   UNL     1      -8.685   8.458  69.469  1.00  0.00    -0.137 C  
BRANCH   8  15
HETATM   15  C   UNL     1     -10.625   9.685  70.763  1.00  0.00    -0.392 C  
BRANCH  15  16
HETATM   16  C   UNL     1     -12.070  10.110  70.578  1.00  0.00    -0.380 C  
HETATM   17  C   UNL     1     -12.638  11.328  70.466  1.00  0.00    -0.331 C  
BRANCH  17  18
HETATM   18  C   UNL     1     -11.986  12.680  70.506  1.00  0.00    -0.279 C  
BRANCH  18  19
HETATM   19  C   UNL     1     -11.788  13.274  69.102  1.00  0.00    -0.378 C  
BRANCH  19  20
HETATM   20  C   UNL     1     -10.363  13.721  68.804  1.00  0.00    -0.198 C  
BRANCH  20  21
HETATM   21  C   UNL     1     -10.336  14.736  67.704  1.00  0.00    -0.237 C  
HETATM   22  O   UNL     1     -11.218  14.936  66.878  1.00  0.00    -0.335 OA 
BRANCH  21  23
HETATM   23  O   UNL     1      -9.099  15.305  67.685  1.00  0.00    -0.180 OA 
BRANCH  23  24
HETATM   24  C   UNL     1      -9.117  16.532  68.384  1.00  0.00    -0.222 C  
BRANCH  24  25
HETATM   25  C   UNL     1      -8.818  17.719  67.494  1.00  0.00    -0.243 C  
BRANCH  25  26
HETATM   26  C   UNL     1      -8.062  17.334  66.225  1.00  0.00    -0.315 C  
BRANCH  26  27
HETATM   27  C   UNL     1      -6.640  17.905  66.118  1.00  0.00    -0.271 C  
BRANCH  27  28
HETATM   28  O   UNL     1      -6.499  18.556  64.874  1.00  0.00    -0.469 OA 
HETATM   29  N   UNL     1      -6.458  19.964  65.004  1.00  0.00    -0.278 N  
HETATM   30  O   UNL     1      -6.400  20.538  63.914  1.00  0.00    -0.262 OA 
HETATM   31  O   UNL     1      -6.492  20.429  66.136  1.00  0.00    -0.202 OA 
ENDBRANCH  27  28
ENDBRANCH  26  27
ENDBRANCH  25  26
ENDBRANCH  24  25
ENDBRANCH  23  24
ENDBRANCH  21  23
ENDBRANCH  20  21
ENDBRANCH  19  20
ENDBRANCH  18  19
ENDBRANCH  17  18
ENDBRANCH  15  16
ENDBRANCH   8  15
ENDBRANCH   5   6
ENDBRANCH   4   5
ENDBRANCH   2   4
BRANCH   2  32
HETATM   32  C   UNL     1      -9.200  10.920  63.912  1.00  0.00    -0.222 C  
BRANCH  32  33
HETATM   33  C   UNL     1      -8.996   9.541  63.293  1.00  0.00    -0.208 C  
BRANCH  33  34
HETATM   34  C   UNL     1      -7.929   8.816  64.044  1.00  0.00    -0.156 A  
HETATM   35  C   UNL     1      -6.988   6.731  64.828  1.00  0.00    -0.055 A  
HETATM   36  C   UNL     1      -6.050   8.843  65.549  1.00  0.00    -0.055 A  
HETATM   37  C   UNL     1      -7.931   7.413  64.065  1.00  0.00    -0.091 A  
HETATM   38  C   UNL     1      -6.990   9.529  64.789  1.00  0.00    -0.104 A  
HETATM   39  C   UNL     1      -6.049   7.446  65.569  1.00  0.00    -0.038 A  
ENDBRANCH  33  34
ENDBRANCH  32  33
ENDBRANCH   2  32
TORSDOF 18
ENDMDL
MODEL      312
REMARK 921   NORMALIZED FREE ENERGY PREDICTED BY IDOCK:   -3.38 KCAL/MOL
REMARK 922        TOTAL FREE ENERGY PREDICTED BY IDOCK:  -11.72 KCAL/MOL
REMARK 923 INTER-LIGAND FREE ENERGY PREDICTED BY IDOCK:   -8.61 KCAL/MOL
REMARK 924 INTRA-LIGAND FREE ENERGY PREDICTED BY IDOCK:   -3.11 KCAL/MOL
REMARK 927      BINDING AFFINITY PREDICTED BY RF-SCORE:    0.00 PKD
ROOT
HETATM    1  O   UNL     1      -8.343   9.547  67.088  1.00  0.00    -0.128 OA 
HETATM    2  C   UNL     1      -9.181   8.952  66.100  1.00  0.00    -0.217 C  
HETATM    3  H   UNL     1      -8.867  10.042  67.707  1.00  0.00     0.000 HD 
ENDROOT
BRANCH   2   4
HETATM    4  C   UNL     1      -8.331   8.148  65.096  1.00  0.00    -0.152 C  
BRANCH   4   5
HETATM    5  C   UNL     1      -7.651   6.902  65.672  1.00  0.00    -0.089 C  
BRANCH   5   6
HETATM    6  C   UNL     1      -8.588   5.831  66.277  1.00  0.00    -0.130 C  
HETATM    7  H   UNL     1      -8.999   3.219  69.308  1.00  0.00     0.000 HD 
HETATM    8  C   UNL     1      -8.186   5.175  67.666  1.00  0.00    -0.099 C  
HETATM    9  C   UNL     1      -8.644   4.634  65.319  1.00  0.00    -0.133 C  
HETATM   10  C   UNL     1      -9.244   3.538  66.150  1.00  0.00    -0.173 C  
HETATM   11  O   UNL     1      -9.460   4.879  64.189  1.00  0.00    -0.355 OA 
HETATM   12  O   UNL     1      -9.432   3.138  68.466  1.00  0.00    -0.185 OA 
HETATM   13  H   UNL     1      -9.495   4.138  63.595  1.00  0.00     0.000 HD 
HETATM   14  C   UNL     1      -8.555   3.667  67.492  1.00  0.00    -0.100 C  
BRANCH   8  15
HETATM   15  C   UNL     1      -8.791   5.860  68.933  1.00  0.00    -0.115 C  
BRANCH  15  16
HETATM   16  C   UNL     1      -7.968   6.991  69.523  1.00  0.00    -0.125 C  
HETATM   17  C   UNL     1      -7.148   7.038  70.592  1.00  0.00    -0.067 C  
BRANCH  17  18
HETATM   18  C   UNL     1      -6.802   5.947  71.565  1.00  0.00    -0.067 C  
BRANCH  18  19
HETATM   19  C   UNL     1      -7.340   6.231  72.976  1.00  0.00    -0.091 C  
BRANCH  19  20
HETATM   20  C   UNL     1      -8.830   5.965  73.145  1.00  0.00    -0.121 C  
BRANCH  20  21
HETATM   21  C   UNL     1      -9.582   7.239  73.374  1.00  0.00    -0.226 C  
HETATM   22  O   UNL     1      -9.094   8.347  73.560  1.00  0.00    -0.194 OA 
BRANCH  21  23
HETATM   23  O   UNL     1     -10.904   6.935  73.484  1.00  0.00    -0.315 OA 
BRANCH  23  24
HETATM   24  C   UNL     1     -11.324   6.178  72.369  1.00  0.00    -0.296 C  
BRANCH  24  25
HETATM   25  C   UNL     1     -11.816   7.040  71.226  1.00  0.00    -0.371 C  
BRANCH  25  26
HETATM   26  C   UNL     1     -12.884   8.042  71.656  1.00  0.00    -0.350 C  
BRANCH  26  27
HETATM   27  C   UNL     1     -12.450   9.514  71.610  1.00  0.00    -0.391 C  
BRANCH  27  28
HETATM   28  O   UNL     1     -11.093   9.582  71.229  1.00  0.00    -0.334 OA 
HETATM   29  N   UNL     1     -10.905  10.303  70.027  1.00  0.00    -0.292 N  
HETATM   30  O   UNL     1      -9.728  10.308  69.658  1.00  0.00    -0.228 OA 
HETATM   31  O   UNL     1     -11.893  10.810  69.511  1.00  0.00    -0.287 OA 
ENDBRANCH  27  28
ENDBRANCH  26  27
ENDBRANCH  25  26
ENDBRANCH  24  25
ENDBRANCH  23  24
ENDBRANCH  21  23
ENDBRANCH  20  21
ENDBRANCH  19  20
ENDBRANCH  18  19
ENDBRANCH  17  18
ENDBRANCH  15  16
ENDBRANCH   8  15
ENDBRANCH   5   6
ENDBRANCH   4   5
ENDBRANCH   2   4
BRANCH   2  32
HETATM   32  C   UNL     1      -9.926  10.089  65.416  1.00  0.00    -0.364 C  
BRANCH  32  33
HETATM   33  C   UNL     1     -10.219  11.232  66.380  1.00  0.00    -0.273 C  
BRANCH  33  34
HETATM   34  C   UNL     1     -10.805  12.379  65.623  1.00  0.00    -0.312 A  
HETATM   35  C   UNL     1     -11.309  14.740  65.487  1.00  0.00    -0.343 A  
HETATM   36  C   UNL     1     -12.137  13.213  63.801  1.00  0.00    -0.563 A  
HETATM   37  C   UNL     1     -10.697  13.677  66.144  1.00  0.00    -0.286 A  
HETATM   38  C   UNL     1     -11.527  12.149  64.454  1.00  0.00    -0.417 A  
HETATM   39  C   UNL     1     -12.029  14.507  64.316  1.00  0.00    -0.419 A  
ENDBRANCH  33  34
ENDBRANCH  32  33
ENDBRANCH   2  32
TORSDOF 18
ENDMDL
MODEL      313
REMARK 921   NORMALIZED FREE ENERGY PREDICTED BY IDOCK:   -3.38 KCAL/MOL
REMARK 922        TOTAL FREE ENERGY PREDICTED BY IDOCK:  -11.71 KCAL/MOL
REMARK 923 INTER-LIGAND FREE ENERGY PREDICTED BY IDOCK:   -9.14 KCAL/MOL
REMARK 924 INTRA-LIGAND FREE ENERGY PREDICTED BY IDOCK:   -2.58 KCAL/MOL
REMARK 927      BINDING AFFINITY PREDICTED BY RF-SCORE:    0.00 PKD
ROOT
HETATM    1  O   UNL     1      -9.072  13.430  68.722  1.00  0.00    -0.382 OA 
HETATM    2  C   UNL     1      -9.731  13.950  67.569  1.00  0.00    -0.232 C  
HETATM    3  H   UNL     1      -9.168  14.030  69.453  1.00  0.00     0.000 HD 
ENDROOT
BRANCH   2   4
HETATM    4  C   UNL     1      -9.575  12.977  66.384  1.00  0.00    -0.258 C  
BRANCH   4   5
HETATM    5  C   UNL     1     -10.682  11.925  66.256  1.00  0.00    -0.309 C  
BRANCH   5   6
HETATM    6  C   UNL     1     -10.258  10.556  65.674  1.00  0.00    -0.315 C  
HETATM    7  H   UNL     1      -7.507   7.634  65.926  1.00  0.00     0.000 HD 
HETATM    8  C   UNL     1      -9.024   9.806  66.332  1.00  0.00    -0.176 C  
HETATM    9  C   UNL     1      -9.820  10.760  64.218  1.00  0.00    -0.326 C  
HETATM   10  C   UNL     1      -9.091   9.491  63.883  1.00  0.00    -0.172 C  
HETATM   11  O   UNL     1     -10.916  10.928  63.338  1.00  0.00    -0.601 OA 
HETATM   12  O   UNL     1      -8.033   7.812  65.155  1.00  0.00    -0.115 OA 
HETATM   13  H   UNL     1     -10.645  11.054  62.436  1.00  0.00     0.000 HD 
HETATM   14  C   UNL     1      -8.253   9.207  65.112  1.00  0.00    -0.145 C  
BRANCH   8  15
HETATM   15  C   UNL     1      -9.380   8.780  67.454  1.00  0.00    -0.166 C  
BRANCH  15  16
HETATM   16  C   UNL     1      -8.798   9.078  68.824  1.00  0.00    -0.137 C  
HETATM   17  C   UNL     1      -9.270   9.801  69.859  1.00  0.00    -0.263 C  
BRANCH  17  18
HETATM   18  C   UNL     1     -10.557  10.568  69.966  1.00  0.00    -0.223 C  
BRANCH  18  19
HETATM   19  C   UNL     1     -11.765   9.651  70.210  1.00  0.00    -0.213 C  
BRANCH  19  20
HETATM   20  C   UNL     1     -11.625   8.737  71.421  1.00  0.00    -0.366 C  
BRANCH  20  21
HETATM   21  C   UNL     1     -11.553   7.301  71.005  1.00  0.00    -0.299 C  
HETATM   22  O   UNL     1     -12.450   6.650  70.482  1.00  0.00    -0.248 OA 
BRANCH  21  23
HETATM   23  O   UNL     1     -10.367   6.794  71.440  1.00  0.00    -0.202 OA 
BRANCH  23  24
HETATM   24  C   UNL     1     -10.528   5.446  71.829  1.00  0.00    -0.226 C  
BRANCH  24  25
HETATM   25  C   UNL     1      -9.740   4.487  70.961  1.00  0.00    -0.259 C  
BRANCH  25  26
HETATM   26  C   UNL     1      -8.890   5.198  69.911  1.00  0.00    -0.127 C  
BRANCH  26  27
HETATM   27  C   UNL     1      -9.385   5.050  68.466  1.00  0.00    -0.127 C  
BRANCH  27  28
HETATM   28  O   UNL     1      -9.453   3.679  68.141  1.00  0.00    -0.176 OA 
HETATM   29  N   UNL     1      -9.135   3.428  66.785  1.00  0.00    -0.156 N  
HETATM   30  O   UNL     1      -9.256   2.239  66.483  1.00  0.00    -0.099 OA 
HETATM   31  O   UNL     1      -8.798   4.384  66.098  1.00  0.00    -0.113 OA 
ENDBRANCH  27  28
ENDBRANCH  26  27
ENDBRANCH  25  26
ENDBRANCH  24  25
ENDBRANCH  23  24
ENDBRANCH  21  23
ENDBRANCH  20  21
ENDBRANCH  19  20
ENDBRANCH  18  19
ENDBRANCH  17  18
ENDBRANCH  15  16
ENDBRANCH   8  15
ENDBRANCH   5   6
ENDBRANCH   4   5
ENDBRANCH   2   4
BRANCH   2  32
HETATM   32  C   UNL     1      -9.093  15.299  67.272  1.00  0.00    -0.210 C  
BRANCH  32  33
HETATM   33  C   UNL     1     -10.085  16.264  66.632  1.00  0.00    -0.283 C  
BRANCH  33  34
HETATM   34  C   UNL     1      -9.440  17.602  66.474  1.00  0.00    -0.294 A  
HETATM   35  C   UNL     1      -7.431  18.936  66.307  1.00  0.00    -0.288 A  
HETATM   36  C   UNL     1      -9.598  20.003  66.445  1.00  0.00    -0.536 A  
HETATM   37  C   UNL     1      -8.044  17.688  66.374  1.00  0.00    -0.302 A  
HETATM   38  C   UNL     1     -10.215  18.760  66.512  1.00  0.00    -0.458 A  
HETATM   39  C   UNL     1      -8.208  20.092  66.343  1.00  0.00    -0.338 A  
ENDBRANCH  33  34
ENDBRANCH  32  33
ENDBRANCH   2  32
TORSDOF 18
ENDMDL
MODEL      314
REMARK 921   NORMALIZED FREE ENERGY PREDICTED BY IDOCK:   -3.37 KCAL/MOL
REMARK 922        TOTAL FREE ENERGY PREDICTED BY IDOCK:  -11.70 KCAL/MOL
REMARK 923 INTER-LIGAND FREE ENERGY PREDICTED BY IDOCK:   -8.53 KCAL/MOL
REMARK 924 INTRA-LIGAND FREE ENERGY PREDICTED BY IDOCK:   -3.17 KCAL/MOL
REMARK 927      BINDING AFFINITY PREDICTED BY RF-SCORE:    0.00 PKD
ROOT
HETATM    1  O   UNL     1     -10.854  13.305  69.389  1.00  0.00    -0.440 OA 
HETATM    2  C   UNL     1     -10.415  13.974  68.208  1.00  0.00    -0.244 C  
HETATM    3  H   UNL     1     -11.641  13.717  69.726  1.00  0.00     0.000 HD 
ENDROOT
BRANCH   2   4
HETATM    4  C   UNL     1      -9.139  13.304  67.661  1.00  0.00    -0.204 C  
BRANCH   4   5
HETATM    5  C   UNL     1      -9.377  12.188  66.639  1.00  0.00    -0.226 C  
BRANCH   5   6
HETATM    6  C   UNL     1      -9.467  10.752  67.206  1.00  0.00    -0.177 C  
HETATM    7  H   UNL     1      -8.126   6.989  66.740  1.00  0.00     0.000 HD 
HETATM    8  C   UNL     1      -8.527   9.634  66.583  1.00  0.00    -0.126 C  
HETATM    9  C   UNL     1     -10.881  10.214  66.951  1.00  0.00    -0.106 C  
HETATM   10  C   UNL     1     -10.749   8.737  67.180  1.00  0.00    -0.204 C  
HETATM   11  O   UNL     1     -11.838  10.754  67.843  1.00  0.00    -0.724 OA 
HETATM   12  O   UNL     1      -8.946   7.219  67.161  1.00  0.00    -0.122 OA 
HETATM   13  H   UNL     1     -12.714  10.421  67.686  1.00  0.00     0.000 HD 
HETATM   14  C   UNL     1      -9.442   8.371  66.509  1.00  0.00    -0.220 C  
BRANCH   8  15
HETATM   15  C   UNL     1      -7.163   9.418  67.313  1.00  0.00    -0.087 C  
BRANCH  15  16
HETATM   16  C   UNL     1      -7.017  10.124  68.649  1.00  0.00    -0.062 C  
HETATM   17  C   UNL     1      -7.550   9.867  69.860  1.00  0.00    -0.167 C  
BRANCH  17  18
HETATM   18  C   UNL     1      -8.496   8.772  70.262  1.00  0.00    -0.154 C  
BRANCH  18  19
HETATM   19  C   UNL     1      -9.744   9.312  70.977  1.00  0.00    -0.341 C  
BRANCH  19  20
HETATM   20  C   UNL     1     -11.023   8.539  70.679  1.00  0.00    -0.268 C  
BRANCH  20  21
HETATM   21  C   UNL     1     -11.685   8.087  71.943  1.00  0.00    -0.303 C  
HETATM   22  O   UNL     1     -12.757   8.483  72.383  1.00  0.00    -0.369 OA 
BRANCH  21  23
HETATM   23  O   UNL     1     -10.824   7.263  72.600  1.00  0.00    -0.246 OA 
BRANCH  23  24
HETATM   24  C   UNL     1     -11.460   6.041  72.909  1.00  0.00    -0.147 C  
BRANCH  24  25
HETATM   25  C   UNL     1     -10.665   5.195  73.881  1.00  0.00    -0.342 C  
BRANCH  25  26
HETATM   26  C   UNL     1      -9.608   4.335  73.192  1.00  0.00    -0.147 C  
BRANCH  26  27
HETATM   27  C   UNL     1     -10.028   3.752  71.835  1.00  0.00    -0.160 C  
BRANCH  27  28
HETATM   28  O   UNL     1      -8.916   3.765  70.966  1.00  0.00    -0.087 OA 
HETATM   29  N   UNL     1      -9.116   4.607  69.847  1.00  0.00    -0.099 N  
HETATM   30  O   UNL     1      -8.173   4.570  69.053  1.00  0.00    -0.079 OA 
HETATM   31  O   UNL     1     -10.162   5.242  69.795  1.00  0.00    -0.248 OA 
ENDBRANCH  27  28
ENDBRANCH  26  27
ENDBRANCH  25  26
ENDBRANCH  24  25
ENDBRANCH  23  24
ENDBRANCH  21  23
ENDBRANCH  20  21
ENDBRANCH  19  20
ENDBRANCH  18  19
ENDBRANCH  17  18
ENDBRANCH  15  16
ENDBRANCH   8  15
ENDBRANCH   5   6
ENDBRANCH   4   5
ENDBRANCH   2   4
BRANCH   2  32
HETATM   32  C   UNL     1     -10.164  15.424  68.595  1.00  0.00    -0.217 C  
BRANCH  32  33
HETATM   33  C   UNL     1     -10.704  16.389  67.546  1.00  0.00    -0.298 C  
BRANCH  33  34
HETATM   34  C   UNL     1      -9.606  17.298  67.098  1.00  0.00    -0.257 A  
HETATM   35  C   UNL     1      -8.842  19.526  66.556  1.00  0.00    -0.395 A  
HETATM   36  C   UNL     1      -7.411  17.614  66.163  1.00  0.00    -0.334 A  
HETATM   37  C   UNL     1      -9.832  18.681  67.048  1.00  0.00    -0.351 A  
HETATM   38  C   UNL     1      -8.396  16.766  66.653  1.00  0.00    -0.296 A  
HETATM   39  C   UNL     1      -7.633  18.993  66.114  1.00  0.00    -0.287 A  
ENDBRANCH  33  34
ENDBRANCH  32  33
ENDBRANCH   2  32
TORSDOF 18
ENDMDL
MODEL      315
REMARK 921   NORMALIZED FREE ENERGY PREDICTED BY IDOCK:   -3.36 KCAL/MOL
REMARK 922        TOTAL FREE ENERGY PREDICTED BY IDOCK:  -11.68 KCAL/MOL
REMARK 923 INTER-LIGAND FREE ENERGY PREDICTED BY IDOCK:   -9.17 KCAL/MOL
REMARK 924 INTRA-LIGAND FREE ENERGY PREDICTED BY IDOCK:   -2.52 KCAL/MOL
REMARK 927      BINDING AFFINITY PREDICTED BY RF-SCORE:    0.00 PKD
ROOT
HETATM    1  O   UNL     1      -8.543  14.149  67.197  1.00  0.00    -0.209 OA 
HETATM    2  C   UNL     1      -9.789  14.501  67.796  1.00  0.00    -0.220 C  
HETATM    3  H   UNL     1      -7.901  14.833  67.351  1.00  0.00     0.000 HD 
ENDROOT
BRANCH   2   4
HETATM    4  C   UNL     1     -10.830  13.392  67.547  1.00  0.00    -0.276 C  
BRANCH   4   5
HETATM    5  C   UNL     1     -10.336  12.214  66.700  1.00  0.00    -0.233 C  
BRANCH   5   6
HETATM    6  C   UNL     1     -10.068  10.894  67.458  1.00  0.00    -0.214 C  
HETATM    7  H   UNL     1      -9.916   9.223  71.114  1.00  0.00     0.000 HD 
HETATM    8  C   UNL     1     -10.289  10.868  69.030  1.00  0.00    -0.230 C  
HETATM    9  C   UNL     1      -8.585  10.533  67.299  1.00  0.00    -0.122 C  
HETATM   10  C   UNL     1      -8.356   9.488  68.352  1.00  0.00    -0.118 C  
HETATM   11  O   UNL     1      -8.289   9.998  66.022  1.00  0.00    -0.120 OA 
HETATM   12  O   UNL     1      -9.452   8.894  70.353  1.00  0.00    -0.170 OA 
HETATM   13  H   UNL     1      -7.371   9.775  65.923  1.00  0.00     0.000 HD 
HETATM   14  C   UNL     1      -9.096  10.012  69.564  1.00  0.00    -0.220 C  
BRANCH   8  15
HETATM   15  C   UNL     1     -11.701  10.396  69.503  1.00  0.00    -0.259 C  
BRANCH  15  16
HETATM   16  C   UNL     1     -12.173  10.967  70.828  1.00  0.00    -0.483 C  
HETATM   17  C   UNL     1     -13.012  10.480  71.764  1.00  0.00    -0.582 C  
BRANCH  17  18
HETATM   18  C   UNL     1     -13.771   9.184  71.770  1.00  0.00    -0.465 C  
BRANCH  18  19
HETATM   19  C   UNL     1     -12.847   7.966  71.606  1.00  0.00    -0.357 C  
BRANCH  19  20
HETATM   20  C   UNL     1     -11.830   7.795  72.727  1.00  0.00    -0.247 C  
BRANCH  20  21
HETATM   21  C   UNL     1     -10.734   6.859  72.321  1.00  0.00    -0.223 C  
HETATM   22  O   UNL     1      -9.617   6.789  72.818  1.00  0.00    -0.145 OA 
BRANCH  21  23
HETATM   23  O   UNL     1     -11.140   6.193  71.206  1.00  0.00    -0.273 OA 
BRANCH  23  24
HETATM   24  C   UNL     1     -10.132   5.301  70.778  1.00  0.00    -0.224 C  
BRANCH  24  25
HETATM   25  C   UNL     1      -9.814   5.437  69.305  1.00  0.00    -0.249 C  
BRANCH  25  26
HETATM   26  C   UNL     1     -10.794   6.346  68.567  1.00  0.00    -0.382 C  
BRANCH  26  27
HETATM   27  C   UNL     1     -10.575   6.441  67.050  1.00  0.00    -0.327 C  
BRANCH  27  28
HETATM   28  O   UNL     1      -9.819   5.329  66.624  1.00  0.00    -0.147 OA 
HETATM   29  N   UNL     1      -8.704   5.704  65.838  1.00  0.00    -0.143 N  
HETATM   30  O   UNL     1      -8.078   4.730  65.410  1.00  0.00    -0.107 OA 
HETATM   31  O   UNL     1      -8.504   6.900  65.674  1.00  0.00    -0.143 OA 
ENDBRANCH  27  28
ENDBRANCH  26  27
ENDBRANCH  25  26
ENDBRANCH  24  25
ENDBRANCH  23  24
ENDBRANCH  21  23
ENDBRANCH  20  21
ENDBRANCH  19  20
ENDBRANCH  18  19
ENDBRANCH  17  18
ENDBRANCH  15  16
ENDBRANCH   8  15
ENDBRANCH   5   6
ENDBRANCH   4   5
ENDBRANCH   2   4
BRANCH   2  32
HETATM   32  C   UNL     1     -10.218  15.820  67.169  1.00  0.00    -0.279 C  
BRANCH  32  33
HETATM   33  C   UNL     1     -10.140  16.970  68.166  1.00  0.00    -0.308 C  
BRANCH  33  34
HETATM   34  C   UNL     1      -8.994  17.858  67.807  1.00  0.00    -0.254 A  
HETATM   35  C   UNL     1      -7.288  19.430  68.490  1.00  0.00    -0.368 A  
HETATM   36  C   UNL     1      -7.653  18.965  66.143  1.00  0.00    -0.286 A  
HETATM   37  C   UNL     1      -8.305  18.539  68.822  1.00  0.00    -0.274 A  
HETATM   38  C   UNL     1      -8.669  18.075  66.469  1.00  0.00    -0.279 A  
HETATM   39  C   UNL     1      -6.963  19.642  67.151  1.00  0.00    -0.229 A  
ENDBRANCH  33  34
ENDBRANCH  32  33
ENDBRANCH   2  32
TORSDOF 18
ENDMDL
MODEL      316
REMARK 921   NORMALIZED FREE ENERGY PREDICTED BY IDOCK:   -3.35 KCAL/MOL
REMARK 922        TOTAL FREE ENERGY PREDICTED BY IDOCK:  -11.67 KCAL/MOL
REMARK 923 INTER-LIGAND FREE ENERGY PREDICTED BY IDOCK:   -9.24 KCAL/MOL
REMARK 924 INTRA-LIGAND FREE ENERGY PREDICTED BY IDOCK:   -2.43 KCAL/MOL
REMARK 927      BINDING AFFINITY PREDICTED BY RF-SCORE:    0.00 PKD
ROOT
HETATM    1  O   UNL     1      -9.075   5.832  67.863  1.00  0.00    -0.112 OA 
HETATM    2  C   UNL     1      -8.253   6.936  68.237  1.00  0.00    -0.123 C  
HETATM    3  H   UNL     1      -8.938   5.617  66.947  1.00  0.00     0.000 HD 
ENDROOT
BRANCH   2   4
HETATM    4  C   UNL     1      -8.474   7.284  69.722  1.00  0.00    -0.136 C  
BRANCH   4   5
HETATM    5  C   UNL     1      -9.186   8.616  69.978  1.00  0.00    -0.160 C  
BRANCH   5   6
HETATM    6  C   UNL     1     -10.685   8.529  70.351  1.00  0.00    -0.246 C  
HETATM    7  H   UNL     1     -13.573  10.199  72.598  1.00  0.00     0.000 HD 
HETATM    8  C   UNL     1     -11.291   9.643  71.306  1.00  0.00    -0.458 C  
HETATM    9  C   UNL     1     -10.919   7.226  71.126  1.00  0.00    -0.247 C  
HETATM   10  C   UNL     1     -12.270   7.420  71.751  1.00  0.00    -0.359 C  
HETATM   11  O   UNL     1     -10.940   6.088  70.285  1.00  0.00    -0.301 OA 
HETATM   12  O   UNL     1     -13.587   9.302  72.284  1.00  0.00    -0.438 OA 
HETATM   13  H   UNL     1     -11.085   5.281  70.765  1.00  0.00     0.000 HD 
HETATM   14  C   UNL     1     -12.248   8.849  72.251  1.00  0.00    -0.343 C  
BRANCH   8  15
HETATM   15  C   UNL     1     -11.943  10.865  70.583  1.00  0.00    -0.467 C  
BRANCH  15  16
HETATM   16  C   UNL     1     -12.108  10.727  69.080  1.00  0.00    -0.227 C  
HETATM   17  C   UNL     1     -11.560  11.407  68.054  1.00  0.00    -0.357 C  
BRANCH  17  18
HETATM   18  C   UNL     1     -10.597  12.559  68.091  1.00  0.00    -0.239 C  
BRANCH  18  19
HETATM   19  C   UNL     1     -11.280  13.901  67.781  1.00  0.00    -0.316 C  
BRANCH  19  20
HETATM   20  C   UNL     1     -10.460  14.834  66.900  1.00  0.00    -0.277 C  
BRANCH  20  21
HETATM   21  C   UNL     1      -9.254  15.341  67.629  1.00  0.00    -0.187 C  
HETATM   22  O   UNL     1      -9.224  15.758  68.780  1.00  0.00    -0.191 OA 
BRANCH  21  23
HETATM   23  O   UNL     1      -8.220  15.398  66.746  1.00  0.00    -0.232 OA 
BRANCH  23  24
HETATM   24  C   UNL     1      -7.002  15.585  67.435  1.00  0.00    -0.198 C  
BRANCH  24  25
HETATM   25  C   UNL     1      -6.250  16.815  66.974  1.00  0.00    -0.221 C  
BRANCH  25  26
HETATM   26  C   UNL     1      -6.890  17.482  65.758  1.00  0.00    -0.084 C  
BRANCH  26  27
HETATM   27  C   UNL     1      -7.499  18.866  66.023  1.00  0.00    -0.244 C  
BRANCH  27  28
HETATM   28  O   UNL     1      -8.619  18.721  66.869  1.00  0.00    -0.268 OA 
HETATM   29  N   UNL     1      -8.811  19.845  67.706  1.00  0.00    -0.323 N  
HETATM   30  O   UNL     1      -9.750  19.694  68.492  1.00  0.00    -0.369 OA 
HETATM   31  O   UNL     1      -8.050  20.794  67.564  1.00  0.00    -0.279 OA 
ENDBRANCH  27  28
ENDBRANCH  26  27
ENDBRANCH  25  26
ENDBRANCH  24  25
ENDBRANCH  23  24
ENDBRANCH  21  23
ENDBRANCH  20  21
ENDBRANCH  19  20
ENDBRANCH  18  19
ENDBRANCH  17  18
ENDBRANCH  15  16
ENDBRANCH   8  15
ENDBRANCH   5   6
ENDBRANCH   4   5
ENDBRANCH   2   4
BRANCH   2  32
HETATM   32  C   UNL     1      -8.637   8.095  67.328  1.00  0.00    -0.124 C  
BRANCH  32  33
HETATM   33  C   UNL     1      -8.401   7.763  65.860  1.00  0.00    -0.135 C  
BRANCH  33  34
HETATM   34  C   UNL     1      -8.893   8.890  65.013  1.00  0.00    -0.183 A  
HETATM   35  C   UNL     1      -8.654  10.268  63.040  1.00  0.00    -0.190 A  
HETATM   36  C   UNL     1     -10.321  10.804  64.711  1.00  0.00    -0.380 A  
HETATM   37  C   UNL     1      -8.253   9.170  63.796  1.00  0.00    -0.173 A  
HETATM   38  C   UNL     1      -9.925   9.709  65.470  1.00  0.00    -0.279 A  
HETATM   39  C   UNL     1      -9.687  11.084  63.498  1.00  0.00    -0.375 A  
ENDBRANCH  33  34
ENDBRANCH  32  33
ENDBRANCH   2  32
TORSDOF 18
ENDMDL
MODEL      317
REMARK 921   NORMALIZED FREE ENERGY PREDICTED BY IDOCK:   -3.34 KCAL/MOL
REMARK 922        TOTAL FREE ENERGY PREDICTED BY IDOCK:  -11.64 KCAL/MOL
REMARK 923 INTER-LIGAND FREE ENERGY PREDICTED BY IDOCK:   -7.94 KCAL/MOL
REMARK 924 INTRA-LIGAND FREE ENERGY PREDICTED BY IDOCK:   -3.70 KCAL/MOL
REMARK 927      BINDING AFFINITY PREDICTED BY RF-SCORE:    0.00 PKD
ROOT
HETATM    1  O   UNL     1      -8.630  13.855  69.079  1.00  0.00    -0.359 OA 
HETATM    2  C   UNL     1      -7.684  13.640  68.033  1.00  0.00    -0.143 C  
HETATM    3  H   UNL     1      -9.216  14.567  68.849  1.00  0.00     0.000 HD 
ENDROOT
BRANCH   2   4
HETATM    4  C   UNL     1      -6.734  12.485  68.406  1.00  0.00    -0.081 C  
BRANCH   4   5
HETATM    5  C   UNL     1      -6.287  11.606  67.233  1.00  0.00    -0.118 C  
BRANCH   5   6
HETATM    6  C   UNL     1      -7.207  10.413  66.884  1.00  0.00    -0.099 C  
HETATM    7  H   UNL     1      -7.263   6.450  66.204  1.00  0.00     0.000 HD 
HETATM    8  C   UNL     1      -6.575   8.957  66.855  1.00  0.00    -0.061 C  
HETATM    9  C   UNL     1      -7.733  10.604  65.456  1.00  0.00    -0.083 C  
HETATM   10  C   UNL     1      -8.279   9.254  65.093  1.00  0.00    -0.143 C  
HETATM   11  O   UNL     1      -8.763  11.573  65.380  1.00  0.00    -0.400 OA 
HETATM   12  O   UNL     1      -7.912   7.061  65.875  1.00  0.00    -0.100 OA 
HETATM   13  H   UNL     1      -9.089  11.691  64.496  1.00  0.00     0.000 HD 
HETATM   14  C   UNL     1      -7.245   8.280  65.617  1.00  0.00    -0.071 C  
BRANCH   8  15
HETATM   15  C   UNL     1      -6.686   8.149  68.188  1.00  0.00    -0.061 C  
BRANCH  15  16
HETATM   16  C   UNL     1      -6.395   8.933  69.455  1.00  0.00    -0.043 C  
HETATM   17  C   UNL     1      -7.211   9.447  70.397  1.00  0.00    -0.111 C  
BRANCH  17  18
HETATM   18  C   UNL     1      -8.711   9.409  70.469  1.00  0.00    -0.276 C  
BRANCH  18  19
HETATM   19  C   UNL     1      -9.366  10.448  69.547  1.00  0.00    -0.150 C  
BRANCH  19  20
HETATM   20  C   UNL     1     -10.888  10.388  69.514  1.00  0.00    -0.295 C  
BRANCH  20  21
HETATM   21  C   UNL     1     -11.412  10.765  68.163  1.00  0.00    -0.271 C  
HETATM   22  O   UNL     1     -10.969  10.395  67.083  1.00  0.00    -0.267 OA 
BRANCH  21  23
HETATM   23  O   UNL     1     -12.379  11.708  68.333  1.00  0.00    -0.417 OA 
BRANCH  23  24
HETATM   24  C   UNL     1     -11.794  12.984  68.481  1.00  0.00    -0.325 C  
BRANCH  24  25
HETATM   25  C   UNL     1     -11.435  13.622  67.156  1.00  0.00    -0.367 C  
BRANCH  25  26
HETATM   26  C   UNL     1     -12.640  13.795  66.234  1.00  0.00    -0.372 C  
BRANCH  26  27
HETATM   27  C   UNL     1     -12.304  13.900  64.739  1.00  0.00    -0.400 C  
BRANCH  27  28
HETATM   28  O   UNL     1     -11.253  13.007  64.441  1.00  0.00    -0.325 OA 
HETATM   29  N   UNL     1     -11.657  11.970  63.568  1.00  0.00    -0.458 N  
HETATM   30  O   UNL     1     -10.757  11.153  63.357  1.00  0.00    -0.360 OA 
HETATM   31  O   UNL     1     -12.806  12.000  63.147  1.00  0.00    -0.661 OA 
ENDBRANCH  27  28
ENDBRANCH  26  27
ENDBRANCH  25  26
ENDBRANCH  24  25
ENDBRANCH  23  24
ENDBRANCH  21  23
ENDBRANCH  20  21
ENDBRANCH  19  20
ENDBRANCH  18  19
ENDBRANCH  17  18
ENDBRANCH  15  16
ENDBRANCH   8  15
ENDBRANCH   5   6
ENDBRANCH   4   5
ENDBRANCH   2   4
BRANCH   2  32
HETATM   32  C   UNL     1      -6.929  14.948  67.851  1.00  0.00    -0.170 C  
BRANCH  32  33
HETATM   33  C   UNL     1      -5.824  15.111  68.889  1.00  0.00    -0.093 C  
BRANCH  33  34
HETATM   34  C   UNL     1      -5.967  16.439  69.558  1.00  0.00    -0.176 A  
HETATM   35  C   UNL     1      -6.883  18.676  69.566  1.00  0.00    -0.123 A  
HETATM   36  C   UNL     1      -5.284  18.005  71.254  1.00  0.00    -0.161 A  
HETATM   37  C   UNL     1      -6.807  17.410  68.993  1.00  0.00    -0.244 A  
HETATM   38  C   UNL     1      -5.204  16.739  70.686  1.00  0.00    -0.214 A  
HETATM   39  C   UNL     1      -6.122  18.973  70.694  1.00  0.00     0.055 A  
ENDBRANCH  33  34
ENDBRANCH  32  33
ENDBRANCH   2  32
TORSDOF 18
ENDMDL
MODEL      318
REMARK 921   NORMALIZED FREE ENERGY PREDICTED BY IDOCK:   -3.34 KCAL/MOL
REMARK 922        TOTAL FREE ENERGY PREDICTED BY IDOCK:  -11.63 KCAL/MOL
REMARK 923 INTER-LIGAND FREE ENERGY PREDICTED BY IDOCK:   -8.40 KCAL/MOL
REMARK 924 INTRA-LIGAND FREE ENERGY PREDICTED BY IDOCK:   -3.23 KCAL/MOL
REMARK 927      BINDING AFFINITY PREDICTED BY RF-SCORE:    0.00 PKD
ROOT
HETATM    1  O   UNL     1      -9.748  15.347  68.299  1.00  0.00    -0.205 OA 
HETATM    2  C   UNL     1     -10.930  14.573  68.495  1.00  0.00    -0.249 C  
HETATM    3  H   UNL     1      -9.970  16.265  68.197  1.00  0.00     0.000 HD 
ENDROOT
BRANCH   2   4
HETATM    4  C   UNL     1     -10.569  13.084  68.660  1.00  0.00    -0.257 C  
BRANCH   4   5
HETATM    5  C   UNL     1      -9.103  12.735  68.385  1.00  0.00    -0.129 C  
BRANCH   5   6
HETATM    6  C   UNL     1      -8.787  11.237  68.167  1.00  0.00    -0.159 C  
HETATM    7  H   UNL     1      -8.297   7.717  70.050  1.00  0.00     0.000 HD 
HETATM    8  C   UNL     1      -8.846  10.264  69.420  1.00  0.00    -0.177 C  
HETATM    9  C   UNL     1      -7.336  11.110  67.682  1.00  0.00    -0.095 C  
HETATM   10  C   UNL     1      -7.023   9.654  67.869  1.00  0.00    -0.079 C  
HETATM   11  O   UNL     1      -7.185  11.462  66.320  1.00  0.00    -0.328 OA 
HETATM   12  O   UNL     1      -7.921   7.931  69.204  1.00  0.00    -0.114 OA 
HETATM   13  H   UNL     1      -6.287  11.383  66.020  1.00  0.00     0.000 HD 
HETATM   14  C   UNL     1      -7.623   9.313  69.216  1.00  0.00    -0.080 C  
BRANCH   8  15
HETATM   15  C   UNL     1     -10.212   9.541  69.646  1.00  0.00    -0.234 C  
BRANCH  15  16
HETATM   16  C   UNL     1     -10.432   8.977  71.038  1.00  0.00    -0.339 C  
HETATM   17  C   UNL     1     -11.072   7.869  71.464  1.00  0.00    -0.278 C  
BRANCH  17  18
HETATM   18  C   UNL     1     -11.799   6.830  70.658  1.00  0.00    -0.442 C  
BRANCH  18  19
HETATM   19  C   UNL     1     -10.905   6.198  69.579  1.00  0.00    -0.428 C  
BRANCH  19  20
HETATM   20  C   UNL     1      -9.899   5.186  70.110  1.00  0.00    -0.300 C  
BRANCH  20  21
HETATM   21  C   UNL     1      -9.125   4.559  68.993  1.00  0.00    -0.122 C  
HETATM   22  O   UNL     1      -7.936   4.727  68.749  1.00  0.00    -0.079 OA 
BRANCH  21  23
HETATM   23  O   UNL     1     -10.000   3.880  68.202  1.00  0.00    -0.033 OA 
BRANCH  23  24
HETATM   24  C   UNL     1      -9.374   3.506  66.993  1.00  0.00    -0.194 C  
BRANCH  24  25
HETATM   25  C   UNL     1      -9.693   4.448  65.852  1.00  0.00    -0.214 C  
BRANCH  25  26
HETATM   26  C   UNL     1      -8.453   5.132  65.281  1.00  0.00    -0.144 C  
BRANCH  26  27
HETATM   27  C   UNL     1      -8.196   6.552  65.804  1.00  0.00    -0.135 C  
BRANCH  27  28
HETATM   28  O   UNL     1      -9.349   7.010  66.476  1.00  0.00    -0.160 OA 
HETATM   29  N   UNL     1      -9.736   8.306  66.062  1.00  0.00    -0.115 N  
HETATM   30  O   UNL     1     -10.704   8.735  66.695  1.00  0.00    -0.171 OA 
HETATM   31  O   UNL     1      -9.086   8.832  65.168  1.00  0.00    -0.159 OA 
ENDBRANCH  27  28
ENDBRANCH  26  27
ENDBRANCH  25  26
ENDBRANCH  24  25
ENDBRANCH  23  24
ENDBRANCH  21  23
ENDBRANCH  20  21
ENDBRANCH  19  20
ENDBRANCH  18  19
ENDBRANCH  17  18
ENDBRANCH  15  16
ENDBRANCH   8  15
ENDBRANCH   5   6
ENDBRANCH   4   5
ENDBRANCH   2   4
BRANCH   2  32
HETATM   32  C   UNL     1     -11.809  14.802  67.274  1.00  0.00    -0.316 C  
BRANCH  32  33
HETATM   33  C   UNL     1     -10.980  15.023  66.014  1.00  0.00    -0.334 C  
BRANCH  33  34
HETATM   34  C   UNL     1     -11.112  13.833  65.121  1.00  0.00    -0.330 A  
HETATM   35  C   UNL     1     -10.125  11.872  64.109  1.00  0.00    -0.338 A  
HETATM   36  C   UNL     1     -12.341  12.598  63.460  1.00  0.00    -0.591 A  
HETATM   37  C   UNL     1     -10.040  12.938  65.000  1.00  0.00    -0.235 A  
HETATM   38  C   UNL     1     -12.261  13.664  64.348  1.00  0.00    -0.436 A  
HETATM   39  C   UNL     1     -11.275  11.703  63.340  1.00  0.00    -0.401 A  
ENDBRANCH  33  34
ENDBRANCH  32  33
ENDBRANCH   2  32
TORSDOF 18
ENDMDL
MODEL      319
REMARK 921   NORMALIZED FREE ENERGY PREDICTED BY IDOCK:   -3.33 KCAL/MOL
REMARK 922        TOTAL FREE ENERGY PREDICTED BY IDOCK:  -11.62 KCAL/MOL
REMARK 923 INTER-LIGAND FREE ENERGY PREDICTED BY IDOCK:   -7.68 KCAL/MOL
REMARK 924 INTRA-LIGAND FREE ENERGY PREDICTED BY IDOCK:   -3.94 KCAL/MOL
REMARK 927      BINDING AFFINITY PREDICTED BY RF-SCORE:    0.00 PKD
ROOT
HETATM    1  O   UNL     1     -11.245   9.030  67.663  1.00  0.00    -0.434 OA 
HETATM    2  C   UNL     1     -10.327   8.901  68.747  1.00  0.00    -0.211 C  
HETATM    3  H   UNL     1     -11.915   9.670  67.875  1.00  0.00     0.000 HD 
ENDROOT
BRANCH   2   4
HETATM    4  C   UNL     1      -9.242   7.862  68.404  1.00  0.00    -0.134 C  
BRANCH   4   5
HETATM    5  C   UNL     1      -7.954   7.971  69.227  1.00  0.00    -0.116 C  
BRANCH   5   6
HETATM    6  C   UNL     1      -7.107   6.682  69.343  1.00  0.00    -0.080 C  
HETATM    7  H   UNL     1      -7.226   2.678  68.988  1.00  0.00     0.000 HD 
HETATM    8  C   UNL     1      -7.776   5.301  68.939  1.00  0.00    -0.082 C  
HETATM    9  C   UNL     1      -6.727   6.480  70.816  1.00  0.00    -0.058 C  
HETATM   10  C   UNL     1      -6.258   5.055  70.871  1.00  0.00    -0.019 C  
HETATM   11  O   UNL     1      -5.686   7.343  71.233  1.00  0.00    -0.035 OA 
HETATM   12  O   UNL     1      -6.599   3.152  69.522  1.00  0.00    -0.032 OA 
HETATM   13  H   UNL     1      -5.450   7.217  72.145  1.00  0.00     0.000 HD 
HETATM   14  C   UNL     1      -7.257   4.300  70.020  1.00  0.00    -0.046 C  
BRANCH   8  15
HETATM   15  C   UNL     1      -7.549   4.851  67.460  1.00  0.00    -0.086 C  
BRANCH  15  16
HETATM   16  C   UNL     1      -6.508   5.640  66.688  1.00  0.00    -0.050 C  
HETATM   17  C   UNL     1      -6.590   6.353  65.547  1.00  0.00    -0.043 C  
BRANCH  17  18
HETATM   18  C   UNL     1      -7.779   6.578  64.657  1.00  0.00    -0.108 C  
BRANCH  18  19
HETATM   19  C   UNL     1      -8.134   8.067  64.522  1.00  0.00    -0.132 C  
BRANCH  19  20
HETATM   20  C   UNL     1      -7.451   8.970  65.540  1.00  0.00    -0.086 C  
BRANCH  20  21
HETATM   21  C   UNL     1      -8.244  10.220  65.768  1.00  0.00    -0.147 C  
HETATM   22  O   UNL     1      -7.889  11.196  66.417  1.00  0.00    -0.156 OA 
BRANCH  21  23
HETATM   23  O   UNL     1      -9.489  10.030  65.252  1.00  0.00    -0.219 OA 
BRANCH  23  24
HETATM   24  C   UNL     1     -10.179  11.260  65.183  1.00  0.00    -0.289 C  
BRANCH  24  25
HETATM   25  C   UNL     1     -10.841  11.487  63.841  1.00  0.00    -0.469 C  
BRANCH  25  26
HETATM   26  C   UNL     1     -12.312  11.875  63.961  1.00  0.00    -0.432 C  
BRANCH  26  27
HETATM   27  C   UNL     1     -12.593  13.088  64.859  1.00  0.00    -0.428 C  
BRANCH  27  28
HETATM   28  O   UNL     1     -11.969  14.225  64.303  1.00  0.00    -0.446 OA 
HETATM   29  N   UNL     1     -11.337  15.027  65.282  1.00  0.00    -0.358 N  
HETATM   30  O   UNL     1     -10.847  16.055  64.807  1.00  0.00    -0.587 OA 
HETATM   31  O   UNL     1     -11.356  14.628  66.439  1.00  0.00    -0.340 OA 
ENDBRANCH  27  28
ENDBRANCH  26  27
ENDBRANCH  25  26
ENDBRANCH  24  25
ENDBRANCH  23  24
ENDBRANCH  21  23
ENDBRANCH  20  21
ENDBRANCH  19  20
ENDBRANCH  18  19
ENDBRANCH  17  18
ENDBRANCH  15  16
ENDBRANCH   8  15
ENDBRANCH   5   6
ENDBRANCH   4   5
ENDBRANCH   2   4
BRANCH   2  32
HETATM   32  C   UNL     1     -11.141   8.478  69.961  1.00  0.00    -0.152 C  
BRANCH  32  33
HETATM   33  C   UNL     1     -11.394   6.975  69.975  1.00  0.00    -0.293 C  
BRANCH  33  34
HETATM   34  C   UNL     1     -10.915   6.405  71.270  1.00  0.00    -0.321 A  
HETATM   35  C   UNL     1     -10.253   4.482  72.578  1.00  0.00    -0.246 A  
HETATM   36  C   UNL     1     -10.476   6.653  73.623  1.00  0.00    -0.353 A  
HETATM   37  C   UNL     1     -10.622   5.036  71.355  1.00  0.00    -0.161 A  
HETATM   38  C   UNL     1     -10.844   7.211  72.405  1.00  0.00    -0.280 A  
HETATM   39  C   UNL     1     -10.180   5.290  73.710  1.00  0.00    -0.250 A  
ENDBRANCH  33  34
ENDBRANCH  32  33
ENDBRANCH   2  32
TORSDOF 18
ENDMDL
MODEL      320
REMARK 921   NORMALIZED FREE ENERGY PREDICTED BY IDOCK:   -3.32 KCAL/MOL
REMARK 922        TOTAL FREE ENERGY PREDICTED BY IDOCK:  -11.59 KCAL/MOL
REMARK 923 INTER-LIGAND FREE ENERGY PREDICTED BY IDOCK:   -8.74 KCAL/MOL
REMARK 924 INTRA-LIGAND FREE ENERGY PREDICTED BY IDOCK:   -2.85 KCAL/MOL
REMARK 927      BINDING AFFINITY PREDICTED BY RF-SCORE:    0.00 PKD
ROOT
HETATM    1  O   UNL     1     -11.536   9.971  67.574  1.00  0.00    -0.495 OA 
HETATM    2  C   UNL     1     -11.003  11.113  68.241  1.00  0.00    -0.226 C  
HETATM    3  H   UNL     1     -11.837  10.210  66.705  1.00  0.00     0.000 HD 
ENDROOT
BRANCH   2   4
HETATM    4  C   UNL     1     -10.514  10.725  69.651  1.00  0.00    -0.183 C  
BRANCH   4   5
HETATM    5  C   UNL     1     -11.321   9.619  70.338  1.00  0.00    -0.337 C  
BRANCH   5   6
HETATM    6  C   UNL     1     -10.564   8.303  70.632  1.00  0.00    -0.235 C  
HETATM    7  H   UNL     1     -11.019   4.338  71.127  1.00  0.00     0.000 HD 
HETATM    8  C   UNL     1     -11.376   6.940  70.592  1.00  0.00    -0.366 C  
HETATM    9  C   UNL     1     -10.027   8.359  72.068  1.00  0.00    -0.284 C  
HETATM   10  C   UNL     1      -9.661   6.935  72.369  1.00  0.00    -0.168 C  
HETATM   11  O   UNL     1      -8.884   9.184  72.190  1.00  0.00    -0.314 OA 
HETATM   12  O   UNL     1     -10.299   4.845  71.485  1.00  0.00    -0.200 OA 
HETATM   13  H   UNL     1      -8.551   9.219  73.079  1.00  0.00     0.000 HD 
HETATM   14  C   UNL     1     -10.807   6.127  71.798  1.00  0.00    -0.255 C  
BRANCH   8  15
HETATM   15  C   UNL     1     -11.360   6.187  69.223  1.00  0.00    -0.361 C  
BRANCH  15  16
HETATM   16  C   UNL     1     -10.656   6.907  68.088  1.00  0.00    -0.262 C  
HETATM   17  C   UNL     1     -10.370   6.525  66.827  1.00  0.00    -0.279 C  
BRANCH  17  18
HETATM   18  C   UNL     1     -10.661   5.218  66.147  1.00  0.00    -0.251 C  
BRANCH  18  19
HETATM   19  C   UNL     1      -9.632   4.887  65.054  1.00  0.00     0.000 C  
BRANCH  19  20
HETATM   20  C   UNL     1      -8.183   5.098  65.471  1.00  0.00    -0.121 C  
BRANCH  20  21
HETATM   21  C   UNL     1      -7.546   6.192  64.670  1.00  0.00    -0.093 C  
HETATM   22  O   UNL     1      -7.873   6.554  63.547  1.00  0.00    -0.112 OA 
BRANCH  21  23
HETATM   23  O   UNL     1      -6.446   6.623  65.345  1.00  0.00    -0.044 OA 
BRANCH  23  24
HETATM   24  C   UNL     1      -6.812   7.085  66.629  1.00  0.00    -0.068 C  
BRANCH  24  25
HETATM   25  C   UNL     1      -6.615   8.576  66.794  1.00  0.00    -0.057 C  
BRANCH  25  26
HETATM   26  C   UNL     1      -7.904   9.371  66.596  1.00  0.00    -0.104 C  
BRANCH  26  27
HETATM   27  C   UNL     1      -7.970  10.186  65.296  1.00  0.00    -0.145 C  
BRANCH  27  28
HETATM   28  O   UNL     1      -9.214  10.849  65.233  1.00  0.00    -0.199 OA 
HETATM   29  N   UNL     1      -9.913  10.571  64.034  1.00  0.00    -0.325 N  
HETATM   30  O   UNL     1     -10.971  11.199  63.947  1.00  0.00    -0.374 OA 
HETATM   31  O   UNL     1      -9.403   9.778  63.253  1.00  0.00    -0.259 OA 
ENDBRANCH  27  28
ENDBRANCH  26  27
ENDBRANCH  25  26
ENDBRANCH  24  25
ENDBRANCH  23  24
ENDBRANCH  21  23
ENDBRANCH  20  21
ENDBRANCH  19  20
ENDBRANCH  18  19
ENDBRANCH  17  18
ENDBRANCH  15  16
ENDBRANCH   8  15
ENDBRANCH   5   6
ENDBRANCH   4   5
ENDBRANCH   2   4
BRANCH   2  32
HETATM   32  C   UNL     1     -12.122  12.144  68.303  1.00  0.00    -0.071 C  
BRANCH  32  33
HETATM   33  C   UNL     1     -11.575  13.566  68.364  1.00  0.00    -0.378 C  
BRANCH  33  34
HETATM   34  C   UNL     1     -11.682  14.194  67.013  1.00  0.00    -0.430 A  
HETATM   35  C   UNL     1     -12.625  14.190  64.786  1.00  0.00    -0.326 A  
HETATM   36  C   UNL     1     -10.888  15.769  65.376  1.00  0.00    -0.376 A  
HETATM   37  C   UNL     1     -12.577  13.661  66.073  1.00  0.00    -0.441 A  
HETATM   38  C   UNL     1     -10.837  15.245  66.662  1.00  0.00    -0.310 A  
HETATM   39  C   UNL     1     -11.780  15.243  64.439  1.00  0.00    -0.289 A  
ENDBRANCH  33  34
ENDBRANCH  32  33
ENDBRANCH   2  32
TORSDOF 18
ENDMDL
MODEL      321
REMARK 921   NORMALIZED FREE ENERGY PREDICTED BY IDOCK:   -3.30 KCAL/MOL
REMARK 922        TOTAL FREE ENERGY PREDICTED BY IDOCK:  -11.57 KCAL/MOL
REMARK 923 INTER-LIGAND FREE ENERGY PREDICTED BY IDOCK:   -8.77 KCAL/MOL
REMARK 924 INTRA-LIGAND FREE ENERGY PREDICTED BY IDOCK:   -2.80 KCAL/MOL
REMARK 927      BINDING AFFINITY PREDICTED BY RF-SCORE:    0.00 PKD
ROOT
HETATM    1  O   UNL     1     -11.217   7.964  67.114  1.00  0.00    -0.373 OA 
HETATM    2  C   UNL     1      -9.896   8.330  67.508  1.00  0.00    -0.177 C  
HETATM    3  H   UNL     1     -11.184   7.355  66.385  1.00  0.00     0.000 HD 
ENDROOT
BRANCH   2   4
HETATM    4  C   UNL     1      -9.949   9.317  68.691  1.00  0.00    -0.193 C  
BRANCH   4   5
HETATM    5  C   UNL     1      -8.734   9.279  69.624  1.00  0.00    -0.155 C  
BRANCH   5   6
HETATM    6  C   UNL     1      -8.101   7.889  69.866  1.00  0.00    -0.118 C  
HETATM    7  H   UNL     1      -8.490   4.463  71.936  1.00  0.00     0.000 HD 
HETATM    8  C   UNL     1      -8.862   6.869  70.816  1.00  0.00    -0.150 C  
HETATM    9  C   UNL     1      -6.747   8.084  70.560  1.00  0.00    -0.037 C  
HETATM   10  C   UNL     1      -6.411   6.716  71.079  1.00  0.00    -0.041 C  
HETATM   11  O   UNL     1      -5.736   8.520  69.670  1.00  0.00    -0.029 OA 
HETATM   12  O   UNL     1      -7.670   4.787  71.583  1.00  0.00    -0.090 OA 
HETATM   13  H   UNL     1      -4.898   8.640  70.100  1.00  0.00     0.000 HD 
HETATM   14  C   UNL     1      -7.718   6.199  71.642  1.00  0.00    -0.101 C  
BRANCH   8  15
HETATM   15  C   UNL     1      -9.827   5.873  70.097  1.00  0.00    -0.226 C  
BRANCH  15  16
HETATM   16  C   UNL     1     -11.222   5.770  70.687  1.00  0.00    -0.196 C  
HETATM   17  C   UNL     1     -12.031   6.698  71.237  1.00  0.00    -0.409 C  
BRANCH  17  18
HETATM   18  C   UNL     1     -11.779   8.163  71.452  1.00  0.00    -0.321 C  
BRANCH  18  19
HETATM   19  C   UNL     1     -13.078   8.950  71.684  1.00  0.00    -0.405 C  
BRANCH  19  20
HETATM   20  C   UNL     1     -13.266  10.140  70.752  1.00  0.00    -0.290 C  
BRANCH  20  21
HETATM   21  C   UNL     1     -13.096  11.433  71.488  1.00  0.00    -0.335 C  
HETATM   22  O   UNL     1     -13.942  11.994  72.174  1.00  0.00    -0.030 OA 
BRANCH  21  23
HETATM   23  O   UNL     1     -11.886  11.956  71.150  1.00  0.00     0.130 OA 
BRANCH  23  24
HETATM   24  C   UNL     1     -11.791  12.093  69.747  1.00  0.00    -0.327 C  
BRANCH  24  25
HETATM   25  C   UNL     1     -11.017  13.325  69.330  1.00  0.00    -0.140 C  
BRANCH  25  26
HETATM   26  C   UNL     1     -11.900  14.390  68.684  1.00  0.00    -0.366 C  
BRANCH  26  27
HETATM   27  C   UNL     1     -12.451  15.450  69.650  1.00  0.00    -0.136 C  
BRANCH  27  28
HETATM   28  O   UNL     1     -11.700  15.417  70.844  1.00  0.00    -0.290 OA 
HETATM   29  N   UNL     1     -12.497  15.117  71.974  1.00  0.00    -0.319 N  
HETATM   30  O   UNL     1     -11.856  15.152  73.027  1.00  0.00    -0.388 OA 
HETATM   31  O   UNL     1     -13.682  14.875  71.783  1.00  0.00    -0.362 OA 
ENDBRANCH  27  28
ENDBRANCH  26  27
ENDBRANCH  25  26
ENDBRANCH  24  25
ENDBRANCH  23  24
ENDBRANCH  21  23
ENDBRANCH  20  21
ENDBRANCH  19  20
ENDBRANCH  18  19
ENDBRANCH  17  18
ENDBRANCH  15  16
ENDBRANCH   8  15
ENDBRANCH   5   6
ENDBRANCH   4   5
ENDBRANCH   2   4
BRANCH   2  32
HETATM   32  C   UNL     1      -9.233   8.955  66.289  1.00  0.00    -0.261 C  
BRANCH  32  33
HETATM   33  C   UNL     1      -9.105  10.468  66.430  1.00  0.00    -0.181 C  
BRANCH  33  34
HETATM   34  C   UNL     1     -10.183  11.130  65.637  1.00  0.00    -0.310 A  
HETATM   35  C   UNL     1     -11.044  11.854  63.497  1.00  0.00    -0.506 A  
HETATM   36  C   UNL     1     -12.186  12.461  65.542  1.00  0.00    -0.356 A  
HETATM   37  C   UNL     1     -10.086  11.170  64.238  1.00  0.00    -0.382 A  
HETATM   38  C   UNL     1     -11.232  11.778  66.287  1.00  0.00    -0.370 A  
HETATM   39  C   UNL     1     -12.093  12.499  64.149  1.00  0.00    -0.530 A  
ENDBRANCH  33  34
ENDBRANCH  32  33
ENDBRANCH   2  32
TORSDOF 18
ENDMDL
MODEL      322
REMARK 921   NORMALIZED FREE ENERGY PREDICTED BY IDOCK:   -3.30 KCAL/MOL
REMARK 922        TOTAL FREE ENERGY PREDICTED BY IDOCK:  -11.56 KCAL/MOL
REMARK 923 INTER-LIGAND FREE ENERGY PREDICTED BY IDOCK:   -7.82 KCAL/MOL
REMARK 924 INTRA-LIGAND FREE ENERGY PREDICTED BY IDOCK:   -3.74 KCAL/MOL
REMARK 927      BINDING AFFINITY PREDICTED BY RF-SCORE:    0.00 PKD
ROOT
HETATM    1  O   UNL     1      -9.745   6.416  65.763  1.00  0.00    -0.380 OA 
HETATM    2  C   UNL     1      -9.466   6.578  67.153  1.00  0.00    -0.131 C  
HETATM    3  H   UNL     1     -10.208   5.600  65.615  1.00  0.00     0.000 HD 
ENDROOT
BRANCH   2   4
HETATM    4  C   UNL     1      -8.716   7.903  67.393  1.00  0.00    -0.128 C  
BRANCH   4   5
HETATM    5  C   UNL     1      -7.700   7.876  68.541  1.00  0.00    -0.114 C  
BRANCH   5   6
HETATM    6  C   UNL     1      -8.261   7.535  69.941  1.00  0.00    -0.131 C  
HETATM    7  H   UNL     1     -10.130   9.076  73.152  1.00  0.00     0.000 HD 
HETATM    8  C   UNL     1      -9.041   8.666  70.737  1.00  0.00    -0.214 C  
HETATM    9  C   UNL     1      -7.086   7.191  70.866  1.00  0.00    -0.069 C  
HETATM   10  C   UNL     1      -7.684   7.253  72.241  1.00  0.00    -0.095 C  
HETATM   11  O   UNL     1      -6.567   5.896  70.628  1.00  0.00    -0.044 OA 
HETATM   12  O   UNL     1      -9.581   8.300  73.170  1.00  0.00    -0.255 OA 
HETATM   13  H   UNL     1      -5.840   5.682  71.200  1.00  0.00     0.000 HD 
HETATM   14  C   UNL     1      -8.558   8.489  72.212  1.00  0.00    -0.165 C  
BRANCH   8  15
HETATM   15  C   UNL     1     -10.592   8.674  70.547  1.00  0.00    -0.248 C  
BRANCH  15  16
HETATM   16  C   UNL     1     -11.234  10.046  70.458  1.00  0.00    -0.408 C  
HETATM   17  C   UNL     1     -11.088  11.046  69.565  1.00  0.00    -0.322 C  
BRANCH  17  18
HETATM   18  C   UNL     1     -10.201  11.109  68.354  1.00  0.00    -0.200 C  
BRANCH  18  19
HETATM   19  C   UNL     1      -8.847  11.769  68.657  1.00  0.00    -0.062 C  
BRANCH  19  20
HETATM   20  C   UNL     1      -7.753  11.450  67.646  1.00  0.00    -0.121 C  
BRANCH  20  21
HETATM   21  C   UNL     1      -6.776  12.579  67.535  1.00  0.00    -0.151 C  
HETATM   22  O   UNL     1      -5.738  12.581  66.885  1.00  0.00    -0.319 OA 
BRANCH  21  23
HETATM   23  O   UNL     1      -7.163  13.558  68.399  1.00  0.00    -0.092 OA 
BRANCH  23  24
HETATM   24  C   UNL     1      -7.375  14.767  67.700  1.00  0.00    -0.186 C  
BRANCH  24  25
HETATM   25  C   UNL     1      -8.839  15.042  67.435  1.00  0.00    -0.202 C  
BRANCH  25  26
HETATM   26  C   UNL     1      -9.082  15.726  66.092  1.00  0.00    -0.377 C  
BRANCH  26  27
HETATM   27  C   UNL     1     -10.504  15.576  65.534  1.00  0.00    -0.386 C  
BRANCH  27  28
HETATM   28  O   UNL     1     -10.675  14.259  65.058  1.00  0.00    -0.369 OA 
HETATM   29  N   UNL     1     -11.662  13.548  65.781  1.00  0.00    -0.332 N  
HETATM   30  O   UNL     1     -11.767  12.376  65.409  1.00  0.00    -0.372 OA 
HETATM   31  O   UNL     1     -12.264  14.151  66.659  1.00  0.00    -0.448 OA 
ENDBRANCH  27  28
ENDBRANCH  26  27
ENDBRANCH  25  26
ENDBRANCH  24  25
ENDBRANCH  23  24
ENDBRANCH  21  23
ENDBRANCH  20  21
ENDBRANCH  19  20
ENDBRANCH  18  19
ENDBRANCH  17  18
ENDBRANCH  15  16
ENDBRANCH   8  15
ENDBRANCH   5   6
ENDBRANCH   4   5
ENDBRANCH   2   4
BRANCH   2  32
HETATM   32  C   UNL     1      -8.629   5.379  67.573  1.00  0.00    -0.108 C  
BRANCH  32  33
HETATM   33  C   UNL     1      -9.501   4.196  67.978  1.00  0.00    -0.215 C  
BRANCH  33  34
HETATM   34  C   UNL     1      -9.577   4.125  69.468  1.00  0.00    -0.274 A  
HETATM   35  C   UNL     1     -10.439   4.999  71.551  1.00  0.00    -0.225 A  
HETATM   36  C   UNL     1      -8.768   3.249  71.559  1.00  0.00    -0.118 A  
HETATM   37  C   UNL     1     -10.423   5.005  70.159  1.00  0.00    -0.235 A  
HETATM   38  C   UNL     1      -8.748   3.250  70.169  1.00  0.00    -0.126 A  
HETATM   39  C   UNL     1      -9.612   4.122  72.249  1.00  0.00    -0.200 A  
ENDBRANCH  33  34
ENDBRANCH  32  33
ENDBRANCH   2  32
TORSDOF 18
ENDMDL
MODEL      323
REMARK 921   NORMALIZED FREE ENERGY PREDICTED BY IDOCK:   -3.30 KCAL/MOL
REMARK 922        TOTAL FREE ENERGY PREDICTED BY IDOCK:  -11.56 KCAL/MOL
REMARK 923 INTER-LIGAND FREE ENERGY PREDICTED BY IDOCK:   -7.57 KCAL/MOL
REMARK 924 INTRA-LIGAND FREE ENERGY PREDICTED BY IDOCK:   -3.99 KCAL/MOL
REMARK 927      BINDING AFFINITY PREDICTED BY RF-SCORE:    0.00 PKD
ROOT
HETATM    1  O   UNL     1      -8.374  13.352  68.787  1.00  0.00    -0.335 OA 
HETATM    2  C   UNL     1      -7.424  13.253  67.728  1.00  0.00    -0.154 C  
HETATM    3  H   UNL     1      -8.865  14.161  68.711  1.00  0.00     0.000 HD 
ENDROOT
BRANCH   2   4
HETATM    4  C   UNL     1      -6.626  11.940  67.850  1.00  0.00    -0.075 C  
BRANCH   4   5
HETATM    5  C   UNL     1      -6.321  11.238  66.522  1.00  0.00    -0.119 C  
BRANCH   5   6
HETATM    6  C   UNL     1      -7.293  10.110  66.107  1.00  0.00    -0.115 C  
HETATM    7  H   UNL     1      -7.493   6.285  64.881  1.00  0.00     0.000 HD 
HETATM    8  C   UNL     1      -6.695   8.671  65.805  1.00  0.00    -0.064 C  
HETATM    9  C   UNL     1      -7.962  10.505  64.783  1.00  0.00    -0.046 C  
HETATM   10  C   UNL     1      -8.567   9.223  64.291  1.00  0.00    -0.214 C  
HETATM   11  O   UNL     1      -8.975  11.478  64.954  1.00  0.00    -0.405 OA 
HETATM   12  O   UNL     1      -8.161   6.939  64.712  1.00  0.00    -0.122 OA 
HETATM   13  H   UNL     1      -9.389  11.723  64.134  1.00  0.00     0.000 HD 
HETATM   14  C   UNL     1      -7.502   8.180  64.561  1.00  0.00    -0.102 C  
BRANCH   8  15
HETATM   15  C   UNL     1      -6.682   7.681  67.014  1.00  0.00    -0.067 C  
BRANCH  15  16
HETATM   16  C   UNL     1      -6.278   8.282  68.348  1.00  0.00    -0.050 C  
HETATM   17  C   UNL     1      -6.980   8.509  69.477  1.00  0.00    -0.048 C  
BRANCH  17  18
HETATM   18  C   UNL     1      -8.430   8.238  69.758  1.00  0.00    -0.128 C  
BRANCH  18  19
HETATM   19  C   UNL     1      -9.236   9.531  69.960  1.00  0.00    -0.264 C  
BRANCH  19  20
HETATM   20  C   UNL     1     -10.626   9.508  69.338  1.00  0.00    -0.235 C  
BRANCH  20  21
HETATM   21  C   UNL     1     -10.803  10.641  68.375  1.00  0.00    -0.237 C  
HETATM   22  O   UNL     1      -9.935  11.134  67.666  1.00  0.00    -0.171 OA 
BRANCH  21  23
HETATM   23  O   UNL     1     -12.065  11.129  68.525  1.00  0.00    -0.586 OA 
BRANCH  23  24
HETATM   24  C   UNL     1     -12.254  11.591  69.846  1.00  0.00    -0.258 C  
BRANCH  24  25
HETATM   25  C   UNL     1     -11.537  12.896  70.119  1.00  0.00    -0.131 C  
BRANCH  25  26
HETATM   26  C   UNL     1     -12.466  14.106  70.073  1.00  0.00    -0.352 C  
BRANCH  26  27
HETATM   27  C   UNL     1     -12.377  14.946  68.791  1.00  0.00     0.028 C  
BRANCH  27  28
HETATM   28  O   UNL     1     -11.165  14.651  68.132  1.00  0.00    -0.266 OA 
HETATM   29  N   UNL     1     -11.368  14.178  66.814  1.00  0.00    -0.330 N  
HETATM   30  O   UNL     1     -10.314  13.858  66.259  1.00  0.00    -0.281 OA 
HETATM   31  O   UNL     1     -12.519  14.135  66.400  1.00  0.00    -0.461 OA 
ENDBRANCH  27  28
ENDBRANCH  26  27
ENDBRANCH  25  26
ENDBRANCH  24  25
ENDBRANCH  23  24
ENDBRANCH  21  23
ENDBRANCH  20  21
ENDBRANCH  19  20
ENDBRANCH  18  19
ENDBRANCH  17  18
ENDBRANCH  15  16
ENDBRANCH   8  15
ENDBRANCH   5   6
ENDBRANCH   4   5
ENDBRANCH   2   4
BRANCH   2  32
HETATM   32  C   UNL     1      -6.516  14.469  67.839  1.00  0.00    -0.175 C  
BRANCH  32  33
HETATM   33  C   UNL     1      -6.677  15.172  69.182  1.00  0.00    -0.130 C  
BRANCH  33  34
HETATM   34  C   UNL     1      -7.038  16.603  68.951  1.00  0.00    -0.205 A  
HETATM   35  C   UNL     1      -6.562  18.949  69.290  1.00  0.00    -0.311 A  
HETATM   36  C   UNL     1      -8.611  18.263  68.201  1.00  0.00    -0.290 A  
HETATM   37  C   UNL     1      -6.193  17.614  69.431  1.00  0.00    -0.249 A  
HETATM   38  C   UNL     1      -8.248  16.929  68.339  1.00  0.00    -0.232 A  
HETATM   39  C   UNL     1      -7.770  19.272  68.676  1.00  0.00    -0.394 A  
ENDBRANCH  33  34
ENDBRANCH  32  33
ENDBRANCH   2  32
TORSDOF 18
ENDMDL
MODEL      324
REMARK 921   NORMALIZED FREE ENERGY PREDICTED BY IDOCK:   -3.30 KCAL/MOL
REMARK 922        TOTAL FREE ENERGY PREDICTED BY IDOCK:  -11.56 KCAL/MOL
REMARK 923 INTER-LIGAND FREE ENERGY PREDICTED BY IDOCK:   -9.69 KCAL/MOL
REMARK 924 INTRA-LIGAND FREE ENERGY PREDICTED BY IDOCK:   -1.87 KCAL/MOL
REMARK 927      BINDING AFFINITY PREDICTED BY RF-SCORE:    0.00 PKD
ROOT
HETATM    1  O   UNL     1      -9.447   7.796  69.172  1.00  0.00    -0.151 OA 
HETATM    2  C   UNL     1      -9.701   7.984  67.781  1.00  0.00    -0.156 C  
HETATM    3  H   UNL     1      -9.187   6.898  69.339  1.00  0.00     0.000 HD 
ENDROOT
BRANCH   2   4
HETATM    4  C   UNL     1     -10.122   9.441  67.509  1.00  0.00    -0.268 C  
BRANCH   4   5
HETATM    5  C   UNL     1      -9.916  10.407  68.681  1.00  0.00    -0.186 C  
BRANCH   5   6
HETATM    6  C   UNL     1      -8.670  11.320  68.602  1.00  0.00    -0.136 C  
HETATM    7  H   UNL     1      -6.129  13.130  66.064  1.00  0.00     0.000 HD 
HETATM    8  C   UNL     1      -8.173  11.795  67.171  1.00  0.00    -0.169 C  
HETATM    9  C   UNL     1      -7.467  10.552  69.164  1.00  0.00    -0.114 C  
HETATM   10  C   UNL     1      -6.284  11.352  68.700  1.00  0.00    -0.048 C  
HETATM   11  O   UNL     1      -7.475  10.485  70.577  1.00  0.00    -0.439 OA 
HETATM   12  O   UNL     1      -5.921  12.905  66.963  1.00  0.00    -0.292 OA 
HETATM   13  H   UNL     1      -6.729  10.010  70.925  1.00  0.00     0.000 HD 
HETATM   14  C   UNL     1      -6.616  11.711  67.267  1.00  0.00    -0.122 C  
BRANCH   8  15
HETATM   15  C   UNL     1      -8.730  13.173  66.689  1.00  0.00    -0.018 C  
BRANCH  15  16
HETATM   16  C   UNL     1     -10.241  13.267  66.580  1.00  0.00    -0.265 C  
HETATM   17  C   UNL     1     -11.124  14.141  67.103  1.00  0.00    -0.315 C  
BRANCH  17  18
HETATM   18  C   UNL     1     -10.867  15.322  67.996  1.00  0.00    -0.288 C  
BRANCH  18  19
HETATM   19  C   UNL     1      -9.793  16.262  67.426  1.00  0.00    -0.242 C  
BRANCH  19  20
HETATM   20  C   UNL     1     -10.117  16.821  66.047  1.00  0.00    -0.350 C  
BRANCH  20  21
HETATM   21  C   UNL     1     -10.659  18.214  66.145  1.00  0.00    -0.274 C  
HETATM   22  O   UNL     1     -11.011  18.924  65.211  1.00  0.00    -0.521 OA 
BRANCH  21  23
HETATM   23  O   UNL     1     -10.560  18.615  67.442  1.00  0.00    -0.416 OA 
BRANCH  23  24
HETATM   24  C   UNL     1     -10.079  19.941  67.505  1.00  0.00    -0.429 C  
BRANCH  24  25
HETATM   25  C   UNL     1      -8.569  20.016  67.574  1.00  0.00    -0.401 C  
BRANCH  25  26
HETATM   26  C   UNL     1      -8.004  19.431  68.866  1.00  0.00    -0.360 C  
BRANCH  26  27
HETATM   27  C   UNL     1      -6.477  19.515  69.003  1.00  0.00    -0.307 C  
BRANCH  27  28
HETATM   28  O   UNL     1      -6.082  18.830  70.171  1.00  0.00    -0.223 OA 
HETATM   29  N   UNL     1      -5.686  19.710  71.205  1.00  0.00    -0.255 N  
HETATM   30  O   UNL     1      -5.279  19.113  72.205  1.00  0.00    -0.706 OA 
HETATM   31  O   UNL     1      -5.782  20.912  70.993  1.00  0.00    -0.551 OA 
ENDBRANCH  27  28
ENDBRANCH  26  27
ENDBRANCH  25  26
ENDBRANCH  24  25
ENDBRANCH  23  24
ENDBRANCH  21  23
ENDBRANCH  20  21
ENDBRANCH  19  20
ENDBRANCH  18  19
ENDBRANCH  17  18
ENDBRANCH  15  16
ENDBRANCH   8  15
ENDBRANCH   5   6
ENDBRANCH   4   5
ENDBRANCH   2   4
BRANCH   2  32
HETATM   32  C   UNL     1     -10.802   7.005  67.401  1.00  0.00    -0.371 C  
BRANCH  32  33
HETATM   33  C   UNL     1     -10.623   5.658  68.094  1.00  0.00    -0.256 C  
BRANCH  33  34
HETATM   34  C   UNL     1     -10.021   4.685  67.134  1.00  0.00    -0.215 A  
HETATM   35  C   UNL     1      -8.523   2.835  66.714  1.00  0.00    -0.103 A  
HETATM   36  C   UNL     1      -9.626   3.955  64.875  1.00  0.00    -0.177 A  
HETATM   37  C   UNL     1      -9.151   3.694  67.611  1.00  0.00    -0.189 A  
HETATM   38  C   UNL     1     -10.256   4.816  65.766  1.00  0.00    -0.251 A  
HETATM   39  C   UNL     1      -8.761   2.966  65.348  1.00  0.00    -0.124 A  
ENDBRANCH  33  34
ENDBRANCH  32  33
ENDBRANCH   2  32
TORSDOF 18
ENDMDL
MODEL      325
REMARK 921   NORMALIZED FREE ENERGY PREDICTED BY IDOCK:   -3.29 KCAL/MOL
REMARK 922        TOTAL FREE ENERGY PREDICTED BY IDOCK:  -11.55 KCAL/MOL
REMARK 923 INTER-LIGAND FREE ENERGY PREDICTED BY IDOCK:   -8.88 KCAL/MOL
REMARK 924 INTRA-LIGAND FREE ENERGY PREDICTED BY IDOCK:   -2.66 KCAL/MOL
REMARK 927      BINDING AFFINITY PREDICTED BY RF-SCORE:    0.00 PKD
ROOT
HETATM    1  O   UNL     1     -10.606  10.165  69.564  1.00  0.00    -0.212 OA 
HETATM    2  C   UNL     1     -11.491  10.785  68.634  1.00  0.00    -0.295 C  
HETATM    3  H   UNL     1     -10.963  10.218  70.442  1.00  0.00     0.000 HD 
ENDROOT
BRANCH   2   4
HETATM    4  C   UNL     1     -10.911  10.699  67.208  1.00  0.00    -0.345 C  
BRANCH   4   5
HETATM    5  C   UNL     1      -9.429  11.070  67.086  1.00  0.00    -0.181 C  
BRANCH   5   6
HETATM    6  C   UNL     1      -8.573  10.167  66.169  1.00  0.00    -0.147 C  
HETATM    7  H   UNL     1      -4.824   9.460  64.895  1.00  0.00     0.000 HD 
HETATM    8  C   UNL     1      -6.996  10.350  66.189  1.00  0.00    -0.126 C  
HETATM    9  C   UNL     1      -8.949  10.455  64.710  1.00  0.00    -0.202 C  
HETATM   10  C   UNL     1      -7.832   9.835  63.923  1.00  0.00    -0.144 C  
HETATM   11  O   UNL     1     -10.181   9.866  64.339  1.00  0.00    -0.399 OA 
HETATM   12  O   UNL     1      -5.608   9.223  64.414  1.00  0.00    -0.065 OA 
HETATM   13  H   UNL     1     -10.414  10.045  63.436  1.00  0.00     0.000 HD 
HETATM   14  C   UNL     1      -6.582  10.211  64.689  1.00  0.00    -0.125 C  
BRANCH   8  15
HETATM   15  C   UNL     1      -6.222   9.418  67.175  1.00  0.00    -0.065 C  
BRANCH  15  16
HETATM   16  C   UNL     1      -7.077   8.702  68.206  1.00  0.00    -0.078 C  
HETATM   17  C   UNL     1      -7.787   7.558  68.141  1.00  0.00    -0.122 C  
BRANCH  17  18
HETATM   18  C   UNL     1      -7.964   6.621  66.980  1.00  0.00    -0.109 C  
BRANCH  18  19
HETATM   19  C   UNL     1      -8.382   5.211  67.427  1.00  0.00    -0.106 C  
BRANCH  19  20
HETATM   20  C   UNL     1      -9.879   4.943  67.340  1.00  0.00    -0.213 C  
BRANCH  20  21
HETATM   21  C   UNL     1     -10.612   5.615  68.459  1.00  0.00    -0.189 C  
HETATM   22  O   UNL     1     -11.237   6.666  68.391  1.00  0.00    -0.230 OA 
BRANCH  21  23
HETATM   23  O   UNL     1     -10.345   4.935  69.607  1.00  0.00    -0.243 OA 
BRANCH  23  24
HETATM   24  C   UNL     1     -10.154   5.839  70.676  1.00  0.00    -0.203 C  
BRANCH  24  25
HETATM   25  C   UNL     1     -11.028   5.527  71.871  1.00  0.00    -0.264 C  
BRANCH  25  26
HETATM   26  C   UNL     1     -11.763   6.753  72.406  1.00  0.00    -0.255 C  
BRANCH  26  27
HETATM   27  C   UNL     1     -12.752   7.397  71.423  1.00  0.00    -0.369 C  
BRANCH  27  28
HETATM   28  O   UNL     1     -12.491   8.781  71.349  1.00  0.00    -0.306 OA 
HETATM   29  N   UNL     1     -13.477   9.552  72.009  1.00  0.00    -0.429 N  
HETATM   30  O   UNL     1     -13.286  10.765  71.890  1.00  0.00    -0.469 OA 
HETATM   31  O   UNL     1     -14.371   8.951  72.589  1.00  0.00    -0.613 OA 
ENDBRANCH  27  28
ENDBRANCH  26  27
ENDBRANCH  25  26
ENDBRANCH  24  25
ENDBRANCH  23  24
ENDBRANCH  21  23
ENDBRANCH  20  21
ENDBRANCH  19  20
ENDBRANCH  18  19
ENDBRANCH  17  18
ENDBRANCH  15  16
ENDBRANCH   8  15
ENDBRANCH   5   6
ENDBRANCH   4   5
ENDBRANCH   2   4
BRANCH   2  32
HETATM   32  C   UNL     1     -11.656  12.230  69.083  1.00  0.00    -0.373 C  
BRANCH  32  33
HETATM   33  C   UNL     1     -12.223  13.105  67.971  1.00  0.00    -0.091 C  
BRANCH  33  34
HETATM   34  C   UNL     1     -11.551  14.439  68.001  1.00  0.00    -0.357 A  
HETATM   35  C   UNL     1     -10.095  16.058  66.951  1.00  0.00    -0.266 A  
HETATM   36  C   UNL     1     -10.916  16.429  69.197  1.00  0.00    -0.324 A  
HETATM   37  C   UNL     1     -10.789  14.853  66.899  1.00  0.00    -0.319 A  
HETATM   38  C   UNL     1     -11.611  15.226  69.150  1.00  0.00    -0.349 A  
HETATM   39  C   UNL     1     -10.158  16.845  68.100  1.00  0.00    -0.299 A  
ENDBRANCH  33  34
ENDBRANCH  32  33
ENDBRANCH   2  32
TORSDOF 18
ENDMDL
MODEL      326
REMARK 921   NORMALIZED FREE ENERGY PREDICTED BY IDOCK:   -3.29 KCAL/MOL
REMARK 922        TOTAL FREE ENERGY PREDICTED BY IDOCK:  -11.54 KCAL/MOL
REMARK 923 INTER-LIGAND FREE ENERGY PREDICTED BY IDOCK:  -10.44 KCAL/MOL
REMARK 924 INTRA-LIGAND FREE ENERGY PREDICTED BY IDOCK:   -1.11 KCAL/MOL
REMARK 927      BINDING AFFINITY PREDICTED BY RF-SCORE:    0.00 PKD
ROOT
HETATM    1  O   UNL     1     -12.506   7.309  72.499  1.00  0.00    -0.498 OA 
HETATM    2  C   UNL     1     -11.269   7.761  73.047  1.00  0.00    -0.321 C  
HETATM    3  H   UNL     1     -13.039   6.912  73.178  1.00  0.00     0.000 HD 
ENDROOT
BRANCH   2   4
HETATM    4  C   UNL     1     -10.404   8.404  71.945  1.00  0.00    -0.353 C  
BRANCH   4   5
HETATM    5  C   UNL     1     -11.081   8.530  70.577  1.00  0.00    -0.265 C  
BRANCH   5   6
HETATM    6  C   UNL     1     -10.683   9.761  69.729  1.00  0.00    -0.283 C  
HETATM    7  H   UNL     1     -12.139  12.946  67.752  1.00  0.00     0.000 HD 
HETATM    8  C   UNL     1     -11.823  10.777  69.294  1.00  0.00    -0.359 C  
HETATM    9  C   UNL     1     -10.112   9.269  68.392  1.00  0.00    -0.191 C  
HETATM   10  C   UNL     1     -10.120  10.495  67.527  1.00  0.00    -0.225 C  
HETATM   11  O   UNL     1      -8.791   8.776  68.513  1.00  0.00    -0.137 OA 
HETATM   12  O   UNL     1     -11.303  12.534  67.565  1.00  0.00    -0.273 OA 
HETATM   13  H   UNL     1      -8.437   8.472  67.686  1.00  0.00     0.000 HD 
HETATM   14  C   UNL     1     -11.452  11.152  67.824  1.00  0.00    -0.272 C  
BRANCH   8  15
HETATM   15  C   UNL     1     -12.039  11.994  70.250  1.00  0.00    -0.395 C  
BRANCH  15  16
HETATM   16  C   UNL     1     -12.867  11.713  71.491  1.00  0.00    -0.469 C  
HETATM   17  C   UNL     1     -13.640  12.514  72.251  1.00  0.00    -0.443 C  
BRANCH  17  18
HETATM   18  C   UNL     1     -13.913  13.983  72.100  1.00  0.00    -0.633 C  
BRANCH  18  19
HETATM   19  C   UNL     1     -12.680  14.842  72.423  1.00  0.00    -0.432 C  
BRANCH  19  20
HETATM   20  C   UNL     1     -12.407  15.952  71.417  1.00  0.00    -0.485 C  
BRANCH  20  21
HETATM   21  C   UNL     1     -11.656  15.431  70.231  1.00  0.00    -0.320 C  
HETATM   22  O   UNL     1     -12.145  15.014  69.188  1.00  0.00    -0.288 OA 
BRANCH  21  23
HETATM   23  O   UNL     1     -10.338  15.364  70.562  1.00  0.00    -0.246 OA 
BRANCH  23  24
HETATM   24  C   UNL     1      -9.545  15.314  69.394  1.00  0.00    -0.244 C  
BRANCH  24  25
HETATM   25  C   UNL     1      -9.332  16.677  68.771  1.00  0.00    -0.256 C  
BRANCH  25  26
HETATM   26  C   UNL     1      -9.896  16.777  67.356  1.00  0.00    -0.252 C  
BRANCH  26  27
HETATM   27  C   UNL     1     -11.028  17.799  67.179  1.00  0.00     0.016 C  
BRANCH  27  28
HETATM   28  O   UNL     1     -10.639  19.023  67.762  1.00  0.00    -0.418 OA 
HETATM   29  N   UNL     1      -9.945  19.857  66.854  1.00  0.00    -0.404 N  
HETATM   30  O   UNL     1      -9.547  20.899  67.379  1.00  0.00    -0.433 OA 
HETATM   31  O   UNL     1      -9.820  19.459  65.703  1.00  0.00    -0.380 OA 
ENDBRANCH  27  28
ENDBRANCH  26  27
ENDBRANCH  25  26
ENDBRANCH  24  25
ENDBRANCH  23  24
ENDBRANCH  21  23
ENDBRANCH  20  21
ENDBRANCH  19  20
ENDBRANCH  18  19
ENDBRANCH  17  18
ENDBRANCH  15  16
ENDBRANCH   8  15
ENDBRANCH   5   6
ENDBRANCH   4   5
ENDBRANCH   2   4
BRANCH   2  32
HETATM   32  C   UNL     1     -10.587   6.543  73.652  1.00  0.00    -0.306 C  
BRANCH  32  33
HETATM   33  C   UNL     1      -9.334   6.926  74.431  1.00  0.00    -0.252 C  
BRANCH  33  34
HETATM   34  C   UNL     1      -8.211   7.163  73.475  1.00  0.00    -0.138 A  
HETATM   35  C   UNL     1      -6.960   6.471  71.525  1.00  0.00    -0.072 A  
HETATM   36  C   UNL     1      -6.195   8.331  72.872  1.00  0.00    -0.086 A  
HETATM   37  C   UNL     1      -8.050   6.307  72.375  1.00  0.00    -0.104 A  
HETATM   38  C   UNL     1      -7.282   8.172  73.724  1.00  0.00    -0.186 A  
HETATM   39  C   UNL     1      -6.034   7.482  71.774  1.00  0.00    -0.036 A  
ENDBRANCH  33  34
ENDBRANCH  32  33
ENDBRANCH   2  32
TORSDOF 18
ENDMDL
MODEL      327
REMARK 921   NORMALIZED FREE ENERGY PREDICTED BY IDOCK:   -3.29 KCAL/MOL
REMARK 922        TOTAL FREE ENERGY PREDICTED BY IDOCK:  -11.54 KCAL/MOL
REMARK 923 INTER-LIGAND FREE ENERGY PREDICTED BY IDOCK:  -10.38 KCAL/MOL
REMARK 924 INTRA-LIGAND FREE ENERGY PREDICTED BY IDOCK:   -1.17 KCAL/MOL
REMARK 927      BINDING AFFINITY PREDICTED BY RF-SCORE:    0.00 PKD
ROOT
HETATM    1  O   UNL     1      -9.612   9.498  68.647  1.00  0.00    -0.144 OA 
HETATM    2  C   UNL     1     -10.950   9.968  68.803  1.00  0.00    -0.202 C  
HETATM    3  H   UNL     1      -9.412   8.851  69.313  1.00  0.00     0.000 HD 
ENDROOT
BRANCH   2   4
HETATM    4  C   UNL     1     -11.274  11.017  67.722  1.00  0.00    -0.374 C  
BRANCH   4   5
HETATM    5  C   UNL     1     -10.204  11.188  66.639  1.00  0.00    -0.274 C  
BRANCH   5   6
HETATM    6  C   UNL     1     -10.579  12.098  65.446  1.00  0.00    -0.309 C  
HETATM    7  H   UNL     1     -12.944  15.145  64.307  1.00  0.00     0.000 HD 
HETATM    8  C   UNL     1     -11.606  13.282  65.694  1.00  0.00    -0.363 C  
HETATM    9  C   UNL     1     -11.271  11.241  64.378  1.00  0.00    -0.126 C  
HETATM   10  C   UNL     1     -11.915  12.250  63.472  1.00  0.00    -0.625 C  
HETATM   11  O   UNL     1     -10.359  10.449  63.640  1.00  0.00    -0.435 OA 
HETATM   12  O   UNL     1     -12.574  14.501  63.714  1.00  0.00    -0.825 OA 
HETATM   13  H   UNL     1     -10.787   9.919  62.978  1.00  0.00     0.000 HD 
HETATM   14  C   UNL     1     -12.504  13.276  64.417  1.00  0.00    -0.290 C  
BRANCH   8  15
HETATM   15  C   UNL     1     -10.967  14.665  66.044  1.00  0.00    -0.325 C  
BRANCH  15  16
HETATM   16  C   UNL     1      -9.455  14.671  66.183  1.00  0.00    -0.308 C  
HETATM   17  C   UNL     1      -8.580  15.674  66.397  1.00  0.00    -0.319 C  
BRANCH  17  18
HETATM   18  C   UNL     1      -8.849  17.144  66.554  1.00  0.00    -0.293 C  
BRANCH  18  19
HETATM   19  C   UNL     1      -7.708  18.008  65.994  1.00  0.00    -0.211 C  
BRANCH  19  20
HETATM   20  C   UNL     1      -6.653  18.397  67.022  1.00  0.00    -0.202 C  
BRANCH  20  21
HETATM   21  C   UNL     1      -7.285  18.977  68.249  1.00  0.00    -0.276 C  
HETATM   22  O   UNL     1      -7.288  20.158  68.575  1.00  0.00    -0.263 OA 
BRANCH  21  23
HETATM   23  O   UNL     1      -7.733  17.949  69.019  1.00  0.00    -0.228 OA 
BRANCH  23  24
HETATM   24  C   UNL     1      -6.706  16.998  69.209  1.00  0.00    -0.234 C  
BRANCH  24  25
HETATM   25  C   UNL     1      -7.224  15.665  69.702  1.00  0.00    -0.153 C  
BRANCH  25  26
HETATM   26  C   UNL     1      -6.311  14.498  69.331  1.00  0.00    -0.125 C  
BRANCH  26  27
HETATM   27  C   UNL     1      -5.879  14.455  67.858  1.00  0.00    -0.122 C  
BRANCH  27  28
HETATM   28  O   UNL     1      -5.247  13.220  67.601  1.00  0.00    -0.225 OA 
HETATM   29  N   UNL     1      -6.173  12.189  67.315  1.00  0.00    -0.143 N  
HETATM   30  O   UNL     1      -5.627  11.095  67.154  1.00  0.00    -0.050 OA 
HETATM   31  O   UNL     1      -7.359  12.490  67.271  1.00  0.00    -0.144 OA 
ENDBRANCH  27  28
ENDBRANCH  26  27
ENDBRANCH  25  26
ENDBRANCH  24  25
ENDBRANCH  23  24
ENDBRANCH  21  23
ENDBRANCH  20  21
ENDBRANCH  19  20
ENDBRANCH  18  19
ENDBRANCH  17  18
ENDBRANCH  15  16
ENDBRANCH   8  15
ENDBRANCH   5   6
ENDBRANCH   4   5
ENDBRANCH   2   4
BRANCH   2  32
HETATM   32  C   UNL     1     -11.045  10.559  70.202  1.00  0.00    -0.369 C  
BRANCH  32  33
HETATM   33  C   UNL     1     -12.188   9.941  70.999  1.00  0.00    -0.446 C  
BRANCH  33  34
HETATM   34  C   UNL     1     -11.761   8.609  71.523  1.00  0.00    -0.369 A  
HETATM   35  C   UNL     1     -12.229   6.262  71.863  1.00  0.00    -0.256 A  
HETATM   36  C   UNL     1     -10.257   7.269  72.840  1.00  0.00    -0.289 A  
HETATM   37  C   UNL     1     -12.579   7.490  71.310  1.00  0.00    -0.345 A  
HETATM   38  C   UNL     1     -10.602   8.498  72.290  1.00  0.00    -0.408 A  
HETATM   39  C   UNL     1     -11.069   6.152  72.628  1.00  0.00    -0.308 A  
ENDBRANCH  33  34
ENDBRANCH  32  33
ENDBRANCH   2  32
TORSDOF 18
ENDMDL
MODEL      328
REMARK 921   NORMALIZED FREE ENERGY PREDICTED BY IDOCK:   -3.29 KCAL/MOL
REMARK 922        TOTAL FREE ENERGY PREDICTED BY IDOCK:  -11.54 KCAL/MOL
REMARK 923 INTER-LIGAND FREE ENERGY PREDICTED BY IDOCK:   -8.18 KCAL/MOL
REMARK 924 INTRA-LIGAND FREE ENERGY PREDICTED BY IDOCK:   -3.36 KCAL/MOL
REMARK 927      BINDING AFFINITY PREDICTED BY RF-SCORE:    0.00 PKD
ROOT
HETATM    1  O   UNL     1     -10.313  11.085  69.837  1.00  0.00    -0.433 OA 
HETATM    2  C   UNL     1     -11.287  10.834  68.825  1.00  0.00    -0.288 C  
HETATM    3  H   UNL     1     -10.628  11.751  70.437  1.00  0.00     0.000 HD 
ENDROOT
BRANCH   2   4
HETATM    4  C   UNL     1     -10.776   9.753  67.853  1.00  0.00    -0.312 C  
BRANCH   4   5
HETATM    5  C   UNL     1      -9.290   9.404  67.990  1.00  0.00    -0.140 C  
BRANCH   5   6
HETATM    6  C   UNL     1      -8.963   7.928  68.318  1.00  0.00    -0.132 C  
HETATM    7  H   UNL     1      -9.967   4.828  70.675  1.00  0.00     0.000 HD 
HETATM    8  C   UNL     1      -9.870   7.172  69.379  1.00  0.00    -0.161 C  
HETATM    9  C   UNL     1      -7.560   7.865  68.935  1.00  0.00    -0.100 C  
HETATM   10  C   UNL     1      -7.501   6.497  69.549  1.00  0.00    -0.093 C  
HETATM   11  O   UNL     1      -6.534   8.002  67.971  1.00  0.00    -0.053 OA 
HETATM   12  O   UNL     1      -9.118   4.936  70.262  1.00  0.00    -0.110 OA 
HETATM   13  H   UNL     1      -5.665   7.963  68.353  1.00  0.00     0.000 HD 
HETATM   14  C   UNL     1      -8.853   6.324  70.207  1.00  0.00    -0.153 C  
BRANCH   8  15
HETATM   15  C   UNL     1     -11.070   6.367  68.785  1.00  0.00    -0.404 C  
BRANCH  15  16
HETATM   16  C   UNL     1     -11.027   6.137  67.285  1.00  0.00    -0.418 C  
HETATM   17  C   UNL     1     -10.448   5.172  66.544  1.00  0.00    -0.346 C  
BRANCH  17  18
HETATM   18  C   UNL     1      -9.628   3.997  66.997  1.00  0.00    -0.231 C  
BRANCH  18  19
HETATM   19  C   UNL     1      -8.856   3.344  65.840  1.00  0.00    -0.135 C  
BRANCH  19  20
HETATM   20  C   UNL     1      -7.356   3.611  65.856  1.00  0.00    -0.076 C  
BRANCH  20  21
HETATM   21  C   UNL     1      -7.042   4.951  65.267  1.00  0.00    -0.063 C  
HETATM   22  O   UNL     1      -6.870   5.994  65.885  1.00  0.00    -0.054 OA 
BRANCH  21  23
HETATM   23  O   UNL     1      -7.122   4.845  63.912  1.00  0.00    -0.047 OA 
BRANCH  23  24
HETATM   24  C   UNL     1      -7.833   5.943  63.380  1.00  0.00    -0.100 C  
BRANCH  24  25
HETATM   25  C   UNL     1      -6.995   6.788  62.445  1.00  0.00    -0.048 C  
BRANCH  25  26
HETATM   26  C   UNL     1      -6.993   8.267  62.822  1.00  0.00    -0.090 C  
BRANCH  26  27
HETATM   27  C   UNL     1      -8.063   8.679  63.844  1.00  0.00    -0.163 C  
BRANCH  27  28
HETATM   28  O   UNL     1      -9.081   9.395  63.180  1.00  0.00    -0.212 OA 
HETATM   29  N   UNL     1      -9.448  10.575  63.870  1.00  0.00    -0.267 N  
HETATM   30  O   UNL     1     -10.382  11.170  63.326  1.00  0.00    -0.356 OA 
HETATM   31  O   UNL     1      -8.826  10.852  64.888  1.00  0.00    -0.183 OA 
ENDBRANCH  27  28
ENDBRANCH  26  27
ENDBRANCH  25  26
ENDBRANCH  24  25
ENDBRANCH  23  24
ENDBRANCH  21  23
ENDBRANCH  20  21
ENDBRANCH  19  20
ENDBRANCH  18  19
ENDBRANCH  17  18
ENDBRANCH  15  16
ENDBRANCH   8  15
ENDBRANCH   5   6
ENDBRANCH   4   5
ENDBRANCH   2   4
BRANCH   2  32
HETATM   32  C   UNL     1     -11.526  12.157  68.112  1.00  0.00    -0.375 C  
BRANCH  32  33
HETATM   33  C   UNL     1     -11.553  11.985  66.598  1.00  0.00    -0.389 C  
BRANCH  33  34
HETATM   34  C   UNL     1     -11.486  13.328  65.947  1.00  0.00    -0.359 A  
HETATM   35  C   UNL     1     -12.226  14.834  64.206  1.00  0.00    -0.402 A  
HETATM   36  C   UNL     1     -10.420  15.470  65.686  1.00  0.00    -0.393 A  
HETATM   37  C   UNL     1     -12.337  13.616  64.869  1.00  0.00    -0.442 A  
HETATM   38  C   UNL     1     -10.527  14.255  66.352  1.00  0.00    -0.282 A  
HETATM   39  C   UNL     1     -11.268  15.760  64.615  1.00  0.00    -0.373 A  
ENDBRANCH  33  34
ENDBRANCH  32  33
ENDBRANCH   2  32
TORSDOF 18
ENDMDL
MODEL      329
REMARK 921   NORMALIZED FREE ENERGY PREDICTED BY IDOCK:   -3.25 KCAL/MOL
REMARK 922        TOTAL FREE ENERGY PREDICTED BY IDOCK:  -11.46 KCAL/MOL
REMARK 923 INTER-LIGAND FREE ENERGY PREDICTED BY IDOCK:   -8.69 KCAL/MOL
REMARK 924 INTRA-LIGAND FREE ENERGY PREDICTED BY IDOCK:   -2.78 KCAL/MOL
REMARK 927      BINDING AFFINITY PREDICTED BY RF-SCORE:    0.00 PKD
ROOT
HETATM    1  O   UNL     1     -10.676  19.013  65.419  1.00  0.00    -0.520 OA 
HETATM    2  C   UNL     1     -10.549  18.179  66.569  1.00  0.00    -0.272 C  
HETATM    3  H   UNL     1     -11.361  18.683  64.849  1.00  0.00     0.000 HD 
ENDROOT
BRANCH   2   4
HETATM    4  C   UNL     1      -9.439  18.714  67.494  1.00  0.00    -0.311 C  
BRANCH   4   5
HETATM    5  C   UNL     1      -8.764  17.659  68.378  1.00  0.00    -0.284 C  
BRANCH   5   6
HETATM    6  C   UNL     1      -7.563  16.912  67.752  1.00  0.00    -0.180 C  
HETATM    7  H   UNL     1      -5.487  13.468  67.829  1.00  0.00     0.000 HD 
HETATM    8  C   UNL     1      -7.306  15.405  68.181  1.00  0.00    -0.122 C  
HETATM    9  C   UNL     1      -6.272  17.629  68.167  1.00  0.00    -0.167 C  
HETATM   10  C   UNL     1      -5.193  16.638  67.843  1.00  0.00    -0.128 C  
HETATM   11  O   UNL     1      -6.057  18.826  67.443  1.00  0.00    -0.170 OA 
HETATM   12  O   UNL     1      -5.136  14.301  67.536  1.00  0.00    -0.324 OA 
HETATM   13  H   UNL     1      -5.258  19.270  67.700  1.00  0.00     0.000 HD 
HETATM   14  C   UNL     1      -5.752  15.311  68.311  1.00  0.00    -0.120 C  
BRANCH   8  15
HETATM   15  C   UNL     1      -7.958  14.323  67.262  1.00  0.00    -0.191 C  
BRANCH  15  16
HETATM   16  C   UNL     1      -8.095  12.941  67.874  1.00  0.00    -0.161 C  
HETATM   17  C   UNL     1      -9.166  12.277  68.355  1.00  0.00    -0.145 C  
BRANCH  17  18
HETATM   18  C   UNL     1     -10.595  12.731  68.445  1.00  0.00    -0.262 C  
BRANCH  18  19
HETATM   19  C   UNL     1     -11.578  11.551  68.512  1.00  0.00    -0.377 C  
BRANCH  19  20
HETATM   20  C   UNL     1     -10.921  10.180  68.414  1.00  0.00    -0.293 C  
BRANCH  20  21
HETATM   21  C   UNL     1     -10.804   9.543  69.764  1.00  0.00    -0.243 C  
HETATM   22  O   UNL     1     -10.167   9.973  70.718  1.00  0.00    -0.172 OA 
BRANCH  21  23
HETATM   23  O   UNL     1     -11.410   8.325  69.710  1.00  0.00    -0.052 OA 
BRANCH  23  24
HETATM   24  C   UNL     1     -10.448   7.298  69.834  1.00  0.00    -0.225 C  
BRANCH  24  25
HETATM   25  C   UNL     1     -11.019   5.924  69.556  1.00  0.00    -0.438 C  
BRANCH  25  26
HETATM   26  C   UNL     1     -10.225   5.152  68.505  1.00  0.00    -0.182 C  
BRANCH  26  27
HETATM   27  C   UNL     1      -8.980   5.876  67.971  1.00  0.00    -0.118 C  
BRANCH  27  28
HETATM   28  O   UNL     1      -9.292   6.473  66.732  1.00  0.00    -0.146 OA 
HETATM   29  N   UNL     1      -8.736   7.768  66.602  1.00  0.00    -0.133 N  
HETATM   30  O   UNL     1      -9.061   8.319  65.547  1.00  0.00    -0.126 OA 
HETATM   31  O   UNL     1      -8.034   8.177  67.518  1.00  0.00    -0.118 OA 
ENDBRANCH  27  28
ENDBRANCH  26  27
ENDBRANCH  25  26
ENDBRANCH  24  25
ENDBRANCH  23  24
ENDBRANCH  21  23
ENDBRANCH  20  21
ENDBRANCH  19  20
ENDBRANCH  18  19
ENDBRANCH  17  18
ENDBRANCH  15  16
ENDBRANCH   8  15
ENDBRANCH   5   6
ENDBRANCH   4   5
ENDBRANCH   2   4
BRANCH   2  32
HETATM   32  C   UNL     1     -10.227  16.780  66.062  1.00  0.00    -0.361 C  
BRANCH  32  33
HETATM   33  C   UNL     1     -11.089  16.403  64.862  1.00  0.00    -0.249 C  
BRANCH  33  34
HETATM   34  C   UNL     1     -11.313  14.926  64.860  1.00  0.00    -0.415 A  
HETATM   35  C   UNL     1     -12.823  13.052  65.086  1.00  0.00    -0.335 A  
HETATM   36  C   UNL     1     -10.440  12.684  64.878  1.00  0.00    -0.331 A  
HETATM   37  C   UNL     1     -12.615  14.426  65.007  1.00  0.00    -0.309 A  
HETATM   38  C   UNL     1     -10.227  14.054  64.798  1.00  0.00    -0.332 A  
HETATM   39  C   UNL     1     -11.736  12.182  65.022  1.00  0.00    -0.371 A  
ENDBRANCH  33  34
ENDBRANCH  32  33
ENDBRANCH   2  32
TORSDOF 18
ENDMDL
MODEL      330
REMARK 921   NORMALIZED FREE ENERGY PREDICTED BY IDOCK:   -3.25 KCAL/MOL
REMARK 922        TOTAL FREE ENERGY PREDICTED BY IDOCK:  -11.46 KCAL/MOL
REMARK 923 INTER-LIGAND FREE ENERGY PREDICTED BY IDOCK:   -9.06 KCAL/MOL
REMARK 924 INTRA-LIGAND FREE ENERGY PREDICTED BY IDOCK:   -2.40 KCAL/MOL
REMARK 927      BINDING AFFINITY PREDICTED BY RF-SCORE:    0.00 PKD
ROOT
HETATM    1  O   UNL     1      -9.198   5.964  67.507  1.00  0.00    -0.111 OA 
HETATM    2  C   UNL     1     -10.060   6.255  68.606  1.00  0.00    -0.157 C  
HETATM    3  H   UNL     1      -9.623   5.360  66.909  1.00  0.00     0.000 HD 
ENDROOT
BRANCH   2   4
HETATM    4  C   UNL     1      -9.370   7.234  69.576  1.00  0.00    -0.152 C  
BRANCH   4   5
HETATM    5  C   UNL     1     -10.138   7.513  70.873  1.00  0.00    -0.192 C  
BRANCH   5   6
HETATM    6  C   UNL     1     -11.395   8.404  70.743  1.00  0.00    -0.290 C  
HETATM    7  H   UNL     1     -12.760  12.167  71.129  1.00  0.00     0.000 HD 
HETATM    8  C   UNL     1     -11.237   9.969  70.956  1.00  0.00    -0.387 C  
HETATM    9  C   UNL     1     -12.398   7.994  71.830  1.00  0.00    -0.323 C  
HETATM   10  C   UNL     1     -13.376   9.131  71.862  1.00  0.00    -0.490 C  
HETATM   11  O   UNL     1     -13.074   6.789  71.522  1.00  0.00    -0.310 OA 
HETATM   12  O   UNL     1     -13.303  11.390  71.190  1.00  0.00    -0.080 OA 
HETATM   13  H   UNL     1     -13.694   6.535  72.195  1.00  0.00     0.000 HD 
HETATM   14  C   UNL     1     -12.511  10.370  71.765  1.00  0.00    -0.302 C  
BRANCH   8  15
HETATM   15  C   UNL     1     -10.990  10.803  69.658  1.00  0.00    -0.320 C  
BRANCH  15  16
HETATM   16  C   UNL     1      -9.556  10.835  69.163  1.00  0.00    -0.169 C  
HETATM   17  C   UNL     1      -8.927  11.655  68.297  1.00  0.00    -0.185 C  
BRANCH  17  18
HETATM   18  C   UNL     1      -9.482  12.816  67.523  1.00  0.00    -0.187 C  
BRANCH  18  19
HETATM   19  C   UNL     1     -10.369  12.366  66.352  1.00  0.00    -0.255 C  
BRANCH  19  20
HETATM   20  C   UNL     1     -11.822  12.813  66.457  1.00  0.00    -0.471 C  
BRANCH  20  21
HETATM   21  C   UNL     1     -12.126  13.893  65.466  1.00  0.00    -0.407 C  
HETATM   22  O   UNL     1     -13.235  14.206  65.050  1.00  0.00    -0.691 OA 
BRANCH  21  23
HETATM   23  O   UNL     1     -10.945  14.377  64.993  1.00  0.00    -0.345 OA 
BRANCH  23  24
HETATM   24  C   UNL     1     -10.940  15.788  65.049  1.00  0.00    -0.417 C  
BRANCH  24  25
HETATM   25  C   UNL     1     -10.971  16.319  66.466  1.00  0.00    -0.007 C  
BRANCH  25  26
HETATM   26  C   UNL     1      -9.646  16.943  66.896  1.00  0.00    -0.262 C  
BRANCH  26  27
HETATM   27  C   UNL     1      -9.773  18.211  67.753  1.00  0.00    -0.293 C  
BRANCH  27  28
HETATM   28  O   UNL     1      -8.580  18.393  68.484  1.00  0.00    -0.317 OA 
HETATM   29  N   UNL     1      -7.962  19.636  68.207  1.00  0.00    -0.323 N  
HETATM   30  O   UNL     1      -6.886  19.770  68.795  1.00  0.00    -0.305 OA 
HETATM   31  O   UNL     1      -8.540  20.397  67.442  1.00  0.00    -0.342 OA 
ENDBRANCH  27  28
ENDBRANCH  26  27
ENDBRANCH  25  26
ENDBRANCH  24  25
ENDBRANCH  23  24
ENDBRANCH  21  23
ENDBRANCH  20  21
ENDBRANCH  19  20
ENDBRANCH  18  19
ENDBRANCH  17  18
ENDBRANCH  15  16
ENDBRANCH   8  15
ENDBRANCH   5   6
ENDBRANCH   4   5
ENDBRANCH   2   4
BRANCH   2  32
HETATM   32  C   UNL     1     -10.373   4.928  69.281  1.00  0.00    -0.120 C  
BRANCH  32  33
HETATM   33  C   UNL     1      -9.103   4.157  69.625  1.00  0.00    -0.184 C  
BRANCH  33  34
HETATM   34  C   UNL     1      -9.089   3.856  71.088  1.00  0.00    -0.184 A  
HETATM   35  C   UNL     1     -10.278   3.678  73.186  1.00  0.00    -0.227 A  
HETATM   36  C   UNL     1      -7.871   3.441  73.121  1.00  0.00    -0.069 A  
HETATM   37  C   UNL     1     -10.293   3.878  71.808  1.00  0.00    -0.027 A  
HETATM   38  C   UNL     1      -7.880   3.640  71.746  1.00  0.00    -0.062 A  
HETATM   39  C   UNL     1      -9.068   3.460  73.841  1.00  0.00    -0.094 A  
ENDBRANCH  33  34
ENDBRANCH  32  33
ENDBRANCH   2  32
TORSDOF 18
ENDMDL
MODEL      331
REMARK 921   NORMALIZED FREE ENERGY PREDICTED BY IDOCK:   -3.23 KCAL/MOL
REMARK 922        TOTAL FREE ENERGY PREDICTED BY IDOCK:  -11.42 KCAL/MOL
REMARK 923 INTER-LIGAND FREE ENERGY PREDICTED BY IDOCK:   -9.58 KCAL/MOL
REMARK 924 INTRA-LIGAND FREE ENERGY PREDICTED BY IDOCK:   -1.83 KCAL/MOL
REMARK 927      BINDING AFFINITY PREDICTED BY RF-SCORE:    0.00 PKD
ROOT
HETATM    1  O   UNL     1      -9.870  13.110  68.872  1.00  0.00    -0.415 OA 
HETATM    2  C   UNL     1     -11.145  13.016  69.504  1.00  0.00     0.013 C  
HETATM    3  H   UNL     1      -9.559  14.007  68.894  1.00  0.00     0.000 HD 
ENDROOT
BRANCH   2   4
HETATM    4  C   UNL     1     -11.650  11.560  69.468  1.00  0.00    -0.400 C  
BRANCH   4   5
HETATM    5  C   UNL     1     -10.557  10.490  69.554  1.00  0.00    -0.278 C  
BRANCH   5   6
HETATM    6  C   UNL     1     -10.490   9.485  68.381  1.00  0.00    -0.261 C  
HETATM    7  H   UNL     1      -8.268   6.569  66.728  1.00  0.00     0.000 HD 
HETATM    8  C   UNL     1      -9.292   8.444  68.346  1.00  0.00    -0.137 C  
HETATM    9  C   UNL     1     -10.319  10.272  67.075  1.00  0.00    -0.243 C  
HETATM   10  C   UNL     1      -9.891   9.230  66.083  1.00  0.00    -0.363 C  
HETATM   11  O   UNL     1     -11.523  10.879  66.643  1.00  0.00    -0.233 OA 
HETATM   12  O   UNL     1      -8.898   7.099  66.253  1.00  0.00    -0.140 OA 
HETATM   13  H   UNL     1     -11.417  11.366  65.834  1.00  0.00     0.000 HD 
HETATM   14  C   UNL     1      -8.887   8.386  66.839  1.00  0.00    -0.142 C  
BRANCH   8  15
HETATM   15  C   UNL     1      -9.587   7.058  69.003  1.00  0.00    -0.141 C  
BRANCH  15  16
HETATM   16  C   UNL     1      -8.553   6.574  70.005  1.00  0.00    -0.140 C  
HETATM   17  C   UNL     1      -8.116   7.103  71.165  1.00  0.00    -0.104 C  
BRANCH  17  18
HETATM   18  C   UNL     1      -8.525   8.384  71.833  1.00  0.00    -0.237 C  
BRANCH  18  19
HETATM   19  C   UNL     1      -8.565   8.257  73.364  1.00  0.00    -0.277 C  
BRANCH  19  20
HETATM   20  C   UNL     1      -8.924   6.866  73.869  1.00  0.00    -0.201 C  
BRANCH  20  21
HETATM   21  C   UNL     1     -10.386   6.591  73.698  1.00  0.00    -0.304 C  
HETATM   22  O   UNL     1     -11.229   7.378  73.283  1.00  0.00    -0.324 OA 
BRANCH  21  23
HETATM   23  O   UNL     1     -10.649   5.362  74.218  1.00  0.00    -0.278 OA 
BRANCH  23  24
HETATM   24  C   UNL     1     -11.244   4.536  73.239  1.00  0.00    -0.298 C  
BRANCH  24  25
HETATM   25  C   UNL     1     -10.278   4.133  72.146  1.00  0.00    -0.220 C  
BRANCH  25  26
HETATM   26  C   UNL     1      -9.507   2.856  72.475  1.00  0.00    -0.168 C  
BRANCH  26  27
HETATM   27  C   UNL     1      -9.525   1.785  71.375  1.00  0.00    -0.125 C  
BRANCH  27  28
HETATM   28  O   UNL     1      -8.210   1.588  70.903  1.00  0.00    -0.045 OA 
HETATM   29  N   UNL     1      -8.030   2.076  69.587  1.00  0.00    -0.042 N  
HETATM   30  O   UNL     1      -6.900   1.847  69.149  1.00  0.00    -0.033 OA 
HETATM   31  O   UNL     1      -8.980   2.637  69.057  1.00  0.00    -0.089 OA 
ENDBRANCH  27  28
ENDBRANCH  26  27
ENDBRANCH  25  26
ENDBRANCH  24  25
ENDBRANCH  23  24
ENDBRANCH  21  23
ENDBRANCH  20  21
ENDBRANCH  19  20
ENDBRANCH  18  19
ENDBRANCH  17  18
ENDBRANCH  15  16
ENDBRANCH   8  15
ENDBRANCH   5   6
ENDBRANCH   4   5
ENDBRANCH   2   4
BRANCH   2  32
HETATM   32  C   UNL     1     -12.078  13.949  68.746  1.00  0.00    -0.344 C  
BRANCH  32  33
HETATM   33  C   UNL     1     -11.912  15.397  69.192  1.00  0.00    -0.324 C  
BRANCH  33  34
HETATM   34  C   UNL     1     -12.463  15.557  70.571  1.00  0.00    -0.472 A  
HETATM   35  C   UNL     1     -12.116  16.118  72.897  1.00  0.00    -0.643 A  
HETATM   36  C   UNL     1     -14.239  15.221  72.159  1.00  0.00    -0.667 A  
HETATM   37  C   UNL     1     -11.635  16.043  71.593  1.00  0.00    -0.538 A  
HETATM   38  C   UNL     1     -13.764  15.144  70.856  1.00  0.00    -0.352 A  
HETATM   39  C   UNL     1     -13.418  15.707  73.179  1.00  0.00    -0.620 A  
ENDBRANCH  33  34
ENDBRANCH  32  33
ENDBRANCH   2  32
TORSDOF 18
ENDMDL
MODEL      332
REMARK 921   NORMALIZED FREE ENERGY PREDICTED BY IDOCK:   -3.23 KCAL/MOL
REMARK 922        TOTAL FREE ENERGY PREDICTED BY IDOCK:  -11.40 KCAL/MOL
REMARK 923 INTER-LIGAND FREE ENERGY PREDICTED BY IDOCK:   -7.74 KCAL/MOL
REMARK 924 INTRA-LIGAND FREE ENERGY PREDICTED BY IDOCK:   -3.67 KCAL/MOL
REMARK 927      BINDING AFFINITY PREDICTED BY RF-SCORE:    0.00 PKD
ROOT
HETATM    1  O   UNL     1      -8.727  12.951  68.671  1.00  0.00    -0.351 OA 
HETATM    2  C   UNL     1      -7.392  12.524  68.409  1.00  0.00    -0.114 C  
HETATM    3  H   UNL     1      -8.911  13.758  68.205  1.00  0.00     0.000 HD 
ENDROOT
BRANCH   2   4
HETATM    4  C   UNL     1      -7.095  11.214  69.165  1.00  0.00    -0.116 C  
BRANCH   4   5
HETATM    5  C   UNL     1      -7.009   9.961  68.287  1.00  0.00    -0.072 C  
BRANCH   5   6
HETATM    6  C   UNL     1      -8.356   9.328  67.868  1.00  0.00    -0.116 C  
HETATM    7  H   UNL     1     -10.194   5.840  67.074  1.00  0.00     0.000 HD 
HETATM    8  C   UNL     1      -8.464   7.744  67.823  1.00  0.00    -0.121 C  
HETATM    9  C   UNL     1      -8.665   9.749  66.425  1.00  0.00    -0.131 C  
HETATM   10  C   UNL     1      -9.751   8.804  66.002  1.00  0.00    -0.276 C  
HETATM   11  O   UNL     1      -9.129  11.083  66.335  1.00  0.00    -0.167 OA 
HETATM   12  O   UNL     1     -10.473   6.683  66.736  1.00  0.00    -0.240 OA 
HETATM   13  H   UNL     1      -9.320  11.344  65.442  1.00  0.00     0.000 HD 
HETATM   14  C   UNL     1      -9.308   7.460  66.540  1.00  0.00    -0.173 C  
BRANCH   8  15
HETATM   15  C   UNL     1      -8.999   7.070  69.127  1.00  0.00    -0.134 C  
BRANCH  15  16
HETATM   16  C   UNL     1      -8.370   7.554  70.421  1.00  0.00    -0.128 C  
HETATM   17  C   UNL     1      -8.850   8.329  71.414  1.00  0.00    -0.204 C  
BRANCH  17  18
HETATM   18  C   UNL     1     -10.197   8.982  71.535  1.00  0.00    -0.414 C  
BRANCH  18  19
HETATM   19  C   UNL     1     -10.360  10.166  70.569  1.00  0.00    -0.108 C  
BRANCH  19  20
HETATM   20  C   UNL     1     -11.799  10.631  70.382  1.00  0.00    -0.441 C  
BRANCH  20  21
HETATM   21  C   UNL     1     -11.895  11.663  69.302  1.00  0.00    -0.331 C  
HETATM   22  O   UNL     1     -11.216  11.714  68.284  1.00  0.00    -0.220 OA 
BRANCH  21  23
HETATM   23  O   UNL     1     -12.769  12.622  69.712  1.00  0.00     0.194 OA 
BRANCH  23  24
HETATM   24  C   UNL     1     -12.141  13.492  70.631  1.00  0.00    -0.309 C  
BRANCH  24  25
HETATM   25  C   UNL     1     -11.179  14.452  69.967  1.00  0.00    -0.193 C  
BRANCH  25  26
HETATM   26  C   UNL     1     -11.877  15.660  69.346  1.00  0.00    -0.391 C  
BRANCH  26  27
HETATM   27  C   UNL     1     -10.946  16.660  68.647  1.00  0.00    -0.328 C  
BRANCH  27  28
HETATM   28  O   UNL     1     -10.265  16.002  67.602  1.00  0.00    -0.251 OA 
HETATM   29  N   UNL     1     -10.122  16.816  66.454  1.00  0.00    -0.304 N  
HETATM   30  O   UNL     1      -9.585  16.221  65.516  1.00  0.00    -0.474 OA 
HETATM   31  O   UNL     1     -10.537  17.966  66.520  1.00  0.00    -0.324 OA 
ENDBRANCH  27  28
ENDBRANCH  26  27
ENDBRANCH  25  26
ENDBRANCH  24  25
ENDBRANCH  23  24
ENDBRANCH  21  23
ENDBRANCH  20  21
ENDBRANCH  19  20
ENDBRANCH  18  19
ENDBRANCH  17  18
ENDBRANCH  15  16
ENDBRANCH   8  15
ENDBRANCH   5   6
ENDBRANCH   4   5
ENDBRANCH   2   4
BRANCH   2  32
HETATM   32  C   UNL     1      -6.475  13.651  68.863  1.00  0.00    -0.101 C  
BRANCH  32  33
HETATM   33  C   UNL     1      -7.261  14.805  69.475  1.00  0.00    -0.160 C  
BRANCH  33  34
HETATM   34  C   UNL     1      -7.061  16.032  68.646  1.00  0.00    -0.136 A  
HETATM   35  C   UNL     1      -6.314  17.050  66.585  1.00  0.00    -0.247 A  
HETATM   36  C   UNL     1      -7.004  18.430  68.450  1.00  0.00    -0.263 A  
HETATM   37  C   UNL     1      -6.579  15.908  67.335  1.00  0.00    -0.222 A  
HETATM   38  C   UNL     1      -7.270  17.293  69.203  1.00  0.00    -0.182 A  
HETATM   39  C   UNL     1      -6.526  18.310  67.142  1.00  0.00    -0.191 A  
ENDBRANCH  33  34
ENDBRANCH  32  33
ENDBRANCH   2  32
TORSDOF 18
ENDMDL
MODEL      333
REMARK 921   NORMALIZED FREE ENERGY PREDICTED BY IDOCK:   -3.22 KCAL/MOL
REMARK 922        TOTAL FREE ENERGY PREDICTED BY IDOCK:  -11.39 KCAL/MOL
REMARK 923 INTER-LIGAND FREE ENERGY PREDICTED BY IDOCK:   -8.60 KCAL/MOL
REMARK 924 INTRA-LIGAND FREE ENERGY PREDICTED BY IDOCK:   -2.79 KCAL/MOL
REMARK 927      BINDING AFFINITY PREDICTED BY RF-SCORE:    0.00 PKD
ROOT
HETATM    1  O   UNL     1      -9.312  15.544  69.008  1.00  0.00    -0.201 OA 
HETATM    2  C   UNL     1     -10.089  14.688  68.172  1.00  0.00    -0.224 C  
HETATM    3  H   UNL     1      -9.874  15.989  69.632  1.00  0.00     0.000 HD 
ENDROOT
BRANCH   2   4
HETATM    4  C   UNL     1      -9.178  13.965  67.160  1.00  0.00    -0.242 C  
BRANCH   4   5
HETATM    5  C   UNL     1      -9.682  12.595  66.695  1.00  0.00    -0.249 C  
BRANCH   5   6
HETATM    6  C   UNL     1      -8.927  11.365  67.252  1.00  0.00    -0.159 C  
HETATM    7  H   UNL     1      -7.798   9.510  70.637  1.00  0.00     0.000 HD 
HETATM    8  C   UNL     1      -8.923  11.130  68.822  1.00  0.00    -0.136 C  
HETATM    9  C   UNL     1      -7.439  11.509  66.906  1.00  0.00    -0.145 C  
HETATM   10  C   UNL     1      -6.767  10.502  67.793  1.00  0.00    -0.069 C  
HETATM   11  O   UNL     1      -7.164  11.213  65.550  1.00  0.00    -0.362 OA 
HETATM   12  O   UNL     1      -7.359   9.414  69.799  1.00  0.00    -0.067 OA 
HETATM   13  H   UNL     1      -6.243  11.301  65.336  1.00  0.00     0.000 HD 
HETATM   14  C   UNL     1      -7.467  10.653  69.127  1.00  0.00    -0.123 C  
BRANCH   8  15
HETATM   15  C   UNL     1     -10.050  10.195  69.365  1.00  0.00    -0.250 C  
BRANCH  15  16
HETATM   16  C   UNL     1     -10.843   9.444  68.311  1.00  0.00    -0.163 C  
HETATM   17  C   UNL     1     -10.602   8.285  67.666  1.00  0.00    -0.264 C  
BRANCH  17  18
HETATM   18  C   UNL     1      -9.424   7.361  67.793  1.00  0.00    -0.154 C  
BRANCH  18  19
HETATM   19  C   UNL     1      -9.303   6.762  69.203  1.00  0.00    -0.135 C  
BRANCH  19  20
HETATM   20  C   UNL     1     -10.307   5.656  69.504  1.00  0.00    -0.345 C  
BRANCH  20  21
HETATM   21  C   UNL     1      -9.612   4.395  69.913  1.00  0.00    -0.205 C  
HETATM   22  O   UNL     1      -9.123   3.559  69.163  1.00  0.00    -0.112 OA 
BRANCH  21  23
HETATM   23  O   UNL     1      -9.742   4.259  71.261  1.00  0.00    -0.164 OA 
BRANCH  23  24
HETATM   24  C   UNL     1      -8.529   4.593  71.903  1.00  0.00    -0.117 C  
BRANCH  24  25
HETATM   25  C   UNL     1      -8.739   5.322  73.213  1.00  0.00    -0.115 C  
BRANCH  25  26
HETATM   26  C   UNL     1      -9.101   6.793  73.023  1.00  0.00    -0.143 C  
BRANCH  26  27
HETATM   27  C   UNL     1     -10.458   7.209  73.608  1.00  0.00    -0.370 C  
BRANCH  27  28
HETATM   28  O   UNL     1     -11.051   8.165  72.757  1.00  0.00    -0.382 OA 
HETATM   29  N   UNL     1     -12.116   7.625  71.998  1.00  0.00    -0.295 N  
HETATM   30  O   UNL     1     -12.594   8.442  71.206  1.00  0.00    -0.292 OA 
HETATM   31  O   UNL     1     -12.420   6.457  72.200  1.00  0.00    -0.291 OA 
ENDBRANCH  27  28
ENDBRANCH  26  27
ENDBRANCH  25  26
ENDBRANCH  24  25
ENDBRANCH  23  24
ENDBRANCH  21  23
ENDBRANCH  20  21
ENDBRANCH  19  20
ENDBRANCH  18  19
ENDBRANCH  17  18
ENDBRANCH  15  16
ENDBRANCH   8  15
ENDBRANCH   5   6
ENDBRANCH   4   5
ENDBRANCH   2   4
BRANCH   2  32
HETATM   32  C   UNL     1     -11.111  15.572  67.471  1.00  0.00    -0.305 C  
BRANCH  32  33
HETATM   33  C   UNL     1     -10.529  16.228  66.224  1.00  0.00    -0.314 C  
BRANCH  33  34
HETATM   34  C   UNL     1     -10.015  17.587  66.575  1.00  0.00    -0.323 A  
HETATM   35  C   UNL     1     -10.443  19.831  67.365  1.00  0.00    -0.577 A  
HETATM   36  C   UNL     1      -8.248  19.220  66.546  1.00  0.00    -0.319 A  
HETATM   37  C   UNL     1     -10.894  18.539  67.110  1.00  0.00    -0.304 A  
HETATM   38  C   UNL     1      -8.694  17.929  66.291  1.00  0.00    -0.197 A  
HETATM   39  C   UNL     1      -9.121  20.171  67.082  1.00  0.00    -0.489 A  
ENDBRANCH  33  34
ENDBRANCH  32  33
ENDBRANCH   2  32
TORSDOF 18
ENDMDL
MODEL      334
REMARK 921   NORMALIZED FREE ENERGY PREDICTED BY IDOCK:   -3.22 KCAL/MOL
REMARK 922        TOTAL FREE ENERGY PREDICTED BY IDOCK:  -11.38 KCAL/MOL
REMARK 923 INTER-LIGAND FREE ENERGY PREDICTED BY IDOCK:   -8.79 KCAL/MOL
REMARK 924 INTRA-LIGAND FREE ENERGY PREDICTED BY IDOCK:   -2.60 KCAL/MOL
REMARK 927      BINDING AFFINITY PREDICTED BY RF-SCORE:    0.00 PKD
ROOT
HETATM    1  O   UNL     1     -10.631   6.599  68.149  1.00  0.00    -0.195 OA 
HETATM    2  C   UNL     1      -9.851   7.769  67.913  1.00  0.00    -0.160 C  
HETATM    3  H   UNL     1     -11.034   6.305  67.340  1.00  0.00     0.000 HD 
ENDROOT
BRANCH   2   4
HETATM    4  C   UNL     1      -9.197   8.245  69.225  1.00  0.00    -0.151 C  
BRANCH   4   5
HETATM    5  C   UNL     1      -7.667   8.164  69.255  1.00  0.00    -0.104 C  
BRANCH   5   6
HETATM    6  C   UNL     1      -7.030   7.782  70.612  1.00  0.00    -0.046 C  
HETATM    7  H   UNL     1      -7.852   6.534  74.346  1.00  0.00     0.000 HD 
HETATM    8  C   UNL     1      -7.976   7.226  71.759  1.00  0.00    -0.095 C  
HETATM    9  C   UNL     1      -6.413   9.041  71.234  1.00  0.00    -0.085 C  
HETATM   10  C   UNL     1      -6.176   8.654  72.664  1.00  0.00    -0.076 C  
HETATM   11  O   UNL     1      -5.188   9.405  70.626  1.00  0.00    -0.029 OA 
HETATM   12  O   UNL     1      -7.067   7.009  74.098  1.00  0.00    -0.088 OA 
HETATM   13  H   UNL     1      -4.806  10.185  71.011  1.00  0.00     0.000 HD 
HETATM   14  C   UNL     1      -7.426   7.897  73.058  1.00  0.00    -0.117 C  
BRANCH   8  15
HETATM   15  C   UNL     1      -8.109   5.671  71.826  1.00  0.00    -0.118 C  
BRANCH  15  16
HETATM   16  C   UNL     1      -9.332   5.088  71.142  1.00  0.00    -0.199 C  
HETATM   17  C   UNL     1     -10.650   5.284  71.345  1.00  0.00    -0.247 C  
BRANCH  17  18
HETATM   18  C   UNL     1     -11.329   6.159  72.359  1.00  0.00    -0.340 C  
BRANCH  18  19
HETATM   19  C   UNL     1     -12.620   6.790  71.814  1.00  0.00    -0.370 C  
BRANCH  19  20
HETATM   20  C   UNL     1     -12.430   8.162  71.179  1.00  0.00    -0.195 C  
BRANCH  20  21
HETATM   21  C   UNL     1     -13.455   9.132  71.676  1.00  0.00    -0.391 C  
HETATM   22  O   UNL     1     -14.222   8.961  72.616  1.00  0.00    -0.563 OA 
BRANCH  21  23
HETATM   23  O   UNL     1     -13.493  10.185  70.814  1.00  0.00    -0.311 OA 
BRANCH  23  24
HETATM   24  C   UNL     1     -12.578  11.180  71.220  1.00  0.00    -0.398 C  
BRANCH  24  25
HETATM   25  C   UNL     1     -13.230  12.281  72.028  1.00  0.00    -0.508 C  
BRANCH  25  26
HETATM   26  C   UNL     1     -12.552  13.637  71.842  1.00  0.00    -0.252 C  
BRANCH  26  27
HETATM   27  C   UNL     1     -12.204  13.994  70.389  1.00  0.00    -0.363 C  
BRANCH  27  28
HETATM   28  O   UNL     1     -11.458  15.191  70.377  1.00  0.00    -0.251 OA 
HETATM   29  N   UNL     1     -10.417  15.169  69.418  1.00  0.00    -0.246 N  
HETATM   30  O   UNL     1      -9.724  16.189  69.450  1.00  0.00    -0.245 OA 
HETATM   31  O   UNL     1     -10.327  14.178  68.705  1.00  0.00    -0.235 OA 
ENDBRANCH  27  28
ENDBRANCH  26  27
ENDBRANCH  25  26
ENDBRANCH  24  25
ENDBRANCH  23  24
ENDBRANCH  21  23
ENDBRANCH  20  21
ENDBRANCH  19  20
ENDBRANCH  18  19
ENDBRANCH  17  18
ENDBRANCH  15  16
ENDBRANCH   8  15
ENDBRANCH   5   6
ENDBRANCH   4   5
ENDBRANCH   2   4
BRANCH   2  32
HETATM   32  C   UNL     1     -10.797   8.819  67.349  1.00  0.00    -0.087 C  
BRANCH  32  33
HETATM   33  C   UNL     1     -10.072  10.123  67.035  1.00  0.00    -0.277 C  
BRANCH  33  34
HETATM   34  C   UNL     1      -9.977  10.291  65.554  1.00  0.00    -0.364 A  
HETATM   35  C   UNL     1      -8.993   9.637  63.445  1.00  0.00    -0.246 A  
HETATM   36  C   UNL     1     -10.482  11.541  63.560  1.00  0.00    -0.486 A  
HETATM   37  C   UNL     1      -9.149   9.436  64.814  1.00  0.00    -0.248 A  
HETATM   38  C   UNL     1     -10.641  11.345  64.927  1.00  0.00    -0.368 A  
HETATM   39  C   UNL     1      -9.659  10.689  62.820  1.00  0.00    -0.333 A  
ENDBRANCH  33  34
ENDBRANCH  32  33
ENDBRANCH   2  32
TORSDOF 18
ENDMDL
MODEL      335
REMARK 921   NORMALIZED FREE ENERGY PREDICTED BY IDOCK:   -3.21 KCAL/MOL
REMARK 922        TOTAL FREE ENERGY PREDICTED BY IDOCK:  -11.38 KCAL/MOL
REMARK 923 INTER-LIGAND FREE ENERGY PREDICTED BY IDOCK:   -8.64 KCAL/MOL
REMARK 924 INTRA-LIGAND FREE ENERGY PREDICTED BY IDOCK:   -2.74 KCAL/MOL
REMARK 927      BINDING AFFINITY PREDICTED BY RF-SCORE:    0.00 PKD
ROOT
HETATM    1  O   UNL     1     -10.822   7.004  69.063  1.00  0.00    -0.286 OA 
HETATM    2  C   UNL     1     -10.212   6.983  67.774  1.00  0.00    -0.180 C  
HETATM    3  H   UNL     1     -10.623   6.203  69.533  1.00  0.00     0.000 HD 
ENDROOT
BRANCH   2   4
HETATM    4  C   UNL     1     -10.535   8.283  67.011  1.00  0.00    -0.384 C  
BRANCH   4   5
HETATM    5  C   UNL     1     -10.673   9.533  67.887  1.00  0.00    -0.285 C  
BRANCH   5   6
HETATM    6  C   UNL     1      -9.408  10.412  68.025  1.00  0.00    -0.145 C  
HETATM    7  H   UNL     1      -5.839  11.246  66.369  1.00  0.00     0.000 HD 
HETATM    8  C   UNL     1      -8.303  10.329  66.888  1.00  0.00    -0.123 C  
HETATM    9  C   UNL     1      -8.653   9.985  69.290  1.00  0.00    -0.168 C  
HETATM   10  C   UNL     1      -7.298  10.609  69.126  1.00  0.00    -0.111 C  
HETATM   11  O   UNL     1      -9.260  10.465  70.475  1.00  0.00    -0.130 OA 
HETATM   12  O   UNL     1      -6.055  11.394  67.282  1.00  0.00    -0.064 OA 
HETATM   13  H   UNL     1      -8.792  10.200  71.259  1.00  0.00     0.000 HD 
HETATM   14  C   UNL     1      -6.952  10.373  67.670  1.00  0.00    -0.083 C  
BRANCH   8  15
HETATM   15  C   UNL     1      -8.436  11.384  65.743  1.00  0.00     0.051 C  
BRANCH  15  16
HETATM   16  C   UNL     1      -9.286  10.962  64.558  1.00  0.00    -0.226 C  
HETATM   17  C   UNL     1     -10.600  11.114  64.299  1.00  0.00    -0.425 C  
BRANCH  17  18
HETATM   18  C   UNL     1     -11.660  11.760  65.144  1.00  0.00    -0.211 C  
BRANCH  18  19
HETATM   19  C   UNL     1     -11.322  13.219  65.489  1.00  0.00    -0.315 C  
BRANCH  19  20
HETATM   20  C   UNL     1     -11.132  14.123  64.277  1.00  0.00    -0.146 C  
BRANCH  20  21
HETATM   21  C   UNL     1     -11.375  15.557  64.632  1.00  0.00    -0.357 C  
HETATM   22  O   UNL     1     -11.608  16.470  63.849  1.00  0.00    -1.175 OA 
BRANCH  21  23
HETATM   23  O   UNL     1     -11.149  15.706  65.966  1.00  0.00    -0.261 OA 
BRANCH  23  24
HETATM   24  C   UNL     1     -10.053  16.571  66.181  1.00  0.00    -0.348 C  
BRANCH  24  25
HETATM   25  C   UNL     1      -9.495  16.474  67.584  1.00  0.00    -0.225 C  
BRANCH  25  26
HETATM   26  C   UNL     1     -10.580  16.497  68.658  1.00  0.00    -0.316 C  
BRANCH  26  27
HETATM   27  C   UNL     1     -10.683  15.220  69.504  1.00  0.00    -0.265 C  
BRANCH  27  28
HETATM   28  O   UNL     1     -11.652  15.413  70.512  1.00  0.00    -0.270 OA 
HETATM   29  N   UNL     1     -12.457  14.267  70.713  1.00  0.00    -0.335 N  
HETATM   30  O   UNL     1     -13.346  14.455  71.547  1.00  0.00    -0.325 OA 
HETATM   31  O   UNL     1     -12.193  13.268  70.057  1.00  0.00    -0.317 OA 
ENDBRANCH  27  28
ENDBRANCH  26  27
ENDBRANCH  25  26
ENDBRANCH  24  25
ENDBRANCH  23  24
ENDBRANCH  21  23
ENDBRANCH  20  21
ENDBRANCH  19  20
ENDBRANCH  18  19
ENDBRANCH  17  18
ENDBRANCH  15  16
ENDBRANCH   8  15
ENDBRANCH   5   6
ENDBRANCH   4   5
ENDBRANCH   2   4
BRANCH   2  32
HETATM   32  C   UNL     1     -10.760   5.761  67.051  1.00  0.00    -0.369 C  
BRANCH  32  33
HETATM   33  C   UNL     1     -10.020   4.490  67.451  1.00  0.00    -0.171 C  
BRANCH  33  34
HETATM   34  C   UNL     1      -9.252   3.974  66.279  1.00  0.00    -0.160 A  
HETATM   35  C   UNL     1      -7.498   2.562  65.400  1.00  0.00    -0.071 A  
HETATM   36  C   UNL     1      -8.671   4.100  63.947  1.00  0.00    -0.119 A  
HETATM   37  C   UNL     1      -8.273   2.989  66.474  1.00  0.00    -0.087 A  
HETATM   38  C   UNL     1      -9.448   4.530  65.015  1.00  0.00    -0.156 A  
HETATM   39  C   UNL     1      -7.697   3.117  64.138  1.00  0.00    -0.077 A  
ENDBRANCH  33  34
ENDBRANCH  32  33
ENDBRANCH   2  32
TORSDOF 18
ENDMDL
MODEL      336
REMARK 921   NORMALIZED FREE ENERGY PREDICTED BY IDOCK:   -3.21 KCAL/MOL
REMARK 922        TOTAL FREE ENERGY PREDICTED BY IDOCK:  -11.38 KCAL/MOL
REMARK 923 INTER-LIGAND FREE ENERGY PREDICTED BY IDOCK:   -9.06 KCAL/MOL
REMARK 924 INTRA-LIGAND FREE ENERGY PREDICTED BY IDOCK:   -2.31 KCAL/MOL
REMARK 927      BINDING AFFINITY PREDICTED BY RF-SCORE:    0.00 PKD
ROOT
HETATM    1  O   UNL     1      -6.655   8.449  68.941  1.00  0.00    -0.051 OA 
HETATM    2  C   UNL     1      -7.695   9.192  68.307  1.00  0.00    -0.091 C  
HETATM    3  H   UNL     1      -6.525   7.621  68.493  1.00  0.00     0.000 HD 
ENDROOT
BRANCH   2   4
HETATM    4  C   UNL     1      -7.906  10.536  69.033  1.00  0.00    -0.129 C  
BRANCH   4   5
HETATM    5  C   UNL     1      -9.369  10.941  69.239  1.00  0.00    -0.027 C  
BRANCH   5   6
HETATM    6  C   UNL     1      -9.959  11.919  68.196  1.00  0.00    -0.197 C  
HETATM    7  H   UNL     1     -10.017  15.766  67.023  1.00  0.00     0.000 HD 
HETATM    8  C   UNL     1      -9.466  13.428  68.213  1.00  0.00    -0.209 C  
HETATM    9  C   UNL     1     -11.471  12.032  68.435  1.00  0.00    -0.301 C  
HETATM   10  C   UNL     1     -11.865  13.252  67.654  1.00  0.00    -0.400 C  
HETATM   11  O   UNL     1     -12.183  10.907  67.957  1.00  0.00    -0.695 OA 
HETATM   12  O   UNL     1     -10.707  15.138  66.842  1.00  0.00    -0.296 OA 
HETATM   13  H   UNL     1     -13.119  10.977  68.105  1.00  0.00     0.000 HD 
HETATM   14  C   UNL     1     -10.765  14.252  67.942  1.00  0.00    -0.240 C  
BRANCH   8  15
HETATM   15  C   UNL     1      -8.268  13.755  67.265  1.00  0.00    -0.173 C  
BRANCH  15  16
HETATM   16  C   UNL     1      -6.887  13.576  67.869  1.00  0.00    -0.151 C  
HETATM   17  C   UNL     1      -6.308  14.123  68.957  1.00  0.00    -0.098 C  
BRANCH  17  18
HETATM   18  C   UNL     1      -6.874  15.122  69.926  1.00  0.00    -0.154 C  
BRANCH  18  19
HETATM   19  C   UNL     1      -6.112  16.456  69.899  1.00  0.00    -0.187 C  
BRANCH  19  20
HETATM   20  C   UNL     1      -6.458  17.353  68.717  1.00  0.00    -0.201 C  
BRANCH  20  21
HETATM   21  C   UNL     1      -6.164  18.788  69.026  1.00  0.00    -0.240 C  
HETATM   22  O   UNL     1      -6.570  19.421  69.993  1.00  0.00    -0.220 OA 
BRANCH  21  23
HETATM   23  O   UNL     1      -5.484  19.316  67.971  1.00  0.00    -0.183 OA 
BRANCH  23  24
HETATM   24  C   UNL     1      -5.697  18.534  66.815  1.00  0.00    -0.146 C  
BRANCH  24  25
HETATM   25  C   UNL     1      -6.354  19.311  65.694  1.00  0.00    -0.263 C  
BRANCH  25  26
HETATM   26  C   UNL     1      -7.329  20.372  66.199  1.00  0.00    -0.223 C  
BRANCH  26  27
HETATM   27  C   UNL     1      -8.640  19.824  66.781  1.00  0.00    -0.327 C  
BRANCH  27  28
HETATM   28  O   UNL     1      -9.148  18.833  65.916  1.00  0.00    -0.456 OA 
HETATM   29  N   UNL     1     -10.559  18.879  65.812  1.00  0.00    -0.421 N  
HETATM   30  O   UNL     1     -11.011  17.973  65.108  1.00  0.00    -0.645 OA 
HETATM   31  O   UNL     1     -11.141  19.771  66.415  1.00  0.00    -0.297 OA 
ENDBRANCH  27  28
ENDBRANCH  26  27
ENDBRANCH  25  26
ENDBRANCH  24  25
ENDBRANCH  23  24
ENDBRANCH  21  23
ENDBRANCH  20  21
ENDBRANCH  19  20
ENDBRANCH  18  19
ENDBRANCH  17  18
ENDBRANCH  15  16
ENDBRANCH   8  15
ENDBRANCH   5   6
ENDBRANCH   4   5
ENDBRANCH   2   4
BRANCH   2  32
HETATM   32  C   UNL     1      -8.945   8.327  68.360  1.00  0.00    -0.136 C  
BRANCH  32  33
HETATM   33  C   UNL     1      -8.755   7.113  69.262  1.00  0.00    -0.136 C  
BRANCH  33  34
HETATM   34  C   UNL     1      -9.766   7.150  70.360  1.00  0.00    -0.176 A  
HETATM   35  C   UNL     1     -10.646   8.220  72.342  1.00  0.00    -0.408 A  
HETATM   36  C   UNL     1     -11.536   6.094  71.603  1.00  0.00    -0.331 A  
HETATM   37  C   UNL     1      -9.759   8.219  71.269  1.00  0.00    -0.225 A  
HETATM   38  C   UNL     1     -10.653   6.088  70.530  1.00  0.00    -0.329 A  
HETATM   39  C   UNL     1     -11.533   7.158  72.508  1.00  0.00    -0.297 A  
ENDBRANCH  33  34
ENDBRANCH  32  33
ENDBRANCH   2  32
TORSDOF 18
ENDMDL
MODEL      337
REMARK 921   NORMALIZED FREE ENERGY PREDICTED BY IDOCK:   -3.20 KCAL/MOL
REMARK 922        TOTAL FREE ENERGY PREDICTED BY IDOCK:  -11.35 KCAL/MOL
REMARK 923 INTER-LIGAND FREE ENERGY PREDICTED BY IDOCK:   -8.83 KCAL/MOL
REMARK 924 INTRA-LIGAND FREE ENERGY PREDICTED BY IDOCK:   -2.52 KCAL/MOL
REMARK 927      BINDING AFFINITY PREDICTED BY RF-SCORE:    0.00 PKD
ROOT
HETATM    1  O   UNL     1     -12.385  10.574  68.837  1.00  0.00    -0.779 OA 
HETATM    2  C   UNL     1     -11.470  11.153  69.766  1.00  0.00    -0.312 C  
HETATM    3  H   UNL     1     -13.267  10.882  69.012  1.00  0.00     0.000 HD 
ENDROOT
BRANCH   2   4
HETATM    4  C   UNL     1     -10.039  10.655  69.483  1.00  0.00    -0.164 C  
BRANCH   4   5
HETATM    5  C   UNL     1      -9.741   9.229  69.958  1.00  0.00    -0.234 C  
BRANCH   5   6
HETATM    6  C   UNL     1      -8.595   8.492  69.227  1.00  0.00    -0.129 C  
HETATM    7  H   UNL     1      -7.782   5.633  66.518  1.00  0.00     0.000 HD 
HETATM    8  C   UNL     1      -8.972   7.441  68.099  1.00  0.00    -0.129 C  
HETATM    9  C   UNL     1      -7.822   7.653  70.254  1.00  0.00    -0.092 C  
HETATM   10  C   UNL     1      -7.009   6.715  69.411  1.00  0.00    -0.067 C  
HETATM   11  O   UNL     1      -6.963   8.437  71.062  1.00  0.00    -0.047 OA 
HETATM   12  O   UNL     1      -7.183   5.912  67.200  1.00  0.00    -0.072 OA 
HETATM   13  H   UNL     1      -6.485   7.918  71.697  1.00  0.00     0.000 HD 
HETATM   14  C   UNL     1      -7.964   6.269  68.323  1.00  0.00    -0.108 C  
BRANCH   8  15
HETATM   15  C   UNL     1      -9.013   8.005  66.642  1.00  0.00    -0.179 C  
BRANCH  15  16
HETATM   16  C   UNL     1      -8.143   9.223  66.386  1.00  0.00    -0.107 C  
HETATM   17  C   UNL     1      -8.122  10.109  65.371  1.00  0.00    -0.149 C  
BRANCH  17  18
HETATM   18  C   UNL     1      -8.974  10.151  64.135  1.00  0.00    -0.267 C  
BRANCH  18  19
HETATM   19  C   UNL     1     -10.371  10.729  64.409  1.00  0.00    -0.405 C  
BRANCH  19  20
HETATM   20  C   UNL     1     -10.678  10.958  65.884  1.00  0.00    -0.193 C  
BRANCH  20  21
HETATM   21  C   UNL     1     -11.314  12.295  66.100  1.00  0.00    -0.353 C  
HETATM   22  O   UNL     1     -12.507  12.513  66.275  1.00  0.00    -0.475 OA 
BRANCH  21  23
HETATM   23  O   UNL     1     -10.360  13.250  65.924  1.00  0.00    -0.281 OA 
BRANCH  23  24
HETATM   24  C   UNL     1      -9.355  13.120  66.908  1.00  0.00    -0.246 C  
BRANCH  24  25
HETATM   25  C   UNL     1      -9.532  14.086  68.059  1.00  0.00    -0.206 C  
BRANCH  25  26
HETATM   26  C   UNL     1     -10.751  14.991  67.893  1.00  0.00    -0.268 C  
BRANCH  26  27
HETATM   27  C   UNL     1     -10.512  16.255  67.055  1.00  0.00    -0.306 C  
BRANCH  27  28
HETATM   28  O   UNL     1     -11.539  16.369  66.094  1.00  0.00     0.575 OA 
HETATM   29  N   UNL     1     -11.050  16.280  64.769  1.00  0.00    -0.382 N  
HETATM   30  O   UNL     1     -11.936  16.444  63.926  1.00  0.00    -1.023 OA 
HETATM   31  O   UNL     1      -9.854  16.067  64.621  1.00  0.00     0.166 OA 
ENDBRANCH  27  28
ENDBRANCH  26  27
ENDBRANCH  25  26
ENDBRANCH  24  25
ENDBRANCH  23  24
ENDBRANCH  21  23
ENDBRANCH  20  21
ENDBRANCH  19  20
ENDBRANCH  18  19
ENDBRANCH  17  18
ENDBRANCH  15  16
ENDBRANCH   8  15
ENDBRANCH   5   6
ENDBRANCH   4   5
ENDBRANCH   2   4
BRANCH   2  32
HETATM   32  C   UNL     1     -11.939  10.744  71.155  1.00  0.00    -0.361 C  
BRANCH  32  33
HETATM   33  C   UNL     1     -12.887   9.552  71.102  1.00  0.00    -0.361 C  
BRANCH  33  34
HETATM   34  C   UNL     1     -12.184   8.338  71.615  1.00  0.00    -0.350 A  
HETATM   35  C   UNL     1     -10.722   7.316  73.246  1.00  0.00    -0.428 A  
HETATM   36  C   UNL     1     -11.468   6.060  71.317  1.00  0.00    -0.251 A  
HETATM   37  C   UNL     1     -11.446   8.420  72.804  1.00  0.00    -0.235 A  
HETATM   38  C   UNL     1     -12.192   7.159  70.871  1.00  0.00    -0.354 A  
HETATM   39  C   UNL     1     -10.733   6.138  72.503  1.00  0.00    -0.257 A  
ENDBRANCH  33  34
ENDBRANCH  32  33
ENDBRANCH   2  32
TORSDOF 18
ENDMDL
MODEL      338
REMARK 921   NORMALIZED FREE ENERGY PREDICTED BY IDOCK:   -3.19 KCAL/MOL
REMARK 922        TOTAL FREE ENERGY PREDICTED BY IDOCK:  -11.33 KCAL/MOL
REMARK 923 INTER-LIGAND FREE ENERGY PREDICTED BY IDOCK:   -8.80 KCAL/MOL
REMARK 924 INTRA-LIGAND FREE ENERGY PREDICTED BY IDOCK:   -2.53 KCAL/MOL
REMARK 927      BINDING AFFINITY PREDICTED BY RF-SCORE:    0.00 PKD
ROOT
HETATM    1  O   UNL     1     -11.559  14.701  70.483  1.00  0.00    -0.279 OA 
HETATM    2  C   UNL     1     -11.719  14.984  69.095  1.00  0.00    -0.319 C  
HETATM    3  H   UNL     1     -11.621  15.503  70.990  1.00  0.00     0.000 HD 
ENDROOT
BRANCH   2   4
HETATM    4  C   UNL     1     -11.619  13.685  68.272  1.00  0.00    -0.374 C  
BRANCH   4   5
HETATM    5  C   UNL     1     -10.740  13.773  67.020  1.00  0.00    -0.283 C  
BRANCH   5   6
HETATM    6  C   UNL     1     -11.131  12.847  65.845  1.00  0.00    -0.310 C  
HETATM    7  H   UNL     1      -9.655  10.606  62.850  1.00  0.00     0.000 HD 
HETATM    8  C   UNL     1      -9.972  12.130  65.031  1.00  0.00    -0.242 C  
HETATM    9  C   UNL     1     -11.849  13.688  64.781  1.00  0.00    -0.387 C  
HETATM   10  C   UNL     1     -11.839  12.808  63.564  1.00  0.00    -0.618 C  
HETATM   11  O   UNL     1     -13.184  13.994  65.139  1.00  0.00    -0.768 OA 
HETATM   12  O   UNL     1     -10.529  10.979  62.861  1.00  0.00    -0.154 OA 
HETATM   13  H   UNL     1     -13.629  14.514  64.480  1.00  0.00     0.000 HD 
HETATM   14  C   UNL     1     -10.447  12.214  63.546  1.00  0.00    -0.454 C  
BRANCH   8  15
HETATM   15  C   UNL     1      -9.593  10.697  65.523  1.00  0.00    -0.271 C  
BRANCH  15  16
HETATM   16  C   UNL     1      -9.700  10.467  67.020  1.00  0.00    -0.212 C  
HETATM   17  C   UNL     1     -10.123   9.406  67.734  1.00  0.00    -0.246 C  
BRANCH  17  18
HETATM   18  C   UNL     1     -10.648   8.086  67.244  1.00  0.00    -0.360 C  
BRANCH  18  19
HETATM   19  C   UNL     1      -9.743   6.912  67.648  1.00  0.00    -0.151 C  
BRANCH  19  20
HETATM   20  C   UNL     1      -9.001   6.263  66.486  1.00  0.00    -0.150 C  
BRANCH  20  21
HETATM   21  C   UNL     1      -7.541   6.131  66.787  1.00  0.00    -0.099 C  
HETATM   22  O   UNL     1      -7.041   5.457  67.679  1.00  0.00    -0.064 OA 
BRANCH  21  23
HETATM   23  O   UNL     1      -6.866   7.004  65.991  1.00  0.00    -0.054 OA 
BRANCH  23  24
HETATM   24  C   UNL     1      -5.632   7.350  66.585  1.00  0.00    -0.024 C  
BRANCH  24  25
HETATM   25  C   UNL     1      -5.282   8.811  66.402  1.00  0.00    -0.030 C  
BRANCH  25  26
HETATM   26  C   UNL     1      -6.190   9.744  67.200  1.00  0.00    -0.064 C  
BRANCH  26  27
HETATM   27  C   UNL     1      -5.892   9.810  68.705  1.00  0.00    -0.039 C  
BRANCH  27  28
HETATM   28  O   UNL     1      -6.781   8.953  69.387  1.00  0.00    -0.047 OA 
HETATM   29  N   UNL     1      -7.248   9.514  70.599  1.00  0.00    -0.129 N  
HETATM   30  O   UNL     1      -7.975   8.741  71.229  1.00  0.00    -0.124 OA 
HETATM   31  O   UNL     1      -6.886  10.651  70.873  1.00  0.00    -0.199 OA 
ENDBRANCH  27  28
ENDBRANCH  26  27
ENDBRANCH  25  26
ENDBRANCH  24  25
ENDBRANCH  23  24
ENDBRANCH  21  23
ENDBRANCH  20  21
ENDBRANCH  19  20
ENDBRANCH  18  19
ENDBRANCH  17  18
ENDBRANCH  15  16
ENDBRANCH   8  15
ENDBRANCH   5   6
ENDBRANCH   4   5
ENDBRANCH   2   4
BRANCH   2  32
HETATM   32  C   UNL     1     -10.620  15.968  68.719  1.00  0.00    -0.262 C  
BRANCH  32  33
HETATM   33  C   UNL     1     -11.183  17.210  68.037  1.00  0.00     0.037 C  
BRANCH  33  34
HETATM   34  C   UNL     1     -10.059  18.019  67.478  1.00  0.00    -0.356 A  
HETATM   35  C   UNL     1      -7.690  18.291  67.081  1.00  0.00    -0.231 A  
HETATM   36  C   UNL     1      -9.232  20.078  66.547  1.00  0.00    -0.471 A  
HETATM   37  C   UNL     1      -8.752  17.511  67.527  1.00  0.00    -0.225 A  
HETATM   38  C   UNL     1     -10.296  19.303  66.991  1.00  0.00    -0.526 A  
HETATM   39  C   UNL     1      -7.930  19.574  66.592  1.00  0.00    -0.311 A  
ENDBRANCH  33  34
ENDBRANCH  32  33
ENDBRANCH   2  32
TORSDOF 18
ENDMDL
MODEL      339
REMARK 921   NORMALIZED FREE ENERGY PREDICTED BY IDOCK:   -3.18 KCAL/MOL
REMARK 922        TOTAL FREE ENERGY PREDICTED BY IDOCK:  -11.32 KCAL/MOL
REMARK 923 INTER-LIGAND FREE ENERGY PREDICTED BY IDOCK:   -9.08 KCAL/MOL
REMARK 924 INTRA-LIGAND FREE ENERGY PREDICTED BY IDOCK:   -2.24 KCAL/MOL
REMARK 927      BINDING AFFINITY PREDICTED BY RF-SCORE:    0.00 PKD
ROOT
HETATM    1  O   UNL     1     -11.560  14.701  70.482  1.00  0.00    -0.279 OA 
HETATM    2  C   UNL     1     -11.718  14.939  69.084  1.00  0.00    -0.309 C  
HETATM    3  H   UNL     1     -11.629  15.517  70.963  1.00  0.00     0.000 HD 
ENDROOT
BRANCH   2   4
HETATM    4  C   UNL     1     -11.606  13.615  68.303  1.00  0.00    -0.374 C  
BRANCH   4   5
HETATM    5  C   UNL     1     -10.729  13.671  67.048  1.00  0.00    -0.278 C  
BRANCH   5   6
HETATM    6  C   UNL     1     -11.100  12.691  65.911  1.00  0.00    -0.323 C  
HETATM    7  H   UNL     1      -9.576  10.370  63.002  1.00  0.00     0.000 HD 
HETATM    8  C   UNL     1      -9.925  11.971  65.123  1.00  0.00    -0.265 C  
HETATM    9  C   UNL     1     -11.840  13.471  64.817  1.00  0.00    -0.381 C  
HETATM   10  C   UNL     1     -11.811  12.546  63.636  1.00  0.00    -0.610 C  
HETATM   11  O   UNL     1     -13.181  13.760  65.166  1.00  0.00    -0.757 OA 
HETATM   12  O   UNL     1     -10.459  10.722  63.001  1.00  0.00    -0.128 OA 
HETATM   13  H   UNL     1     -13.640  14.243  64.489  1.00  0.00     0.000 HD 
HETATM   14  C   UNL     1     -10.405  11.984  63.637  1.00  0.00    -0.450 C  
BRANCH   8  15
HETATM   15  C   UNL     1      -9.511  10.567  65.669  1.00  0.00    -0.259 C  
BRANCH  15  16
HETATM   16  C   UNL     1      -9.904  10.281  67.108  1.00  0.00    -0.228 C  
HETATM   17  C   UNL     1     -10.351   9.160  67.708  1.00  0.00    -0.302 C  
BRANCH  17  18
HETATM   18  C   UNL     1     -10.618   7.810  67.107  1.00  0.00    -0.401 C  
BRANCH  18  19
HETATM   19  C   UNL     1      -9.665   6.732  67.647  1.00  0.00    -0.146 C  
BRANCH  19  20
HETATM   20  C   UNL     1      -9.826   5.366  66.992  1.00  0.00    -0.181 C  
BRANCH  20  21
HETATM   21  C   UNL     1      -8.515   4.855  66.482  1.00  0.00    -0.110 C  
HETATM   22  O   UNL     1      -7.521   4.607  67.153  1.00  0.00    -0.083 OA 
BRANCH  21  23
HETATM   23  O   UNL     1      -8.565   4.850  65.122  1.00  0.00    -0.132 OA 
BRANCH  23  24
HETATM   24  C   UNL     1      -7.272   5.044  64.587  1.00  0.00    -0.062 C  
BRANCH  24  25
HETATM   25  C   UNL     1      -7.296   5.597  63.178  1.00  0.00    -0.055 C  
BRANCH  25  26
HETATM   26  C   UNL     1      -7.879   7.006  63.103  1.00  0.00    -0.110 C  
BRANCH  26  27
HETATM   27  C   UNL     1      -6.863   8.113  62.787  1.00  0.00    -0.086 C  
BRANCH  27  28
HETATM   28  O   UNL     1      -6.481   8.744  63.989  1.00  0.00    -0.075 OA 
HETATM   29  N   UNL     1      -6.382  10.149  63.854  1.00  0.00    -0.133 N  
HETATM   30  O   UNL     1      -5.986  10.696  64.885  1.00  0.00    -0.117 OA 
HETATM   31  O   UNL     1      -6.680  10.635  62.770  1.00  0.00    -0.116 OA 
ENDBRANCH  27  28
ENDBRANCH  26  27
ENDBRANCH  25  26
ENDBRANCH  24  25
ENDBRANCH  23  24
ENDBRANCH  21  23
ENDBRANCH  20  21
ENDBRANCH  19  20
ENDBRANCH  18  19
ENDBRANCH  17  18
ENDBRANCH  15  16
ENDBRANCH   8  15
ENDBRANCH   5   6
ENDBRANCH   4   5
ENDBRANCH   2   4
BRANCH   2  32
HETATM   32  C   UNL     1     -10.625  15.918  68.681  1.00  0.00    -0.250 C  
BRANCH  32  33
HETATM   33  C   UNL     1     -11.194  17.133  67.957  1.00  0.00     0.037 C  
BRANCH  33  34
HETATM   34  C   UNL     1     -10.074  17.930  67.373  1.00  0.00    -0.341 A  
HETATM   35  C   UNL     1      -9.155  20.077  66.749  1.00  0.00    -0.467 A  
HETATM   36  C   UNL     1      -8.001  18.034  66.155  1.00  0.00    -0.227 A  
HETATM   37  C   UNL     1     -10.156  19.330  67.363  1.00  0.00    -0.486 A  
HETATM   38  C   UNL     1      -8.998  17.284  66.767  1.00  0.00    -0.269 A  
HETATM   39  C   UNL     1      -8.079  19.429  66.146  1.00  0.00    -0.323 A  
ENDBRANCH  33  34
ENDBRANCH  32  33
ENDBRANCH   2  32
TORSDOF 18
ENDMDL
MODEL      340
REMARK 921   NORMALIZED FREE ENERGY PREDICTED BY IDOCK:   -3.18 KCAL/MOL
REMARK 922        TOTAL FREE ENERGY PREDICTED BY IDOCK:  -11.31 KCAL/MOL
REMARK 923 INTER-LIGAND FREE ENERGY PREDICTED BY IDOCK:   -7.98 KCAL/MOL
REMARK 924 INTRA-LIGAND FREE ENERGY PREDICTED BY IDOCK:   -3.33 KCAL/MOL
REMARK 927      BINDING AFFINITY PREDICTED BY RF-SCORE:    0.00 PKD
ROOT
HETATM    1  O   UNL     1      -8.121  11.929  68.946  1.00  0.00    -0.324 OA 
HETATM    2  C   UNL     1      -6.839  11.638  68.394  1.00  0.00    -0.071 C  
HETATM    3  H   UNL     1      -8.447  12.753  68.603  1.00  0.00     0.000 HD 
ENDROOT
BRANCH   2   4
HETATM    4  C   UNL     1      -6.311  10.301  68.951  1.00  0.00    -0.047 C  
BRANCH   4   5
HETATM    5  C   UNL     1      -6.232   9.159  67.932  1.00  0.00    -0.051 C  
BRANCH   5   6
HETATM    6  C   UNL     1      -7.545   8.387  67.668  1.00  0.00    -0.098 C  
HETATM    7  H   UNL     1      -9.126   4.711  67.265  1.00  0.00     0.000 HD 
HETATM    8  C   UNL     1      -7.517   6.802  67.740  1.00  0.00    -0.098 C  
HETATM    9  C   UNL     1      -7.997   8.673  66.229  1.00  0.00    -0.102 C  
HETATM   10  C   UNL     1      -9.025   7.613  65.961  1.00  0.00    -0.178 C  
HETATM   11  O   UNL     1      -8.581   9.954  66.086  1.00  0.00    -0.126 OA 
HETATM   12  O   UNL     1      -9.501   5.501  66.894  1.00  0.00    -0.125 OA 
HETATM   13  H   UNL     1      -8.861  10.130  65.195  1.00  0.00     0.000 HD 
HETATM   14  C   UNL     1      -8.427   6.354  66.552  1.00  0.00    -0.118 C  
BRANCH   8  15
HETATM   15  C   UNL     1      -7.892   6.185  69.126  1.00  0.00    -0.104 C  
BRANCH  15  16
HETATM   16  C   UNL     1      -7.278   6.868  70.335  1.00  0.00    -0.076 C  
HETATM   17  C   UNL     1      -7.810   7.675  71.274  1.00  0.00    -0.090 C  
BRANCH  17  18
HETATM   18  C   UNL     1      -9.222   8.171  71.402  1.00  0.00    -0.195 C  
BRANCH  18  19
HETATM   19  C   UNL     1      -9.473   9.440  70.574  1.00  0.00    -0.327 C  
BRANCH  19  20
HETATM   20  C   UNL     1     -10.941   9.821  70.436  1.00  0.00    -0.371 C  
BRANCH  20  21
HETATM   21  C   UNL     1     -11.218  10.421  69.092  1.00  0.00    -0.246 C  
HETATM   22  O   UNL     1     -10.484  10.377  68.112  1.00  0.00    -0.166 OA 
BRANCH  21  23
HETATM   23  O   UNL     1     -12.363  11.151  69.184  1.00  0.00    -0.438 OA 
BRANCH  23  24
HETATM   24  C   UNL     1     -12.124  12.342  69.904  1.00  0.00    -0.247 C  
BRANCH  24  25
HETATM   25  C   UNL     1     -11.183  13.284  69.185  1.00  0.00    -0.305 C  
BRANCH  25  26
HETATM   26  C   UNL     1     -11.884  14.132  68.127  1.00  0.00    -0.387 C  
BRANCH  26  27
HETATM   27  C   UNL     1     -11.328  13.985  66.703  1.00  0.00    -0.335 C  
BRANCH  27  28
HETATM   28  O   UNL     1     -11.920  12.861  66.092  1.00  0.00    -0.404 OA 
HETATM   29  N   UNL     1     -12.627  13.197  64.913  1.00  0.00    -0.431 N  
HETATM   30  O   UNL     1     -13.200  12.226  64.412  1.00  0.00    -0.806 OA 
HETATM   31  O   UNL     1     -12.595  14.365  64.548  1.00  0.00    -0.651 OA 
ENDBRANCH  27  28
ENDBRANCH  26  27
ENDBRANCH  25  26
ENDBRANCH  24  25
ENDBRANCH  23  24
ENDBRANCH  21  23
ENDBRANCH  20  21
ENDBRANCH  19  20
ENDBRANCH  18  19
ENDBRANCH  17  18
ENDBRANCH  15  16
ENDBRANCH   8  15
ENDBRANCH   5   6
ENDBRANCH   4   5
ENDBRANCH   2   4
BRANCH   2  32
HETATM   32  C   UNL     1      -5.928  12.797  68.770  1.00  0.00    -0.071 C  
BRANCH  32  33
HETATM   33  C   UNL     1      -6.670  13.860  69.573  1.00  0.00    -0.062 C  
BRANCH  33  34
HETATM   34  C   UNL     1      -6.415  15.203  68.969  1.00  0.00    -0.106 A  
HETATM   35  C   UNL     1      -5.781  16.534  67.053  1.00  0.00    -0.124 A  
HETATM   36  C   UNL     1      -6.089  17.574  69.216  1.00  0.00    -0.232 A  
HETATM   37  C   UNL     1      -6.098  15.297  67.605  1.00  0.00    -0.139 A  
HETATM   38  C   UNL     1      -6.407  16.341  69.773  1.00  0.00    -0.181 A  
HETATM   39  C   UNL     1      -5.777  17.671  67.858  1.00  0.00    -0.143 A  
ENDBRANCH  33  34
ENDBRANCH  32  33
ENDBRANCH   2  32
TORSDOF 18
ENDMDL
MODEL      341
REMARK 921   NORMALIZED FREE ENERGY PREDICTED BY IDOCK:   -3.18 KCAL/MOL
REMARK 922        TOTAL FREE ENERGY PREDICTED BY IDOCK:  -11.31 KCAL/MOL
REMARK 923 INTER-LIGAND FREE ENERGY PREDICTED BY IDOCK:   -8.58 KCAL/MOL
REMARK 924 INTRA-LIGAND FREE ENERGY PREDICTED BY IDOCK:   -2.72 KCAL/MOL
REMARK 927      BINDING AFFINITY PREDICTED BY RF-SCORE:    0.00 PKD
ROOT
HETATM    1  O   UNL     1      -6.646  15.534  66.773  1.00  0.00    -0.183 OA 
HETATM    2  C   UNL     1      -6.678  15.639  68.195  1.00  0.00    -0.125 C  
HETATM    3  H   UNL     1      -5.789  15.780  66.445  1.00  0.00     0.000 HD 
ENDROOT
BRANCH   2   4
HETATM    4  C   UNL     1      -8.069  15.240  68.726  1.00  0.00    -0.165 C  
BRANCH   4   5
HETATM    5  C   UNL     1      -9.109  14.919  67.648  1.00  0.00    -0.183 C  
BRANCH   5   6
HETATM    6  C   UNL     1     -10.043  13.721  67.936  1.00  0.00    -0.246 C  
HETATM    7  H   UNL     1     -10.561   9.783  67.299  1.00  0.00     0.000 HD 
HETATM    8  C   UNL     1      -9.595  12.280  67.444  1.00  0.00    -0.179 C  
HETATM    9  C   UNL     1     -11.373  13.952  67.206  1.00  0.00    -0.323 C  
HETATM   10  C   UNL     1     -12.034  12.605  67.232  1.00  0.00    -0.321 C  
HETATM   11  O   UNL     1     -12.195  14.902  67.859  1.00  0.00    -0.559 OA 
HETATM   12  O   UNL     1     -11.263  10.393  67.498  1.00  0.00    -0.314 OA 
HETATM   13  H   UNL     1     -13.018  15.044  67.407  1.00  0.00     0.000 HD 
HETATM   14  C   UNL     1     -10.916  11.634  66.916  1.00  0.00    -0.292 C  
BRANCH   8  15
HETATM   15  C   UNL     1      -8.816  11.423  68.493  1.00  0.00    -0.151 C  
BRANCH  15  16
HETATM   16  C   UNL     1      -7.965  10.303  67.922  1.00  0.00    -0.102 C  
HETATM   17  C   UNL     1      -6.704   9.910  68.192  1.00  0.00    -0.060 C  
BRANCH  17  18
HETATM   18  C   UNL     1      -5.721  10.495  69.166  1.00  0.00    -0.040 C  
BRANCH  18  19
HETATM   19  C   UNL     1      -6.057  10.134  70.621  1.00  0.00    -0.106 C  
BRANCH  19  20
HETATM   20  C   UNL     1      -6.275   8.646  70.866  1.00  0.00    -0.039 C  
BRANCH  20  21
HETATM   21  C   UNL     1      -7.007   8.413  72.151  1.00  0.00    -0.090 C  
HETATM   22  O   UNL     1      -6.577   8.616  73.279  1.00  0.00    -0.217 OA 
BRANCH  21  23
HETATM   23  O   UNL     1      -8.186   7.799  71.859  1.00  0.00    -0.099 OA 
BRANCH  23  24
HETATM   24  C   UNL     1      -9.238   8.741  71.857  1.00  0.00    -0.250 C  
BRANCH  24  25
HETATM   25  C   UNL     1     -10.205   8.538  70.711  1.00  0.00    -0.237 C  
BRANCH  25  26
HETATM   26  C   UNL     1      -9.746   7.464  69.729  1.00  0.00    -0.170 C  
BRANCH  26  27
HETATM   27  C   UNL     1     -10.849   6.514  69.242  1.00  0.00    -0.307 C  
BRANCH  27  28
HETATM   28  O   UNL     1     -10.254   5.408  68.599  1.00  0.00    -0.178 OA 
HETATM   29  N   UNL     1     -10.441   5.435  67.197  1.00  0.00    -0.242 N  
HETATM   30  O   UNL     1      -9.977   4.436  66.639  1.00  0.00    -0.216 OA 
HETATM   31  O   UNL     1     -11.023   6.401  66.721  1.00  0.00    -0.353 OA 
ENDBRANCH  27  28
ENDBRANCH  26  27
ENDBRANCH  25  26
ENDBRANCH  24  25
ENDBRANCH  23  24
ENDBRANCH  21  23
ENDBRANCH  20  21
ENDBRANCH  19  20
ENDBRANCH  18  19
ENDBRANCH  17  18
ENDBRANCH  15  16
ENDBRANCH   8  15
ENDBRANCH   5   6
ENDBRANCH   4   5
ENDBRANCH   2   4
BRANCH   2  32
HETATM   32  C   UNL     1      -6.344  17.085  68.534  1.00  0.00    -0.154 C  
BRANCH  32  33
HETATM   33  C   UNL     1      -6.516  18.001  67.328  1.00  0.00    -0.186 C  
BRANCH  33  34
HETATM   34  C   UNL     1      -7.804  18.747  67.453  1.00  0.00    -0.245 A  
HETATM   35  C   UNL     1      -9.656  19.483  68.822  1.00  0.00    -0.479 A  
HETATM   36  C   UNL     1      -9.671  19.872  66.434  1.00  0.00    -0.558 A  
HETATM   37  C   UNL     1      -8.417  18.859  68.710  1.00  0.00    -0.340 A  
HETATM   38  C   UNL     1      -8.433  19.251  66.316  1.00  0.00    -0.328 A  
HETATM   39  C   UNL     1     -10.282  19.988  67.685  1.00  0.00    -0.548 A  
ENDBRANCH  33  34
ENDBRANCH  32  33
ENDBRANCH   2  32
TORSDOF 18
ENDMDL
MODEL      342
REMARK 921   NORMALIZED FREE ENERGY PREDICTED BY IDOCK:   -3.17 KCAL/MOL
REMARK 922        TOTAL FREE ENERGY PREDICTED BY IDOCK:  -11.29 KCAL/MOL
REMARK 923 INTER-LIGAND FREE ENERGY PREDICTED BY IDOCK:   -7.69 KCAL/MOL
REMARK 924 INTRA-LIGAND FREE ENERGY PREDICTED BY IDOCK:   -3.60 KCAL/MOL
REMARK 927      BINDING AFFINITY PREDICTED BY RF-SCORE:    0.00 PKD
ROOT
HETATM    1  O   UNL     1     -11.171  11.599  66.878  1.00  0.00    -0.294 OA 
HETATM    2  C   UNL     1     -10.579  10.696  65.945  1.00  0.00    -0.108 C  
HETATM    3  H   UNL     1     -11.612  12.303  66.417  1.00  0.00     0.000 HD 
ENDROOT
BRANCH   2   4
HETATM    4  C   UNL     1      -9.863   9.554  66.693  1.00  0.00    -0.293 C  
BRANCH   4   5
HETATM    5  C   UNL     1     -10.703   8.852  67.765  1.00  0.00    -0.204 C  
BRANCH   5   6
HETATM    6  C   UNL     1     -10.312   9.138  69.234  1.00  0.00    -0.223 C  
HETATM    7  H   UNL     1      -9.187   7.413  72.688  1.00  0.00     0.000 HD 
HETATM    8  C   UNL     1      -9.833   7.924  70.138  1.00  0.00    -0.184 C  
HETATM    9  C   UNL     1     -11.547   9.670  69.972  1.00  0.00    -0.088 C  
HETATM   10  C   UNL     1     -11.176   9.551  71.422  1.00  0.00    -0.452 C  
HETATM   11  O   UNL     1     -11.829  11.021  69.659  1.00  0.00    -0.285 OA 
HETATM   12  O   UNL     1      -9.612   8.260  72.624  1.00  0.00    -0.253 OA 
HETATM   13  H   UNL     1     -12.594  11.350  70.116  1.00  0.00     0.000 HD 
HETATM   14  C   UNL     1     -10.498   8.201  71.524  1.00  0.00    -0.221 C  
BRANCH   8  15
HETATM   15  C   UNL     1      -8.290   7.687  70.183  1.00  0.00    -0.130 C  
BRANCH  15  16
HETATM   16  C   UNL     1      -7.560   7.869  68.864  1.00  0.00    -0.100 C  
HETATM   17  C   UNL     1      -6.865   8.909  68.361  1.00  0.00    -0.065 C  
BRANCH  17  18
HETATM   18  C   UNL     1      -6.607  10.256  68.973  1.00  0.00    -0.053 C  
BRANCH  18  19
HETATM   19  C   UNL     1      -7.371  11.379  68.254  1.00  0.00    -0.089 C  
BRANCH  19  20
HETATM   20  C   UNL     1      -6.512  12.227  67.324  1.00  0.00    -0.152 C  
BRANCH  20  21
HETATM   21  C   UNL     1      -6.468  13.652  67.782  1.00  0.00    -0.171 C  
HETATM   22  O   UNL     1      -5.747  14.536  67.336  1.00  0.00    -0.342 OA 
BRANCH  21  23
HETATM   23  O   UNL     1      -7.265  13.767  68.879  1.00  0.00    -0.109 OA 
BRANCH  23  24
HETATM   24  C   UNL     1      -8.125  14.879  68.740  1.00  0.00    -0.162 C  
BRANCH  24  25
HETATM   25  C   UNL     1      -9.351  14.572  67.908  1.00  0.00    -0.201 C  
BRANCH  25  26
HETATM   26  C   UNL     1      -9.308  15.219  66.525  1.00  0.00    -0.309 C  
BRANCH  26  27
HETATM   27  C   UNL     1      -8.792  16.665  66.501  1.00  0.00    -0.279 C  
BRANCH  27  28
HETATM   28  O   UNL     1      -9.500  17.422  67.458  1.00  0.00    -0.245 OA 
HETATM   29  N   UNL     1     -10.327  18.405  66.864  1.00  0.00    -0.374 N  
HETATM   30  O   UNL     1     -10.897  19.111  67.699  1.00  0.00    -0.448 OA 
HETATM   31  O   UNL     1     -10.371  18.444  65.641  1.00  0.00    -0.605 OA 
ENDBRANCH  27  28
ENDBRANCH  26  27
ENDBRANCH  25  26
ENDBRANCH  24  25
ENDBRANCH  23  24
ENDBRANCH  21  23
ENDBRANCH  20  21
ENDBRANCH  19  20
ENDBRANCH  18  19
ENDBRANCH  17  18
ENDBRANCH  15  16
ENDBRANCH   8  15
ENDBRANCH   5   6
ENDBRANCH   4   5
ENDBRANCH   2   4
BRANCH   2  32
HETATM   32  C   UNL     1      -9.606  11.510  65.105  1.00  0.00    -0.235 C  
BRANCH  32  33
HETATM   33  C   UNL     1      -9.527  10.993  63.674  1.00  0.00    -0.298 C  
BRANCH  33  34
HETATM   34  C   UNL     1      -8.400  10.018  63.562  1.00  0.00    -0.171 A  
HETATM   35  C   UNL     1      -7.545   7.916  62.729  1.00  0.00    -0.124 A  
HETATM   36  C   UNL     1      -6.226   9.254  64.255  1.00  0.00    -0.077 A  
HETATM   37  C   UNL     1      -8.559   8.868  62.775  1.00  0.00    -0.167 A  
HETATM   38  C   UNL     1      -7.235  10.208  64.303  1.00  0.00    -0.108 A  
HETATM   39  C   UNL     1      -6.380   8.109  63.469  1.00  0.00    -0.072 A  
ENDBRANCH  33  34
ENDBRANCH  32  33
ENDBRANCH   2  32
TORSDOF 18
ENDMDL
MODEL      343
REMARK 921   NORMALIZED FREE ENERGY PREDICTED BY IDOCK:   -3.17 KCAL/MOL
REMARK 922        TOTAL FREE ENERGY PREDICTED BY IDOCK:  -11.29 KCAL/MOL
REMARK 923 INTER-LIGAND FREE ENERGY PREDICTED BY IDOCK:   -8.95 KCAL/MOL
REMARK 924 INTRA-LIGAND FREE ENERGY PREDICTED BY IDOCK:   -2.34 KCAL/MOL
REMARK 927      BINDING AFFINITY PREDICTED BY RF-SCORE:    0.00 PKD
ROOT
HETATM    1  O   UNL     1      -8.580   4.863  67.868  1.00  0.00    -0.103 OA 
HETATM    2  C   UNL     1      -9.527   5.718  67.230  1.00  0.00    -0.114 C  
HETATM    3  H   UNL     1      -8.982   4.027  68.077  1.00  0.00     0.000 HD 
ENDROOT
BRANCH   2   4
HETATM    4  C   UNL     1      -8.876   7.073  66.891  1.00  0.00    -0.127 C  
BRANCH   4   5
HETATM    5  C   UNL     1      -8.472   7.921  68.102  1.00  0.00    -0.124 C  
BRANCH   5   6
HETATM    6  C   UNL     1      -8.476   9.453  67.894  1.00  0.00    -0.116 C  
HETATM    7  H   UNL     1      -6.708  12.461  65.893  1.00  0.00     0.000 HD 
HETATM    8  C   UNL     1      -7.513  10.068  66.791  1.00  0.00    -0.096 C  
HETATM    9  C   UNL     1      -8.008  10.123  69.193  1.00  0.00    -0.124 C  
HETATM   10  C   UNL     1      -7.688  11.529  68.775  1.00  0.00    -0.124 C  
HETATM   11  O   UNL     1      -9.011  10.137  70.191  1.00  0.00    -0.366 OA 
HETATM   12  O   UNL     1      -7.164  12.561  66.721  1.00  0.00     0.058 OA 
HETATM   13  H   UNL     1      -8.721  10.551  70.995  1.00  0.00     0.000 HD 
HETATM   14  C   UNL     1      -6.962  11.370  67.455  1.00  0.00    -0.101 C  
BRANCH   8  15
HETATM   15  C   UNL     1      -8.149  10.266  65.378  1.00  0.00    -0.147 C  
BRANCH  15  16
HETATM   16  C   UNL     1      -9.666  10.277  65.338  1.00  0.00    -0.340 C  
HETATM   17  C   UNL     1     -10.539  11.057  64.669  1.00  0.00    -0.369 C  
BRANCH  17  18
HETATM   18  C   UNL     1     -10.260  12.202  63.738  1.00  0.00    -0.449 C  
BRANCH  18  19
HETATM   19  C   UNL     1     -11.051  13.465  64.114  1.00  0.00    -0.353 C  
BRANCH  19  20
HETATM   20  C   UNL     1     -10.239  14.515  64.861  1.00  0.00    -0.338 C  
BRANCH  20  21
HETATM   21  C   UNL     1     -11.011  15.790  65.005  1.00  0.00    -0.417 C  
HETATM   22  O   UNL     1     -11.185  16.636  64.136  1.00  0.00    -1.103 OA 
BRANCH  21  23
HETATM   23  O   UNL     1     -11.369  15.921  66.311  1.00  0.00    -0.005 OA 
BRANCH  23  24
HETATM   24  C   UNL     1     -10.720  17.037  66.884  1.00  0.00    -0.125 C  
BRANCH  24  25
HETATM   25  C   UNL     1     -10.444  16.862  68.361  1.00  0.00    -0.355 C  
BRANCH  25  26
HETATM   26  C   UNL     1     -10.417  15.397  68.791  1.00  0.00    -0.231 C  
BRANCH  26  27
HETATM   27  C   UNL     1     -11.353  15.044  69.956  1.00  0.00    -0.273 C  
BRANCH  27  28
HETATM   28  O   UNL     1     -12.308  14.106  69.510  1.00  0.00    -0.328 OA 
HETATM   29  N   UNL     1     -11.733  12.843  69.230  1.00  0.00    -0.308 N  
HETATM   30  O   UNL     1     -12.554  12.040  68.779  1.00  0.00     0.099 OA 
HETATM   31  O   UNL     1     -10.537  12.704  69.450  1.00  0.00     0.062 OA 
ENDBRANCH  27  28
ENDBRANCH  26  27
ENDBRANCH  25  26
ENDBRANCH  24  25
ENDBRANCH  23  24
ENDBRANCH  21  23
ENDBRANCH  20  21
ENDBRANCH  19  20
ENDBRANCH  18  19
ENDBRANCH  17  18
ENDBRANCH  15  16
ENDBRANCH   8  15
ENDBRANCH   5   6
ENDBRANCH   4   5
ENDBRANCH   2   4
BRANCH   2  32
HETATM   32  C   UNL     1     -10.689   5.883  68.200  1.00  0.00    -0.329 C  
BRANCH  32  33
HETATM   33  C   UNL     1     -10.379   5.273  69.561  1.00  0.00    -0.333 C  
BRANCH  33  34
HETATM   34  C   UNL     1     -10.749   6.244  70.634  1.00  0.00    -0.321 A  
HETATM   35  C   UNL     1     -12.317   7.848  71.536  1.00  0.00    -0.340 A  
HETATM   36  C   UNL     1     -10.153   7.539  72.573  1.00  0.00    -0.262 A  
HETATM   37  C   UNL     1     -11.997   6.883  70.585  1.00  0.00    -0.400 A  
HETATM   38  C   UNL     1      -9.828   6.574  71.627  1.00  0.00    -0.180 A  
HETATM   39  C   UNL     1     -11.396   8.175  72.528  1.00  0.00    -0.469 A  
ENDBRANCH  33  34
ENDBRANCH  32  33
ENDBRANCH   2  32
TORSDOF 18
ENDMDL
MODEL      344
REMARK 921   NORMALIZED FREE ENERGY PREDICTED BY IDOCK:   -3.15 KCAL/MOL
REMARK 922        TOTAL FREE ENERGY PREDICTED BY IDOCK:  -11.26 KCAL/MOL
REMARK 923 INTER-LIGAND FREE ENERGY PREDICTED BY IDOCK:   -7.74 KCAL/MOL
REMARK 924 INTRA-LIGAND FREE ENERGY PREDICTED BY IDOCK:   -3.52 KCAL/MOL
REMARK 927      BINDING AFFINITY PREDICTED BY RF-SCORE:    0.00 PKD
ROOT
HETATM    1  O   UNL     1     -11.005   8.819  67.801  1.00  0.00    -0.494 OA 
HETATM    2  C   UNL     1      -9.684   8.478  68.219  1.00  0.00    -0.155 C  
HETATM    3  H   UNL     1     -11.406   9.406  68.430  1.00  0.00     0.000 HD 
ENDROOT
BRANCH   2   4
HETATM    4  C   UNL     1      -9.033   7.525  67.198  1.00  0.00    -0.136 C  
BRANCH   4   5
HETATM    5  C   UNL     1      -7.695   6.919  67.635  1.00  0.00    -0.111 C  
BRANCH   5   6
HETATM    6  C   UNL     1      -7.162   5.750  66.775  1.00  0.00    -0.074 C  
HETATM    7  H   UNL     1      -8.250   2.837  64.224  1.00  0.00     0.000 HD 
HETATM    8  C   UNL     1      -8.181   4.982  65.831  1.00  0.00    -0.114 C  
HETATM    9  C   UNL     1      -6.644   4.651  67.713  1.00  0.00    -0.046 C  
HETATM   10  C   UNL     1      -6.514   3.451  66.821  1.00  0.00    -0.037 C  
HETATM   11  O   UNL     1      -5.385   4.966  68.278  1.00  0.00    -0.009 OA 
HETATM   12  O   UNL     1      -7.465   2.818  64.758  1.00  0.00    -0.068 OA 
HETATM   13  H   UNL     1      -5.065   4.286  68.859  1.00  0.00     0.000 HD 
HETATM   14  C   UNL     1      -7.766   3.482  65.970  1.00  0.00    -0.082 C  
BRANCH   8  15
HETATM   15  C   UNL     1      -8.264   5.509  64.362  1.00  0.00    -0.127 C  
BRANCH  15  16
HETATM   16  C   UNL     1      -7.229   6.551  63.980  1.00  0.00    -0.067 C  
HETATM   17  C   UNL     1      -7.343   7.864  63.697  1.00  0.00    -0.103 C  
BRANCH  17  18
HETATM   18  C   UNL     1      -8.579   8.718  63.658  1.00  0.00    -0.058 C  
BRANCH  18  19
HETATM   19  C   UNL     1      -8.394  10.045  64.411  1.00  0.00    -0.169 C  
BRANCH  19  20
HETATM   20  C   UNL     1      -7.004  10.245  65.000  1.00  0.00    -0.112 C  
BRANCH  20  21
HETATM   21  C   UNL     1      -7.056  11.107  66.223  1.00  0.00    -0.049 C  
HETATM   22  O   UNL     1      -6.096  11.555  66.838  1.00  0.00    -0.117 OA 
BRANCH  21  23
HETATM   23  O   UNL     1      -8.354  11.193  66.624  1.00  0.00    -0.149 OA 
BRANCH  23  24
HETATM   24  C   UNL     1      -8.604  12.459  67.196  1.00  0.00    -0.189 C  
BRANCH  24  25
HETATM   25  C   UNL     1      -9.583  13.285  66.390  1.00  0.00    -0.260 C  
BRANCH  25  26
HETATM   26  C   UNL     1     -10.665  13.932  67.252  1.00  0.00    -0.286 C  
BRANCH  26  27
HETATM   27  C   UNL     1     -12.042  14.051  66.584  1.00  0.00    -0.456 C  
BRANCH  27  28
HETATM   28  O   UNL     1     -11.867  14.409  65.230  1.00  0.00    -0.353 OA 
HETATM   29  N   UNL     1     -12.533  13.526  64.348  1.00  0.00    -0.311 N  
HETATM   30  O   UNL     1     -12.328  13.799  63.162  1.00  0.00    -0.726 OA 
HETATM   31  O   UNL     1     -13.199  12.627  64.843  1.00  0.00    -0.819 OA 
ENDBRANCH  27  28
ENDBRANCH  26  27
ENDBRANCH  25  26
ENDBRANCH  24  25
ENDBRANCH  23  24
ENDBRANCH  21  23
ENDBRANCH  20  21
ENDBRANCH  19  20
ENDBRANCH  18  19
ENDBRANCH  17  18
ENDBRANCH  15  16
ENDBRANCH   8  15
ENDBRANCH   5   6
ENDBRANCH   4   5
ENDBRANCH   2   4
BRANCH   2  32
HETATM   32  C   UNL     1      -9.813   7.826  69.588  1.00  0.00    -0.182 C  
BRANCH  32  33
HETATM   33  C   UNL     1     -10.998   6.869  69.647  1.00  0.00    -0.298 C  
BRANCH  33  34
HETATM   34  C   UNL     1     -10.564   5.583  70.271  1.00  0.00    -0.357 A  
HETATM   35  C   UNL     1     -10.190   4.258  72.258  1.00  0.00    -0.244 A  
HETATM   36  C   UNL     1      -9.508   3.429  70.089  1.00  0.00    -0.244 A  
HETATM   37  C   UNL     1     -10.666   5.421  71.660  1.00  0.00    -0.266 A  
HETATM   38  C   UNL     1      -9.982   4.588  69.488  1.00  0.00    -0.235 A  
HETATM   39  C   UNL     1      -9.611   3.263  71.473  1.00  0.00    -0.234 A  
ENDBRANCH  33  34
ENDBRANCH  32  33
ENDBRANCH   2  32
TORSDOF 18
ENDMDL
MODEL      345
REMARK 921   NORMALIZED FREE ENERGY PREDICTED BY IDOCK:   -3.14 KCAL/MOL
REMARK 922        TOTAL FREE ENERGY PREDICTED BY IDOCK:  -11.22 KCAL/MOL
REMARK 923 INTER-LIGAND FREE ENERGY PREDICTED BY IDOCK:   -8.33 KCAL/MOL
REMARK 924 INTRA-LIGAND FREE ENERGY PREDICTED BY IDOCK:   -2.90 KCAL/MOL
REMARK 927      BINDING AFFINITY PREDICTED BY RF-SCORE:    0.00 PKD
ROOT
HETATM    1  O   UNL     1      -8.038   6.339  73.795  1.00  0.00    -0.106 OA 
HETATM    2  C   UNL     1      -9.058   6.260  72.800  1.00  0.00    -0.131 C  
HETATM    3  H   UNL     1      -7.230   5.964  73.466  1.00  0.00     0.000 HD 
ENDROOT
BRANCH   2   4
HETATM    4  C   UNL     1     -10.369   6.869  73.334  1.00  0.00    -0.337 C  
BRANCH   4   5
HETATM    5  C   UNL     1     -11.612   6.581  72.486  1.00  0.00    -0.243 C  
BRANCH   5   6
HETATM    6  C   UNL     1     -12.046   7.698  71.509  1.00  0.00    -0.338 C  
HETATM    7  H   UNL     1     -10.814  11.050  69.659  1.00  0.00     0.000 HD 
HETATM    8  C   UNL     1     -10.965   8.771  71.062  1.00  0.00    -0.328 C  
HETATM    9  C   UNL     1     -13.132   8.544  72.186  1.00  0.00    -0.358 C  
HETATM   10  C   UNL     1     -13.201   9.782  71.340  1.00  0.00    -0.482 C  
HETATM   11  O   UNL     1     -14.394   7.902  72.199  1.00  0.00    -0.549 OA 
HETATM   12  O   UNL     1     -11.723  10.838  69.837  1.00  0.00    -0.275 OA 
HETATM   13  H   UNL     1     -15.066   8.426  72.618  1.00  0.00     0.000 HD 
HETATM   14  C   UNL     1     -11.753  10.120  71.055  1.00  0.00    -0.382 C  
BRANCH   8  15
HETATM   15  C   UNL     1     -10.203   8.447  69.737  1.00  0.00    -0.207 C  
BRANCH  15  16
HETATM   16  C   UNL     1     -10.852   7.402  68.847  1.00  0.00    -0.088 C  
HETATM   17  C   UNL     1     -10.324   6.450  68.052  1.00  0.00    -0.234 C  
BRANCH  17  18
HETATM   18  C   UNL     1      -8.879   6.134  67.789  1.00  0.00    -0.110 C  
BRANCH  18  19
HETATM   19  C   UNL     1      -8.545   6.137  66.289  1.00  0.00    -0.136 C  
BRANCH  19  20
HETATM   20  C   UNL     1      -8.731   7.487  65.608  1.00  0.00    -0.105 C  
BRANCH  20  21
HETATM   21  C   UNL     1      -7.433   8.226  65.513  1.00  0.00    -0.077 C  
HETATM   22  O   UNL     1      -6.416   7.838  64.949  1.00  0.00    -0.044 OA 
BRANCH  21  23
HETATM   23  O   UNL     1      -7.525   9.342  66.285  1.00  0.00    -0.095 OA 
BRANCH  23  24
HETATM   24  C   UNL     1      -8.451  10.248  65.722  1.00  0.00    -0.157 C  
BRANCH  24  25
HETATM   25  C   UNL     1      -9.203  11.043  66.767  1.00  0.00    -0.174 C  
BRANCH  25  26
HETATM   26  C   UNL     1      -9.713  12.383  66.241  1.00  0.00    -0.253 C  
BRANCH  26  27
HETATM   27  C   UNL     1     -11.055  12.320  65.498  1.00  0.00    -0.307 C  
BRANCH  27  28
HETATM   28  O   UNL     1     -11.267  13.543  64.828  1.00  0.00    -0.325 OA 
HETATM   29  N   UNL     1     -12.434  13.525  64.028  1.00  0.00    -0.290 N  
HETATM   30  O   UNL     1     -12.587  14.570  63.391  1.00  0.00    -0.673 OA 
HETATM   31  O   UNL     1     -13.123  12.513  64.055  1.00  0.00    -0.741 OA 
ENDBRANCH  27  28
ENDBRANCH  26  27
ENDBRANCH  25  26
ENDBRANCH  24  25
ENDBRANCH  23  24
ENDBRANCH  21  23
ENDBRANCH  20  21
ENDBRANCH  19  20
ENDBRANCH  18  19
ENDBRANCH  17  18
ENDBRANCH  15  16
ENDBRANCH   8  15
ENDBRANCH   5   6
ENDBRANCH   4   5
ENDBRANCH   2   4
BRANCH   2  32
HETATM   32  C   UNL     1      -9.224   4.786  72.461  1.00  0.00    -0.146 C  
BRANCH  32  33
HETATM   33  C   UNL     1      -9.479   4.575  70.973  1.00  0.00    -0.229 C  
BRANCH  33  34
HETATM   34  C   UNL     1      -8.532   3.545  70.451  1.00  0.00    -0.093 A  
HETATM   35  C   UNL     1      -8.160   1.480  69.249  1.00  0.00    -0.059 A  
HETATM   36  C   UNL     1      -6.328   2.580  70.384  1.00  0.00    -0.024 A  
HETATM   37  C   UNL     1      -9.023   2.487  69.672  1.00  0.00    -0.166 A  
HETATM   38  C   UNL     1      -7.185   3.588  70.808  1.00  0.00    -0.033 A  
HETATM   39  C   UNL     1      -6.814   1.527  69.605  1.00  0.00    -0.033 A  
ENDBRANCH  33  34
ENDBRANCH  32  33
ENDBRANCH   2  32
TORSDOF 18
ENDMDL
MODEL      346
REMARK 921   NORMALIZED FREE ENERGY PREDICTED BY IDOCK:   -3.10 KCAL/MOL
REMARK 922        TOTAL FREE ENERGY PREDICTED BY IDOCK:  -11.15 KCAL/MOL
REMARK 923 INTER-LIGAND FREE ENERGY PREDICTED BY IDOCK:   -8.14 KCAL/MOL
REMARK 924 INTRA-LIGAND FREE ENERGY PREDICTED BY IDOCK:   -3.01 KCAL/MOL
REMARK 927      BINDING AFFINITY PREDICTED BY RF-SCORE:    0.00 PKD
ROOT
HETATM    1  O   UNL     1     -11.645   9.959  67.909  1.00  0.00    -0.583 OA 
HETATM    2  C   UNL     1     -10.694  10.912  68.381  1.00  0.00    -0.203 C  
HETATM    3  H   UNL     1     -12.133  10.318  67.178  1.00  0.00     0.000 HD 
ENDROOT
BRANCH   2   4
HETATM    4  C   UNL     1      -9.902  10.329  69.568  1.00  0.00    -0.244 C  
BRANCH   4   5
HETATM    5  C   UNL     1     -10.744   9.582  70.608  1.00  0.00    -0.375 C  
BRANCH   5   6
HETATM    6  C   UNL     1     -10.247   8.172  71.004  1.00  0.00    -0.221 C  
HETATM    7  H   UNL     1     -11.451   4.439  71.894  1.00  0.00     0.000 HD 
HETATM    8  C   UNL     1     -11.314   7.003  71.122  1.00  0.00    -0.319 C  
HETATM    9  C   UNL     1      -9.639   8.247  72.410  1.00  0.00    -0.294 C  
HETATM   10  C   UNL     1      -9.546   6.810  72.836  1.00  0.00    -0.167 C  
HETATM   11  O   UNL     1      -8.350   8.832  72.416  1.00  0.00    -0.387 OA 
HETATM   12  O   UNL     1     -10.628   4.821  72.179  1.00  0.00    -0.198 OA 
HETATM   13  H   UNL     1      -7.973   8.877  73.286  1.00  0.00     0.000 HD 
HETATM   14  C   UNL     1     -10.856   6.202  72.383  1.00  0.00    -0.243 C  
BRANCH   8  15
HETATM   15  C   UNL     1     -11.516   6.143  69.833  1.00  0.00    -0.371 C  
BRANCH  15  16
HETATM   16  C   UNL     1     -10.699   6.570  68.627  1.00  0.00    -0.323 C  
HETATM   17  C   UNL     1      -9.970   5.860  67.743  1.00  0.00    -0.156 C  
BRANCH  17  18
HETATM   18  C   UNL     1      -9.727   4.379  67.693  1.00  0.00    -0.198 C  
BRANCH  18  19
HETATM   19  C   UNL     1      -8.237   4.037  67.536  1.00  0.00    -0.094 C  
BRANCH  19  20
HETATM   20  C   UNL     1      -7.464   3.977  68.847  1.00  0.00    -0.055 C  
BRANCH  20  21
HETATM   21  C   UNL     1      -6.202   4.777  68.765  1.00  0.00    -0.031 C  
HETATM   22  O   UNL     1      -5.385   4.755  67.852  1.00  0.00    -0.010 OA 
BRANCH  21  23
HETATM   23  O   UNL     1      -6.039   5.431  69.948  1.00  0.00    -0.017 OA 
BRANCH  23  24
HETATM   24  C   UNL     1      -6.782   6.632  69.947  1.00  0.00    -0.050 C  
BRANCH  24  25
HETATM   25  C   UNL     1      -6.286   7.628  68.921  1.00  0.00    -0.035 C  
BRANCH  25  26
HETATM   26  C   UNL     1      -7.419   8.371  68.217  1.00  0.00    -0.096 C  
BRANCH  26  27
HETATM   27  C   UNL     1      -6.993   9.198  66.996  1.00  0.00    -0.081 C  
BRANCH  27  28
HETATM   28  O   UNL     1      -8.145   9.592  66.283  1.00  0.00    -0.110 OA 
HETATM   29  N   UNL     1      -8.287   8.895  65.060  1.00  0.00    -0.156 N  
HETATM   30  O   UNL     1      -9.257   9.283  64.404  1.00  0.00    -0.154 OA 
HETATM   31  O   UNL     1      -7.459   8.030  64.802  1.00  0.00    -0.081 OA 
ENDBRANCH  27  28
ENDBRANCH  26  27
ENDBRANCH  25  26
ENDBRANCH  24  25
ENDBRANCH  23  24
ENDBRANCH  21  23
ENDBRANCH  20  21
ENDBRANCH  19  20
ENDBRANCH  18  19
ENDBRANCH  17  18
ENDBRANCH  15  16
ENDBRANCH   8  15
ENDBRANCH   5   6
ENDBRANCH   4   5
ENDBRANCH   2   4
BRANCH   2  32
HETATM   32  C   UNL     1     -11.481  12.149  68.789  1.00  0.00    -0.359 C  
BRANCH  32  33
HETATM   33  C   UNL     1     -10.747  13.433  68.416  1.00  0.00    -0.271 C  
BRANCH  33  34
HETATM   34  C   UNL     1     -11.227  13.907  67.083  1.00  0.00    -0.328 A  
HETATM   35  C   UNL     1     -12.843  13.780  65.290  1.00  0.00    -0.430 A  
HETATM   36  C   UNL     1     -10.860  15.146  65.053  1.00  0.00    -0.457 A  
HETATM   37  C   UNL     1     -12.430  13.404  66.565  1.00  0.00    -0.255 A  
HETATM   38  C   UNL     1     -10.442  14.775  66.326  1.00  0.00    -0.300 A  
HETATM   39  C   UNL     1     -12.059  14.649  64.535  1.00  0.00    -0.490 A  
ENDBRANCH  33  34
ENDBRANCH  32  33
ENDBRANCH   2  32
TORSDOF 18
ENDMDL
MODEL      347
REMARK 921   NORMALIZED FREE ENERGY PREDICTED BY IDOCK:   -3.10 KCAL/MOL
REMARK 922        TOTAL FREE ENERGY PREDICTED BY IDOCK:  -11.15 KCAL/MOL
REMARK 923 INTER-LIGAND FREE ENERGY PREDICTED BY IDOCK:   -7.26 KCAL/MOL
REMARK 924 INTRA-LIGAND FREE ENERGY PREDICTED BY IDOCK:   -3.88 KCAL/MOL
REMARK 927      BINDING AFFINITY PREDICTED BY RF-SCORE:    0.00 PKD
ROOT
HETATM    1  O   UNL     1     -10.952  13.141  67.312  1.00  0.00    -0.260 OA 
HETATM    2  C   UNL     1     -11.249  11.878  66.718  1.00  0.00    -0.327 C  
HETATM    3  H   UNL     1     -11.080  13.838  66.679  1.00  0.00     0.000 HD 
ENDROOT
BRANCH   2   4
HETATM    4  C   UNL     1     -11.042  10.747  67.744  1.00  0.00    -0.381 C  
BRANCH   4   5
HETATM    5  C   UNL     1     -10.168  11.112  68.948  1.00  0.00    -0.209 C  
BRANCH   5   6
HETATM    6  C   UNL     1      -9.649   9.930  69.799  1.00  0.00    -0.261 C  
HETATM    7  H   UNL     1      -7.774   6.377  69.615  1.00  0.00     0.000 HD 
HETATM    8  C   UNL     1      -8.835   8.777  69.072  1.00  0.00    -0.137 C  
HETATM    9  C   UNL     1     -10.855   9.194  70.398  1.00  0.00    -0.242 C  
HETATM   10  C   UNL     1     -10.280   7.889  70.866  1.00  0.00    -0.213 C  
HETATM   11  O   UNL     1     -11.426   9.886  71.493  1.00  0.00    -0.365 OA 
HETATM   12  O   UNL     1      -8.356   6.641  70.318  1.00  0.00    -0.130 OA 
HETATM   13  H   UNL     1     -12.172   9.430  71.864  1.00  0.00     0.000 HD 
HETATM   14  C   UNL     1      -9.352   7.467  69.747  1.00  0.00    -0.150 C  
BRANCH   8  15
HETATM   15  C   UNL     1      -7.282   8.949  69.070  1.00  0.00    -0.072 C  
BRANCH  15  16
HETATM   16  C   UNL     1      -6.711   9.758  70.221  1.00  0.00    -0.111 C  
HETATM   17  C   UNL     1      -6.334  11.049  70.307  1.00  0.00    -0.120 C  
BRANCH  17  18
HETATM   18  C   UNL     1      -6.353  12.111  69.246  1.00  0.00    -0.103 C  
BRANCH  18  19
HETATM   19  C   UNL     1      -6.234  13.526  69.833  1.00  0.00    -0.108 C  
BRANCH  19  20
HETATM   20  C   UNL     1      -7.245  14.523  69.281  1.00  0.00    -0.131 C  
BRANCH  20  21
HETATM   21  C   UNL     1      -7.192  14.571  67.786  1.00  0.00    -0.177 C  
HETATM   22  O   UNL     1      -6.225  14.887  67.103  1.00  0.00    -0.249 OA 
BRANCH  21  23
HETATM   23  O   UNL     1      -8.447  14.342  67.311  1.00  0.00    -0.190 OA 
BRANCH  23  24
HETATM   24  C   UNL     1      -8.774  15.297  66.323  1.00  0.00    -0.153 C  
BRANCH  24  25
HETATM   25  C   UNL     1      -9.187  16.630  66.908  1.00  0.00    -0.245 C  
BRANCH  25  26
HETATM   26  C   UNL     1      -8.837  17.810  66.005  1.00  0.00    -0.022 C  
BRANCH  26  27
HETATM   27  C   UNL     1      -8.858  19.183  66.692  1.00  0.00    -0.324 C  
BRANCH  27  28
HETATM   28  O   UNL     1      -7.721  19.300  67.519  1.00  0.00    -0.244 OA 
HETATM   29  N   UNL     1      -8.059  19.421  68.888  1.00  0.00    -0.351 N  
HETATM   30  O   UNL     1      -7.071  19.589  69.606  1.00  0.00    -0.287 OA 
HETATM   31  O   UNL     1      -9.245  19.355  69.186  1.00  0.00    -0.323 OA 
ENDBRANCH  27  28
ENDBRANCH  26  27
ENDBRANCH  25  26
ENDBRANCH  24  25
ENDBRANCH  23  24
ENDBRANCH  21  23
ENDBRANCH  20  21
ENDBRANCH  19  20
ENDBRANCH  18  19
ENDBRANCH  17  18
ENDBRANCH  15  16
ENDBRANCH   8  15
ENDBRANCH   5   6
ENDBRANCH   4   5
ENDBRANCH   2   4
BRANCH   2  32
HETATM   32  C   UNL     1     -10.319  11.726  65.524  1.00  0.00    -0.304 C  
BRANCH  32  33
HETATM   33  C   UNL     1      -9.827  10.292  65.371  1.00  0.00    -0.362 C  
BRANCH  33  34
HETATM   34  C   UNL     1      -8.339  10.291  65.240  1.00  0.00    -0.165 A  
HETATM   35  C   UNL     1      -6.185  11.085  65.998  1.00  0.00    -0.075 A  
HETATM   36  C   UNL     1      -6.353   9.719  64.007  1.00  0.00    -0.118 A  
HETATM   37  C   UNL     1      -7.565  11.015  66.159  1.00  0.00    -0.084 A  
HETATM   38  C   UNL     1      -7.731   9.646  64.164  1.00  0.00    -0.129 A  
HETATM   39  C   UNL     1      -5.580  10.438  64.922  1.00  0.00    -0.143 A  
ENDBRANCH  33  34
ENDBRANCH  32  33
ENDBRANCH   2  32
TORSDOF 18
ENDMDL
MODEL      348
REMARK 921   NORMALIZED FREE ENERGY PREDICTED BY IDOCK:   -3.07 KCAL/MOL
REMARK 922        TOTAL FREE ENERGY PREDICTED BY IDOCK:  -11.09 KCAL/MOL
REMARK 923 INTER-LIGAND FREE ENERGY PREDICTED BY IDOCK:   -7.79 KCAL/MOL
REMARK 924 INTRA-LIGAND FREE ENERGY PREDICTED BY IDOCK:   -3.30 KCAL/MOL
REMARK 927      BINDING AFFINITY PREDICTED BY RF-SCORE:    0.00 PKD
ROOT
HETATM    1  O   UNL     1      -7.014   5.584  68.251  1.00  0.00    -0.058 OA 
HETATM    2  C   UNL     1      -8.207   5.602  67.470  1.00  0.00    -0.101 C  
HETATM    3  H   UNL     1      -6.703   4.692  68.353  1.00  0.00     0.000 HD 
ENDROOT
BRANCH   2   4
HETATM    4  C   UNL     1      -8.712   7.048  67.304  1.00  0.00    -0.120 C  
BRANCH   4   5
HETATM    5  C   UNL     1      -7.702   8.137  67.682  1.00  0.00    -0.102 C  
BRANCH   5   6
HETATM    6  C   UNL     1      -7.915   8.818  69.054  1.00  0.00    -0.111 C  
HETATM    7  H   UNL     1      -7.443   8.342  73.020  1.00  0.00     0.000 HD 
HETATM    8  C   UNL     1      -7.377   8.080  70.353  1.00  0.00    -0.063 C  
HETATM    9  C   UNL     1      -9.422   8.941  69.310  1.00  0.00    -0.161 C  
HETATM   10  C   UNL     1      -9.513   9.246  70.776  1.00  0.00    -0.336 C  
HETATM   11  O   UNL     1     -10.017   9.987  68.566  1.00  0.00    -0.154 OA 
HETATM   12  O   UNL     1      -8.079   8.924  72.620  1.00  0.00    -0.383 OA 
HETATM   13  H   UNL     1     -10.951  10.064  68.724  1.00  0.00     0.000 HD 
HETATM   14  C   UNL     1      -8.499   8.319  71.413  1.00  0.00    -0.138 C  
BRANCH   8  15
HETATM   15  C   UNL     1      -5.940   8.487  70.811  1.00  0.00    -0.033 C  
BRANCH  15  16
HETATM   16  C   UNL     1      -5.784   9.923  71.281  1.00  0.00    -0.054 C  
HETATM   17  C   UNL     1      -5.618  11.074  70.599  1.00  0.00    -0.132 C  
BRANCH  17  18
HETATM   18  C   UNL     1      -5.521  11.287  69.116  1.00  0.00    -0.040 C  
BRANCH  18  19
HETATM   19  C   UNL     1      -6.339  12.500  68.646  1.00  0.00    -0.073 C  
BRANCH  19  20
HETATM   20  C   UNL     1      -7.118  12.270  67.357  1.00  0.00    -0.151 C  
BRANCH  20  21
HETATM   21  C   UNL     1      -8.463  12.926  67.417  1.00  0.00    -0.196 C  
HETATM   22  O   UNL     1      -9.539  12.403  67.152  1.00  0.00    -0.198 OA 
BRANCH  21  23
HETATM   23  O   UNL     1      -8.277  14.249  67.677  1.00  0.00    -0.157 OA 
BRANCH  23  24
HETATM   24  C   UNL     1      -9.376  14.997  67.202  1.00  0.00    -0.215 C  
BRANCH  24  25
HETATM   25  C   UNL     1      -8.994  15.975  66.112  1.00  0.00    -0.381 C  
BRANCH  25  26
HETATM   26  C   UNL     1      -7.640  16.637  66.356  1.00  0.00    -0.297 C  
BRANCH  26  27
HETATM   27  C   UNL     1      -7.674  18.170  66.450  1.00  0.00    -0.261 C  
BRANCH  27  28
HETATM   28  O   UNL     1      -8.885  18.637  65.897  1.00  0.00    -0.475 OA 
HETATM   29  N   UNL     1      -9.648  19.386  66.824  1.00  0.00    -0.326 N  
HETATM   30  O   UNL     1     -10.736  19.741  66.363  1.00  0.00    -0.464 OA 
HETATM   31  O   UNL     1      -9.163  19.580  67.931  1.00  0.00    -0.312 OA 
ENDBRANCH  27  28
ENDBRANCH  26  27
ENDBRANCH  25  26
ENDBRANCH  24  25
ENDBRANCH  23  24
ENDBRANCH  21  23
ENDBRANCH  20  21
ENDBRANCH  19  20
ENDBRANCH  18  19
ENDBRANCH  17  18
ENDBRANCH  15  16
ENDBRANCH   8  15
ENDBRANCH   5   6
ENDBRANCH   4   5
ENDBRANCH   2   4
BRANCH   2  32
HETATM   32  C   UNL     1      -9.223   4.737  68.204  1.00  0.00    -0.155 C  
BRANCH  32  33
HETATM   33  C   UNL     1     -10.520   5.492  68.469  1.00  0.00    -0.234 C  
BRANCH  33  34
HETATM   34  C   UNL     1     -10.705   5.657  69.942  1.00  0.00    -0.399 A  
HETATM   35  C   UNL     1     -10.018   5.117  72.196  1.00  0.00    -0.238 A  
HETATM   36  C   UNL     1     -12.015   6.427  71.807  1.00  0.00    -0.370 A  
HETATM   37  C   UNL     1      -9.807   5.036  70.823  1.00  0.00    -0.279 A  
HETATM   38  C   UNL     1     -11.809   6.349  70.435  1.00  0.00    -0.303 A  
HETATM   39  C   UNL     1     -11.122   5.812  72.687  1.00  0.00    -0.325 A  
ENDBRANCH  33  34
ENDBRANCH  32  33
ENDBRANCH   2  32
TORSDOF 18
ENDMDL
MODEL      349
REMARK 921   NORMALIZED FREE ENERGY PREDICTED BY IDOCK:   -3.07 KCAL/MOL
REMARK 922        TOTAL FREE ENERGY PREDICTED BY IDOCK:  -11.08 KCAL/MOL
REMARK 923 INTER-LIGAND FREE ENERGY PREDICTED BY IDOCK:   -8.19 KCAL/MOL
REMARK 924 INTRA-LIGAND FREE ENERGY PREDICTED BY IDOCK:   -2.88 KCAL/MOL
REMARK 927      BINDING AFFINITY PREDICTED BY RF-SCORE:    0.00 PKD
ROOT
HETATM    1  O   UNL     1     -12.077  10.499  68.676  1.00  0.00    -0.775 OA 
HETATM    2  C   UNL     1     -11.574  11.833  68.621  1.00  0.00    -0.309 C  
HETATM    3  H   UNL     1     -13.021  10.509  68.785  1.00  0.00     0.000 HD 
ENDROOT
BRANCH   2   4
HETATM    4  C   UNL     1     -10.043  11.817  68.443  1.00  0.00    -0.201 C  
BRANCH   4   5
HETATM    5  C   UNL     1      -9.531  10.943  67.294  1.00  0.00    -0.176 C  
BRANCH   5   6
HETATM    6  C   UNL     1      -8.644   9.741  67.693  1.00  0.00    -0.125 C  
HETATM    7  H   UNL     1      -5.410   8.661  69.826  1.00  0.00     0.000 HD 
HETATM    8  C   UNL     1      -7.473   9.981  68.737  1.00  0.00    -0.081 C  
HETATM    9  C   UNL     1      -7.911   9.239  66.442  1.00  0.00    -0.103 C  
HETATM   10  C   UNL     1      -6.827   8.358  66.991  1.00  0.00    -0.070 C  
HETATM   11  O   UNL     1      -8.749   8.487  65.584  1.00  0.00    -0.166 OA 
HETATM   12  O   UNL     1      -5.747   8.179  69.079  1.00  0.00    -0.033 OA 
HETATM   13  H   UNL     1      -8.296   8.176  64.810  1.00  0.00     0.000 HD 
HETATM   14  C   UNL     1      -6.290   9.126  68.181  1.00  0.00    -0.055 C  
BRANCH   8  15
HETATM   15  C   UNL     1      -7.838   9.707  70.232  1.00  0.00    -0.193 C  
BRANCH  15  16
HETATM   16  C   UNL     1      -9.318   9.532  70.523  1.00  0.00    -0.296 C  
HETATM   17  C   UNL     1     -10.047   8.439  70.824  1.00  0.00    -0.226 C  
BRANCH  17  18
HETATM   18  C   UNL     1      -9.599   7.011  70.951  1.00  0.00    -0.167 C  
BRANCH  18  19
HETATM   19  C   UNL     1      -9.409   6.335  69.584  1.00  0.00    -0.150 C  
BRANCH  19  20
HETATM   20  C   UNL     1     -10.700   6.118  68.805  1.00  0.00    -0.370 C  
BRANCH  20  21
HETATM   21  C   UNL     1     -10.645   6.796  67.472  1.00  0.00    -0.279 C  
HETATM   22  O   UNL     1     -11.371   7.706  67.089  1.00  0.00     0.205 OA 
BRANCH  21  23
HETATM   23  O   UNL     1      -9.744   6.132  66.698  1.00  0.00    -0.154 OA 
BRANCH  23  24
HETATM   24  C   UNL     1     -10.374   5.059  66.029  1.00  0.00    -0.237 C  
BRANCH  24  25
HETATM   25  C   UNL     1      -9.727   3.724  66.324  1.00  0.00    -0.138 C  
BRANCH  25  26
HETATM   26  C   UNL     1      -8.748   3.285  65.238  1.00  0.00    -0.119 C  
BRANCH  26  27
HETATM   27  C   UNL     1      -7.264   3.480  65.583  1.00  0.00    -0.071 C  
BRANCH  27  28
HETATM   28  O   UNL     1      -6.739   4.516  64.783  1.00  0.00    -0.043 OA 
HETATM   29  N   UNL     1      -5.744   4.055  63.888  1.00  0.00    -0.013 N  
HETATM   30  O   UNL     1      -5.237   4.969  63.233  1.00  0.00    -0.009 OA 
HETATM   31  O   UNL     1      -5.508   2.854  63.875  1.00  0.00    -0.008 OA 
ENDBRANCH  27  28
ENDBRANCH  26  27
ENDBRANCH  25  26
ENDBRANCH  24  25
ENDBRANCH  23  24
ENDBRANCH  21  23
ENDBRANCH  20  21
ENDBRANCH  19  20
ENDBRANCH  18  19
ENDBRANCH  17  18
ENDBRANCH  15  16
ENDBRANCH   8  15
ENDBRANCH   5   6
ENDBRANCH   4   5
ENDBRANCH   2   4
BRANCH   2  32
HETATM   32  C   UNL     1     -11.978  12.506  69.925  1.00  0.00    -0.371 C  
BRANCH  32  33
HETATM   33  C   UNL     1     -11.591  13.980  69.941  1.00  0.00    -0.320 C  
BRANCH  33  34
HETATM   34  C   UNL     1     -12.182  14.632  71.148  1.00  0.00    -0.405 A  
HETATM   35  C   UNL     1     -14.134  15.397  72.353  1.00  0.00    -0.645 A  
HETATM   36  C   UNL     1     -11.915  15.899  73.177  1.00  0.00    -0.572 A  
HETATM   37  C   UNL     1     -13.577  14.720  71.272  1.00  0.00    -0.480 A  
HETATM   38  C   UNL     1     -11.353  15.224  72.100  1.00  0.00    -0.414 A  
HETATM   39  C   UNL     1     -13.303  15.985  73.304  1.00  0.00    -0.625 A  
ENDBRANCH  33  34
ENDBRANCH  32  33
ENDBRANCH   2  32
TORSDOF 18
ENDMDL
MODEL      350
REMARK 921   NORMALIZED FREE ENERGY PREDICTED BY IDOCK:   -3.06 KCAL/MOL
REMARK 922        TOTAL FREE ENERGY PREDICTED BY IDOCK:  -11.07 KCAL/MOL
REMARK 923 INTER-LIGAND FREE ENERGY PREDICTED BY IDOCK:   -8.27 KCAL/MOL
REMARK 924 INTRA-LIGAND FREE ENERGY PREDICTED BY IDOCK:   -2.80 KCAL/MOL
REMARK 927      BINDING AFFINITY PREDICTED BY RF-SCORE:    0.00 PKD
ROOT
HETATM    1  O   UNL     1      -9.648   5.687  67.983  1.00  0.00    -0.114 OA 
HETATM    2  C   UNL     1      -9.194   6.960  67.528  1.00  0.00    -0.123 C  
HETATM    3  H   UNL     1      -9.909   5.150  67.245  1.00  0.00     0.000 HD 
ENDROOT
BRANCH   2   4
HETATM    4  C   UNL     1      -8.769   7.832  68.726  1.00  0.00    -0.128 C  
BRANCH   4   5
HETATM    5  C   UNL     1      -7.257   7.945  68.945  1.00  0.00    -0.076 C  
BRANCH   5   6
HETATM    6  C   UNL     1      -6.750   7.641  70.374  1.00  0.00    -0.042 C  
HETATM    7  H   UNL     1      -7.610   5.671  73.773  1.00  0.00     0.000 HD 
HETATM    8  C   UNL     1      -7.575   6.620  71.267  1.00  0.00    -0.093 C  
HETATM    9  C   UNL     1      -6.784   8.940  71.190  1.00  0.00    -0.081 C  
HETATM   10  C   UNL     1      -6.649   8.474  72.611  1.00  0.00    -0.084 C  
HETATM   11  O   UNL     1      -5.717   9.813  70.869  1.00  0.00    -0.064 OA 
HETATM   12  O   UNL     1      -7.045   6.433  73.722  1.00  0.00    -0.082 OA 
HETATM   13  H   UNL     1      -5.739  10.617  71.375  1.00  0.00     0.000 HD 
HETATM   14  C   UNL     1      -7.549   7.259  72.692  1.00  0.00    -0.083 C  
BRANCH   8  15
HETATM   15  C   UNL     1      -7.099   5.134  71.203  1.00  0.00    -0.063 C  
BRANCH  15  16
HETATM   16  C   UNL     1      -8.182   4.111  70.909  1.00  0.00    -0.077 C  
HETATM   17  C   UNL     1      -9.501   4.101  71.183  1.00  0.00    -0.234 C  
BRANCH  17  18
HETATM   18  C   UNL     1     -10.324   5.133  71.901  1.00  0.00    -0.275 C  
BRANCH  18  19
HETATM   19  C   UNL     1     -11.262   5.895  70.951  1.00  0.00    -0.278 C  
BRANCH  19  20
HETATM   20  C   UNL     1     -11.159   7.412  71.051  1.00  0.00    -0.277 C  
BRANCH  20  21
HETATM   21  C   UNL     1     -11.876   7.920  72.264  1.00  0.00    -0.352 C  
HETATM   22  O   UNL     1     -11.459   7.901  73.415  1.00  0.00    -0.211 OA 
BRANCH  21  23
HETATM   23  O   UNL     1     -13.135   8.278  71.891  1.00  0.00    -0.329 OA 
BRANCH  23  24
HETATM   24  C   UNL     1     -13.305   9.674  72.029  1.00  0.00    -0.457 C  
BRANCH  24  25
HETATM   25  C   UNL     1     -13.246  10.406  70.706  1.00  0.00    -0.266 C  
BRANCH  25  26
HETATM   26  C   UNL     1     -12.037  11.331  70.592  1.00  0.00    -0.480 C  
BRANCH  26  27
HETATM   27  C   UNL     1     -11.223  11.180  69.300  1.00  0.00    -0.267 C  
BRANCH  27  28
HETATM   28  O   UNL     1     -12.069  11.406  68.194  1.00  0.00    -0.623 OA 
HETATM   29  N   UNL     1     -11.533  12.353  67.289  1.00  0.00    -0.332 N  
HETATM   30  O   UNL     1     -12.299  12.601  66.355  1.00  0.00    -0.521 OA 
HETATM   31  O   UNL     1     -10.420  12.801  67.533  1.00  0.00    -0.216 OA 
ENDBRANCH  27  28
ENDBRANCH  26  27
ENDBRANCH  25  26
ENDBRANCH  24  25
ENDBRANCH  23  24
ENDBRANCH  21  23
ENDBRANCH  20  21
ENDBRANCH  19  20
ENDBRANCH  18  19
ENDBRANCH  17  18
ENDBRANCH  15  16
ENDBRANCH   8  15
ENDBRANCH   5   6
ENDBRANCH   4   5
ENDBRANCH   2   4
BRANCH   2  32
HETATM   32  C   UNL     1     -10.349   7.589  66.763  1.00  0.00    -0.332 C  
BRANCH  32  33
HETATM   33  C   UNL     1     -10.174   9.095  66.612  1.00  0.00    -0.328 C  
BRANCH  33  34
HETATM   34  C   UNL     1      -9.524   9.388  65.300  1.00  0.00    -0.296 A  
HETATM   35  C   UNL     1      -7.873   8.825  63.625  1.00  0.00    -0.145 A  
HETATM   36  C   UNL     1      -9.161  10.865  63.434  1.00  0.00    -0.276 A  
HETATM   37  C   UNL     1      -8.541   8.517  64.807  1.00  0.00    -0.106 A  
HETATM   38  C   UNL     1      -9.831  10.562  64.614  1.00  0.00    -0.404 A  
HETATM   39  C   UNL     1      -8.184   9.998  62.940  1.00  0.00    -0.153 A  
ENDBRANCH  33  34
ENDBRANCH  32  33
ENDBRANCH   2  32
TORSDOF 18
ENDMDL
MODEL      351
REMARK 921   NORMALIZED FREE ENERGY PREDICTED BY IDOCK:   -3.05 KCAL/MOL
REMARK 922        TOTAL FREE ENERGY PREDICTED BY IDOCK:  -11.03 KCAL/MOL
REMARK 923 INTER-LIGAND FREE ENERGY PREDICTED BY IDOCK:   -8.26 KCAL/MOL
REMARK 924 INTRA-LIGAND FREE ENERGY PREDICTED BY IDOCK:   -2.77 KCAL/MOL
REMARK 927      BINDING AFFINITY PREDICTED BY RF-SCORE:    0.00 PKD
ROOT
HETATM    1  O   UNL     1      -8.593   9.225  65.079  1.00  0.00    -0.156 OA 
HETATM    2  C   UNL     1      -8.377   8.563  66.324  1.00  0.00    -0.116 C  
HETATM    3  H   UNL     1      -9.063   8.655  64.482  1.00  0.00     0.000 HD 
ENDROOT
BRANCH   2   4
HETATM    4  C   UNL     1      -7.615   9.488  67.293  1.00  0.00    -0.091 C  
BRANCH   4   5
HETATM    5  C   UNL     1      -7.900   9.249  68.779  1.00  0.00    -0.088 C  
BRANCH   5   6
HETATM    6  C   UNL     1      -9.389   9.234  69.195  1.00  0.00    -0.157 C  
HETATM    7  H   UNL     1     -12.759  11.428  69.277  1.00  0.00     0.000 HD 
HETATM    8  C   UNL     1     -10.287  10.491  68.832  1.00  0.00    -0.226 C  
HETATM    9  C   UNL     1      -9.467   9.168  70.726  1.00  0.00    -0.272 C  
HETATM   10  C   UNL     1     -10.890   9.537  71.028  1.00  0.00    -0.423 C  
HETATM   11  O   UNL     1      -9.190   7.875  71.231  1.00  0.00    -0.142 OA 
HETATM   12  O   UNL     1     -12.576  10.702  69.862  1.00  0.00    -0.277 OA 
HETATM   13  H   UNL     1      -9.238   7.834  72.179  1.00  0.00     0.000 HD 
HETATM   14  C   UNL     1     -11.182  10.694  70.096  1.00  0.00    -0.302 C  
BRANCH   8  15
HETATM   15  C   UNL     1     -11.067  10.393  67.481  1.00  0.00    -0.336 C  
BRANCH  15  16
HETATM   16  C   UNL     1     -11.312  11.710  66.769  1.00  0.00    -0.354 C  
HETATM   17  C   UNL     1     -10.509  12.770  66.544  1.00  0.00    -0.276 C  
BRANCH  17  18
HETATM   18  C   UNL     1      -9.081  12.977  66.961  1.00  0.00    -0.230 C  
BRANCH  18  19
HETATM   19  C   UNL     1      -8.815  14.412  67.441  1.00  0.00    -0.211 C  
BRANCH  19  20
HETATM   20  C   UNL     1      -7.343  14.742  67.651  1.00  0.00    -0.206 C  
BRANCH  20  21
HETATM   21  C   UNL     1      -7.028  14.894  69.107  1.00  0.00    -0.139 C  
HETATM   22  O   UNL     1      -6.672  14.005  69.869  1.00  0.00    -0.096 OA 
BRANCH  21  23
HETATM   23  O   UNL     1      -7.344  16.165  69.477  1.00  0.00    -0.220 OA 
BRANCH  23  24
HETATM   24  C   UNL     1      -6.993  17.072  68.452  1.00  0.00    -0.180 C  
BRANCH  24  25
HETATM   25  C   UNL     1      -7.086  18.517  68.891  1.00  0.00    -0.302 C  
BRANCH  25  26
HETATM   26  C   UNL     1      -7.495  19.457  67.759  1.00  0.00    -0.296 C  
BRANCH  26  27
HETATM   27  C   UNL     1      -7.894  18.761  66.450  1.00  0.00    -0.278 C  
BRANCH  27  28
HETATM   28  O   UNL     1      -8.924  19.501  65.831  1.00  0.00    -0.406 OA 
HETATM   29  N   UNL     1     -10.196  18.909  66.012  1.00  0.00    -0.421 N  
HETATM   30  O   UNL     1     -11.089  19.518  65.418  1.00  0.00    -0.415 OA 
HETATM   31  O   UNL     1     -10.258  17.899  66.701  1.00  0.00    -0.339 OA 
ENDBRANCH  27  28
ENDBRANCH  26  27
ENDBRANCH  25  26
ENDBRANCH  24  25
ENDBRANCH  23  24
ENDBRANCH  21  23
ENDBRANCH  20  21
ENDBRANCH  19  20
ENDBRANCH  18  19
ENDBRANCH  17  18
ENDBRANCH  15  16
ENDBRANCH   8  15
ENDBRANCH   5   6
ENDBRANCH   4   5
ENDBRANCH   2   4
BRANCH   2  32
HETATM   32  C   UNL     1      -7.584   7.301  66.017  1.00  0.00    -0.089 C  
BRANCH  32  33
HETATM   33  C   UNL     1      -8.497   6.098  65.808  1.00  0.00    -0.147 C  
BRANCH  33  34
HETATM   34  C   UNL     1      -9.385   5.939  66.998  1.00  0.00    -0.125 A  
HETATM   35  C   UNL     1     -11.499   6.371  68.088  1.00  0.00     0.154 A  
HETATM   36  C   UNL     1      -9.697   5.301  69.298  1.00  0.00    -0.235 A  
HETATM   37  C   UNL     1     -10.692   6.444  66.956  1.00  0.00    -0.434 A  
HETATM   38  C   UNL     1      -8.888   5.370  68.170  1.00  0.00    -0.105 A  
HETATM   39  C   UNL     1     -11.001   5.800  69.257  1.00  0.00    -0.330 A  
ENDBRANCH  33  34
ENDBRANCH  32  33
ENDBRANCH   2  32
TORSDOF 18
ENDMDL
MODEL      352
REMARK 921   NORMALIZED FREE ENERGY PREDICTED BY IDOCK:   -3.04 KCAL/MOL
REMARK 922        TOTAL FREE ENERGY PREDICTED BY IDOCK:  -11.03 KCAL/MOL
REMARK 923 INTER-LIGAND FREE ENERGY PREDICTED BY IDOCK:   -8.60 KCAL/MOL
REMARK 924 INTRA-LIGAND FREE ENERGY PREDICTED BY IDOCK:   -2.42 KCAL/MOL
REMARK 927      BINDING AFFINITY PREDICTED BY RF-SCORE:    0.00 PKD
ROOT
HETATM    1  O   UNL     1      -9.336  16.490  66.952  1.00  0.00    -0.219 OA 
HETATM    2  C   UNL     1      -9.873  15.334  67.592  1.00  0.00    -0.217 C  
HETATM    3  H   UNL     1      -8.635  16.859  67.476  1.00  0.00     0.000 HD 
ENDROOT
BRANCH   2   4
HETATM    4  C   UNL     1     -11.010  14.735  66.740  1.00  0.00    -0.327 C  
BRANCH   4   5
HETATM    5  C   UNL     1     -11.781  13.587  67.400  1.00  0.00    -0.419 C  
BRANCH   5   6
HETATM    6  C   UNL     1     -11.496  12.170  66.851  1.00  0.00    -0.414 C  
HETATM    7  H   UNL     1      -8.634   9.382  66.393  1.00  0.00     0.000 HD 
HETATM    8  C   UNL     1     -10.057  11.543  67.091  1.00  0.00    -0.223 C  
HETATM    9  C   UNL     1     -11.623  12.204  65.323  1.00  0.00    -0.322 C  
HETATM   10  C   UNL     1     -10.972  10.926  64.881  1.00  0.00    -0.038 C  
HETATM   11  O   UNL     1     -12.969  12.230  64.888  1.00  0.00    -0.662 OA 
HETATM   12  O   UNL     1      -9.412   9.448  65.851  1.00  0.00    -0.211 OA 
HETATM   13  H   UNL     1     -13.048  12.252  63.942  1.00  0.00     0.000 HD 
HETATM   14  C   UNL     1      -9.732  10.820  65.744  1.00  0.00    -0.228 C  
BRANCH   8  15
HETATM   15  C   UNL     1      -9.915  10.653  68.367  1.00  0.00    -0.176 C  
BRANCH  15  16
HETATM   16  C   UNL     1     -11.213  10.098  68.926  1.00  0.00    -0.220 C  
HETATM   17  C   UNL     1     -11.575   9.761  70.180  1.00  0.00    -0.239 C  
BRANCH  17  18
HETATM   18  C   UNL     1     -10.768   9.824  71.446  1.00  0.00    -0.091 C  
BRANCH  18  19
HETATM   19  C   UNL     1     -10.230   8.447  71.864  1.00  0.00    -0.340 C  
BRANCH  19  20
HETATM   20  C   UNL     1     -11.287   7.503  72.423  1.00  0.00    -0.360 C  
BRANCH  20  21
HETATM   21  C   UNL     1     -11.313   6.214  71.664  1.00  0.00    -0.284 C  
HETATM   22  O   UNL     1     -10.813   6.008  70.565  1.00  0.00    -0.272 OA 
BRANCH  21  23
HETATM   23  O   UNL     1     -12.115   5.344  72.336  1.00  0.00    -0.067 OA 
BRANCH  23  24
HETATM   24  C   UNL     1     -11.363   4.632  73.297  1.00  0.00    -0.304 C  
BRANCH  24  25
HETATM   25  C   UNL     1     -10.881   3.291  72.789  1.00  0.00    -0.050 C  
BRANCH  25  26
HETATM   26  C   UNL     1      -9.362   3.146  72.845  1.00  0.00    -0.128 C  
BRANCH  26  27
HETATM   27  C   UNL     1      -8.686   3.845  74.033  1.00  0.00    -0.092 C  
BRANCH  27  28
HETATM   28  O   UNL     1      -8.064   5.026  73.578  1.00  0.00    -0.106 OA 
HETATM   29  N   UNL     1      -6.672   5.037  73.834  1.00  0.00    -0.069 N  
HETATM   30  O   UNL     1      -6.137   6.095  73.496  1.00  0.00    -0.059 OA 
HETATM   31  O   UNL     1      -6.184   4.038  74.348  1.00  0.00    -0.033 OA 
ENDBRANCH  27  28
ENDBRANCH  26  27
ENDBRANCH  25  26
ENDBRANCH  24  25
ENDBRANCH  23  24
ENDBRANCH  21  23
ENDBRANCH  20  21
ENDBRANCH  19  20
ENDBRANCH  18  19
ENDBRANCH  17  18
ENDBRANCH  15  16
ENDBRANCH   8  15
ENDBRANCH   5   6
ENDBRANCH   4   5
ENDBRANCH   2   4
BRANCH   2  32
HETATM   32  C   UNL     1     -10.375  15.783  68.956  1.00  0.00    -0.223 C  
BRANCH  32  33
HETATM   33  C   UNL     1     -10.175  14.704  70.014  1.00  0.00     0.254 C  
BRANCH  33  34
HETATM   34  C   UNL     1     -11.254  14.813  71.041  1.00  0.00    -0.118 A  
HETATM   35  C   UNL     1     -12.125  15.857  73.041  1.00  0.00    -0.615 A  
HETATM   36  C   UNL     1     -13.250  13.947  72.070  1.00  0.00    -0.503 A  
HETATM   37  C   UNL     1     -11.165  15.800  72.034  1.00  0.00    -0.181 A  
HETATM   38  C   UNL     1     -12.295  13.886  71.062  1.00  0.00    -0.453 A  
HETATM   39  C   UNL     1     -13.166  14.931  73.058  1.00  0.00    -0.596 A  
ENDBRANCH  33  34
ENDBRANCH  32  33
ENDBRANCH   2  32
TORSDOF 18
ENDMDL
MODEL      353
REMARK 921   NORMALIZED FREE ENERGY PREDICTED BY IDOCK:   -3.04 KCAL/MOL
REMARK 922        TOTAL FREE ENERGY PREDICTED BY IDOCK:  -11.02 KCAL/MOL
REMARK 923 INTER-LIGAND FREE ENERGY PREDICTED BY IDOCK:   -9.68 KCAL/MOL
REMARK 924 INTRA-LIGAND FREE ENERGY PREDICTED BY IDOCK:   -1.35 KCAL/MOL
REMARK 927      BINDING AFFINITY PREDICTED BY RF-SCORE:    0.00 PKD
ROOT
HETATM    1  O   UNL     1      -6.864  17.093  65.894  1.00  0.00    -0.120 OA 
HETATM    2  C   UNL     1      -7.407  16.122  66.786  1.00  0.00    -0.185 C  
HETATM    3  H   UNL     1      -5.941  17.228  66.078  1.00  0.00     0.000 HD 
ENDROOT
BRANCH   2   4
HETATM    4  C   UNL     1      -8.904  15.905  66.488  1.00  0.00    -0.340 C  
BRANCH   4   5
HETATM    5  C   UNL     1      -9.329  14.441  66.328  1.00  0.00    -0.261 C  
BRANCH   5   6
HETATM    6  C   UNL     1     -10.792  14.199  65.891  1.00  0.00    -0.294 C  
HETATM    7  H   UNL     1     -13.491  11.346  65.026  1.00  0.00     0.000 HD 
HETATM    8  C   UNL     1     -11.320  12.704  65.817  1.00  0.00    -0.370 C  
HETATM    9  C   UNL     1     -10.964  14.712  64.455  1.00  0.00    -0.231 C  
HETATM   10  C   UNL     1     -12.260  14.100  64.010  1.00  0.00    -0.369 C  
HETATM   11  O   UNL     1     -11.052  16.123  64.388  1.00  0.00    -0.919 OA 
HETATM   12  O   UNL     1     -13.530  12.238  64.702  1.00  0.00    -0.620 OA 
HETATM   13  H   UNL     1     -11.159  16.440  63.499  1.00  0.00     0.000 HD 
HETATM   14  C   UNL     1     -12.198  12.678  64.525  1.00  0.00    -0.443 C  
BRANCH   8  15
HETATM   15  C   UNL     1     -12.028  12.176  67.106  1.00  0.00    -0.149 C  
BRANCH  15  16
HETATM   16  C   UNL     1     -11.207  12.249  68.381  1.00  0.00    -0.311 C  
HETATM   17  C   UNL     1     -10.175  11.504  68.825  1.00  0.00    -0.204 C  
BRANCH  17  18
HETATM   18  C   UNL     1      -9.511  10.325  68.172  1.00  0.00    -0.155 C  
BRANCH  18  19
HETATM   19  C   UNL     1      -8.060  10.624  67.765  1.00  0.00    -0.111 C  
BRANCH  19  20
HETATM   20  C   UNL     1      -7.412   9.542  66.911  1.00  0.00    -0.094 C  
BRANCH  20  21
HETATM   21  C   UNL     1      -8.127   9.387  65.605  1.00  0.00    -0.112 C  
HETATM   22  O   UNL     1      -8.915  10.183  65.109  1.00  0.00    -0.166 OA 
BRANCH  21  23
HETATM   23  O   UNL     1      -7.866   8.140  65.126  1.00  0.00    -0.103 OA 
BRANCH  23  24
HETATM   24  C   UNL     1      -7.986   7.186  66.160  1.00  0.00    -0.112 C  
BRANCH  24  25
HETATM   25  C   UNL     1      -9.272   6.392  66.080  1.00  0.00    -0.087 C  
BRANCH  25  26
HETATM   26  C   UNL     1     -10.109   6.487  67.353  1.00  0.00    -0.205 C  
BRANCH  26  27
HETATM   27  C   UNL     1      -9.302   6.606  68.654  1.00  0.00    -0.129 C  
BRANCH  27  28
HETATM   28  O   UNL     1     -10.091   7.254  69.627  1.00  0.00    -0.187 OA 
HETATM   29  N   UNL     1     -10.170   6.521  70.835  1.00  0.00    -0.189 N  
HETATM   30  O   UNL     1     -10.911   7.054  71.664  1.00  0.00    -0.227 OA 
HETATM   31  O   UNL     1      -9.525   5.483  70.909  1.00  0.00    -0.159 OA 
ENDBRANCH  27  28
ENDBRANCH  26  27
ENDBRANCH  25  26
ENDBRANCH  24  25
ENDBRANCH  23  24
ENDBRANCH  21  23
ENDBRANCH  20  21
ENDBRANCH  19  20
ENDBRANCH  18  19
ENDBRANCH  17  18
ENDBRANCH  15  16
ENDBRANCH   8  15
ENDBRANCH   5   6
ENDBRANCH   4   5
ENDBRANCH   2   4
BRANCH   2  32
HETATM   32  C   UNL     1      -7.191  16.654  68.196  1.00  0.00    -0.160 C  
BRANCH  32  33
HETATM   33  C   UNL     1      -8.505  17.060  68.854  1.00  0.00    -0.193 C  
BRANCH  33  34
HETATM   34  C   UNL     1      -9.013  18.310  68.214  1.00  0.00    -0.318 A  
HETATM   35  C   UNL     1     -10.719  19.444  66.931  1.00  0.00    -0.570 A  
HETATM   36  C   UNL     1      -8.653  20.575  67.485  1.00  0.00    -0.320 A  
HETATM   37  C   UNL     1     -10.273  18.307  67.599  1.00  0.00    -0.397 A  
HETATM   38  C   UNL     1      -8.203  19.443  68.154  1.00  0.00    -0.359 A  
HETATM   39  C   UNL     1      -9.910  20.577  66.874  1.00  0.00    -0.506 A  
ENDBRANCH  33  34
ENDBRANCH  32  33
ENDBRANCH   2  32
TORSDOF 18
ENDMDL
MODEL      354
REMARK 921   NORMALIZED FREE ENERGY PREDICTED BY IDOCK:   -3.02 KCAL/MOL
REMARK 922        TOTAL FREE ENERGY PREDICTED BY IDOCK:  -10.97 KCAL/MOL
REMARK 923 INTER-LIGAND FREE ENERGY PREDICTED BY IDOCK:   -7.66 KCAL/MOL
REMARK 924 INTRA-LIGAND FREE ENERGY PREDICTED BY IDOCK:   -3.31 KCAL/MOL
REMARK 927      BINDING AFFINITY PREDICTED BY RF-SCORE:    0.00 PKD
ROOT
HETATM    1  O   UNL     1     -11.499  15.871  68.828  1.00  0.00    -0.357 OA 
HETATM    2  C   UNL     1     -11.700  14.671  68.083  1.00  0.00    -0.330 C  
HETATM    3  H   UNL     1     -12.269  16.425  68.771  1.00  0.00     0.000 HD 
ENDROOT
BRANCH   2   4
HETATM    4  C   UNL     1     -10.452  13.773  68.176  1.00  0.00    -0.252 C  
BRANCH   4   5
HETATM    5  C   UNL     1      -9.165  14.488  68.600  1.00  0.00    -0.192 C  
BRANCH   5   6
HETATM    6  C   UNL     1      -7.853  13.686  68.439  1.00  0.00    -0.140 C  
HETATM    7  H   UNL     1      -6.265   9.994  68.602  1.00  0.00     0.000 HD 
HETATM    8  C   UNL     1      -7.918  12.103  68.543  1.00  0.00    -0.119 C  
HETATM    9  C   UNL     1      -6.898  14.081  69.573  1.00  0.00    -0.052 C  
HETATM   10  C   UNL     1      -5.851  13.005  69.550  1.00  0.00    -0.103 C  
HETATM   11  O   UNL     1      -6.292  15.342  69.361  1.00  0.00    -0.118 OA 
HETATM   12  O   UNL     1      -5.773  10.797  68.726  1.00  0.00    -0.041 OA 
HETATM   13  H   UNL     1      -5.700  15.587  70.063  1.00  0.00     0.000 HD 
HETATM   14  C   UNL     1      -6.637  11.725  69.352  1.00  0.00    -0.113 C  
BRANCH   8  15
HETATM   15  C   UNL     1      -8.089  11.347  67.187  1.00  0.00    -0.155 C  
BRANCH  15  16
HETATM   16  C   UNL     1      -9.420  10.643  66.992  1.00  0.00    -0.187 C  
HETATM   17  C   UNL     1      -9.737   9.479  66.390  1.00  0.00    -0.295 C  
BRANCH  17  18
HETATM   18  C   UNL     1      -8.836   8.502  65.691  1.00  0.00    -0.214 C  
BRANCH  18  19
HETATM   19  C   UNL     1      -9.106   7.051  66.119  1.00  0.00    -0.149 C  
BRANCH  19  20
HETATM   20  C   UNL     1      -7.860   6.275  66.530  1.00  0.00    -0.104 C  
BRANCH  20  21
HETATM   21  C   UNL     1      -7.897   5.931  67.986  1.00  0.00    -0.104 C  
HETATM   22  O   UNL     1      -8.442   4.955  68.489  1.00  0.00    -0.094 OA 
BRANCH  21  23
HETATM   23  O   UNL     1      -7.343   6.963  68.679  1.00  0.00    -0.088 OA 
BRANCH  23  24
HETATM   24  C   UNL     1      -8.022   7.147  69.904  1.00  0.00    -0.122 C  
BRANCH  24  25
HETATM   25  C   UNL     1      -9.197   8.093  69.787  1.00  0.00    -0.151 C  
BRANCH  25  26
HETATM   26  C   UNL     1      -9.283   9.080  70.949  1.00  0.00    -0.320 C  
BRANCH  26  27
HETATM   27  C   UNL     1     -10.245   8.675  72.076  1.00  0.00    -0.337 C  
BRANCH  27  28
HETATM   28  O   UNL     1     -11.239   7.825  71.547  1.00  0.00    -0.238 OA 
HETATM   29  N   UNL     1     -12.538   8.372  71.673  1.00  0.00    -0.321 N  
HETATM   30  O   UNL     1     -13.416   7.604  71.271  1.00  0.00    -0.304 OA 
HETATM   31  O   UNL     1     -12.636   9.494  72.154  1.00  0.00    -0.370 OA 
ENDBRANCH  27  28
ENDBRANCH  26  27
ENDBRANCH  25  26
ENDBRANCH  24  25
ENDBRANCH  23  24
ENDBRANCH  21  23
ENDBRANCH  20  21
ENDBRANCH  19  20
ENDBRANCH  18  19
ENDBRANCH  17  18
ENDBRANCH  15  16
ENDBRANCH   8  15
ENDBRANCH   5   6
ENDBRANCH   4   5
ENDBRANCH   2   4
BRANCH   2  32
HETATM   32  C   UNL     1     -11.982  15.090  66.647  1.00  0.00     0.019 C  
BRANCH  32  33
HETATM   33  C   UNL     1     -10.802  14.789  65.730  1.00  0.00    -0.334 C  
BRANCH  33  34
HETATM   34  C   UNL     1     -11.113  13.585  64.904  1.00  0.00    -0.356 A  
HETATM   35  C   UNL     1     -10.344  11.760  63.517  1.00  0.00    -0.490 A  
HETATM   36  C   UNL     1     -12.712  12.185  63.775  1.00  0.00    -0.525 A  
HETATM   37  C   UNL     1     -10.062  12.836  64.354  1.00  0.00    -0.275 A  
HETATM   38  C   UNL     1     -12.436  13.260  64.611  1.00  0.00    -0.408 A  
HETATM   39  C   UNL     1     -11.668  11.436  63.228  1.00  0.00     0.074 A  
ENDBRANCH  33  34
ENDBRANCH  32  33
ENDBRANCH   2  32
TORSDOF 18
ENDMDL
MODEL      355
REMARK 921   NORMALIZED FREE ENERGY PREDICTED BY IDOCK:   -3.00 KCAL/MOL
REMARK 922        TOTAL FREE ENERGY PREDICTED BY IDOCK:  -10.95 KCAL/MOL
REMARK 923 INTER-LIGAND FREE ENERGY PREDICTED BY IDOCK:   -8.05 KCAL/MOL
REMARK 924 INTRA-LIGAND FREE ENERGY PREDICTED BY IDOCK:   -2.90 KCAL/MOL
REMARK 927      BINDING AFFINITY PREDICTED BY RF-SCORE:    0.00 PKD
ROOT
HETATM    1  O   UNL     1     -12.900   7.320  70.641  1.00  0.00    -0.604 OA 
HETATM    2  C   UNL     1     -11.488   7.136  70.562  1.00  0.00    -0.295 C  
HETATM    3  H   UNL     1     -13.335   6.481  70.744  1.00  0.00     0.000 HD 
ENDROOT
BRANCH   2   4
HETATM    4  C   UNL     1     -10.783   8.496  70.395  1.00  0.00    -0.246 C  
BRANCH   4   5
HETATM    5  C   UNL     1     -10.035   8.997  71.635  1.00  0.00    -0.383 C  
BRANCH   5   6
HETATM    6  C   UNL     1      -8.615   8.425  71.853  1.00  0.00    -0.248 C  
HETATM    7  H   UNL     1      -5.930   5.782  70.446  1.00  0.00     0.000 HD 
HETATM    8  C   UNL     1      -8.052   7.381  70.798  1.00  0.00    -0.110 C  
HETATM    9  C   UNL     1      -8.601   7.645  73.173  1.00  0.00    -0.165 C  
HETATM   10  C   UNL     1      -7.337   6.838  73.099  1.00  0.00    -0.075 C  
HETATM   11  O   UNL     1      -8.562   8.492  74.307  1.00  0.00    -0.326 OA 
HETATM   12  O   UNL     1      -5.950   6.104  71.340  1.00  0.00    -0.029 OA 
HETATM   13  H   UNL     1      -8.554   8.008  75.124  1.00  0.00     0.000 HD 
HETATM   14  C   UNL     1      -7.305   6.326  71.674  1.00  0.00    -0.089 C  
BRANCH   8  15
HETATM   15  C   UNL     1      -7.205   7.990  69.635  1.00  0.00    -0.066 C  
BRANCH  15  16
HETATM   16  C   UNL     1      -6.637   9.374  69.893  1.00  0.00    -0.055 C  
HETATM   17  C   UNL     1      -6.919  10.573  69.346  1.00  0.00    -0.099 C  
BRANCH  17  18
HETATM   18  C   UNL     1      -7.907  10.909  68.265  1.00  0.00    -0.118 C  
BRANCH  18  19
HETATM   19  C   UNL     1      -7.618  10.159  66.956  1.00  0.00    -0.092 C  
BRANCH  19  20
HETATM   20  C   UNL     1      -8.301  10.750  65.729  1.00  0.00    -0.158 C  
BRANCH  20  21
HETATM   21  C   UNL     1      -9.683  10.199  65.565  1.00  0.00    -0.281 C  
HETATM   22  O   UNL     1     -10.145   9.216  66.132  1.00  0.00    -0.290 OA 
BRANCH  21  23
HETATM   23  O   UNL     1     -10.297  10.890  64.567  1.00  0.00    -0.325 OA 
BRANCH  23  24
HETATM   24  C   UNL     1     -10.043  12.273  64.705  1.00  0.00    -0.250 C  
BRANCH  24  25
HETATM   25  C   UNL     1     -11.246  13.044  65.203  1.00  0.00    -0.321 C  
BRANCH  25  26
HETATM   26  C   UNL     1     -11.057  14.557  65.124  1.00  0.00    -0.374 C  
BRANCH  26  27
HETATM   27  C   UNL     1      -9.777  15.087  65.785  1.00  0.00    -0.340 C  
BRANCH  27  28
HETATM   28  O   UNL     1      -9.944  16.457  66.078  1.00  0.00    -0.311 OA 
HETATM   29  N   UNL     1     -10.074  16.700  67.465  1.00  0.00    -0.267 N  
HETATM   30  O   UNL     1     -10.285  17.888  67.719  1.00  0.00    -0.332 OA 
HETATM   31  O   UNL     1      -9.975  15.741  68.220  1.00  0.00    -0.218 OA 
ENDBRANCH  27  28
ENDBRANCH  26  27
ENDBRANCH  25  26
ENDBRANCH  24  25
ENDBRANCH  23  24
ENDBRANCH  21  23
ENDBRANCH  20  21
ENDBRANCH  19  20
ENDBRANCH  18  19
ENDBRANCH  17  18
ENDBRANCH  15  16
ENDBRANCH   8  15
ENDBRANCH   5   6
ENDBRANCH   4   5
ENDBRANCH   2   4
BRANCH   2  32
HETATM   32  C   UNL     1     -11.232   6.224  69.370  1.00  0.00    -0.489 C  
BRANCH  32  33
HETATM   33  C   UNL     1     -10.305   5.070  69.731  1.00  0.00    -0.286 C  
BRANCH  33  34
HETATM   34  C   UNL     1      -9.546   4.647  68.516  1.00  0.00    -0.220 A  
HETATM   35  C   UNL     1      -8.148   3.021  67.400  1.00  0.00    -0.077 A  
HETATM   36  C   UNL     1      -8.612   5.155  66.358  1.00  0.00    -0.112 A  
HETATM   37  C   UNL     1      -8.923   3.390  68.495  1.00  0.00    -0.185 A  
HETATM   38  C   UNL     1      -9.388   5.529  67.449  1.00  0.00    -0.115 A  
HETATM   39  C   UNL     1      -7.993   3.903  66.332  1.00  0.00    -0.097 A  
ENDBRANCH  33  34
ENDBRANCH  32  33
ENDBRANCH   2  32
TORSDOF 18
ENDMDL
MODEL      356
REMARK 921   NORMALIZED FREE ENERGY PREDICTED BY IDOCK:   -2.99 KCAL/MOL
REMARK 922        TOTAL FREE ENERGY PREDICTED BY IDOCK:  -10.93 KCAL/MOL
REMARK 923 INTER-LIGAND FREE ENERGY PREDICTED BY IDOCK:   -7.30 KCAL/MOL
REMARK 924 INTRA-LIGAND FREE ENERGY PREDICTED BY IDOCK:   -3.63 KCAL/MOL
REMARK 927      BINDING AFFINITY PREDICTED BY RF-SCORE:    0.00 PKD
ROOT
HETATM    1  O   UNL     1      -7.568   9.126  71.228  1.00  0.00    -0.253 OA 
HETATM    2  C   UNL     1      -8.615   8.914  70.283  1.00  0.00    -0.167 C  
HETATM    3  H   UNL     1      -6.787   8.654  70.963  1.00  0.00     0.000 HD 
ENDROOT
BRANCH   2   4
HETATM    4  C   UNL     1      -9.881   9.681  70.712  1.00  0.00    -0.224 C  
BRANCH   4   5
HETATM    5  C   UNL     1     -10.821  10.078  69.567  1.00  0.00    -0.283 C  
BRANCH   5   6
HETATM    6  C   UNL     1     -11.933  11.093  69.918  1.00  0.00    -0.439 C  
HETATM    7  H   UNL     1     -12.618  14.874  71.106  1.00  0.00     0.000 HD 
HETATM    8  C   UNL     1     -11.513  12.589  70.245  1.00  0.00     0.125 C  
HETATM    9  C   UNL     1     -12.632  10.627  71.202  1.00  0.00    -0.423 C  
HETATM   10  C   UNL     1     -13.400  11.837  71.649  1.00  0.00    -0.242 C  
HETATM   11  O   UNL     1     -13.522   9.550  70.978  1.00  0.00    -0.554 OA 
HETATM   12  O   UNL     1     -13.220  14.151  71.239  1.00  0.00    -0.338 OA 
HETATM   13  H   UNL     1     -13.955   9.262  71.772  1.00  0.00     0.000 HD 
HETATM   14  C   UNL     1     -12.441  12.988  71.437  1.00  0.00    -0.148 C  
BRANCH   8  15
HETATM   15  C   UNL     1     -11.535  13.574  69.033  1.00  0.00    -0.349 C  
BRANCH  15  16
HETATM   16  C   UNL     1     -11.901  12.958  67.695  1.00  0.00    -0.400 C  
HETATM   17  C   UNL     1     -11.222  12.874  66.533  1.00  0.00    -0.340 C  
BRANCH  17  18
HETATM   18  C   UNL     1      -9.855  13.398  66.198  1.00  0.00    -0.289 C  
BRANCH  18  19
HETATM   19  C   UNL     1      -8.762  12.332  66.377  1.00  0.00    -0.019 C  
BRANCH  19  20
HETATM   20  C   UNL     1      -8.432  12.007  67.828  1.00  0.00    -0.157 C  
BRANCH  20  21
HETATM   21  C   UNL     1      -7.038  12.430  68.170  1.00  0.00    -0.097 C  
HETATM   22  O   UNL     1      -6.003  11.899  67.786  1.00  0.00    -0.049 OA 
BRANCH  21  23
HETATM   23  O   UNL     1      -7.113  13.420  69.101  1.00  0.00    -0.092 OA 
BRANCH  23  24
HETATM   24  C   UNL     1      -7.256  14.674  68.468  1.00  0.00    -0.118 C  
BRANCH  24  25
HETATM   25  C   UNL     1      -8.368  15.509  69.064  1.00  0.00    -0.227 C  
BRANCH  25  26
HETATM   26  C   UNL     1      -8.232  16.996  68.745  1.00  0.00    -0.245 C  
BRANCH  26  27
HETATM   27  C   UNL     1      -9.114  17.497  67.592  1.00  0.00    -0.243 C  
BRANCH  27  28
HETATM   28  O   UNL     1      -8.985  18.898  67.490  1.00  0.00    -0.281 OA 
HETATM   29  N   UNL     1     -10.159  19.513  66.994  1.00  0.00    -0.367 N  
HETATM   30  O   UNL     1     -10.027  20.730  66.843  1.00  0.00    -0.357 OA 
HETATM   31  O   UNL     1     -11.125  18.794  66.775  1.00  0.00    -0.131 OA 
ENDBRANCH  27  28
ENDBRANCH  26  27
ENDBRANCH  25  26
ENDBRANCH  24  25
ENDBRANCH  23  24
ENDBRANCH  21  23
ENDBRANCH  20  21
ENDBRANCH  19  20
ENDBRANCH  18  19
ENDBRANCH  17  18
ENDBRANCH  15  16
ENDBRANCH   8  15
ENDBRANCH   5   6
ENDBRANCH   4   5
ENDBRANCH   2   4
BRANCH   2  32
HETATM   32  C   UNL     1      -8.862   7.413  70.233  1.00  0.00    -0.147 C  
BRANCH  32  33
HETATM   33  C   UNL     1      -8.252   6.783  68.986  1.00  0.00    -0.117 C  
BRANCH  33  34
HETATM   34  C   UNL     1      -8.644   7.581  67.786  1.00  0.00    -0.120 A  
HETATM   35  C   UNL     1     -10.316   8.189  66.149  1.00  0.00     0.480 A  
HETATM   36  C   UNL     1      -8.043   8.994  65.933  1.00  0.00    -0.108 A  
HETATM   37  C   UNL     1      -9.962   7.512  67.312  1.00  0.00    -0.273 A  
HETATM   38  C   UNL     1      -7.686   8.320  67.094  1.00  0.00    -0.097 A  
HETATM   39  C   UNL     1      -9.356   8.929  65.460  1.00  0.00    -0.214 A  
ENDBRANCH  33  34
ENDBRANCH  32  33
ENDBRANCH   2  32
TORSDOF 18
ENDMDL
MODEL      357
REMARK 921   NORMALIZED FREE ENERGY PREDICTED BY IDOCK:   -2.98 KCAL/MOL
REMARK 922        TOTAL FREE ENERGY PREDICTED BY IDOCK:  -10.91 KCAL/MOL
REMARK 923 INTER-LIGAND FREE ENERGY PREDICTED BY IDOCK:   -9.05 KCAL/MOL
REMARK 924 INTRA-LIGAND FREE ENERGY PREDICTED BY IDOCK:   -1.86 KCAL/MOL
REMARK 927      BINDING AFFINITY PREDICTED BY RF-SCORE:    0.00 PKD
ROOT
HETATM    1  O   UNL     1      -6.926   8.607  69.125  1.00  0.00    -0.060 OA 
HETATM    2  C   UNL     1      -6.928   7.588  68.128  1.00  0.00    -0.072 C  
HETATM    3  H   UNL     1      -6.061   8.689  69.508  1.00  0.00     0.000 HD 
ENDROOT
BRANCH   2   4
HETATM    4  C   UNL     1      -8.331   7.455  67.505  1.00  0.00    -0.113 C  
BRANCH   4   5
HETATM    5  C   UNL     1      -9.340   8.524  67.940  1.00  0.00    -0.148 C  
BRANCH   5   6
HETATM    6  C   UNL     1     -10.511   8.037  68.825  1.00  0.00    -0.196 C  
HETATM    7  H   UNL     1     -11.606   7.242  72.612  1.00  0.00     0.000 HD 
HETATM    8  C   UNL     1     -10.319   8.040  70.400  1.00  0.00    -0.206 C  
HETATM    9  C   UNL     1     -10.788   6.563  68.500  1.00  0.00    -0.288 C  
HETATM   10  C   UNL     1     -11.646   6.100  69.641  1.00  0.00    -0.156 C  
HETATM   11  O   UNL     1     -11.483   6.395  67.279  1.00  0.00    -0.714 OA 
HETATM   12  O   UNL     1     -12.011   6.857  71.844  1.00  0.00    -0.299 OA 
HETATM   13  H   UNL     1     -11.655   5.483  67.078  1.00  0.00     0.000 HD 
HETATM   14  C   UNL     1     -11.000   6.714  70.866  1.00  0.00    -0.268 C  
BRANCH   8  15
HETATM   15  C   UNL     1     -10.813   9.327  71.135  1.00  0.00    -0.407 C  
BRANCH  15  16
HETATM   16  C   UNL     1     -11.882  10.126  70.412  1.00  0.00    -0.373 C  
HETATM   17  C   UNL     1     -11.798  11.126  69.512  1.00  0.00    -0.423 C  
BRANCH  17  18
HETATM   18  C   UNL     1     -10.572  11.784  68.945  1.00  0.00    -0.211 C  
BRANCH  18  19
HETATM   19  C   UNL     1     -10.825  13.250  68.557  1.00  0.00    -0.286 C  
BRANCH  19  20
HETATM   20  C   UNL     1     -12.136  13.821  69.081  1.00  0.00    -0.374 C  
BRANCH  20  21
HETATM   21  C   UNL     1     -11.897  15.054  69.896  1.00  0.00    -0.324 C  
HETATM   22  O   UNL     1     -12.004  15.152  71.113  1.00  0.00    -0.283 OA 
BRANCH  21  23
HETATM   23  O   UNL     1     -11.681  16.091  69.041  1.00  0.00    -0.370 OA 
BRANCH  23  24
HETATM   24  C   UNL     1     -11.380  15.602  67.751  1.00  0.00    -0.261 C  
BRANCH  24  25
HETATM   25  C   UNL     1     -10.168  16.270  67.139  1.00  0.00    -0.276 C  
BRANCH  25  26
HETATM   26  C   UNL     1     -10.470  16.935  65.798  1.00  0.00    -0.279 C  
BRANCH  26  27
HETATM   27  C   UNL     1     -11.484  16.191  64.917  1.00  0.00    -0.086 C  
BRANCH  27  28
HETATM   28  O   UNL     1     -10.870  15.042  64.378  1.00  0.00    -0.217 OA 
HETATM   29  N   UNL     1     -11.738  13.925  64.357  1.00  0.00    -0.402 N  
HETATM   30  O   UNL     1     -11.183  12.903  63.946  1.00  0.00    -0.390 OA 
HETATM   31  O   UNL     1     -12.888  14.095  64.741  1.00  0.00    -0.677 OA 
ENDBRANCH  27  28
ENDBRANCH  26  27
ENDBRANCH  25  26
ENDBRANCH  24  25
ENDBRANCH  23  24
ENDBRANCH  21  23
ENDBRANCH  20  21
ENDBRANCH  19  20
ENDBRANCH  18  19
ENDBRANCH  17  18
ENDBRANCH  15  16
ENDBRANCH   8  15
ENDBRANCH   5   6
ENDBRANCH   4   5
ENDBRANCH   2   4
BRANCH   2  32
HETATM   32  C   UNL     1      -6.500   6.301  68.818  1.00  0.00    -0.046 C  
BRANCH  32  33
HETATM   33  C   UNL     1      -7.241   6.092  70.133  1.00  0.00    -0.076 C  
BRANCH  33  34
HETATM   34  C   UNL     1      -7.928   4.766  70.109  1.00  0.00    -0.068 A  
HETATM   35  C   UNL     1      -8.846   2.923  68.842  1.00  0.00    -0.155 A  
HETATM   36  C   UNL     1      -9.139   3.022  71.242  1.00  0.00    -0.179 A  
HETATM   37  C   UNL     1      -8.137   4.120  68.881  1.00  0.00    -0.074 A  
HETATM   38  C   UNL     1      -8.431   4.217  71.287  1.00  0.00    -0.111 A  
HETATM   39  C   UNL     1      -9.347   2.375  70.021  1.00  0.00    -0.182 A  
ENDBRANCH  33  34
ENDBRANCH  32  33
ENDBRANCH   2  32
TORSDOF 18
ENDMDL
MODEL      358
REMARK 921   NORMALIZED FREE ENERGY PREDICTED BY IDOCK:   -2.98 KCAL/MOL
REMARK 922        TOTAL FREE ENERGY PREDICTED BY IDOCK:  -10.89 KCAL/MOL
REMARK 923 INTER-LIGAND FREE ENERGY PREDICTED BY IDOCK:   -8.49 KCAL/MOL
REMARK 924 INTRA-LIGAND FREE ENERGY PREDICTED BY IDOCK:   -2.40 KCAL/MOL
REMARK 927      BINDING AFFINITY PREDICTED BY RF-SCORE:    0.00 PKD
ROOT
HETATM    1  O   UNL     1     -10.561  10.807  69.059  1.00  0.00    -0.195 OA 
HETATM    2  C   UNL     1     -11.461  11.636  68.325  1.00  0.00    -0.303 C  
HETATM    3  H   UNL     1     -10.605  11.015  69.985  1.00  0.00     0.000 HD 
ENDROOT
BRANCH   2   4
HETATM    4  C   UNL     1     -11.389  11.298  66.823  1.00  0.00    -0.187 C  
BRANCH   4   5
HETATM    5  C   UNL     1      -9.993  11.396  66.200  1.00  0.00    -0.265 C  
BRANCH   5   6
HETATM    6  C   UNL     1      -9.713  10.461  65.000  1.00  0.00    -0.362 C  
HETATM    7  H   UNL     1      -6.795   8.646  62.912  1.00  0.00     0.000 HD 
HETATM    8  C   UNL     1      -8.218  10.001  64.736  1.00  0.00    -0.155 C  
HETATM    9  C   UNL     1     -10.096  11.197  63.709  1.00  0.00    -0.361 C  
HETATM   10  C   UNL     1      -9.448  10.382  62.628  1.00  0.00    -0.324 C  
HETATM   11  O   UNL     1     -11.496  11.240  63.502  1.00  0.00    -0.639 OA 
HETATM   12  O   UNL     1      -7.655   8.852  62.565  1.00  0.00    -0.107 OA 
HETATM   13  H   UNL     1     -11.733  11.695  62.702  1.00  0.00     0.000 HD 
HETATM   14  C   UNL     1      -8.077  10.053  63.181  1.00  0.00    -0.156 C  
BRANCH   8  15
HETATM   15  C   UNL     1      -7.807   8.642  65.389  1.00  0.00    -0.101 C  
BRANCH  15  16
HETATM   16  C   UNL     1      -8.617   8.228  66.604  1.00  0.00    -0.135 C  
HETATM   17  C   UNL     1      -8.360   8.318  67.924  1.00  0.00    -0.128 C  
BRANCH  17  18
HETATM   18  C   UNL     1      -7.142   8.864  68.614  1.00  0.00    -0.071 C  
BRANCH  18  19
HETATM   19  C   UNL     1      -7.498   9.879  69.711  1.00  0.00    -0.140 C  
BRANCH  19  20
HETATM   20  C   UNL     1      -7.154   9.425  71.123  1.00  0.00    -0.013 C  
BRANCH  20  21
HETATM   21  C   UNL     1      -8.182   8.470  71.646  1.00  0.00    -0.160 C  
HETATM   22  O   UNL     1      -8.101   7.248  71.654  1.00  0.00    -0.099 OA 
BRANCH  21  23
HETATM   23  O   UNL     1      -9.290   9.185  71.982  1.00  0.00    -0.337 OA 
BRANCH  23  24
HETATM   24  C   UNL     1     -10.441   8.595  71.415  1.00  0.00    -0.257 C  
BRANCH  24  25
HETATM   25  C   UNL     1     -11.456   8.172  72.454  1.00  0.00    -0.462 C  
BRANCH  25  26
HETATM   26  C   UNL     1     -11.740   6.671  72.431  1.00  0.00    -0.260 C  
BRANCH  26  27
HETATM   27  C   UNL     1     -10.829   5.824  73.331  1.00  0.00    -0.260 C  
BRANCH  27  28
HETATM   28  O   UNL     1     -11.224   4.473  73.243  1.00  0.00    -0.281 OA 
HETATM   29  N   UNL     1     -10.120   3.588  73.236  1.00  0.00    -0.128 N  
HETATM   30  O   UNL     1     -10.460   2.410  73.093  1.00  0.00    -0.126 OA 
HETATM   31  O   UNL     1      -9.004   4.075  73.359  1.00  0.00    -0.102 OA 
ENDBRANCH  27  28
ENDBRANCH  26  27
ENDBRANCH  25  26
ENDBRANCH  24  25
ENDBRANCH  23  24
ENDBRANCH  21  23
ENDBRANCH  20  21
ENDBRANCH  19  20
ENDBRANCH  18  19
ENDBRANCH  17  18
ENDBRANCH  15  16
ENDBRANCH   8  15
ENDBRANCH   5   6
ENDBRANCH   4   5
ENDBRANCH   2   4
BRANCH   2  32
HETATM   32  C   UNL     1     -11.047  13.076  68.594  1.00  0.00    -0.305 C  
BRANCH  32  33
HETATM   33  C   UNL     1     -12.085  14.067  68.081  1.00  0.00    -0.307 C  
BRANCH  33  34
HETATM   34  C   UNL     1     -11.411  15.095  67.233  1.00  0.00    -0.305 A  
HETATM   35  C   UNL     1     -10.484  15.746  65.097  1.00  0.00    -0.394 A  
HETATM   36  C   UNL     1     -10.238  17.186  67.026  1.00  0.00    -0.313 A  
HETATM   37  C   UNL     1     -11.183  14.827  65.875  1.00  0.00    -0.340 A  
HETATM   38  C   UNL     1     -10.936  16.273  67.807  1.00  0.00    -0.281 A  
HETATM   39  C   UNL     1     -10.013  16.924  65.672  1.00  0.00    -0.127 A  
ENDBRANCH  33  34
ENDBRANCH  32  33
ENDBRANCH   2  32
TORSDOF 18
ENDMDL
MODEL      359
REMARK 921   NORMALIZED FREE ENERGY PREDICTED BY IDOCK:   -2.97 KCAL/MOL
REMARK 922        TOTAL FREE ENERGY PREDICTED BY IDOCK:  -10.88 KCAL/MOL
REMARK 923 INTER-LIGAND FREE ENERGY PREDICTED BY IDOCK:   -8.16 KCAL/MOL
REMARK 924 INTRA-LIGAND FREE ENERGY PREDICTED BY IDOCK:   -2.73 KCAL/MOL
REMARK 927      BINDING AFFINITY PREDICTED BY RF-SCORE:    0.00 PKD
ROOT
HETATM    1  O   UNL     1      -7.942   8.287  65.415  1.00  0.00    -0.112 OA 
HETATM    2  C   UNL     1      -7.976   7.923  66.794  1.00  0.00    -0.107 C  
HETATM    3  H   UNL     1      -8.431   7.658  64.898  1.00  0.00     0.000 HD 
ENDROOT
BRANCH   2   4
HETATM    4  C   UNL     1      -7.182   8.944  67.633  1.00  0.00    -0.080 C  
BRANCH   4   5
HETATM    5  C   UNL     1      -7.416   8.865  69.145  1.00  0.00    -0.073 C  
BRANCH   5   6
HETATM    6  C   UNL     1      -8.890   8.787  69.605  1.00  0.00    -0.141 C  
HETATM    7  H   UNL     1     -12.431  10.691  69.487  1.00  0.00     0.000 HD 
HETATM    8  C   UNL     1      -9.898   9.905  69.100  1.00  0.00    -0.204 C  
HETATM    9  C   UNL     1      -8.933   8.929  71.132  1.00  0.00    -0.241 C  
HETATM   10  C   UNL     1     -10.377   9.220  71.424  1.00  0.00    -0.392 C  
HETATM   11  O   UNL     1      -8.539   7.746  71.801  1.00  0.00    -0.109 OA 
HETATM   12  O   UNL     1     -12.177  10.071  70.161  1.00  0.00    -0.172 OA 
HETATM   13  H   UNL     1      -8.566   7.834  72.746  1.00  0.00     0.000 HD 
HETATM   14  C   UNL     1     -10.782  10.208  70.351  1.00  0.00    -0.266 C  
BRANCH   8  15
HETATM   15  C   UNL     1     -10.692   9.556  67.800  1.00  0.00    -0.302 C  
BRANCH  15  16
HETATM   16  C   UNL     1     -10.603  10.580  66.683  1.00  0.00    -0.263 C  
HETATM   17  C   UNL     1      -9.771  11.623  66.489  1.00  0.00    -0.227 C  
BRANCH  17  18
HETATM   18  C   UNL     1      -8.650  12.111  67.362  1.00  0.00    -0.175 C  
BRANCH  18  19
HETATM   19  C   UNL     1      -8.312  13.588  67.105  1.00  0.00    -0.151 C  
BRANCH  19  20
HETATM   20  C   UNL     1      -7.292  14.176  68.072  1.00  0.00    -0.142 C  
BRANCH  20  21
HETATM   21  C   UNL     1      -7.854  15.363  68.791  1.00  0.00    -0.155 C  
HETATM   22  O   UNL     1      -7.344  15.945  69.741  1.00  0.00    -0.147 OA 
BRANCH  21  23
HETATM   23  O   UNL     1      -9.102  15.601  68.302  1.00  0.00    -0.182 OA 
BRANCH  23  24
HETATM   24  C   UNL     1      -9.125  16.827  67.603  1.00  0.00    -0.218 C  
BRANCH  24  25
HETATM   25  C   UNL     1     -10.514  17.216  67.146  1.00  0.00    -0.291 C  
BRANCH  25  26
HETATM   26  C   UNL     1     -10.822  16.757  65.722  1.00  0.00    -0.088 C  
BRANCH  26  27
HETATM   27  C   UNL     1     -10.497  15.285  65.430  1.00  0.00    -0.398 C  
BRANCH  27  28
HETATM   28  O   UNL     1     -11.514  14.743  64.616  1.00  0.00    -0.394 OA 
HETATM   29  N   UNL     1     -12.427  13.949  65.350  1.00  0.00    -0.476 N  
HETATM   30  O   UNL     1     -13.279  13.422  64.630  1.00  0.00    -0.486 OA 
HETATM   31  O   UNL     1     -12.267  13.876  66.561  1.00  0.00    -0.441 OA 
ENDBRANCH  27  28
ENDBRANCH  26  27
ENDBRANCH  25  26
ENDBRANCH  24  25
ENDBRANCH  23  24
ENDBRANCH  21  23
ENDBRANCH  20  21
ENDBRANCH  19  20
ENDBRANCH  18  19
ENDBRANCH  17  18
ENDBRANCH  15  16
ENDBRANCH   8  15
ENDBRANCH   5   6
ENDBRANCH   4   5
ENDBRANCH   2   4
BRANCH   2  32
HETATM   32  C   UNL     1      -7.373   6.530  66.894  1.00  0.00    -0.079 C  
BRANCH  32  33
HETATM   33  C   UNL     1      -8.440   5.445  66.798  1.00  0.00    -0.107 C  
BRANCH  33  34
HETATM   34  C   UNL     1      -9.258   5.445  68.048  1.00  0.00    -0.119 A  
HETATM   35  C   UNL     1     -11.270   6.101  69.216  1.00  0.00    -0.438 A  
HETATM   36  C   UNL     1      -9.459   5.028  70.410  1.00  0.00    -0.233 A  
HETATM   37  C   UNL     1     -10.535   6.025  68.037  1.00  0.00    -0.291 A  
HETATM   38  C   UNL     1      -8.721   4.950  69.235  1.00  0.00    -0.107 A  
HETATM   39  C   UNL     1     -10.732   5.603  70.401  1.00  0.00    -0.352 A  
ENDBRANCH  33  34
ENDBRANCH  32  33
ENDBRANCH   2  32
TORSDOF 18
ENDMDL
MODEL      360
REMARK 921   NORMALIZED FREE ENERGY PREDICTED BY IDOCK:   -2.95 KCAL/MOL
REMARK 922        TOTAL FREE ENERGY PREDICTED BY IDOCK:  -10.84 KCAL/MOL
REMARK 923 INTER-LIGAND FREE ENERGY PREDICTED BY IDOCK:   -7.58 KCAL/MOL
REMARK 924 INTRA-LIGAND FREE ENERGY PREDICTED BY IDOCK:   -3.26 KCAL/MOL
REMARK 927      BINDING AFFINITY PREDICTED BY RF-SCORE:    0.00 PKD
ROOT
HETATM    1  O   UNL     1     -10.950  13.118  67.277  1.00  0.00    -0.260 OA 
HETATM    2  C   UNL     1     -11.438  11.917  66.682  1.00  0.00    -0.314 C  
HETATM    3  H   UNL     1     -11.031  13.842  66.667  1.00  0.00     0.000 HD 
ENDROOT
BRANCH   2   4
HETATM    4  C   UNL     1     -11.307  10.742  67.672  1.00  0.00    -0.328 C  
BRANCH   4   5
HETATM    5  C   UNL     1     -10.312  10.963  68.815  1.00  0.00    -0.215 C  
BRANCH   5   6
HETATM    6  C   UNL     1      -9.985   9.727  69.685  1.00  0.00    -0.244 C  
HETATM    7  H   UNL     1      -8.805   5.884  69.548  1.00  0.00     0.000 HD 
HETATM    8  C   UNL     1      -9.427   8.426  68.966  1.00  0.00    -0.151 C  
HETATM    9  C   UNL     1     -11.280   9.243  70.350  1.00  0.00    -0.247 C  
HETATM   10  C   UNL     1     -10.937   7.865  70.839  1.00  0.00    -0.256 C  
HETATM   11  O   UNL     1     -11.668  10.055  71.442  1.00  0.00    -0.367 OA 
HETATM   12  O   UNL     1      -9.300   6.270  70.262  1.00  0.00    -0.159 OA 
HETATM   13  H   UNL     1     -12.470   9.755  71.854  1.00  0.00     0.000 HD 
HETATM   14  C   UNL     1     -10.149   7.251  69.701  1.00  0.00    -0.194 C  
BRANCH   8  15
HETATM   15  C   UNL     1      -7.871   8.307  68.904  1.00  0.00    -0.111 C  
BRANCH  15  16
HETATM   16  C   UNL     1      -7.111   9.088  69.960  1.00  0.00    -0.055 C  
HETATM   17  C   UNL     1      -6.409  10.237  69.892  1.00  0.00    -0.082 C  
BRANCH  17  18
HETATM   18  C   UNL     1      -6.146  11.113  68.701  1.00  0.00    -0.043 C  
BRANCH  18  19
HETATM   19  C   UNL     1      -5.663  12.515  69.104  1.00  0.00    -0.075 C  
BRANCH  19  20
HETATM   20  C   UNL     1      -6.335  13.653  68.346  1.00  0.00    -0.098 C  
BRANCH  20  21
HETATM   21  C   UNL     1      -5.707  14.969  68.683  1.00  0.00    -0.091 C  
HETATM   22  O   UNL     1      -5.670  15.495  69.789  1.00  0.00    -0.117 OA 
BRANCH  21  23
HETATM   23  O   UNL     1      -5.308  15.556  67.522  1.00  0.00    -0.286 OA 
BRANCH  23  24
HETATM   24  C   UNL     1      -5.767  16.891  67.468  1.00  0.00    -0.147 C  
BRANCH  24  25
HETATM   25  C   UNL     1      -7.222  16.995  67.065  1.00  0.00    -0.224 C  
BRANCH  25  26
HETATM   26  C   UNL     1      -7.927  18.198  67.689  1.00  0.00    -0.233 C  
BRANCH  26  27
HETATM   27  C   UNL     1      -9.461  18.133  67.669  1.00  0.00    -0.264 C  
BRANCH  27  28
HETATM   28  O   UNL     1      -9.882  17.594  66.435  1.00  0.00    -0.292 OA 
HETATM   29  N   UNL     1     -10.634  18.518  65.671  1.00  0.00    -0.295 N  
HETATM   30  O   UNL     1     -11.058  18.029  64.621  1.00  0.00    -0.614 OA 
HETATM   31  O   UNL     1     -10.776  19.646  66.126  1.00  0.00    -0.464 OA 
ENDBRANCH  27  28
ENDBRANCH  26  27
ENDBRANCH  25  26
ENDBRANCH  24  25
ENDBRANCH  23  24
ENDBRANCH  21  23
ENDBRANCH  20  21
ENDBRANCH  19  20
ENDBRANCH  18  19
ENDBRANCH  17  18
ENDBRANCH  15  16
ENDBRANCH   8  15
ENDBRANCH   5   6
ENDBRANCH   4   5
ENDBRANCH   2   4
BRANCH   2  32
HETATM   32  C   UNL     1     -10.612  11.683  65.426  1.00  0.00    -0.331 C  
BRANCH  32  33
HETATM   33  C   UNL     1     -10.377  10.198  65.173  1.00  0.00    -0.109 C  
BRANCH  33  34
HETATM   34  C   UNL     1      -8.937   9.974  64.849  1.00  0.00    -0.241 A  
HETATM   35  C   UNL     1      -6.606  10.398  65.334  1.00  0.00    -0.109 A  
HETATM   36  C   UNL     1      -7.237   9.154  63.356  1.00  0.00    -0.095 A  
HETATM   37  C   UNL     1      -7.949  10.534  65.673  1.00  0.00    -0.158 A  
HETATM   38  C   UNL     1      -8.579   9.287  63.690  1.00  0.00    -0.208 A  
HETATM   39  C   UNL     1      -6.251   9.708  64.176  1.00  0.00    -0.104 A  
ENDBRANCH  33  34
ENDBRANCH  32  33
ENDBRANCH   2  32
TORSDOF 18
ENDMDL
MODEL      361
REMARK 921   NORMALIZED FREE ENERGY PREDICTED BY IDOCK:   -2.94 KCAL/MOL
REMARK 922        TOTAL FREE ENERGY PREDICTED BY IDOCK:  -10.81 KCAL/MOL
REMARK 923 INTER-LIGAND FREE ENERGY PREDICTED BY IDOCK:   -7.25 KCAL/MOL
REMARK 924 INTRA-LIGAND FREE ENERGY PREDICTED BY IDOCK:   -3.56 KCAL/MOL
REMARK 927      BINDING AFFINITY PREDICTED BY RF-SCORE:    0.00 PKD
ROOT
HETATM    1  O   UNL     1     -11.320  11.297  67.662  1.00  0.00    -0.287 OA 
HETATM    2  C   UNL     1     -10.703  10.233  66.939  1.00  0.00    -0.184 C  
HETATM    3  H   UNL     1     -11.849  11.827  67.078  1.00  0.00     0.000 HD 
ENDROOT
BRANCH   2   4
HETATM    4  C   UNL     1      -9.845   9.373  67.888  1.00  0.00    -0.197 C  
BRANCH   4   5
HETATM    5  C   UNL     1     -10.620   8.334  68.704  1.00  0.00    -0.144 C  
BRANCH   5   6
HETATM    6  C   UNL     1     -10.613   8.528  70.239  1.00  0.00    -0.238 C  
HETATM    7  H   UNL     1     -10.159   6.618  73.749  1.00  0.00     0.000 HD 
HETATM    8  C   UNL     1     -10.240   7.286  71.154  1.00  0.00    -0.197 C  
HETATM    9  C   UNL     1     -12.032   8.894  70.690  1.00  0.00    -0.073 C  
HETATM   10  C   UNL     1     -11.999   8.686  72.176  1.00  0.00    -0.449 C  
HETATM   11  O   UNL     1     -12.366  10.240  70.403  1.00  0.00    -0.357 OA 
HETATM   12  O   UNL     1     -10.640   7.430  73.637  1.00  0.00    -0.370 OA 
HETATM   13  H   UNL     1     -13.244  10.466  70.683  1.00  0.00     0.000 HD 
HETATM   14  C   UNL     1     -11.234   7.392  72.355  1.00  0.00    -0.293 C  
BRANCH   8  15
HETATM   15  C   UNL     1      -8.734   7.172  71.553  1.00  0.00    -0.119 C  
BRANCH  15  16
HETATM   16  C   UNL     1      -7.751   7.137  70.397  1.00  0.00    -0.095 C  
HETATM   17  C   UNL     1      -6.921   8.076  69.900  1.00  0.00    -0.045 C  
BRANCH  17  18
HETATM   18  C   UNL     1      -6.723   9.496  70.349  1.00  0.00    -0.093 C  
BRANCH  18  19
HETATM   19  C   UNL     1      -7.335  10.508  69.368  1.00  0.00    -0.133 C  
BRANCH  19  20
HETATM   20  C   UNL     1      -6.356  11.054  68.337  1.00  0.00    -0.052 C  
BRANCH  20  21
HETATM   21  C   UNL     1      -6.736  12.439  67.915  1.00  0.00    -0.100 C  
HETATM   22  O   UNL     1      -6.346  13.025  66.912  1.00  0.00    -0.066 OA 
BRANCH  21  23
HETATM   23  O   UNL     1      -7.478  12.996  68.911  1.00  0.00    -0.084 OA 
BRANCH  23  24
HETATM   24  C   UNL     1      -8.053  14.208  68.469  1.00  0.00    -0.143 C  
BRANCH  24  25
HETATM   25  C   UNL     1      -9.558  14.128  68.336  1.00  0.00    -0.225 C  
BRANCH  25  26
HETATM   26  C   UNL     1     -10.115  15.098  67.295  1.00  0.00    -0.235 C  
BRANCH  26  27
HETATM   27  C   UNL     1      -9.928  14.661  65.835  1.00  0.00    -0.328 C  
BRANCH  27  28
HETATM   28  O   UNL     1     -11.120  14.060  65.380  1.00  0.00    -0.303 OA 
HETATM   29  N   UNL     1     -11.797  14.858  64.427  1.00  0.00    -0.398 N  
HETATM   30  O   UNL     1     -12.872  14.365  64.076  1.00  0.00    -0.650 OA 
HETATM   31  O   UNL     1     -11.263  15.905  64.084  1.00  0.00    -0.381 OA 
ENDBRANCH  27  28
ENDBRANCH  26  27
ENDBRANCH  25  26
ENDBRANCH  24  25
ENDBRANCH  23  24
ENDBRANCH  21  23
ENDBRANCH  20  21
ENDBRANCH  19  20
ENDBRANCH  18  19
ENDBRANCH  17  18
ENDBRANCH  15  16
ENDBRANCH   8  15
ENDBRANCH   5   6
ENDBRANCH   4   5
ENDBRANCH   2   4
BRANCH   2  32
HETATM   32  C   UNL     1      -9.857  10.877  65.850  1.00  0.00    -0.285 C  
BRANCH  32  33
HETATM   33  C   UNL     1      -9.783  10.004  64.603  1.00  0.00    -0.339 C  
BRANCH  33  34
HETATM   34  C   UNL     1      -8.498   9.244  64.607  1.00  0.00    -0.192 A  
HETATM   35  C   UNL     1      -6.087   9.234  64.797  1.00  0.00    -0.067 A  
HETATM   36  C   UNL     1      -7.274   7.212  64.198  1.00  0.00    -0.069 A  
HETATM   37  C   UNL     1      -7.297   9.919  64.869  1.00  0.00    -0.136 A  
HETATM   38  C   UNL     1      -8.484   7.891  64.269  1.00  0.00     0.123 A  
HETATM   39  C   UNL     1      -6.077   7.882  64.461  1.00  0.00    -0.048 A  
ENDBRANCH  33  34
ENDBRANCH  32  33
ENDBRANCH   2  32
TORSDOF 18
ENDMDL
MODEL      362
REMARK 921   NORMALIZED FREE ENERGY PREDICTED BY IDOCK:   -2.92 KCAL/MOL
REMARK 922        TOTAL FREE ENERGY PREDICTED BY IDOCK:  -10.77 KCAL/MOL
REMARK 923 INTER-LIGAND FREE ENERGY PREDICTED BY IDOCK:   -8.07 KCAL/MOL
REMARK 924 INTRA-LIGAND FREE ENERGY PREDICTED BY IDOCK:   -2.70 KCAL/MOL
REMARK 927      BINDING AFFINITY PREDICTED BY RF-SCORE:    0.00 PKD
ROOT
HETATM    1  O   UNL     1      -5.390   7.976  70.438  1.00  0.00    -0.023 OA 
HETATM    2  C   UNL     1      -6.299   8.724  69.633  1.00  0.00    -0.039 C  
HETATM    3  H   UNL     1      -4.510   8.044  70.088  1.00  0.00     0.000 HD 
ENDROOT
BRANCH   2   4
HETATM    4  C   UNL     1      -7.728   8.613  70.201  1.00  0.00    -0.081 C  
BRANCH   4   5
HETATM    5  C   UNL     1      -8.226   7.182  70.433  1.00  0.00    -0.126 C  
BRANCH   5   6
HETATM    6  C   UNL     1      -9.589   7.042  71.151  1.00  0.00    -0.165 C  
HETATM    7  H   UNL     1     -12.659   9.114  72.720  1.00  0.00     0.000 HD 
HETATM    8  C   UNL     1     -10.430   8.358  71.437  1.00  0.00    -0.286 C  
HETATM    9  C   UNL     1      -9.345   6.462  72.551  1.00  0.00    -0.145 C  
HETATM   10  C   UNL     1     -10.633   6.721  73.275  1.00  0.00    -0.335 C  
HETATM   11  O   UNL     1      -9.081   5.072  72.525  1.00  0.00    -0.131 OA 
HETATM   12  O   UNL     1     -12.420   8.230  72.975  1.00  0.00    -0.172 OA 
HETATM   13  H   UNL     1      -8.930   4.712  73.392  1.00  0.00     0.000 HD 
HETATM   14  C   UNL     1     -11.014   8.129  72.867  1.00  0.00    -0.237 C  
BRANCH   8  15
HETATM   15  C   UNL     1     -11.485   8.731  70.346  1.00  0.00    -0.163 C  
BRANCH  15  16
HETATM   16  C   UNL     1     -11.500  10.189  69.921  1.00  0.00    -0.317 C  
HETATM   17  C   UNL     1     -12.124  11.265  70.440  1.00  0.00    -0.474 C  
BRANCH  17  18
HETATM   18  C   UNL     1     -13.036  11.346  71.630  1.00  0.00    -0.498 C  
BRANCH  18  19
HETATM   19  C   UNL     1     -13.628  12.751  71.818  1.00  0.00    -0.214 C  
BRANCH  19  20
HETATM   20  C   UNL     1     -12.741  13.706  72.607  1.00  0.00    -0.129 C  
BRANCH  20  21
HETATM   21  C   UNL     1     -12.576  15.007  71.885  1.00  0.00    -0.333 C  
HETATM   22  O   UNL     1     -13.213  16.034  72.085  1.00  0.00    -0.408 OA 
BRANCH  21  23
HETATM   23  O   UNL     1     -11.694  14.817  70.866  1.00  0.00    -0.297 OA 
BRANCH  23  24
HETATM   24  C   UNL     1     -12.206  15.367  69.671  1.00  0.00    -0.282 C  
BRANCH  24  25
HETATM   25  C   UNL     1     -11.591  14.754  68.432  1.00  0.00    -0.350 C  
BRANCH  25  26
HETATM   26  C   UNL     1     -10.972  15.792  67.499  1.00  0.00    -0.293 C  
BRANCH  26  27
HETATM   27  C   UNL     1     -11.010  17.236  68.018  1.00  0.00    -0.194 C  
BRANCH  27  28
HETATM   28  O   UNL     1      -9.717  17.605  68.446  1.00  0.00    -0.290 OA 
HETATM   29  N   UNL     1      -9.569  19.006  68.569  1.00  0.00    -0.363 N  
HETATM   30  O   UNL     1      -8.421  19.335  68.881  1.00  0.00    -0.362 OA 
HETATM   31  O   UNL     1     -10.553  19.701  68.352  1.00  0.00    -0.361 OA 
ENDBRANCH  27  28
ENDBRANCH  26  27
ENDBRANCH  25  26
ENDBRANCH  24  25
ENDBRANCH  23  24
ENDBRANCH  21  23
ENDBRANCH  20  21
ENDBRANCH  19  20
ENDBRANCH  18  19
ENDBRANCH  17  18
ENDBRANCH  15  16
ENDBRANCH   8  15
ENDBRANCH   5   6
ENDBRANCH   4   5
ENDBRANCH   2   4
BRANCH   2  32
HETATM   32  C   UNL     1      -6.212   8.150  68.226  1.00  0.00    -0.050 C  
BRANCH  32  33
HETATM   33  C   UNL     1      -7.016   8.976  67.229  1.00  0.00    -0.078 C  
BRANCH  33  34
HETATM   34  C   UNL     1      -8.407   8.437  67.147  1.00  0.00    -0.122 A  
HETATM   35  C   UNL     1      -9.894   6.538  66.984  1.00  0.00    -0.200 A  
HETATM   36  C   UNL     1     -10.767   8.790  66.836  1.00  0.00    -0.151 A  
HETATM   37  C   UNL     1      -8.609   7.049  67.141  1.00  0.00    -0.121 A  
HETATM   38  C   UNL     1      -9.486   9.305  66.992  1.00  0.00    -0.205 A  
HETATM   39  C   UNL     1     -10.971   7.408  66.832  1.00  0.00    -0.073 A  
ENDBRANCH  33  34
ENDBRANCH  32  33
ENDBRANCH   2  32
TORSDOF 18
ENDMDL
MODEL      363
REMARK 921   NORMALIZED FREE ENERGY PREDICTED BY IDOCK:   -2.92 KCAL/MOL
REMARK 922        TOTAL FREE ENERGY PREDICTED BY IDOCK:  -10.77 KCAL/MOL
REMARK 923 INTER-LIGAND FREE ENERGY PREDICTED BY IDOCK:   -7.65 KCAL/MOL
REMARK 924 INTRA-LIGAND FREE ENERGY PREDICTED BY IDOCK:   -3.12 KCAL/MOL
REMARK 927      BINDING AFFINITY PREDICTED BY RF-SCORE:    0.00 PKD
ROOT
HETATM    1  O   UNL     1      -6.600  15.496  67.148  1.00  0.00    -0.283 OA 
HETATM    2  C   UNL     1      -7.004  15.347  68.508  1.00  0.00    -0.113 C  
HETATM    3  H   UNL     1      -5.739  15.895  67.104  1.00  0.00     0.000 HD 
ENDROOT
BRANCH   2   4
HETATM    4  C   UNL     1      -8.401  14.700  68.580  1.00  0.00    -0.162 C  
BRANCH   4   5
HETATM    5  C   UNL     1      -9.249  14.841  67.311  1.00  0.00    -0.211 C  
BRANCH   5   6
HETATM    6  C   UNL     1     -10.128  13.624  66.939  1.00  0.00    -0.260 C  
HETATM    7  H   UNL     1     -10.396  10.439  64.498  1.00  0.00     0.000 HD 
HETATM    8  C   UNL     1      -9.578  12.597  65.861  1.00  0.00    -0.158 C  
HETATM    9  C   UNL     1     -11.431  14.138  66.312  1.00  0.00    -0.352 C  
HETATM   10  C   UNL     1     -12.018  12.921  65.659  1.00  0.00    -0.490 C  
HETATM   11  O   UNL     1     -12.335  14.647  67.275  1.00  0.00    -0.554 OA 
HETATM   12  O   UNL     1     -11.139  10.865  64.909  1.00  0.00    -0.076 OA 
HETATM   13  H   UNL     1     -13.142  14.965  66.887  1.00  0.00     0.000 HD 
HETATM   14  C   UNL     1     -10.833  12.242  65.003  1.00  0.00    -0.298 C  
BRANCH   8  15
HETATM   15  C   UNL     1      -8.805  11.368  66.438  1.00  0.00    -0.193 C  
BRANCH  15  16
HETATM   16  C   UNL     1      -7.319  11.325  66.130  1.00  0.00     0.058 C  
HETATM   17  C   UNL     1      -6.237  11.512  66.912  1.00  0.00    -0.143 C  
BRANCH  17  18
HETATM   18  C   UNL     1      -6.176  11.846  68.375  1.00  0.00    -0.050 C  
BRANCH  18  19
HETATM   19  C   UNL     1      -7.267  11.127  69.183  1.00  0.00    -0.123 C  
BRANCH  19  20
HETATM   20  C   UNL     1      -7.010   9.641  69.402  1.00  0.00    -0.056 C  
BRANCH  20  21
HETATM   21  C   UNL     1      -8.267   8.930  69.797  1.00  0.00    -0.119 C  
HETATM   22  O   UNL     1      -9.002   9.220  70.733  1.00  0.00    -0.228 OA 
BRANCH  21  23
HETATM   23  O   UNL     1      -8.382   7.815  69.025  1.00  0.00    -0.128 OA 
BRANCH  23  24
HETATM   24  C   UNL     1      -9.547   7.890  68.231  1.00  0.00    -0.156 C  
BRANCH  24  25
HETATM   25  C   UNL     1      -9.264   7.703  66.756  1.00  0.00    -0.197 C  
BRANCH  25  26
HETATM   26  C   UNL     1      -7.771   7.682  66.435  1.00  0.00    -0.089 C  
BRANCH  26  27
HETATM   27  C   UNL     1      -7.375   6.796  65.245  1.00  0.00    -0.084 C  
BRANCH  27  28
HETATM   28  O   UNL     1      -8.334   5.771  65.096  1.00  0.00    -0.139 OA 
HETATM   29  N   UNL     1      -7.747   4.484  65.058  1.00  0.00    -0.081 N  
HETATM   30  O   UNL     1      -8.576   3.592  64.863  1.00  0.00    -0.106 OA 
HETATM   31  O   UNL     1      -6.534   4.411  65.210  1.00  0.00    -0.034 OA 
ENDBRANCH  27  28
ENDBRANCH  26  27
ENDBRANCH  25  26
ENDBRANCH  24  25
ENDBRANCH  23  24
ENDBRANCH  21  23
ENDBRANCH  20  21
ENDBRANCH  19  20
ENDBRANCH  18  19
ENDBRANCH  17  18
ENDBRANCH  15  16
ENDBRANCH   8  15
ENDBRANCH   5   6
ENDBRANCH   4   5
ENDBRANCH   2   4
BRANCH   2  32
HETATM   32  C   UNL     1      -7.003  16.741  69.120  1.00  0.00    -0.231 C  
BRANCH  32  33
HETATM   33  C   UNL     1      -6.718  17.815  68.077  1.00  0.00    -0.193 C  
BRANCH  33  34
HETATM   34  C   UNL     1      -7.991  18.515  67.728  1.00  0.00    -0.263 A  
HETATM   35  C   UNL     1     -10.249  19.141  68.322  1.00  0.00    -0.486 A  
HETATM   36  C   UNL     1      -9.389  19.618  66.110  1.00  0.00    -0.416 A  
HETATM   37  C   UNL     1      -9.032  18.561  68.667  1.00  0.00    -0.323 A  
HETATM   38  C   UNL     1      -8.172  19.041  66.450  1.00  0.00    -0.314 A  
HETATM   39  C   UNL     1     -10.427  19.669  67.044  1.00  0.00    -0.600 A  
ENDBRANCH  33  34
ENDBRANCH  32  33
ENDBRANCH   2  32
TORSDOF 18
ENDMDL
MODEL      364
REMARK 921   NORMALIZED FREE ENERGY PREDICTED BY IDOCK:   -2.91 KCAL/MOL
REMARK 922        TOTAL FREE ENERGY PREDICTED BY IDOCK:  -10.76 KCAL/MOL
REMARK 923 INTER-LIGAND FREE ENERGY PREDICTED BY IDOCK:   -8.21 KCAL/MOL
REMARK 924 INTRA-LIGAND FREE ENERGY PREDICTED BY IDOCK:   -2.54 KCAL/MOL
REMARK 927      BINDING AFFINITY PREDICTED BY RF-SCORE:    0.00 PKD
ROOT
HETATM    1  O   UNL     1      -9.919  14.804  68.344  1.00  0.00    -0.211 OA 
HETATM    2  C   UNL     1     -11.090  14.117  68.781  1.00  0.00    -0.262 C  
HETATM    3  H   UNL     1     -10.124  15.713  68.156  1.00  0.00     0.000 HD 
ENDROOT
BRANCH   2   4
HETATM    4  C   UNL     1     -10.758  12.643  69.086  1.00  0.00    -0.061 C  
BRANCH   4   5
HETATM    5  C   UNL     1      -9.551  12.078  68.329  1.00  0.00    -0.204 C  
BRANCH   5   6
HETATM    6  C   UNL     1      -9.385  10.541  68.359  1.00  0.00    -0.158 C  
HETATM    7  H   UNL     1      -8.258   7.443  70.663  1.00  0.00     0.000 HD 
HETATM    8  C   UNL     1      -8.955   9.855  69.725  1.00  0.00    -0.242 C  
HETATM    9  C   UNL     1      -8.259  10.153  67.392  1.00  0.00    -0.114 C  
HETATM   10  C   UNL     1      -7.931   8.739  67.774  1.00  0.00    -0.106 C  
HETATM   11  O   UNL     1      -8.664  10.201  66.037  1.00  0.00    -0.135 OA 
HETATM   12  O   UNL     1      -8.251   7.436  69.713  1.00  0.00    -0.125 OA 
HETATM   13  H   UNL     1      -7.966   9.961  65.438  1.00  0.00     0.000 HD 
HETATM   14  C   UNL     1      -7.942   8.749  69.288  1.00  0.00    -0.108 C  
BRANCH   8  15
HETATM   15  C   UNL     1     -10.129   9.354  70.625  1.00  0.00    -0.356 C  
BRANCH  15  16
HETATM   16  C   UNL     1      -9.734   8.874  72.010  1.00  0.00    -0.304 C  
HETATM   17  C   UNL     1     -10.240   7.906  72.800  1.00  0.00    -0.380 C  
BRANCH  17  18
HETATM   18  C   UNL     1     -11.400   6.988  72.542  1.00  0.00    -0.301 C  
BRANCH  18  19
HETATM   19  C   UNL     1     -11.103   5.970  71.429  1.00  0.00    -0.336 C  
BRANCH  19  20
HETATM   20  C   UNL     1     -10.455   4.680  71.915  1.00  0.00    -0.172 C  
BRANCH  20  21
HETATM   21  C   UNL     1      -9.253   4.337  71.091  1.00  0.00    -0.139 C  
HETATM   22  O   UNL     1      -8.083   4.513  71.405  1.00  0.00    -0.090 OA 
BRANCH  21  23
HETATM   23  O   UNL     1      -9.684   3.929  69.866  1.00  0.00    -0.202 OA 
BRANCH  23  24
HETATM   24  C   UNL     1      -8.580   3.640  69.034  1.00  0.00    -0.084 C  
BRANCH  24  25
HETATM   25  C   UNL     1      -8.567   4.468  67.767  1.00  0.00    -0.107 C  
BRANCH  25  26
HETATM   26  C   UNL     1      -9.939   5.042  67.419  1.00  0.00    -0.214 C  
BRANCH  26  27
HETATM   27  C   UNL     1     -10.456   4.684  66.018  1.00  0.00    -0.264 C  
BRANCH  27  28
HETATM   28  O   UNL     1      -9.916   3.438  65.633  1.00  0.00    -0.009 OA 
HETATM   29  N   UNL     1      -9.954   3.243  64.232  1.00  0.00    -0.169 N  
HETATM   30  O   UNL     1      -9.542   2.129  63.899  1.00  0.00    -0.120 OA 
HETATM   31  O   UNL     1     -10.380   4.162  63.545  1.00  0.00    -0.138 OA 
ENDBRANCH  27  28
ENDBRANCH  26  27
ENDBRANCH  25  26
ENDBRANCH  24  25
ENDBRANCH  23  24
ENDBRANCH  21  23
ENDBRANCH  20  21
ENDBRANCH  19  20
ENDBRANCH  18  19
ENDBRANCH  17  18
ENDBRANCH  15  16
ENDBRANCH   8  15
ENDBRANCH   5   6
ENDBRANCH   4   5
ENDBRANCH   2   4
BRANCH   2  32
HETATM   32  C   UNL     1     -12.112  14.238  67.660  1.00  0.00    -0.332 C  
BRANCH  32  33
HETATM   33  C   UNL     1     -11.482  14.769  66.377  1.00  0.00    -0.319 C  
BRANCH  33  34
HETATM   34  C   UNL     1     -11.430  13.675  65.362  1.00  0.00    -0.322 A  
HETATM   35  C   UNL     1     -10.151  12.351  63.795  1.00  0.00    -0.334 A  
HETATM   36  C   UNL     1     -12.557  12.118  63.914  1.00  0.00    -0.545 A  
HETATM   37  C   UNL     1     -10.197  13.314  64.799  1.00  0.00    -0.323 A  
HETATM   38  C   UNL     1     -12.609  13.078  64.917  1.00  0.00    -0.490 A  
HETATM   39  C   UNL     1     -11.330  11.754  63.353  1.00  0.00    -0.437 A  
ENDBRANCH  33  34
ENDBRANCH  32  33
ENDBRANCH   2  32
TORSDOF 18
ENDMDL
MODEL      365
REMARK 921   NORMALIZED FREE ENERGY PREDICTED BY IDOCK:   -2.91 KCAL/MOL
REMARK 922        TOTAL FREE ENERGY PREDICTED BY IDOCK:  -10.75 KCAL/MOL
REMARK 923 INTER-LIGAND FREE ENERGY PREDICTED BY IDOCK:   -8.74 KCAL/MOL
REMARK 924 INTRA-LIGAND FREE ENERGY PREDICTED BY IDOCK:   -2.01 KCAL/MOL
REMARK 927      BINDING AFFINITY PREDICTED BY RF-SCORE:    0.00 PKD
ROOT
HETATM    1  O   UNL     1      -8.000  10.003  66.224  1.00  0.00    -0.107 OA 
HETATM    2  C   UNL     1      -9.060   9.050  66.276  1.00  0.00    -0.179 C  
HETATM    3  H   UNL     1      -7.346   9.732  65.590  1.00  0.00     0.000 HD 
ENDROOT
BRANCH   2   4
HETATM    4  C   UNL     1     -10.121   9.490  67.303  1.00  0.00    -0.272 C  
BRANCH   4   5
HETATM    5  C   UNL     1      -9.989   8.850  68.689  1.00  0.00    -0.192 C  
BRANCH   5   6
HETATM    6  C   UNL     1     -11.268   8.831  69.557  1.00  0.00     0.112 C  
HETATM    7  H   UNL     1     -13.286  10.826  72.408  1.00  0.00     0.000 HD 
HETATM    8  C   UNL     1     -11.557  10.073  70.503  1.00  0.00    -0.403 C  
HETATM    9  C   UNL     1     -11.178   7.650  70.533  1.00  0.00    -0.261 C  
HETATM   10  C   UNL     1     -12.244   7.943  71.549  1.00  0.00    -0.338 C  
HETATM   11  O   UNL     1     -11.440   6.407  69.909  1.00  0.00    -0.404 OA 
HETATM   12  O   UNL     1     -13.372   9.895  72.240  1.00  0.00    -0.435 OA 
HETATM   13  H   UNL     1     -11.384   5.676  70.514  1.00  0.00     0.000 HD 
HETATM   14  C   UNL     1     -12.107   9.428  71.815  1.00  0.00    -0.382 C  
BRANCH   8  15
HETATM   15  C   UNL     1     -12.460  11.190  69.889  1.00  0.00    -0.257 C  
BRANCH  15  16
HETATM   16  C   UNL     1     -12.384  12.543  70.573  1.00  0.00    -0.345 C  
HETATM   17  C   UNL     1     -12.085  13.770  70.100  1.00  0.00    -0.429 C  
BRANCH  17  18
HETATM   18  C   UNL     1     -11.707  14.177  68.704  1.00  0.00    -0.385 C  
BRANCH  18  19
HETATM   19  C   UNL     1     -10.215  13.955  68.415  1.00  0.00    -0.243 C  
BRANCH  19  20
HETATM   20  C   UNL     1      -9.803  14.247  66.978  1.00  0.00    -0.254 C  
BRANCH  20  21
HETATM   21  C   UNL     1     -10.623  15.358  66.399  1.00  0.00    -0.307 C  
HETATM   22  O   UNL     1     -11.259  15.322  65.352  1.00  0.00    -0.341 OA 
BRANCH  21  23
HETATM   23  O   UNL     1     -10.428  16.469  67.160  1.00  0.00    -0.307 OA 
BRANCH  23  24
HETATM   24  C   UNL     1     -10.159  17.583  66.335  1.00  0.00    -0.345 C  
BRANCH  24  25
HETATM   25  C   UNL     1      -8.852  18.265  66.677  1.00  0.00    -0.294 C  
BRANCH  25  26
HETATM   26  C   UNL     1      -7.631  17.480  66.204  1.00  0.00    -0.320 C  
BRANCH  26  27
HETATM   27  C   UNL     1      -6.543  17.269  67.266  1.00  0.00    -0.159 C  
BRANCH  27  28
HETATM   28  O   UNL     1      -5.992  15.980  67.110  1.00  0.00    -0.306 OA 
HETATM   29  N   UNL     1      -6.398  15.092  68.135  1.00  0.00    -0.121 N  
HETATM   30  O   UNL     1      -5.866  13.983  68.037  1.00  0.00    -0.116 OA 
HETATM   31  O   UNL     1      -7.189  15.513  68.968  1.00  0.00    -0.132 OA 
ENDBRANCH  27  28
ENDBRANCH  26  27
ENDBRANCH  25  26
ENDBRANCH  24  25
ENDBRANCH  23  24
ENDBRANCH  21  23
ENDBRANCH  20  21
ENDBRANCH  19  20
ENDBRANCH  18  19
ENDBRANCH  17  18
ENDBRANCH  15  16
ENDBRANCH   8  15
ENDBRANCH   5   6
ENDBRANCH   4   5
ENDBRANCH   2   4
BRANCH   2  32
HETATM   32  C   UNL     1      -8.432   7.718  66.658  1.00  0.00    -0.129 C  
BRANCH  32  33
HETATM   33  C   UNL     1      -8.651   6.661  65.582  1.00  0.00    -0.130 C  
BRANCH  33  34
HETATM   34  C   UNL     1      -8.930   5.345  66.231  1.00  0.00    -0.137 A  
HETATM   35  C   UNL     1      -9.526   4.086  68.207  1.00  0.00    -0.216 A  
HETATM   36  C   UNL     1      -8.882   2.939  66.176  1.00  0.00    -0.143 A  
HETATM   37  C   UNL     1      -9.342   5.310  67.571  1.00  0.00    -0.125 A  
HETATM   38  C   UNL     1      -8.697   4.159  65.536  1.00  0.00    -0.120 A  
HETATM   39  C   UNL     1      -9.296   2.902  67.510  1.00  0.00    -0.218 A  
ENDBRANCH  33  34
ENDBRANCH  32  33
ENDBRANCH   2  32
TORSDOF 18
ENDMDL
MODEL      366
REMARK 921   NORMALIZED FREE ENERGY PREDICTED BY IDOCK:   -2.89 KCAL/MOL
REMARK 922        TOTAL FREE ENERGY PREDICTED BY IDOCK:  -10.72 KCAL/MOL
REMARK 923 INTER-LIGAND FREE ENERGY PREDICTED BY IDOCK:   -8.23 KCAL/MOL
REMARK 924 INTRA-LIGAND FREE ENERGY PREDICTED BY IDOCK:   -2.50 KCAL/MOL
REMARK 927      BINDING AFFINITY PREDICTED BY RF-SCORE:    0.00 PKD
ROOT
HETATM    1  O   UNL     1     -11.428  13.373  69.358  1.00  0.00    -0.272 OA 
HETATM    2  C   UNL     1     -10.703  13.648  68.161  1.00  0.00    -0.248 C  
HETATM    3  H   UNL     1     -12.267  13.819  69.342  1.00  0.00     0.000 HD 
ENDROOT
BRANCH   2   4
HETATM    4  C   UNL     1      -9.342  12.924  68.186  1.00  0.00    -0.214 C  
BRANCH   4   5
HETATM    5  C   UNL     1      -9.220  11.735  67.228  1.00  0.00    -0.173 C  
BRANCH   5   6
HETATM    6  C   UNL     1      -9.409  10.333  67.853  1.00  0.00    -0.147 C  
HETATM    7  H   UNL     1      -8.079   6.538  67.771  1.00  0.00     0.000 HD 
HETATM    8  C   UNL     1      -8.413   9.174  67.421  1.00  0.00    -0.115 C  
HETATM    9  C   UNL     1     -10.785   9.795  67.439  1.00  0.00    -0.249 C  
HETATM   10  C   UNL     1     -10.709   8.332  67.762  1.00  0.00    -0.165 C  
HETATM   11  O   UNL     1     -11.843  10.392  68.165  1.00  0.00    -0.761 OA 
HETATM   12  O   UNL     1      -8.944   6.798  68.066  1.00  0.00    -0.120 OA 
HETATM   13  H   UNL     1     -12.695  10.059  67.909  1.00  0.00     0.000 HD 
HETATM   14  C   UNL     1      -9.330   7.917  67.293  1.00  0.00    -0.148 C  
BRANCH   8  15
HETATM   15  C   UNL     1      -7.162   8.986  68.339  1.00  0.00    -0.077 C  
BRANCH  15  16
HETATM   16  C   UNL     1      -7.234   9.669  69.693  1.00  0.00    -0.084 C  
HETATM   17  C   UNL     1      -7.633   9.222  70.900  1.00  0.00    -0.130 C  
BRANCH  17  18
HETATM   18  C   UNL     1      -8.159   7.867  71.279  1.00  0.00    -0.101 C  
BRANCH  18  19
HETATM   19  C   UNL     1      -9.567   7.939  71.891  1.00  0.00    -0.226 C  
BRANCH  19  20
HETATM   20  C   UNL     1     -10.607   7.087  71.175  1.00  0.00    -0.237 C  
BRANCH  20  21
HETATM   21  C   UNL     1     -10.926   5.854  71.962  1.00  0.00    -0.266 C  
HETATM   22  O   UNL     1     -12.005   5.576  72.471  1.00  0.00    -0.223 OA 
BRANCH  21  23
HETATM   23  O   UNL     1      -9.771   5.156  72.140  1.00  0.00    -0.155 OA 
BRANCH  23  24
HETATM   24  C   UNL     1     -10.047   3.774  72.234  1.00  0.00    -0.157 C  
BRANCH  24  25
HETATM   25  C   UNL     1      -8.798   2.922  72.181  1.00  0.00    -0.116 C  
BRANCH  25  26
HETATM   26  C   UNL     1      -8.313   2.665  70.756  1.00  0.00    -0.082 C  
BRANCH  26  27
HETATM   27  C   UNL     1      -9.422   2.372  69.736  1.00  0.00    -0.051 C  
BRANCH  27  28
HETATM   28  O   UNL     1      -9.451   3.407  68.778  1.00  0.00    -0.166 OA 
HETATM   29  N   UNL     1      -9.260   2.928  67.460  1.00  0.00    -0.187 N  
HETATM   30  O   UNL     1      -9.219   3.838  66.628  1.00  0.00    -0.150 OA 
HETATM   31  O   UNL     1      -9.154   1.718  67.308  1.00  0.00    -0.130 OA 
ENDBRANCH  27  28
ENDBRANCH  26  27
ENDBRANCH  25  26
ENDBRANCH  24  25
ENDBRANCH  23  24
ENDBRANCH  21  23
ENDBRANCH  20  21
ENDBRANCH  19  20
ENDBRANCH  18  19
ENDBRANCH  17  18
ENDBRANCH  15  16
ENDBRANCH   8  15
ENDBRANCH   5   6
ENDBRANCH   4   5
ENDBRANCH   2   4
BRANCH   2  32
HETATM   32  C   UNL     1     -10.531  15.158  68.090  1.00  0.00    -0.245 C  
BRANCH  32  33
HETATM   33  C   UNL     1     -10.796  15.691  66.686  1.00  0.00    -0.266 C  
BRANCH  33  34
HETATM   34  C   UNL     1     -11.198  14.560  65.796  1.00  0.00    -0.334 A  
HETATM   35  C   UNL     1     -10.681  13.074  63.960  1.00  0.00    -0.387 A  
HETATM   36  C   UNL     1     -12.883  13.057  64.964  1.00  0.00    -0.365 A  
HETATM   37  C   UNL     1     -10.287  14.073  64.847  1.00  0.00    -0.434 A  
HETATM   38  C   UNL     1     -12.495  14.053  65.852  1.00  0.00    -0.513 A  
HETATM   39  C   UNL     1     -11.977  12.568  64.019  1.00  0.00    -0.536 A  
ENDBRANCH  33  34
ENDBRANCH  32  33
ENDBRANCH   2  32
TORSDOF 18
ENDMDL
MODEL      367
REMARK 921   NORMALIZED FREE ENERGY PREDICTED BY IDOCK:   -2.89 KCAL/MOL
REMARK 922        TOTAL FREE ENERGY PREDICTED BY IDOCK:  -10.72 KCAL/MOL
REMARK 923 INTER-LIGAND FREE ENERGY PREDICTED BY IDOCK:   -7.59 KCAL/MOL
REMARK 924 INTRA-LIGAND FREE ENERGY PREDICTED BY IDOCK:   -3.13 KCAL/MOL
REMARK 927      BINDING AFFINITY PREDICTED BY RF-SCORE:    0.00 PKD
ROOT
HETATM    1  O   UNL     1     -11.432   6.632  67.085  1.00  0.00    -0.779 OA 
HETATM    2  C   UNL     1     -10.852   5.897  68.161  1.00  0.00    -0.236 C  
HETATM    3  H   UNL     1     -11.068   6.342  66.256  1.00  0.00     0.000 HD 
ENDROOT
BRANCH   2   4
HETATM    4  C   UNL     1     -11.443   6.366  69.505  1.00  0.00    -0.412 C  
BRANCH   4   5
HETATM    5  C   UNL     1     -10.909   7.709  70.016  1.00  0.00    -0.250 C  
BRANCH   5   6
HETATM    6  C   UNL     1     -10.183   7.680  71.380  1.00  0.00    -0.208 C  
HETATM    7  H   UNL     1      -6.689   6.824  73.179  1.00  0.00     0.000 HD 
HETATM    8  C   UNL     1      -8.640   7.307  71.406  1.00  0.00    -0.115 C  
HETATM    9  C   UNL     1     -10.828   6.595  72.253  1.00  0.00    -0.229 C  
HETATM   10  C   UNL     1      -9.837   6.393  73.363  1.00  0.00    -0.190 C  
HETATM   11  O   UNL     1     -12.073   6.998  72.791  1.00  0.00    -0.493 OA 
HETATM   12  O   UNL     1      -7.533   6.821  73.616  1.00  0.00    -0.083 OA 
HETATM   13  H   UNL     1     -12.473   6.327  73.331  1.00  0.00     0.000 HD 
HETATM   14  C   UNL     1      -8.492   6.398  72.667  1.00  0.00    -0.122 C  
BRANCH   8  15
HETATM   15  C   UNL     1      -7.655   8.519  71.348  1.00  0.00    -0.124 C  
BRANCH  15  16
HETATM   16  C   UNL     1      -8.005   9.601  70.342  1.00  0.00    -0.191 C  
HETATM   17  C   UNL     1      -7.682   9.752  69.042  1.00  0.00    -0.085 C  
BRANCH  17  18
HETATM   18  C   UNL     1      -6.835   8.870  68.171  1.00  0.00    -0.069 C  
BRANCH  18  19
HETATM   19  C   UNL     1      -6.656   9.446  66.757  1.00  0.00    -0.068 C  
BRANCH  19  20
HETATM   20  C   UNL     1      -7.351   8.648  65.661  1.00  0.00    -0.084 C  
BRANCH  20  21
HETATM   21  C   UNL     1      -8.735   9.162  65.417  1.00  0.00    -0.186 C  
HETATM   22  O   UNL     1      -9.773   8.702  65.877  1.00  0.00    -0.209 OA 
BRANCH  21  23
HETATM   23  O   UNL     1      -8.661  10.145  64.478  1.00  0.00    -0.168 OA 
BRANCH  23  24
HETATM   24  C   UNL     1      -9.716  11.067  64.655  1.00  0.00    -0.266 C  
BRANCH  24  25
HETATM   25  C   UNL     1      -9.289  12.309  65.407  1.00  0.00     0.113 C  
BRANCH  25  26
HETATM   26  C   UNL     1     -10.420  13.322  65.572  1.00  0.00    -0.295 C  
BRANCH  26  27
HETATM   27  C   UNL     1      -9.976  14.791  65.607  1.00  0.00    -0.360 C  
BRANCH  27  28
HETATM   28  O   UNL     1     -10.324  15.346  66.857  1.00  0.00    -0.266 OA 
HETATM   29  N   UNL     1     -10.533  16.744  66.787  1.00  0.00    -0.288 N  
HETATM   30  O   UNL     1     -10.774  17.242  67.889  1.00  0.00    -0.372 OA 
HETATM   31  O   UNL     1     -10.447  17.275  65.687  1.00  0.00    -0.561 OA 
ENDBRANCH  27  28
ENDBRANCH  26  27
ENDBRANCH  25  26
ENDBRANCH  24  25
ENDBRANCH  23  24
ENDBRANCH  21  23
ENDBRANCH  20  21
ENDBRANCH  19  20
ENDBRANCH  18  19
ENDBRANCH  17  18
ENDBRANCH  15  16
ENDBRANCH   8  15
ENDBRANCH   5   6
ENDBRANCH   4   5
ENDBRANCH   2   4
BRANCH   2  32
HETATM   32  C   UNL     1      -9.351   6.137  68.096  1.00  0.00    -0.115 C  
BRANCH  32  33
HETATM   33  C   UNL     1      -8.572   4.829  68.033  1.00  0.00    -0.105 C  
BRANCH  33  34
HETATM   34  C   UNL     1      -8.709   4.238  66.668  1.00  0.00    -0.113 A  
HETATM   35  C   UNL     1      -8.875   4.545  64.276  1.00  0.00    -0.152 A  
HETATM   36  C   UNL     1      -9.170   2.349  65.249  1.00  0.00    -0.094 A  
HETATM   37  C   UNL     1      -8.667   5.077  65.545  1.00  0.00    -0.143 A  
HETATM   38  C   UNL     1      -8.964   2.875  66.518  1.00  0.00    -0.163 A  
HETATM   39  C   UNL     1      -9.126   3.182  64.128  1.00  0.00    -0.109 A  
ENDBRANCH  33  34
ENDBRANCH  32  33
ENDBRANCH   2  32
TORSDOF 18
ENDMDL
MODEL      368
REMARK 921   NORMALIZED FREE ENERGY PREDICTED BY IDOCK:   -2.89 KCAL/MOL
REMARK 922        TOTAL FREE ENERGY PREDICTED BY IDOCK:  -10.71 KCAL/MOL
REMARK 923 INTER-LIGAND FREE ENERGY PREDICTED BY IDOCK:   -7.65 KCAL/MOL
REMARK 924 INTRA-LIGAND FREE ENERGY PREDICTED BY IDOCK:   -3.06 KCAL/MOL
REMARK 927      BINDING AFFINITY PREDICTED BY RF-SCORE:    0.00 PKD
ROOT
HETATM    1  O   UNL     1     -10.284   5.298  68.061  1.00  0.00    -0.173 OA 
HETATM    2  C   UNL     1      -9.544   6.492  67.813  1.00  0.00    -0.122 C  
HETATM    3  H   UNL     1     -10.624   4.948  67.246  1.00  0.00     0.000 HD 
ENDROOT
BRANCH   2   4
HETATM    4  C   UNL     1      -8.992   7.060  69.135  1.00  0.00    -0.134 C  
BRANCH   4   5
HETATM    5  C   UNL     1      -7.740   6.359  69.672  1.00  0.00    -0.103 C  
BRANCH   5   6
HETATM    6  C   UNL     1      -7.285   6.768  71.092  1.00  0.00    -0.077 C  
HETATM    7  H   UNL     1      -8.583   8.114  74.653  1.00  0.00     0.000 HD 
HETATM    8  C   UNL     1      -8.397   7.146  72.161  1.00  0.00    -0.109 C  
HETATM    9  C   UNL     1      -6.441   8.045  70.986  1.00  0.00    -0.037 C  
HETATM   10  C   UNL     1      -6.380   8.552  72.397  1.00  0.00    -0.083 C  
HETATM   11  O   UNL     1      -5.132   7.794  70.510  1.00  0.00    -0.023 OA 
HETATM   12  O   UNL     1      -7.698   8.229  74.325  1.00  0.00    -0.204 OA 
HETATM   13  H   UNL     1      -4.609   8.584  70.445  1.00  0.00     0.000 HD 
HETATM   14  C   UNL     1      -7.789   8.368  72.921  1.00  0.00    -0.083 C  
BRANCH   8  15
HETATM   15  C   UNL     1      -8.877   5.974  73.075  1.00  0.00    -0.121 C  
BRANCH  15  16
HETATM   16  C   UNL     1     -10.351   5.623  72.970  1.00  0.00    -0.230 C  
HETATM   17  C   UNL     1     -11.455   6.395  72.942  1.00  0.00    -0.107 C  
BRANCH  17  18
HETATM   18  C   UNL     1     -11.563   7.891  73.023  1.00  0.00    -0.158 C  
BRANCH  18  19
HETATM   19  C   UNL     1     -12.523   8.465  71.968  1.00  0.00    -0.407 C  
BRANCH  19  20
HETATM   20  C   UNL     1     -11.913   8.617  70.581  1.00  0.00    -0.056 C  
BRANCH  20  21
HETATM   21  C   UNL     1     -11.271   9.960  70.419  1.00  0.00    -0.313 C  
HETATM   22  O   UNL     1     -10.070  10.185  70.326  1.00  0.00    -0.227 OA 
BRANCH  21  23
HETATM   23  O   UNL     1     -12.240  10.908  70.539  1.00  0.00    -0.305 OA 
BRANCH  23  24
HETATM   24  C   UNL     1     -11.801  12.126  69.974  1.00  0.00    -0.306 C  
BRANCH  24  25
HETATM   25  C   UNL     1     -11.857  12.125  68.462  1.00  0.00    -0.365 C  
BRANCH  25  26
HETATM   26  C   UNL     1     -10.566  12.628  67.819  1.00  0.00    -0.233 C  
BRANCH  26  27
HETATM   27  C   UNL     1     -10.757  13.680  66.717  1.00  0.00    -0.272 C  
BRANCH  27  28
HETATM   28  O   UNL     1     -11.413  14.804  67.264  1.00  0.00    -0.350 OA 
HETATM   29  N   UNL     1     -10.691  16.003  67.057  1.00  0.00    -0.308 N  
HETATM   30  O   UNL     1     -11.229  16.977  67.590  1.00  0.00    -0.138 OA 
HETATM   31  O   UNL     1      -9.655  15.935  66.408  1.00  0.00    -0.246 OA 
ENDBRANCH  27  28
ENDBRANCH  26  27
ENDBRANCH  25  26
ENDBRANCH  24  25
ENDBRANCH  23  24
ENDBRANCH  21  23
ENDBRANCH  20  21
ENDBRANCH  19  20
ENDBRANCH  18  19
ENDBRANCH  17  18
ENDBRANCH  15  16
ENDBRANCH   8  15
ENDBRANCH   5   6
ENDBRANCH   4   5
ENDBRANCH   2   4
BRANCH   2  32
HETATM   32  C   UNL     1     -10.499   7.467  67.141  1.00  0.00    -0.407 C  
BRANCH  32  33
HETATM   33  C   UNL     1      -9.947   8.888  67.141  1.00  0.00    -0.289 C  
BRANCH  33  34
HETATM   34  C   UNL     1      -9.675   9.313  65.735  1.00  0.00    -0.339 A  
HETATM   35  C   UNL     1      -8.316   9.156  63.742  1.00  0.00    -0.183 A  
HETATM   36  C   UNL     1     -10.088  10.799  63.887  1.00  0.00    -0.397 A  
HETATM   37  C   UNL     1      -8.627   8.711  65.023  1.00  0.00    -0.185 A  
HETATM   38  C   UNL     1     -10.403  10.358  65.167  1.00  0.00    -0.260 A  
HETATM   39  C   UNL     1      -9.046  10.199  63.175  1.00  0.00    -0.296 A  
ENDBRANCH  33  34
ENDBRANCH  32  33
ENDBRANCH   2  32
TORSDOF 18
ENDMDL
MODEL      369
REMARK 921   NORMALIZED FREE ENERGY PREDICTED BY IDOCK:   -2.88 KCAL/MOL
REMARK 922        TOTAL FREE ENERGY PREDICTED BY IDOCK:  -10.70 KCAL/MOL
REMARK 923 INTER-LIGAND FREE ENERGY PREDICTED BY IDOCK:   -6.72 KCAL/MOL
REMARK 924 INTRA-LIGAND FREE ENERGY PREDICTED BY IDOCK:   -3.98 KCAL/MOL
REMARK 927      BINDING AFFINITY PREDICTED BY RF-SCORE:    0.00 PKD
ROOT
HETATM    1  O   UNL     1      -9.730   6.042  74.333  1.00  0.00    -0.183 OA 
HETATM    2  C   UNL     1     -10.139   6.309  72.993  1.00  0.00    -0.184 C  
HETATM    3  H   UNL     1      -9.119   5.314  74.350  1.00  0.00     0.000 HD 
ENDROOT
BRANCH   2   4
HETATM    4  C   UNL     1     -11.129   7.490  72.965  1.00  0.00    -0.413 C  
BRANCH   4   5
HETATM    5  C   UNL     1     -12.101   7.496  71.780  1.00  0.00    -0.340 C  
BRANCH   5   6
HETATM    6  C   UNL     1     -11.751   8.451  70.615  1.00  0.00    -0.159 C  
HETATM    7  H   UNL     1      -8.704  10.169  68.631  1.00  0.00     0.000 HD 
HETATM    8  C   UNL     1     -10.222   8.661  70.245  1.00  0.00    -0.213 C  
HETATM    9  C   UNL     1     -12.229   9.862  70.981  1.00  0.00    -0.353 C  
HETATM   10  C   UNL     1     -11.522  10.746  69.995  1.00  0.00    -0.412 C  
HETATM   11  O   UNL     1     -13.629  10.016  70.843  1.00  0.00    -0.456 OA 
HETATM   12  O   UNL     1      -9.587  10.519  68.668  1.00  0.00    -0.156 OA 
HETATM   13  H   UNL     1     -13.925  10.890  71.069  1.00  0.00     0.000 HD 
HETATM   14  C   UNL     1     -10.115  10.188  69.936  1.00  0.00    -0.222 C  
BRANCH   8  15
HETATM   15  C   UNL     1      -9.665   7.722  69.127  1.00  0.00    -0.161 C  
BRANCH  15  16
HETATM   16  C   UNL     1     -10.592   7.487  67.948  1.00  0.00    -0.250 C  
HETATM   17  C   UNL     1     -10.870   6.377  67.236  1.00  0.00    -0.463 C  
BRANCH  17  18
HETATM   18  C   UNL     1     -10.316   4.990  67.394  1.00  0.00    -0.174 C  
BRANCH  18  19
HETATM   19  C   UNL     1     -10.152   4.270  66.047  1.00  0.00    -0.217 C  
BRANCH  19  20
HETATM   20  C   UNL     1      -9.012   4.799  65.186  1.00  0.00    -0.152 C  
BRANCH  20  21
HETATM   21  C   UNL     1      -7.837   3.871  65.220  1.00  0.00    -0.089 C  
HETATM   22  O   UNL     1      -7.731   2.812  64.614  1.00  0.00    -0.075 OA 
BRANCH  21  23
HETATM   23  O   UNL     1      -6.961   4.333  66.153  1.00  0.00    -0.063 OA 
BRANCH  23  24
HETATM   24  C   UNL     1      -6.688   5.701  65.929  1.00  0.00    -0.056 C  
BRANCH  24  25
HETATM   25  C   UNL     1      -6.798   6.535  67.187  1.00  0.00    -0.066 C  
BRANCH  25  26
HETATM   26  C   UNL     1      -7.090   8.006  66.901  1.00  0.00    -0.081 C  
BRANCH  26  27
HETATM   27  C   UNL     1      -7.384   8.336  65.430  1.00  0.00    -0.083 C  
BRANCH  27  28
HETATM   28  O   UNL     1      -8.772   8.532  65.273  1.00  0.00    -0.179 OA 
HETATM   29  N   UNL     1      -9.133   9.899  65.314  1.00  0.00    -0.193 N  
HETATM   30  O   UNL     1     -10.352  10.069  65.242  1.00  0.00    -0.236 OA 
HETATM   31  O   UNL     1      -8.230  10.719  65.421  1.00  0.00    -0.151 OA 
ENDBRANCH  27  28
ENDBRANCH  26  27
ENDBRANCH  25  26
ENDBRANCH  24  25
ENDBRANCH  23  24
ENDBRANCH  21  23
ENDBRANCH  20  21
ENDBRANCH  19  20
ENDBRANCH  18  19
ENDBRANCH  17  18
ENDBRANCH  15  16
ENDBRANCH   8  15
ENDBRANCH   5   6
ENDBRANCH   4   5
ENDBRANCH   2   4
BRANCH   2  32
HETATM   32  C   UNL     1     -10.779   5.032  72.467  1.00  0.00    -0.271 C  
BRANCH  32  33
HETATM   33  C   UNL     1     -10.380   4.754  71.022  1.00  0.00    -0.188 C  
BRANCH  33  34
HETATM   34  C   UNL     1      -9.082   4.015  71.002  1.00  0.00    -0.179 A  
HETATM   35  C   UNL     1      -6.874   3.715  70.063  1.00  0.00    -0.034 A  
HETATM   36  C   UNL     1      -7.743   2.131  71.673  1.00  0.00    -0.041 A  
HETATM   37  C   UNL     1      -8.056   4.445  70.147  1.00  0.00    -0.059 A  
HETATM   38  C   UNL     1      -8.925   2.857  71.761  1.00  0.00    -0.136 A  
HETATM   39  C   UNL     1      -6.719   2.559  70.825  1.00  0.00    -0.032 A  
ENDBRANCH  33  34
ENDBRANCH  32  33
ENDBRANCH   2  32
TORSDOF 18
ENDMDL
MODEL      370
REMARK 921   NORMALIZED FREE ENERGY PREDICTED BY IDOCK:   -2.88 KCAL/MOL
REMARK 922        TOTAL FREE ENERGY PREDICTED BY IDOCK:  -10.69 KCAL/MOL
REMARK 923 INTER-LIGAND FREE ENERGY PREDICTED BY IDOCK:   -8.15 KCAL/MOL
REMARK 924 INTRA-LIGAND FREE ENERGY PREDICTED BY IDOCK:   -2.54 KCAL/MOL
REMARK 927      BINDING AFFINITY PREDICTED BY RF-SCORE:    0.00 PKD
ROOT
HETATM    1  O   UNL     1      -9.374   6.289  67.860  1.00  0.00    -0.117 OA 
HETATM    2  C   UNL     1      -8.349   7.101  68.429  1.00  0.00    -0.125 C  
HETATM    3  H   UNL     1     -10.042   6.102  68.510  1.00  0.00     0.000 HD 
ENDROOT
BRANCH   2   4
HETATM    4  C   UNL     1      -7.265   7.404  67.375  1.00  0.00    -0.093 C  
BRANCH   4   5
HETATM    5  C   UNL     1      -6.823   8.869  67.299  1.00  0.00    -0.077 C  
BRANCH   5   6
HETATM    6  C   UNL     1      -7.505   9.732  66.213  1.00  0.00    -0.100 C  
HETATM    7  H   UNL     1     -10.385   9.736  63.405  1.00  0.00     0.000 HD 
HETATM    8  C   UNL     1      -8.762   9.132  65.451  1.00  0.00    -0.217 C  
HETATM    9  C   UNL     1      -6.494   9.991  65.089  1.00  0.00    -0.115 C  
HETATM   10  C   UNL     1      -7.340  10.486  63.952  1.00  0.00     0.108 C  
HETATM   11  O   UNL     1      -5.534  10.972  65.434  1.00  0.00    -0.252 OA 
HETATM   12  O   UNL     1      -9.624  10.304  63.395  1.00  0.00    -0.301 OA 
HETATM   13  H   UNL     1      -4.908  11.132  64.738  1.00  0.00     0.000 HD 
HETATM   14  C   UNL     1      -8.553   9.580  63.969  1.00  0.00    -0.207 C  
BRANCH   8  15
HETATM   15  C   UNL     1     -10.154   9.494  66.059  1.00  0.00    -0.319 C  
BRANCH  15  16
HETATM   16  C   UNL     1     -10.124  10.094  67.454  1.00  0.00    -0.251 C  
HETATM   17  C   UNL     1     -10.301  11.357  67.889  1.00  0.00    -0.204 C  
BRANCH  17  18
HETATM   18  C   UNL     1     -10.578  12.600  67.092  1.00  0.00    -0.252 C  
BRANCH  18  19
HETATM   19  C   UNL     1      -9.328  13.115  66.361  1.00  0.00    -0.188 C  
BRANCH  19  20
HETATM   20  C   UNL     1      -8.064  13.125  67.210  1.00  0.00    -0.151 C  
BRANCH  20  21
HETATM   21  C   UNL     1      -7.667  14.523  67.569  1.00  0.00    -0.188 C  
HETATM   22  O   UNL     1      -6.678  15.123  67.169  1.00  0.00    -0.279 OA 
BRANCH  21  23
HETATM   23  O   UNL     1      -8.518  14.969  68.534  1.00  0.00    -0.149 OA 
BRANCH  23  24
HETATM   24  C   UNL     1      -7.991  16.125  69.151  1.00  0.00    -0.233 C  
BRANCH  24  25
HETATM   25  C   UNL     1      -8.845  17.353  68.922  1.00  0.00    -0.153 C  
BRANCH  25  26
HETATM   26  C   UNL     1      -8.082  18.489  68.245  1.00  0.00    -0.324 C  
BRANCH  26  27
HETATM   27  C   UNL     1      -8.168  18.507  66.712  1.00  0.00    -0.257 C  
BRANCH  27  28
HETATM   28  O   UNL     1      -8.953  19.607  66.308  1.00  0.00    -0.362 OA 
HETATM   29  N   UNL     1     -10.204  19.211  65.778  1.00  0.00    -0.301 N  
HETATM   30  O   UNL     1     -10.866  20.167  65.365  1.00  0.00    -0.307 OA 
HETATM   31  O   UNL     1     -10.468  18.016  65.784  1.00  0.00    -0.573 OA 
ENDBRANCH  27  28
ENDBRANCH  26  27
ENDBRANCH  25  26
ENDBRANCH  24  25
ENDBRANCH  23  24
ENDBRANCH  21  23
ENDBRANCH  20  21
ENDBRANCH  19  20
ENDBRANCH  18  19
ENDBRANCH  17  18
ENDBRANCH  15  16
ENDBRANCH   8  15
ENDBRANCH   5   6
ENDBRANCH   4   5
ENDBRANCH   2   4
BRANCH   2  32
HETATM   32  C   UNL     1      -7.779   6.325  69.608  1.00  0.00    -0.099 C  
BRANCH  32  33
HETATM   33  C   UNL     1      -8.844   5.473  70.290  1.00  0.00    -0.140 C  
BRANCH  33  34
HETATM   34  C   UNL     1      -9.784   6.362  71.036  1.00  0.00    -0.192 A  
HETATM   35  C   UNL     1     -12.048   6.940  71.658  1.00  0.00    -0.394 A  
HETATM   36  C   UNL     1     -10.204   8.378  72.282  1.00  0.00    -0.396 A  
HETATM   37  C   UNL     1     -11.157   6.073  71.032  1.00  0.00    -0.348 A  
HETATM   38  C   UNL     1      -9.310   7.515  71.659  1.00  0.00    -0.164 A  
HETATM   39  C   UNL     1     -11.571   8.091  72.281  1.00  0.00    -0.424 A  
ENDBRANCH  33  34
ENDBRANCH  32  33
ENDBRANCH   2  32
TORSDOF 18
ENDMDL
MODEL      371
REMARK 921   NORMALIZED FREE ENERGY PREDICTED BY IDOCK:   -2.84 KCAL/MOL
REMARK 922        TOTAL FREE ENERGY PREDICTED BY IDOCK:  -10.61 KCAL/MOL
REMARK 923 INTER-LIGAND FREE ENERGY PREDICTED BY IDOCK:   -9.27 KCAL/MOL
REMARK 924 INTRA-LIGAND FREE ENERGY PREDICTED BY IDOCK:   -1.34 KCAL/MOL
REMARK 927      BINDING AFFINITY PREDICTED BY RF-SCORE:    0.00 PKD
ROOT
HETATM    1  O   UNL     1     -10.962  19.210  68.441  1.00  0.00    -0.223 OA 
HETATM    2  C   UNL     1     -10.782  19.210  67.026  1.00  0.00    -0.448 C  
HETATM    3  H   UNL     1     -11.232  20.071  68.737  1.00  0.00     0.000 HD 
ENDROOT
BRANCH   2   4
HETATM    4  C   UNL     1     -10.345  17.813  66.545  1.00  0.00    -0.345 C  
BRANCH   4   5
HETATM    5  C   UNL     1     -10.874  16.642  67.381  1.00  0.00    -0.186 C  
BRANCH   5   6
HETATM    6  C   UNL     1     -10.067  15.326  67.300  1.00  0.00    -0.236 C  
HETATM    7  H   UNL     1      -8.905  12.096  69.397  1.00  0.00     0.000 HD 
HETATM    8  C   UNL     1     -10.078  14.355  68.556  1.00  0.00    -0.244 C  
HETATM    9  C   UNL     1      -8.582  15.673  67.128  1.00  0.00    -0.210 C  
HETATM   10  C   UNL     1      -7.876  14.386  67.439  1.00  0.00    -0.211 C  
HETATM   11  O   UNL     1      -8.268  16.086  65.812  1.00  0.00     0.014 OA 
HETATM   12  O   UNL     1      -8.447  12.437  68.637  1.00  0.00    -0.102 OA 
HETATM   13  H   UNL     1      -7.349  16.301  65.706  1.00  0.00     0.000 HD 
HETATM   14  C   UNL     1      -8.606  13.842  68.649  1.00  0.00    -0.077 C  
BRANCH   8  15
HETATM   15  C   UNL     1     -11.166  13.233  68.529  1.00  0.00    -0.304 C  
BRANCH  15  16
HETATM   16  C   UNL     1     -11.835  13.002  67.186  1.00  0.00    -0.431 C  
HETATM   17  C   UNL     1     -11.510  12.203  66.150  1.00  0.00    -0.429 C  
BRANCH  17  18
HETATM   18  C   UNL     1     -10.336  11.278  66.003  1.00  0.00    -0.302 C  
BRANCH  18  19
HETATM   19  C   UNL     1     -10.586   9.909  66.654  1.00  0.00    -0.186 C  
BRANCH  19  20
HETATM   20  C   UNL     1      -9.640   9.577  67.801  1.00  0.00    -0.156 C  
BRANCH  20  21
HETATM   21  C   UNL     1     -10.401   9.184  69.029  1.00  0.00    -0.215 C  
HETATM   22  O   UNL     1     -10.987   9.940  69.794  1.00  0.00    -0.241 OA 
BRANCH  21  23
HETATM   23  O   UNL     1     -10.210   7.852  69.235  1.00  0.00    -0.205 OA 
BRANCH  23  24
HETATM   24  C   UNL     1     -11.455   7.187  69.301  1.00  0.00     0.184 C  
BRANCH  24  25
HETATM   25  C   UNL     1     -11.589   6.314  70.530  1.00  0.00    -0.357 C  
BRANCH  25  26
HETATM   26  C   UNL     1     -11.798   7.118  71.811  1.00  0.00    -0.338 C  
BRANCH  26  27
HETATM   27  C   UNL     1     -12.942   8.141  71.756  1.00  0.00    -0.342 C  
BRANCH  27  28
HETATM   28  O   UNL     1     -12.473   9.381  72.236  1.00  0.00    -0.341 OA 
HETATM   29  N   UNL     1     -13.024  10.477  71.531  1.00  0.00    -0.431 N  
HETATM   30  O   UNL     1     -12.566  11.559  71.906  1.00  0.00    -0.213 OA 
HETATM   31  O   UNL     1     -13.850  10.232  70.661  1.00  0.00     0.154 OA 
ENDBRANCH  27  28
ENDBRANCH  26  27
ENDBRANCH  25  26
ENDBRANCH  24  25
ENDBRANCH  23  24
ENDBRANCH  21  23
ENDBRANCH  20  21
ENDBRANCH  19  20
ENDBRANCH  18  19
ENDBRANCH  17  18
ENDBRANCH  15  16
ENDBRANCH   8  15
ENDBRANCH   5   6
ENDBRANCH   4   5
ENDBRANCH   2   4
BRANCH   2  32
HETATM   32  C   UNL     1      -9.725  20.262  66.720  1.00  0.00    -0.571 C  
BRANCH  32  33
HETATM   33  C   UNL     1      -8.411  19.629  66.276  1.00  0.00    -0.383 C  
BRANCH  33  34
HETATM   34  C   UNL     1      -7.367  19.877  67.314  1.00  0.00    -0.292 A  
HETATM   35  C   UNL     1      -6.697  19.855  69.637  1.00  0.00    -0.337 A  
HETATM   36  C   UNL     1      -5.241  20.806  67.954  1.00  0.00    -0.268 A  
HETATM   37  C   UNL     1      -7.633  19.552  68.653  1.00  0.00    -0.389 A  
HETATM   38  C   UNL     1      -6.172  20.506  66.967  1.00  0.00    -0.260 A  
HETATM   39  C   UNL     1      -5.502  20.481  69.288  1.00  0.00    -0.352 A  
ENDBRANCH  33  34
ENDBRANCH  32  33
ENDBRANCH   2  32
TORSDOF 18
ENDMDL
MODEL      372
REMARK 921   NORMALIZED FREE ENERGY PREDICTED BY IDOCK:   -2.82 KCAL/MOL
REMARK 922        TOTAL FREE ENERGY PREDICTED BY IDOCK:  -10.57 KCAL/MOL
REMARK 923 INTER-LIGAND FREE ENERGY PREDICTED BY IDOCK:   -9.15 KCAL/MOL
REMARK 924 INTRA-LIGAND FREE ENERGY PREDICTED BY IDOCK:   -1.42 KCAL/MOL
REMARK 927      BINDING AFFINITY PREDICTED BY RF-SCORE:    0.00 PKD
ROOT
HETATM    1  O   UNL     1     -11.348   6.082  66.236  1.00  0.00    -0.684 OA 
HETATM    2  C   UNL     1     -10.613   6.755  67.256  1.00  0.00    -0.320 C  
HETATM    3  H   UNL     1     -12.278   6.245  66.340  1.00  0.00     0.000 HD 
ENDROOT
BRANCH   2   4
HETATM    4  C   UNL     1      -9.104   6.490  67.087  1.00  0.00    -0.122 C  
BRANCH   4   5
HETATM    5  C   UNL     1      -8.189   7.639  67.524  1.00  0.00    -0.121 C  
BRANCH   5   6
HETATM    6  C   UNL     1      -8.256   8.927  66.671  1.00  0.00    -0.111 C  
HETATM    7  H   UNL     1     -10.770  11.556  64.956  1.00  0.00     0.000 HD 
HETATM    8  C   UNL     1      -9.678   9.575  66.394  1.00  0.00    -0.295 C  
HETATM    9  C   UNL     1      -7.726   8.610  65.266  1.00  0.00    -0.092 C  
HETATM   10  C   UNL     1      -8.180   9.778  64.441  1.00  0.00    -0.162 C  
HETATM   11  O   UNL     1      -6.315   8.514  65.225  1.00  0.00    -0.052 OA 
HETATM   12  O   UNL     1      -9.879  11.397  64.667  1.00  0.00    -0.241 OA 
HETATM   13  H   UNL     1      -5.987   8.318  64.355  1.00  0.00     0.000 HD 
HETATM   14  C   UNL     1      -9.600  10.032  64.902  1.00  0.00    -0.310 C  
BRANCH   8  15
HETATM   15  C   UNL     1     -10.119  10.686  67.401  1.00  0.00    -0.231 C  
BRANCH  15  16
HETATM   16  C   UNL     1      -9.071  11.738  67.715  1.00  0.00    -0.178 C  
HETATM   17  C   UNL     1      -9.183  13.014  68.135  1.00  0.00    -0.212 C  
BRANCH  17  18
HETATM   18  C   UNL     1     -10.425  13.811  68.416  1.00  0.00    -0.256 C  
BRANCH  18  19
HETATM   19  C   UNL     1     -11.149  14.235  67.129  1.00  0.00    -0.318 C  
BRANCH  19  20
HETATM   20  C   UNL     1     -10.275  14.990  66.136  1.00  0.00    -0.311 C  
BRANCH  20  21
HETATM   21  C   UNL     1     -10.959  16.229  65.650  1.00  0.00    -0.106 C  
HETATM   22  O   UNL     1     -10.917  16.684  64.513  1.00  0.00    -0.885 OA 
BRANCH  21  23
HETATM   23  O   UNL     1     -11.520  16.850  66.723  1.00  0.00     0.524 OA 
BRANCH  23  24
HETATM   24  C   UNL     1     -10.518  17.444  67.521  1.00  0.00    -0.354 C  
BRANCH  24  25
HETATM   25  C   UNL     1     -10.591  18.956  67.527  1.00  0.00    -0.524 C  
BRANCH  25  26
HETATM   26  C   UNL     1      -9.219  19.618  67.414  1.00  0.00    -0.412 C  
BRANCH  26  27
HETATM   27  C   UNL     1      -8.199  19.181  68.475  1.00  0.00    -0.364 C  
BRANCH  27  28
HETATM   28  O   UNL     1      -7.073  18.627  67.830  1.00  0.00    -0.227 OA 
HETATM   29  N   UNL     1      -6.441  17.630  68.610  1.00  0.00    -0.195 N  
HETATM   30  O   UNL     1      -5.420  17.190  68.077  1.00  0.00    -0.116 OA 
HETATM   31  O   UNL     1      -6.956  17.339  69.682  1.00  0.00    -0.118 OA 
ENDBRANCH  27  28
ENDBRANCH  26  27
ENDBRANCH  25  26
ENDBRANCH  24  25
ENDBRANCH  23  24
ENDBRANCH  21  23
ENDBRANCH  20  21
ENDBRANCH  19  20
ENDBRANCH  18  19
ENDBRANCH  17  18
ENDBRANCH  15  16
ENDBRANCH   8  15
ENDBRANCH   5   6
ENDBRANCH   4   5
ENDBRANCH   2   4
BRANCH   2  32
HETATM   32  C   UNL     1     -11.127   6.226  68.587  1.00  0.00    -0.409 C  
BRANCH  32  33
HETATM   33  C   UNL     1      -9.985   5.837  69.519  1.00  0.00    -0.250 C  
BRANCH  33  34
HETATM   34  C   UNL     1     -10.275   6.342  70.894  1.00  0.00    -0.236 A  
HETATM   35  C   UNL     1     -11.422   7.908  72.335  1.00  0.00    -0.433 A  
HETATM   36  C   UNL     1      -9.784   6.379  73.250  1.00  0.00    -0.174 A  
HETATM   37  C   UNL     1     -11.205   7.378  71.067  1.00  0.00    -0.285 A  
HETATM   38  C   UNL     1      -9.564   5.846  71.986  1.00  0.00    -0.167 A  
HETATM   39  C   UNL     1     -10.711   7.409  73.425  1.00  0.00    -0.407 A  
ENDBRANCH  33  34
ENDBRANCH  32  33
ENDBRANCH   2  32
TORSDOF 18
ENDMDL
MODEL      373
REMARK 921   NORMALIZED FREE ENERGY PREDICTED BY IDOCK:   -2.79 KCAL/MOL
REMARK 922        TOTAL FREE ENERGY PREDICTED BY IDOCK:  -10.52 KCAL/MOL
REMARK 923 INTER-LIGAND FREE ENERGY PREDICTED BY IDOCK:   -7.91 KCAL/MOL
REMARK 924 INTRA-LIGAND FREE ENERGY PREDICTED BY IDOCK:   -2.61 KCAL/MOL
REMARK 927      BINDING AFFINITY PREDICTED BY RF-SCORE:    0.00 PKD
ROOT
HETATM    1  O   UNL     1      -7.187  17.874  65.595  1.00  0.00    -0.514 OA 
HETATM    2  C   UNL     1      -7.698  16.915  66.519  1.00  0.00    -0.291 C  
HETATM    3  H   UNL     1      -6.311  18.139  65.848  1.00  0.00     0.000 HD 
ENDROOT
BRANCH   2   4
HETATM    4  C   UNL     1      -9.120  16.485  66.107  1.00  0.00    -0.342 C  
BRANCH   4   5
HETATM    5  C   UNL     1      -9.295  14.986  65.841  1.00  0.00    -0.249 C  
BRANCH   5   6
HETATM    6  C   UNL     1     -10.734  14.511  65.536  1.00  0.00    -0.350 C  
HETATM    7  H   UNL     1     -12.996  11.262  64.826  1.00  0.00     0.000 HD 
HETATM    8  C   UNL     1     -11.012  12.950  65.458  1.00  0.00    -0.301 C  
HETATM    9  C   UNL     1     -11.129  15.016  64.142  1.00  0.00     0.322 C  
HETATM   10  C   UNL     1     -12.344  14.204  63.799  1.00  0.00    -0.121 C  
HETATM   11  O   UNL     1     -11.456  16.393  64.134  1.00  0.00    -1.277 OA 
HETATM   12  O   UNL     1     -13.214  12.141  64.540  1.00  0.00    -0.724 OA 
HETATM   13  H   UNL     1     -11.701  16.705  63.271  1.00  0.00     0.000 HD 
HETATM   14  C   UNL     1     -11.997  12.802  64.255  1.00  0.00    -0.405 C  
BRANCH   8  15
HETATM   15  C   UNL     1     -11.492  12.285  66.788  1.00  0.00    -0.421 C  
BRANCH  15  16
HETATM   16  C   UNL     1     -10.405  12.007  67.811  1.00  0.00    -0.210 C  
HETATM   17  C   UNL     1      -9.308  11.225  67.762  1.00  0.00    -0.163 C  
BRANCH  17  18
HETATM   18  C   UNL     1      -8.823  10.349  66.643  1.00  0.00    -0.144 C  
BRANCH  18  19
HETATM   19  C   UNL     1      -7.581  10.928  65.945  1.00  0.00    -0.057 C  
BRANCH  19  20
HETATM   20  C   UNL     1      -6.653   9.880  65.345  1.00  0.00    -0.099 C  
BRANCH  20  21
HETATM   21  C   UNL     1      -7.185   9.373  64.041  1.00  0.00    -0.102 C  
HETATM   22  O   UNL     1      -7.928   9.977  63.275  1.00  0.00    -0.143 OA 
BRANCH  21  23
HETATM   23  O   UNL     1      -6.822   8.068  63.914  1.00  0.00    -0.065 OA 
BRANCH  23  24
HETATM   24  C   UNL     1      -6.833   7.435  65.177  1.00  0.00    -0.047 C  
BRANCH  24  25
HETATM   25  C   UNL     1      -7.829   6.298  65.255  1.00  0.00    -0.107 C  
BRANCH  25  26
HETATM   26  C   UNL     1      -8.851   6.479  66.375  1.00  0.00    -0.149 C  
BRANCH  26  27
HETATM   27  C   UNL     1      -8.256   6.826  67.747  1.00  0.00    -0.120 C  
BRANCH  27  28
HETATM   28  O   UNL     1      -9.241   7.467  68.527  1.00  0.00    -0.143 OA 
HETATM   29  N   UNL     1      -9.677   6.668  69.610  1.00  0.00    -0.154 N  
HETATM   30  O   UNL     1     -10.584   7.200  70.255  1.00  0.00    -0.216 OA 
HETATM   31  O   UNL     1      -9.130   5.585  69.770  1.00  0.00    -0.128 OA 
ENDBRANCH  27  28
ENDBRANCH  26  27
ENDBRANCH  25  26
ENDBRANCH  24  25
ENDBRANCH  23  24
ENDBRANCH  21  23
ENDBRANCH  20  21
ENDBRANCH  19  20
ENDBRANCH  18  19
ENDBRANCH  17  18
ENDBRANCH  15  16
ENDBRANCH   8  15
ENDBRANCH   5   6
ENDBRANCH   4   5
ENDBRANCH   2   4
BRANCH   2  32
HETATM   32  C   UNL     1      -7.690  17.580  67.888  1.00  0.00    -0.213 C  
BRANCH  32  33
HETATM   33  C   UNL     1      -7.751  16.553  69.014  1.00  0.00    -0.228 C  
BRANCH  33  34
HETATM   34  C   UNL     1      -9.176  16.186  69.270  1.00  0.00    -0.223 A  
HETATM   35  C   UNL     1     -10.836  14.489  69.730  1.00  0.00    -0.132 A  
HETATM   36  C   UNL     1     -11.510  16.771  69.289  1.00  0.00     0.259 A  
HETATM   37  C   UNL     1      -9.503  14.855  69.569  1.00  0.00    -0.004 A  
HETATM   38  C   UNL     1     -10.181  17.142  69.128  1.00  0.00    -0.284 A  
HETATM   39  C   UNL     1     -11.838  15.447  69.590  1.00  0.00    -0.368 A  
ENDBRANCH  33  34
ENDBRANCH  32  33
ENDBRANCH   2  32
TORSDOF 18
ENDMDL
MODEL      374
REMARK 921   NORMALIZED FREE ENERGY PREDICTED BY IDOCK:   -2.79 KCAL/MOL
REMARK 922        TOTAL FREE ENERGY PREDICTED BY IDOCK:  -10.51 KCAL/MOL
REMARK 923 INTER-LIGAND FREE ENERGY PREDICTED BY IDOCK:   -8.33 KCAL/MOL
REMARK 924 INTRA-LIGAND FREE ENERGY PREDICTED BY IDOCK:   -2.18 KCAL/MOL
REMARK 927      BINDING AFFINITY PREDICTED BY RF-SCORE:    0.00 PKD
ROOT
HETATM    1  O   UNL     1      -6.808   8.175  68.899  1.00  0.00    -0.058 OA 
HETATM    2  C   UNL     1      -7.712   8.854  68.030  1.00  0.00    -0.101 C  
HETATM    3  H   UNL     1      -6.702   7.272  68.622  1.00  0.00     0.000 HD 
ENDROOT
BRANCH   2   4
HETATM    4  C   UNL     1      -7.884  10.318  68.480  1.00  0.00    -0.097 C  
BRANCH   4   5
HETATM    5  C   UNL     1      -9.301  10.702  68.917  1.00  0.00    -0.191 C  
BRANCH   5   6
HETATM    6  C   UNL     1      -9.980  11.835  68.114  1.00  0.00    -0.196 C  
HETATM    7  H   UNL     1      -9.966  15.803  67.455  1.00  0.00     0.000 HD 
HETATM    8  C   UNL     1      -9.393  13.305  68.240  1.00  0.00    -0.205 C  
HETATM    9  C   UNL     1     -11.426  11.984  68.606  1.00  0.00    -0.297 C  
HETATM   10  C   UNL     1     -11.856  13.313  68.057  1.00  0.00    -0.392 C  
HETATM   11  O   UNL     1     -12.276  10.965  68.114  1.00  0.00    -0.781 OA 
HETATM   12  O   UNL     1     -10.715  15.237  67.311  1.00  0.00    -0.297 OA 
HETATM   13  H   UNL     1     -13.171  11.057  68.418  1.00  0.00     0.000 HD 
HETATM   14  C   UNL     1     -10.661  14.215  68.286  1.00  0.00    -0.249 C  
BRANCH   8  15
HETATM   15  C   UNL     1      -8.336  13.701  67.159  1.00  0.00    -0.151 C  
BRANCH  15  16
HETATM   16  C   UNL     1      -6.887  13.465  67.541  1.00  0.00    -0.154 C  
HETATM   17  C   UNL     1      -6.189  13.789  68.649  1.00  0.00    -0.089 C  
BRANCH  17  18
HETATM   18  C   UNL     1      -6.652  14.521  69.876  1.00  0.00    -0.151 C  
BRANCH  18  19
HETATM   19  C   UNL     1      -5.926  15.863  70.062  1.00  0.00    -0.156 C  
BRANCH  19  20
HETATM   20  C   UNL     1      -6.449  16.988  69.179  1.00  0.00    -0.221 C  
BRANCH  20  21
HETATM   21  C   UNL     1      -5.842  18.301  69.563  1.00  0.00    -0.246 C  
HETATM   22  O   UNL     1      -5.740  18.750  70.698  1.00  0.00    -0.216 OA 
BRANCH  21  23
HETATM   23  O   UNL     1      -5.550  18.982  68.421  1.00  0.00    -0.192 OA 
BRANCH  23  24
HETATM   24  C   UNL     1      -5.956  18.236  67.293  1.00  0.00    -0.148 C  
BRANCH  24  25
HETATM   25  C   UNL     1      -6.581  19.096  66.215  1.00  0.00    -0.223 C  
BRANCH  25  26
HETATM   26  C   UNL     1      -7.616  20.076  66.762  1.00  0.00    -0.306 C  
BRANCH  26  27
HETATM   27  C   UNL     1      -8.939  19.438  67.212  1.00  0.00    -0.299 C  
BRANCH  27  28
HETATM   28  O   UNL     1      -9.283  18.408  66.311  1.00  0.00    -0.399 OA 
HETATM   29  N   UNL     1     -10.566  18.593  65.744  1.00  0.00    -0.393 N  
HETATM   30  O   UNL     1     -10.895  17.661  65.006  1.00  0.00    -0.758 OA 
HETATM   31  O   UNL     1     -11.176  19.610  66.045  1.00  0.00    -0.133 OA 
ENDBRANCH  27  28
ENDBRANCH  26  27
ENDBRANCH  25  26
ENDBRANCH  24  25
ENDBRANCH  23  24
ENDBRANCH  21  23
ENDBRANCH  20  21
ENDBRANCH  19  20
ENDBRANCH  18  19
ENDBRANCH  17  18
ENDBRANCH  15  16
ENDBRANCH   8  15
ENDBRANCH   5   6
ENDBRANCH   4   5
ENDBRANCH   2   4
BRANCH   2  32
HETATM   32  C   UNL     1      -9.029   8.094  68.087  1.00  0.00    -0.135 C  
BRANCH  32  33
HETATM   33  C   UNL     1      -8.808   6.592  68.224  1.00  0.00    -0.119 C  
BRANCH  33  34
HETATM   34  C   UNL     1      -9.002   5.941  66.894  1.00  0.00    -0.115 A  
HETATM   35  C   UNL     1     -10.339   4.555  65.432  1.00  0.00    -0.224 A  
HETATM   36  C   UNL     1      -8.138   5.289  64.744  1.00  0.00    -0.124 A  
HETATM   37  C   UNL     1     -10.185   5.232  66.639  1.00  0.00    -0.291 A  
HETATM   38  C   UNL     1      -7.979   5.967  65.947  1.00  0.00    -0.109 A  
HETATM   39  C   UNL     1      -9.316   4.584  64.486  1.00  0.00    -0.114 A  
ENDBRANCH  33  34
ENDBRANCH  32  33
ENDBRANCH   2  32
TORSDOF 18
ENDMDL
MODEL      375
REMARK 921   NORMALIZED FREE ENERGY PREDICTED BY IDOCK:   -2.78 KCAL/MOL
REMARK 922        TOTAL FREE ENERGY PREDICTED BY IDOCK:  -10.50 KCAL/MOL
REMARK 923 INTER-LIGAND FREE ENERGY PREDICTED BY IDOCK:   -9.01 KCAL/MOL
REMARK 924 INTRA-LIGAND FREE ENERGY PREDICTED BY IDOCK:   -1.49 KCAL/MOL
REMARK 927      BINDING AFFINITY PREDICTED BY RF-SCORE:    0.00 PKD
ROOT
HETATM    1  O   UNL     1      -7.840   9.762  67.443  1.00  0.00    -0.098 OA 
HETATM    2  C   UNL     1      -8.941   8.963  67.017  1.00  0.00    -0.127 C  
HETATM    3  H   UNL     1      -7.049   9.501  66.985  1.00  0.00     0.000 HD 
ENDROOT
BRANCH   2   4
HETATM    4  C   UNL     1     -10.224   9.386  67.759  1.00  0.00    -0.273 C  
BRANCH   4   5
HETATM    5  C   UNL     1     -10.129   9.360  69.289  1.00  0.00    -0.200 C  
BRANCH   5   6
HETATM    6  C   UNL     1     -11.441   9.060  70.049  1.00  0.00    -0.005 C  
HETATM    7  H   UNL     1     -13.714  10.186  73.170  1.00  0.00     0.000 HD 
HETATM    8  C   UNL     1     -11.855  10.016  71.247  1.00  0.00    -0.471 C  
HETATM    9  C   UNL     1     -11.315   7.684  70.716  1.00  0.00    -0.281 C  
HETATM   10  C   UNL     1     -12.442   7.661  71.707  1.00  0.00    -0.358 C  
HETATM   11  O   UNL     1     -11.464   6.617  69.797  1.00  0.00    -0.474 OA 
HETATM   12  O   UNL     1     -13.729   9.320  72.779  1.00  0.00    -0.410 OA 
HETATM   13  H   UNL     1     -11.385   5.765  70.210  1.00  0.00     0.000 HD 
HETATM   14  C   UNL     1     -12.418   9.041  72.330  1.00  0.00    -0.357 C  
BRANCH   8  15
HETATM   15  C   UNL     1     -12.804  11.198  70.867  1.00  0.00    -0.374 C  
BRANCH  15  16
HETATM   16  C   UNL     1     -13.144  12.154  71.996  1.00  0.00    -0.462 C  
HETATM   17  C   UNL     1     -13.448  13.467  71.995  1.00  0.00    -0.584 C  
BRANCH  17  18
HETATM   18  C   UNL     1     -13.531  14.416  70.834  1.00  0.00    -0.228 C  
BRANCH  18  19
HETATM   19  C   UNL     1     -12.338  15.384  70.786  1.00  0.00    -0.447 C  
BRANCH  19  20
HETATM   20  C   UNL     1     -11.198  14.930  69.883  1.00  0.00    -0.307 C  
BRANCH  20  21
HETATM   21  C   UNL     1     -11.721  14.359  68.602  1.00  0.00    -0.332 C  
HETATM   22  O   UNL     1     -12.303  13.290  68.467  1.00  0.00    -0.161 OA 
BRANCH  21  23
HETATM   23  O   UNL     1     -11.311  15.164  67.583  1.00  0.00    -0.317 OA 
BRANCH  23  24
HETATM   24  C   UNL     1     -11.290  14.441  66.370  1.00  0.00    -0.350 C  
BRANCH  24  25
HETATM   25  C   UNL     1      -9.888  14.094  65.918  1.00  0.00    -0.312 C  
BRANCH  25  26
HETATM   26  C   UNL     1      -9.135  13.230  66.928  1.00  0.00    -0.235 C  
BRANCH  26  27
HETATM   27  C   UNL     1      -7.821  13.833  67.445  1.00  0.00    -0.153 C  
BRANCH  27  28
HETATM   28  O   UNL     1      -8.117  14.877  68.346  1.00  0.00    -0.126 OA 
HETATM   29  N   UNL     1      -7.646  16.131  67.892  1.00  0.00    -0.131 N  
HETATM   30  O   UNL     1      -7.847  17.035  68.708  1.00  0.00    -0.243 OA 
HETATM   31  O   UNL     1      -7.110  16.170  66.792  1.00  0.00    -0.205 OA 
ENDBRANCH  27  28
ENDBRANCH  26  27
ENDBRANCH  25  26
ENDBRANCH  24  25
ENDBRANCH  23  24
ENDBRANCH  21  23
ENDBRANCH  20  21
ENDBRANCH  19  20
ENDBRANCH  18  19
ENDBRANCH  17  18
ENDBRANCH  15  16
ENDBRANCH   8  15
ENDBRANCH   5   6
ENDBRANCH   4   5
ENDBRANCH   2   4
BRANCH   2  32
HETATM   32  C   UNL     1      -8.574   7.517  67.317  1.00  0.00    -0.118 C  
BRANCH  32  33
HETATM   33  C   UNL     1      -8.503   6.677  66.046  1.00  0.00    -0.142 C  
BRANCH  33  34
HETATM   34  C   UNL     1      -8.365   5.236  66.414  1.00  0.00    -0.109 A  
HETATM   35  C   UNL     1      -7.203   3.130  66.169  1.00  0.00    -0.070 A  
HETATM   36  C   UNL     1      -9.246   3.256  67.461  1.00  0.00    -0.233 A  
HETATM   37  C   UNL     1      -7.294   4.492  65.897  1.00  0.00    -0.077 A  
HETATM   38  C   UNL     1      -9.341   4.616  67.193  1.00  0.00    -0.156 A  
HETATM   39  C   UNL     1      -8.178   2.513  66.951  1.00  0.00    -0.084 A  
ENDBRANCH  33  34
ENDBRANCH  32  33
ENDBRANCH   2  32
TORSDOF 18
ENDMDL
MODEL      376
REMARK 921   NORMALIZED FREE ENERGY PREDICTED BY IDOCK:   -2.77 KCAL/MOL
REMARK 922        TOTAL FREE ENERGY PREDICTED BY IDOCK:  -10.47 KCAL/MOL
REMARK 923 INTER-LIGAND FREE ENERGY PREDICTED BY IDOCK:   -9.61 KCAL/MOL
REMARK 924 INTRA-LIGAND FREE ENERGY PREDICTED BY IDOCK:   -0.86 KCAL/MOL
REMARK 927      BINDING AFFINITY PREDICTED BY RF-SCORE:    0.00 PKD
ROOT
HETATM    1  O   UNL     1      -8.698  15.660  66.123  1.00  0.00    -0.336 OA 
HETATM    2  C   UNL     1      -7.541  15.234  66.839  1.00  0.00    -0.016 C  
HETATM    3  H   UNL     1      -8.474  16.368  65.529  1.00  0.00     0.000 HD 
ENDROOT
BRANCH   2   4
HETATM    4  C   UNL     1      -7.904  14.086  67.801  1.00  0.00    -0.176 C  
BRANCH   4   5
HETATM    5  C   UNL     1      -9.352  13.594  67.709  1.00  0.00    -0.218 C  
BRANCH   5   6
HETATM    6  C   UNL     1     -10.210  13.754  68.986  1.00  0.00    -0.040 C  
HETATM    7  H   UNL     1     -13.981  13.760  70.384  1.00  0.00     0.000 HD 
HETATM    8  C   UNL     1     -11.777  13.527  68.876  1.00  0.00    -0.379 C  
HETATM    9  C   UNL     1     -10.091  15.204  69.475  1.00  0.00    -0.214 C  
HETATM   10  C   UNL     1     -11.221  15.345  70.452  1.00  0.00    -0.345 C  
HETATM   11  O   UNL     1      -8.860  15.460  70.126  1.00  0.00    -0.200 OA 
HETATM   12  O   UNL     1     -13.251  14.199  70.805  1.00  0.00    -0.290 OA 
HETATM   13  H   UNL     1      -8.787  16.358  70.429  1.00  0.00     0.000 HD 
HETATM   14  C   UNL     1     -12.384  14.646  69.781  1.00  0.00    -0.262 C  
BRANCH   8  15
HETATM   15  C   UNL     1     -12.270  12.079  69.197  1.00  0.00    -0.106 C  
BRANCH  15  16
HETATM   16  C   UNL     1     -12.322  11.716  70.670  1.00  0.00    -0.437 C  
HETATM   17  C   UNL     1     -12.114  10.549  71.312  1.00  0.00    -0.432 C  
BRANCH  17  18
HETATM   18  C   UNL     1     -11.769   9.204  70.738  1.00  0.00    -0.308 C  
BRANCH  18  19
HETATM   19  C   UNL     1     -10.739   8.451  71.594  1.00  0.00    -0.333 C  
BRANCH  19  20
HETATM   20  C   UNL     1     -10.889   6.935  71.568  1.00  0.00    -0.257 C  
BRANCH  20  21
HETATM   21  C   UNL     1      -9.577   6.270  71.289  1.00  0.00    -0.174 C  
HETATM   22  O   UNL     1      -8.484   6.607  71.727  1.00  0.00    -0.118 OA 
BRANCH  21  23
HETATM   23  O   UNL     1      -9.782   5.309  70.347  1.00  0.00    -0.169 OA 
BRANCH  23  24
HETATM   24  C   UNL     1     -10.819   5.700  69.472  1.00  0.00    -0.274 C  
BRANCH  24  25
HETATM   25  C   UNL     1     -10.432   5.580  68.014  1.00  0.00    -0.240 C  
BRANCH  25  26
HETATM   26  C   UNL     1     -10.924   6.753  67.169  1.00  0.00    -0.458 C  
BRANCH  26  27
HETATM   27  C   UNL     1     -10.305   8.113  67.523  1.00  0.00    -0.261 C  
BRANCH  27  28
HETATM   28  O   UNL     1      -9.071   8.244  66.853  1.00  0.00    -0.138 OA 
HETATM   29  N   UNL     1      -9.127   9.185  65.798  1.00  0.00    -0.198 N  
HETATM   30  O   UNL     1      -8.068   9.255  65.169  1.00  0.00    -0.114 OA 
HETATM   31  O   UNL     1     -10.179   9.789  65.634  1.00  0.00    -0.265 OA 
ENDBRANCH  27  28
ENDBRANCH  26  27
ENDBRANCH  25  26
ENDBRANCH  24  25
ENDBRANCH  23  24
ENDBRANCH  21  23
ENDBRANCH  20  21
ENDBRANCH  19  20
ENDBRANCH  18  19
ENDBRANCH  17  18
ENDBRANCH  15  16
ENDBRANCH   8  15
ENDBRANCH   5   6
ENDBRANCH   4   5
ENDBRANCH   2   4
BRANCH   2  32
HETATM   32  C   UNL     1      -7.019  16.450  67.591  1.00  0.00    -0.157 C  
BRANCH  32  33
HETATM   33  C   UNL     1      -7.075  17.710  66.735  1.00  0.00    -0.239 C  
BRANCH  33  34
HETATM   34  C   UNL     1      -8.289  18.501  67.099  1.00  0.00    -0.253 A  
HETATM   35  C   UNL     1      -9.898  19.193  68.766  1.00  0.00    -0.502 A  
HETATM   36  C   UNL     1     -10.204  19.803  66.444  1.00  0.00    -0.614 A  
HETATM   37  C   UNL     1      -8.723  18.525  68.432  1.00  0.00    -0.351 A  
HETATM   38  C   UNL     1      -9.032  19.138  66.106  1.00  0.00    -0.232 A  
HETATM   39  C   UNL     1     -10.637  19.831  67.772  1.00  0.00    -0.501 A  
ENDBRANCH  33  34
ENDBRANCH  32  33
ENDBRANCH   2  32
TORSDOF 18
ENDMDL
MODEL      377
REMARK 921   NORMALIZED FREE ENERGY PREDICTED BY IDOCK:   -2.70 KCAL/MOL
REMARK 922        TOTAL FREE ENERGY PREDICTED BY IDOCK:  -10.33 KCAL/MOL
REMARK 923 INTER-LIGAND FREE ENERGY PREDICTED BY IDOCK:   -7.95 KCAL/MOL
REMARK 924 INTRA-LIGAND FREE ENERGY PREDICTED BY IDOCK:   -2.39 KCAL/MOL
REMARK 927      BINDING AFFINITY PREDICTED BY RF-SCORE:    0.00 PKD
ROOT
HETATM    1  O   UNL     1      -7.870   4.226  66.962  1.00  0.00    -0.095 OA 
HETATM    2  C   UNL     1      -9.039   5.003  66.710  1.00  0.00    -0.118 C  
HETATM    3  H   UNL     1      -8.088   3.301  66.975  1.00  0.00     0.000 HD 
ENDROOT
BRANCH   2   4
HETATM    4  C   UNL     1      -8.686   6.503  66.690  1.00  0.00    -0.128 C  
BRANCH   4   5
HETATM    5  C   UNL     1      -8.194   7.074  68.024  1.00  0.00    -0.119 C  
BRANCH   5   6
HETATM    6  C   UNL     1      -8.412   8.590  68.239  1.00  0.00    -0.135 C  
HETATM    7  H   UNL     1      -7.291  12.241  66.978  1.00  0.00     0.000 HD 
HETATM    8  C   UNL     1      -7.677   9.604  67.263  1.00  0.00    -0.091 C  
HETATM    9  C   UNL     1      -7.870   8.968  69.624  1.00  0.00    -0.088 C  
HETATM   10  C   UNL     1      -7.779  10.466  69.576  1.00  0.00    -0.159 C  
HETATM   11  O   UNL     1      -8.734   8.574  70.674  1.00  0.00    -0.134 OA 
HETATM   12  O   UNL     1      -7.648  12.056  67.840  1.00  0.00    -0.106 OA 
HETATM   13  H   UNL     1      -8.398   8.809  71.531  1.00  0.00     0.000 HD 
HETATM   14  C   UNL     1      -7.211  10.761  68.203  1.00  0.00    -0.083 C  
BRANCH   8  15
HETATM   15  C   UNL     1      -8.505  10.058  66.019  1.00  0.00    -0.137 C  
BRANCH  15  16
HETATM   16  C   UNL     1     -10.008  10.133  66.223  1.00  0.00    -0.304 C  
HETATM   17  C   UNL     1     -10.870  11.167  66.155  1.00  0.00    -0.247 C  
BRANCH  17  18
HETATM   18  C   UNL     1     -10.589  12.613  65.858  1.00  0.00    -0.297 C  
BRANCH  18  19
HETATM   19  C   UNL     1     -11.131  13.548  66.950  1.00  0.00    -0.309 C  
BRANCH  19  20
HETATM   20  C   UNL     1     -10.075  14.055  67.924  1.00  0.00    -0.237 C  
BRANCH  20  21
HETATM   21  C   UNL     1     -10.422  15.420  68.431  1.00  0.00    -0.239 C  
HETATM   22  O   UNL     1      -9.959  16.482  68.034  1.00  0.00    -0.235 OA 
BRANCH  21  23
HETATM   23  O   UNL     1     -11.235  15.274  69.513  1.00  0.00    -0.246 OA 
BRANCH  23  24
HETATM   24  C   UNL     1     -10.931  16.251  70.486  1.00  0.00    -0.219 C  
BRANCH  24  25
HETATM   25  C   UNL     1     -11.900  16.243  71.648  1.00  0.00    -0.482 C  
BRANCH  25  26
HETATM   26  C   UNL     1     -11.983  14.886  72.344  1.00  0.00    -0.379 C  
BRANCH  26  27
HETATM   27  C   UNL     1     -13.105  13.966  71.842  1.00  0.00    -0.385 C  
BRANCH  27  28
HETATM   28  O   UNL     1     -12.553  13.001  70.974  1.00  0.00    -0.364 OA 
HETATM   29  N   UNL     1     -12.683  11.685  71.478  1.00  0.00    -0.354 N  
HETATM   30  O   UNL     1     -12.144  10.845  70.752  1.00  0.00    -0.322 OA 
HETATM   31  O   UNL     1     -13.282  11.541  72.535  1.00  0.00    -0.110 OA 
ENDBRANCH  27  28
ENDBRANCH  26  27
ENDBRANCH  25  26
ENDBRANCH  24  25
ENDBRANCH  23  24
ENDBRANCH  21  23
ENDBRANCH  20  21
ENDBRANCH  19  20
ENDBRANCH  18  19
ENDBRANCH  17  18
ENDBRANCH  15  16
ENDBRANCH   8  15
ENDBRANCH   5   6
ENDBRANCH   4   5
ENDBRANCH   2   4
BRANCH   2  32
HETATM   32  C   UNL     1     -10.028   4.678  67.821  1.00  0.00    -0.150 C  
BRANCH  32  33
HETATM   33  C   UNL     1      -9.447   3.684  68.820  1.00  0.00    -0.214 C  
BRANCH  33  34
HETATM   34  C   UNL     1      -9.622   4.216  70.205  1.00  0.00    -0.272 A  
HETATM   35  C   UNL     1      -9.315   3.951  72.588  1.00  0.00    -0.155 A  
HETATM   36  C   UNL     1     -10.605   5.805  71.721  1.00  0.00    -0.293 A  
HETATM   37  C   UNL     1      -9.088   3.504  71.289  1.00  0.00    -0.180 A  
HETATM   38  C   UNL     1     -10.382   5.364  70.422  1.00  0.00    -0.353 A  
HETATM   39  C   UNL     1     -10.073   5.100  72.803  1.00  0.00    -0.209 A  
ENDBRANCH  33  34
ENDBRANCH  32  33
ENDBRANCH   2  32
TORSDOF 18
ENDMDL
MODEL      378
REMARK 921   NORMALIZED FREE ENERGY PREDICTED BY IDOCK:   -2.66 KCAL/MOL
REMARK 922        TOTAL FREE ENERGY PREDICTED BY IDOCK:  -10.24 KCAL/MOL
REMARK 923 INTER-LIGAND FREE ENERGY PREDICTED BY IDOCK:   -7.77 KCAL/MOL
REMARK 924 INTRA-LIGAND FREE ENERGY PREDICTED BY IDOCK:   -2.47 KCAL/MOL
REMARK 927      BINDING AFFINITY PREDICTED BY RF-SCORE:    0.00 PKD
ROOT
HETATM    1  O   UNL     1     -10.938   8.647  67.641  1.00  0.00    -0.495 OA 
HETATM    2  C   UNL     1     -10.406   9.801  68.290  1.00  0.00    -0.198 C  
HETATM    3  H   UNL     1     -11.224   8.867  66.762  1.00  0.00     0.000 HD 
ENDROOT
BRANCH   2   4
HETATM    4  C   UNL     1      -9.942   9.443  69.715  1.00  0.00    -0.217 C  
BRANCH   4   5
HETATM    5  C   UNL     1     -10.815   8.416  70.445  1.00  0.00    -0.246 C  
BRANCH   5   6
HETATM    6  C   UNL     1     -10.071   7.415  71.359  1.00  0.00    -0.196 C  
HETATM    7  H   UNL     1     -10.370   3.837  73.172  1.00  0.00     0.000 HD 
HETATM    8  C   UNL     1     -10.753   6.011  71.652  1.00  0.00    -0.303 C  
HETATM    9  C   UNL     1      -9.927   8.041  72.752  1.00  0.00    -0.294 C  
HETATM   10  C   UNL     1      -9.555   6.880  73.629  1.00  0.00    -0.239 C  
HETATM   11  O   UNL     1      -8.911   9.025  72.804  1.00  0.00    -0.207 OA 
HETATM   12  O   UNL     1      -9.803   4.542  73.463  1.00  0.00    -0.132 OA 
HETATM   13  H   UNL     1      -8.821   9.412  73.667  1.00  0.00     0.000 HD 
HETATM   14  C   UNL     1     -10.459   5.758  73.165  1.00  0.00    -0.226 C  
BRANCH   8  15
HETATM   15  C   UNL     1     -10.335   4.848  70.695  1.00  0.00    -0.233 C  
BRANCH  15  16
HETATM   16  C   UNL     1      -9.229   5.177  69.709  1.00  0.00    -0.165 C  
HETATM   17  C   UNL     1      -9.253   5.408  68.381  1.00  0.00    -0.128 C  
BRANCH  17  18
HETATM   18  C   UNL     1     -10.425   5.396  67.442  1.00  0.00    -0.253 C  
BRANCH  18  19
HETATM   19  C   UNL     1      -9.994   5.266  65.973  1.00  0.00    -0.152 C  
BRANCH  19  20
HETATM   20  C   UNL     1      -9.498   3.879  65.584  1.00  0.00    -0.176 C  
BRANCH  20  21
HETATM   21  C   UNL     1      -9.798   3.584  64.148  1.00  0.00    -0.177 C  
HETATM   22  O   UNL     1     -10.848   3.818  63.562  1.00  0.00    -0.247 OA 
BRANCH  21  23
HETATM   23  O   UNL     1      -8.756   2.875  63.635  1.00  0.00    -0.089 OA 
BRANCH  23  24
HETATM   24  C   UNL     1      -7.539   3.544  63.894  1.00  0.00    -0.074 C  
BRANCH  24  25
HETATM   25  C   UNL     1      -7.284   4.688  62.937  1.00  0.00    -0.040 C  
BRANCH  25  26
HETATM   26  C   UNL     1      -6.855   5.971  63.646  1.00  0.00    -0.038 C  
BRANCH  26  27
HETATM   27  C   UNL     1      -7.944   7.047  63.757  1.00  0.00    -0.065 C  
BRANCH  27  28
HETATM   28  O   UNL     1      -7.333   8.296  63.999  1.00  0.00    -0.093 OA 
HETATM   29  N   UNL     1      -7.918   8.981  65.090  1.00  0.00    -0.114 N  
HETATM   30  O   UNL     1      -7.430  10.100  65.262  1.00  0.00    -0.136 OA 
HETATM   31  O   UNL     1      -8.809   8.409  65.705  1.00  0.00    -0.172 OA 
ENDBRANCH  27  28
ENDBRANCH  26  27
ENDBRANCH  25  26
ENDBRANCH  24  25
ENDBRANCH  23  24
ENDBRANCH  21  23
ENDBRANCH  20  21
ENDBRANCH  19  20
ENDBRANCH  18  19
ENDBRANCH  17  18
ENDBRANCH  15  16
ENDBRANCH   8  15
ENDBRANCH   5   6
ENDBRANCH   4   5
ENDBRANCH   2   4
BRANCH   2  32
HETATM   32  C   UNL     1     -11.516  10.841  68.309  1.00  0.00    -0.353 C  
BRANCH  32  33
HETATM   33  C   UNL     1     -11.379  11.791  69.494  1.00  0.00    -0.317 C  
BRANCH  33  34
HETATM   34  C   UNL     1     -11.362  13.200  68.998  1.00  0.00    -0.332 A  
HETATM   35  C   UNL     1     -10.604  14.825  67.377  1.00  0.00    -0.268 A  
HETATM   36  C   UNL     1     -11.843  15.534  69.331  1.00  0.00    -0.392 A  
HETATM   37  C   UNL     1     -10.692  13.504  67.804  1.00  0.00    -0.262 A  
HETATM   38  C   UNL     1     -11.935  14.216  69.761  1.00  0.00    -0.396 A  
HETATM   39  C   UNL     1     -11.179  15.839  68.140  1.00  0.00    -0.344 A  
ENDBRANCH  33  34
ENDBRANCH  32  33
ENDBRANCH   2  32
TORSDOF 18
ENDMDL
MODEL      379
REMARK 921   NORMALIZED FREE ENERGY PREDICTED BY IDOCK:   -2.65 KCAL/MOL
REMARK 922        TOTAL FREE ENERGY PREDICTED BY IDOCK:  -10.22 KCAL/MOL
REMARK 923 INTER-LIGAND FREE ENERGY PREDICTED BY IDOCK:   -7.72 KCAL/MOL
REMARK 924 INTRA-LIGAND FREE ENERGY PREDICTED BY IDOCK:   -2.50 KCAL/MOL
REMARK 927      BINDING AFFINITY PREDICTED BY RF-SCORE:    0.00 PKD
ROOT
HETATM    1  O   UNL     1      -8.359   4.978  66.728  1.00  0.00    -0.108 OA 
HETATM    2  C   UNL     1      -9.244   6.054  66.418  1.00  0.00    -0.151 C  
HETATM    3  H   UNL     1      -8.854   4.184  66.889  1.00  0.00     0.000 HD 
ENDROOT
BRANCH   2   4
HETATM    4  C   UNL     1      -8.441   7.343  66.156  1.00  0.00    -0.147 C  
BRANCH   4   5
HETATM    5  C   UNL     1      -7.205   7.532  67.042  1.00  0.00    -0.085 C  
BRANCH   5   6
HETATM    6  C   UNL     1      -7.172   8.815  67.904  1.00  0.00    -0.084 C  
HETATM    7  H   UNL     1      -5.083  12.170  68.652  1.00  0.00     0.000 HD 
HETATM    8  C   UNL     1      -6.033   9.884  67.623  1.00  0.00    -0.050 C  
HETATM    9  C   UNL     1      -6.936   8.415  69.366  1.00  0.00    -0.050 C  
HETATM   10  C   UNL     1      -6.548   9.703  70.032  1.00  0.00    -0.072 C  
HETATM   11  O   UNL     1      -8.097   7.889  69.982  1.00  0.00    -0.113 OA 
HETATM   12  O   UNL     1      -5.675  11.757  69.269  1.00  0.00    -0.056 OA 
HETATM   13  H   UNL     1      -7.951   7.642  70.887  1.00  0.00     0.000 HD 
HETATM   14  C   UNL     1      -5.605  10.362  69.047  1.00  0.00    -0.041 C  
BRANCH   8  15
HETATM   15  C   UNL     1      -6.414  11.029  66.630  1.00  0.00    -0.129 C  
BRANCH  15  16
HETATM   16  C   UNL     1      -7.902  11.242  66.417  1.00  0.00    -0.109 C  
HETATM   17  C   UNL     1      -8.803  11.992  67.082  1.00  0.00    -0.188 C  
BRANCH  17  18
HETATM   18  C   UNL     1      -8.600  12.862  68.290  1.00  0.00    -0.170 C  
BRANCH  18  19
HETATM   19  C   UNL     1      -8.720  14.358  67.957  1.00  0.00    -0.170 C  
BRANCH  19  20
HETATM   20  C   UNL     1      -9.357  15.196  69.058  1.00  0.00    -0.219 C  
BRANCH  20  21
HETATM   21  C   UNL     1      -8.867  16.610  69.008  1.00  0.00    -0.201 C  
HETATM   22  O   UNL     1      -7.714  16.986  69.182  1.00  0.00    -0.217 OA 
BRANCH  21  23
HETATM   23  O   UNL     1      -9.948  17.427  68.881  1.00  0.00    -0.305 OA 
BRANCH  23  24
HETATM   24  C   UNL     1      -9.613  18.742  69.272  1.00  0.00    -0.036 C  
BRANCH  24  25
HETATM   25  C   UNL     1      -9.987  19.777  68.232  1.00  0.00    -0.557 C  
BRANCH  25  26
HETATM   26  C   UNL     1     -11.016  19.264  67.227  1.00  0.00    -0.443 C  
BRANCH  26  27
HETATM   27  C   UNL     1     -10.433  18.769  65.896  1.00  0.00    -0.376 C  
BRANCH  27  28
HETATM   28  O   UNL     1      -9.025  18.815  65.966  1.00  0.00    -0.479 OA 
HETATM   29  N   UNL     1      -8.435  17.538  65.811  1.00  0.00     0.098 N  
HETATM   30  O   UNL     1      -7.208  17.566  65.936  1.00  0.00    -0.371 OA 
HETATM   31  O   UNL     1      -9.181  16.594  65.588  1.00  0.00    -0.491 OA 
ENDBRANCH  27  28
ENDBRANCH  26  27
ENDBRANCH  25  26
ENDBRANCH  24  25
ENDBRANCH  23  24
ENDBRANCH  21  23
ENDBRANCH  20  21
ENDBRANCH  19  20
ENDBRANCH  18  19
ENDBRANCH  17  18
ENDBRANCH  15  16
ENDBRANCH   8  15
ENDBRANCH   5   6
ENDBRANCH   4   5
ENDBRANCH   2   4
BRANCH   2  32
HETATM   32  C   UNL     1     -10.177   6.210  67.611  1.00  0.00    -0.214 C  
BRANCH  32  33
HETATM   33  C   UNL     1      -9.906   5.158  68.680  1.00  0.00    -0.225 C  
BRANCH  33  34
HETATM   34  C   UNL     1     -10.533   5.588  69.966  1.00  0.00    -0.373 A  
HETATM   35  C   UNL     1     -10.919   5.205  72.322  1.00  0.00    -0.209 A  
HETATM   36  C   UNL     1     -12.072   6.994  71.169  1.00  0.00    -0.412 A  
HETATM   37  C   UNL     1     -10.276   4.859  71.137  1.00  0.00    -0.261 A  
HETATM   38  C   UNL     1     -11.433   6.653  69.983  1.00  0.00    -0.434 A  
HETATM   39  C   UNL     1     -11.816   6.271  72.337  1.00  0.00    -0.272 A  
ENDBRANCH  33  34
ENDBRANCH  32  33
ENDBRANCH   2  32
TORSDOF 18
ENDMDL
MODEL      380
REMARK 921   NORMALIZED FREE ENERGY PREDICTED BY IDOCK:   -2.63 KCAL/MOL
REMARK 922        TOTAL FREE ENERGY PREDICTED BY IDOCK:  -10.19 KCAL/MOL
REMARK 923 INTER-LIGAND FREE ENERGY PREDICTED BY IDOCK:   -7.34 KCAL/MOL
REMARK 924 INTRA-LIGAND FREE ENERGY PREDICTED BY IDOCK:   -2.85 KCAL/MOL
REMARK 927      BINDING AFFINITY PREDICTED BY RF-SCORE:    0.00 PKD
ROOT
HETATM    1  O   UNL     1      -6.665  15.653  66.621  1.00  0.00    -0.167 OA 
HETATM    2  C   UNL     1      -6.279  15.303  67.949  1.00  0.00    -0.153 C  
HETATM    3  H   UNL     1      -5.901  15.693  66.057  1.00  0.00     0.000 HD 
ENDROOT
BRANCH   2   4
HETATM    4  C   UNL     1      -7.518  15.239  68.863  1.00  0.00    -0.147 C  
BRANCH   4   5
HETATM    5  C   UNL     1      -8.841  15.629  68.195  1.00  0.00    -0.174 C  
BRANCH   5   6
HETATM    6  C   UNL     1      -9.926  14.529  68.136  1.00  0.00    -0.220 C  
HETATM    7  H   UNL     1     -11.042  11.171  66.225  1.00  0.00     0.000 HD 
HETATM    8  C   UNL     1      -9.716  13.315  67.135  1.00  0.00    -0.236 C  
HETATM    9  C   UNL     1     -11.239  15.165  67.658  1.00  0.00    -0.327 C  
HETATM   10  C   UNL     1     -12.088  13.987  67.278  1.00  0.00    -0.405 C  
HETATM   11  O   UNL     1     -11.883  15.912  68.673  1.00  0.00    -0.431 OA 
HETATM   12  O   UNL     1     -11.638  11.750  66.687  1.00  0.00    -0.490 OA 
HETATM   13  H   UNL     1     -12.695  16.305  68.378  1.00  0.00     0.000 HD 
HETATM   14  C   UNL     1     -11.139  13.065  66.542  1.00  0.00    -0.288 C  
BRANCH   8  15
HETATM   15  C   UNL     1      -9.025  12.053  67.744  1.00  0.00    -0.176 C  
BRANCH  15  16
HETATM   16  C   UNL     1      -7.714  11.647  67.095  1.00  0.00    -0.159 C  
HETATM   17  C   UNL     1      -6.463  11.549  67.588  1.00  0.00    -0.067 C  
BRANCH  17  18
HETATM   18  C   UNL     1      -5.971  11.838  68.978  1.00  0.00    -0.061 C  
BRANCH  18  19
HETATM   19  C   UNL     1      -6.761  11.070  70.048  1.00  0.00    -0.097 C  
BRANCH  19  20
HETATM   20  C   UNL     1      -6.616   9.555  69.970  1.00  0.00    -0.065 C  
BRANCH  20  21
HETATM   21  C   UNL     1      -7.728   8.870  70.701  1.00  0.00    -0.107 C  
HETATM   22  O   UNL     1      -8.079   9.084  71.855  1.00  0.00    -0.359 OA 
BRANCH  21  23
HETATM   23  O   UNL     1      -8.192   7.861  69.914  1.00  0.00    -0.117 OA 
BRANCH  23  24
HETATM   24  C   UNL     1      -9.530   8.113  69.539  1.00  0.00    -0.156 C  
BRANCH  24  25
HETATM   25  C   UNL     1      -9.723   8.140  68.038  1.00  0.00    -0.186 C  
BRANCH  25  26
HETATM   26  C   UNL     1      -8.407   8.055  67.268  1.00  0.00    -0.122 C  
BRANCH  26  27
HETATM   27  C   UNL     1      -8.479   7.282  65.944  1.00  0.00    -0.144 C  
BRANCH  27  28
HETATM   28  O   UNL     1      -9.592   6.415  65.977  1.00  0.00    -0.063 OA 
HETATM   29  N   UNL     1      -9.249   5.083  65.644  1.00  0.00    -0.156 N  
HETATM   30  O   UNL     1     -10.231   4.337  65.609  1.00  0.00    -0.230 OA 
HETATM   31  O   UNL     1      -8.069   4.840  65.430  1.00  0.00    -0.107 OA 
ENDBRANCH  27  28
ENDBRANCH  26  27
ENDBRANCH  25  26
ENDBRANCH  24  25
ENDBRANCH  23  24
ENDBRANCH  21  23
ENDBRANCH  20  21
ENDBRANCH  19  20
ENDBRANCH  18  19
ENDBRANCH  17  18
ENDBRANCH  15  16
ENDBRANCH   8  15
ENDBRANCH   5   6
ENDBRANCH   4   5
ENDBRANCH   2   4
BRANCH   2  32
HETATM   32  C   UNL     1      -5.297  16.369  68.414  1.00  0.00    -0.107 C  
BRANCH  32  33
HETATM   33  C   UNL     1      -5.814  17.775  68.132  1.00  0.00    -0.161 C  
BRANCH  33  34
HETATM   34  C   UNL     1      -5.519  18.654  69.303  1.00  0.00    -0.206 A  
HETATM   35  C   UNL     1      -5.236  18.913  71.690  1.00  0.00    -0.285 A  
HETATM   36  C   UNL     1      -5.223  20.850  70.240  1.00  0.00    -0.327 A  
HETATM   37  C   UNL     1      -5.431  18.090  70.584  1.00  0.00    -0.220 A  
HETATM   38  C   UNL     1      -5.417  20.034  69.133  1.00  0.00    -0.250 A  
HETATM   39  C   UNL     1      -5.132  20.291  71.517  1.00  0.00    -0.371 A  
ENDBRANCH  33  34
ENDBRANCH  32  33
ENDBRANCH   2  32
TORSDOF 18
ENDMDL
MODEL      381
REMARK 921   NORMALIZED FREE ENERGY PREDICTED BY IDOCK:   -2.62 KCAL/MOL
REMARK 922        TOTAL FREE ENERGY PREDICTED BY IDOCK:  -10.17 KCAL/MOL
REMARK 923 INTER-LIGAND FREE ENERGY PREDICTED BY IDOCK:   -6.97 KCAL/MOL
REMARK 924 INTRA-LIGAND FREE ENERGY PREDICTED BY IDOCK:   -3.20 KCAL/MOL
REMARK 927      BINDING AFFINITY PREDICTED BY RF-SCORE:    0.00 PKD
ROOT
HETATM    1  O   UNL     1     -10.127   6.781  65.752  1.00  0.00    -0.075 OA 
HETATM    2  C   UNL     1      -9.744   6.948  67.116  1.00  0.00    -0.154 C  
HETATM    3  H   UNL     1     -10.429   5.893  65.603  1.00  0.00     0.000 HD 
ENDROOT
BRANCH   2   4
HETATM    4  C   UNL     1      -9.254   8.389  67.359  1.00  0.00    -0.163 C  
BRANCH   4   5
HETATM    5  C   UNL     1      -8.119   8.527  68.379  1.00  0.00    -0.122 C  
BRANCH   5   6
HETATM    6  C   UNL     1      -8.395   7.953  69.788  1.00  0.00    -0.127 C  
HETATM    7  H   UNL     1      -9.824   8.854  73.438  1.00  0.00     0.000 HD 
HETATM    8  C   UNL     1      -9.132   8.876  70.848  1.00  0.00    -0.283 C  
HETATM    9  C   UNL     1      -7.050   7.640  70.458  1.00  0.00    -0.051 C  
HETATM   10  C   UNL     1      -7.406   7.462  71.906  1.00  0.00    -0.079 C  
HETATM   11  O   UNL     1      -6.457   6.455  69.962  1.00  0.00    -0.037 OA 
HETATM   12  O   UNL     1      -9.207   8.153  73.260  1.00  0.00    -0.264 OA 
HETATM   13  H   UNL     1      -5.625   6.261  70.377  1.00  0.00     0.000 HD 
HETATM   14  C   UNL     1      -8.388   8.578  72.189  1.00  0.00    -0.132 C  
BRANCH   8  15
HETATM   15  C   UNL     1     -10.686   8.722  70.908  1.00  0.00    -0.282 C  
BRANCH  15  16
HETATM   16  C   UNL     1     -11.446   9.937  71.407  1.00  0.00    -0.393 C  
HETATM   17  C   UNL     1     -12.126  10.899  70.751  1.00  0.00    -0.469 C  
BRANCH  17  18
HETATM   18  C   UNL     1     -12.330  11.069  69.273  1.00  0.00    -0.160 C  
BRANCH  18  19
HETATM   19  C   UNL     1     -11.329  12.058  68.656  1.00  0.00    -0.329 C  
BRANCH  19  20
HETATM   20  C   UNL     1     -11.311  12.065  67.132  1.00  0.00    -0.396 C  
BRANCH  20  21
HETATM   21  C   UNL     1      -9.929  12.310  66.612  1.00  0.00    -0.215 C  
HETATM   22  O   UNL     1      -9.634  12.678  65.481  1.00  0.00    -0.156 OA 
BRANCH  21  23
HETATM   23  O   UNL     1      -9.042  11.916  67.565  1.00  0.00    -0.169 OA 
BRANCH  23  24
HETATM   24  C   UNL     1      -7.888  12.729  67.522  1.00  0.00    -0.171 C  
BRANCH  24  25
HETATM   25  C   UNL     1      -7.996  13.949  68.411  1.00  0.00    -0.144 C  
BRANCH  25  26
HETATM   26  C   UNL     1      -7.121  15.108  67.938  1.00  0.00    -0.161 C  
BRANCH  26  27
HETATM   27  C   UNL     1      -7.295  16.416  68.724  1.00  0.00    -0.203 C  
BRANCH  27  28
HETATM   28  O   UNL     1      -6.687  17.467  68.007  1.00  0.00    -0.174 OA 
HETATM   29  N   UNL     1      -7.531  18.597  67.886  1.00  0.00    -0.235 N  
HETATM   30  O   UNL     1      -7.026  19.493  67.204  1.00  0.00    -0.198 OA 
HETATM   31  O   UNL     1      -8.621  18.551  68.441  1.00  0.00    -0.315 OA 
ENDBRANCH  27  28
ENDBRANCH  26  27
ENDBRANCH  25  26
ENDBRANCH  24  25
ENDBRANCH  23  24
ENDBRANCH  21  23
ENDBRANCH  20  21
ENDBRANCH  19  20
ENDBRANCH  18  19
ENDBRANCH  17  18
ENDBRANCH  15  16
ENDBRANCH   8  15
ENDBRANCH   5   6
ENDBRANCH   4   5
ENDBRANCH   2   4
BRANCH   2  32
HETATM   32  C   UNL     1      -8.644   5.931  67.388  1.00  0.00    -0.106 C  
BRANCH  32  33
HETATM   33  C   UNL     1      -9.215   4.564  67.744  1.00  0.00    -0.158 C  
BRANCH  33  34
HETATM   34  C   UNL     1      -9.143   4.368  69.223  1.00  0.00    -0.174 A  
HETATM   35  C   UNL     1      -9.952   4.915  71.435  1.00  0.00    -0.266 A  
HETATM   36  C   UNL     1      -8.011   3.496  71.160  1.00  0.00    -0.059 A  
HETATM   37  C   UNL     1     -10.062   5.028  70.052  1.00  0.00    -0.342 A  
HETATM   38  C   UNL     1      -8.117   3.605  69.779  1.00  0.00    -0.063 A  
HETATM   39  C   UNL     1      -8.927   4.150  71.988  1.00  0.00    -0.151 A  
ENDBRANCH  33  34
ENDBRANCH  32  33
ENDBRANCH   2  32
TORSDOF 18
ENDMDL
MODEL      382
REMARK 921   NORMALIZED FREE ENERGY PREDICTED BY IDOCK:   -2.61 KCAL/MOL
REMARK 922        TOTAL FREE ENERGY PREDICTED BY IDOCK:  -10.13 KCAL/MOL
REMARK 923 INTER-LIGAND FREE ENERGY PREDICTED BY IDOCK:   -9.27 KCAL/MOL
REMARK 924 INTRA-LIGAND FREE ENERGY PREDICTED BY IDOCK:   -0.86 KCAL/MOL
REMARK 927      BINDING AFFINITY PREDICTED BY RF-SCORE:    0.00 PKD
ROOT
HETATM    1  O   UNL     1     -10.737  17.824  67.115  1.00  0.00    -0.319 OA 
HETATM    2  C   UNL     1     -10.424  16.554  67.685  1.00  0.00    -0.305 C  
HETATM    3  H   UNL     1      -9.978  18.179  66.669  1.00  0.00     0.000 HD 
ENDROOT
BRANCH   2   4
HETATM    4  C   UNL     1     -11.656  15.978  68.410  1.00  0.00    -0.279 C  
BRANCH   4   5
HETATM    5  C   UNL     1     -11.415  14.660  69.154  1.00  0.00    -0.320 C  
BRANCH   5   6
HETATM    6  C   UNL     1     -11.548  13.368  68.315  1.00  0.00    -0.379 C  
HETATM    7  H   UNL     1      -9.648   9.992  67.234  1.00  0.00     0.000 HD 
HETATM    8  C   UNL     1     -10.381  12.294  68.394  1.00  0.00    -0.231 C  
HETATM    9  C   UNL     1     -11.582  13.752  66.830  1.00  0.00    -0.370 C  
HETATM   10  C   UNL     1     -11.330  12.454  66.120  1.00  0.00    -0.398 C  
HETATM   11  O   UNL     1     -12.834  14.280  66.433  1.00  0.00    -0.479 OA 
HETATM   12  O   UNL     1     -10.342  10.403  66.731  1.00  0.00    -0.223 OA 
HETATM   13  H   UNL     1     -12.855  14.517  65.514  1.00  0.00     0.000 HD 
HETATM   14  C   UNL     1     -10.225  11.799  66.921  1.00  0.00    -0.209 C  
BRANCH   8  15
HETATM   15  C   UNL     1     -10.579  11.162  69.453  1.00  0.00    -0.174 C  
BRANCH  15  16
HETATM   16  C   UNL     1     -12.016  10.884  69.853  1.00  0.00    -0.430 C  
HETATM   17  C   UNL     1     -12.541  10.247  70.919  1.00  0.00    -0.465 C  
BRANCH  17  18
HETATM   18  C   UNL     1     -11.833   9.582  72.065  1.00  0.00    -0.226 C  
BRANCH  18  19
HETATM   19  C   UNL     1     -11.004   8.369  71.614  1.00  0.00    -0.345 C  
BRANCH  19  20
HETATM   20  C   UNL     1     -11.787   7.063  71.551  1.00  0.00    -0.351 C  
BRANCH  20  21
HETATM   21  C   UNL     1     -11.183   6.121  70.556  1.00  0.00    -0.334 C  
HETATM   22  O   UNL     1     -11.339   6.149  69.342  1.00  0.00    -0.420 OA 
BRANCH  21  23
HETATM   23  O   UNL     1     -10.543   5.135  71.243  1.00  0.00    -0.208 OA 
BRANCH  23  24
HETATM   24  C   UNL     1      -9.230   5.540  71.567  1.00  0.00    -0.146 C  
BRANCH  24  25
HETATM   25  C   UNL     1      -8.179   4.853  70.723  1.00  0.00    -0.094 C  
BRANCH  25  26
HETATM   26  C   UNL     1      -7.319   5.834  69.929  1.00  0.00    -0.070 C  
BRANCH  26  27
HETATM   27  C   UNL     1      -7.804   7.291  69.954  1.00  0.00    -0.112 C  
BRANCH  27  28
HETATM   28  O   UNL     1      -8.250   7.649  68.665  1.00  0.00    -0.125 OA 
HETATM   29  N   UNL     1      -7.460   8.671  68.086  1.00  0.00    -0.095 N  
HETATM   30  O   UNL     1      -7.886   9.032  66.986  1.00  0.00    -0.097 OA 
HETATM   31  O   UNL     1      -6.492   9.067  68.722  1.00  0.00    -0.051 OA 
ENDBRANCH  27  28
ENDBRANCH  26  27
ENDBRANCH  25  26
ENDBRANCH  24  25
ENDBRANCH  23  24
ENDBRANCH  21  23
ENDBRANCH  20  21
ENDBRANCH  19  20
ENDBRANCH  18  19
ENDBRANCH  17  18
ENDBRANCH  15  16
ENDBRANCH   8  15
ENDBRANCH   5   6
ENDBRANCH   4   5
ENDBRANCH   2   4
BRANCH   2  32
HETATM   32  C   UNL     1      -9.266  16.780  68.646  1.00  0.00    -0.257 C  
BRANCH  32  33
HETATM   33  C   UNL     1      -8.727  18.203  68.556  1.00  0.00    -0.309 C  
BRANCH  33  34
HETATM   34  C   UNL     1      -7.701  18.275  67.472  1.00  0.00    -0.223 A  
HETATM   35  C   UNL     1      -5.599  17.522  66.544  1.00  0.00    -0.232 A  
HETATM   36  C   UNL     1      -6.794  19.365  65.528  1.00  0.00    -0.303 A  
HETATM   37  C   UNL     1      -6.600  17.407  67.505  1.00  0.00    -0.162 A  
HETATM   38  C   UNL     1      -7.795  19.255  66.485  1.00  0.00    -0.290 A  
HETATM   39  C   UNL     1      -5.697  18.500  65.557  1.00  0.00    -0.238 A  
ENDBRANCH  33  34
ENDBRANCH  32  33
ENDBRANCH   2  32
TORSDOF 18
ENDMDL
MODEL      383
REMARK 921   NORMALIZED FREE ENERGY PREDICTED BY IDOCK:   -2.57 KCAL/MOL
REMARK 922        TOTAL FREE ENERGY PREDICTED BY IDOCK:  -10.05 KCAL/MOL
REMARK 923 INTER-LIGAND FREE ENERGY PREDICTED BY IDOCK:   -8.34 KCAL/MOL
REMARK 924 INTRA-LIGAND FREE ENERGY PREDICTED BY IDOCK:   -1.71 KCAL/MOL
REMARK 927      BINDING AFFINITY PREDICTED BY RF-SCORE:    0.00 PKD
ROOT
HETATM    1  O   UNL     1     -10.398  10.150  68.788  1.00  0.00    -0.176 OA 
HETATM    2  C   UNL     1     -11.046  11.275  68.200  1.00  0.00    -0.259 C  
HETATM    3  H   UNL     1     -10.381  10.239  69.734  1.00  0.00     0.000 HD 
ENDROOT
BRANCH   2   4
HETATM    4  C   UNL     1     -11.074  11.131  66.665  1.00  0.00    -0.255 C  
BRANCH   4   5
HETATM    5  C   UNL     1      -9.701  10.984  66.001  1.00  0.00    -0.265 C  
BRANCH   5   6
HETATM    6  C   UNL     1      -9.625  10.016  64.797  1.00  0.00    -0.374 C  
HETATM    7  H   UNL     1      -7.235   7.423  62.864  1.00  0.00     0.000 HD 
HETATM    8  C   UNL     1      -8.320   9.130  64.623  1.00  0.00    -0.179 C  
HETATM    9  C   UNL     1      -9.674  10.841  63.504  1.00  0.00    -0.341 C  
HETATM   10  C   UNL     1      -9.220   9.877  62.448  1.00  0.00    -0.308 C  
HETATM   11  O   UNL     1     -10.978  11.303  63.202  1.00  0.00    -0.785 OA 
HETATM   12  O   UNL     1      -7.966   7.880  62.465  1.00  0.00    -0.137 OA 
HETATM   13  H   UNL     1     -11.008  11.814  62.402  1.00  0.00     0.000 HD 
HETATM   14  C   UNL     1      -8.055   9.148  63.083  1.00  0.00    -0.164 C  
BRANCH   8  15
HETATM   15  C   UNL     1      -8.383   7.707  65.264  1.00  0.00    -0.121 C  
BRANCH  15  16
HETATM   16  C   UNL     1      -9.250   7.584  66.504  1.00  0.00    -0.217 C  
HETATM   17  C   UNL     1      -8.948   7.274  67.780  1.00  0.00    -0.126 C  
BRANCH  17  18
HETATM   18  C   UNL     1      -7.614   6.930  68.378  1.00  0.00    -0.111 C  
BRANCH  18  19
HETATM   19  C   UNL     1      -7.610   7.057  69.909  1.00  0.00    -0.102 C  
BRANCH  19  20
HETATM   20  C   UNL     1      -6.678   6.083  70.618  1.00  0.00    -0.053 C  
BRANCH  20  21
HETATM   21  C   UNL     1      -7.291   4.720  70.705  1.00  0.00    -0.056 C  
HETATM   22  O   UNL     1      -7.619   4.009  69.763  1.00  0.00    -0.052 OA 
BRANCH  21  23
HETATM   23  O   UNL     1      -7.557   4.459  72.014  1.00  0.00    -0.075 OA 
BRANCH  23  24
HETATM   24  C   UNL     1      -8.915   4.103  72.173  1.00  0.00    -0.115 C  
BRANCH  24  25
HETATM   25  C   UNL     1      -9.818   4.763  71.154  1.00  0.00    -0.260 C  
BRANCH  25  26
HETATM   26  C   UNL     1     -10.981   5.518  71.792  1.00  0.00    -0.249 C  
BRANCH  26  27
HETATM   27  C   UNL     1     -10.782   7.036  71.913  1.00  0.00    -0.217 C  
BRANCH  27  28
HETATM   28  O   UNL     1      -9.767   7.292  72.859  1.00  0.00    -0.148 OA 
HETATM   29  N   UNL     1      -9.152   8.551  72.662  1.00  0.00    -0.238 N  
HETATM   30  O   UNL     1      -8.221   8.750  73.447  1.00  0.00    -0.389 OA 
HETATM   31  O   UNL     1      -9.592   9.262  71.768  1.00  0.00    -0.291 OA 
ENDBRANCH  27  28
ENDBRANCH  26  27
ENDBRANCH  25  26
ENDBRANCH  24  25
ENDBRANCH  23  24
ENDBRANCH  21  23
ENDBRANCH  20  21
ENDBRANCH  19  20
ENDBRANCH  18  19
ENDBRANCH  17  18
ENDBRANCH  15  16
ENDBRANCH   8  15
ENDBRANCH   5   6
ENDBRANCH   4   5
ENDBRANCH   2   4
BRANCH   2  32
HETATM   32  C   UNL     1     -10.262  12.506  68.630  1.00  0.00    -0.166 C  
BRANCH  32  33
HETATM   33  C   UNL     1     -11.173  13.710  68.842  1.00  0.00    -0.309 C  
BRANCH  33  34
HETATM   34  C   UNL     1     -10.667  14.861  68.035  1.00  0.00    -0.253 A  
HETATM   35  C   UNL     1      -9.493  15.677  66.086  1.00  0.00    -0.376 A  
HETATM   36  C   UNL     1     -10.198  17.211  67.819  1.00  0.00    -0.324 A  
HETATM   37  C   UNL     1     -10.038  14.618  66.806  1.00  0.00    -0.266 A  
HETATM   38  C   UNL     1     -10.744  16.157  68.542  1.00  0.00    -0.300 A  
HETATM   39  C   UNL     1      -9.573  16.972  66.593  1.00  0.00    -0.279 A  
ENDBRANCH  33  34
ENDBRANCH  32  33
ENDBRANCH   2  32
TORSDOF 18
ENDMDL
MODEL      384
REMARK 921   NORMALIZED FREE ENERGY PREDICTED BY IDOCK:   -2.56 KCAL/MOL
REMARK 922        TOTAL FREE ENERGY PREDICTED BY IDOCK:  -10.04 KCAL/MOL
REMARK 923 INTER-LIGAND FREE ENERGY PREDICTED BY IDOCK:   -6.98 KCAL/MOL
REMARK 924 INTRA-LIGAND FREE ENERGY PREDICTED BY IDOCK:   -3.06 KCAL/MOL
REMARK 927      BINDING AFFINITY PREDICTED BY RF-SCORE:    0.00 PKD
ROOT
HETATM    1  O   UNL     1      -6.551   8.683  70.901  1.00  0.00    -0.040 OA 
HETATM    2  C   UNL     1      -7.517   8.537  69.862  1.00  0.00    -0.063 C  
HETATM    3  H   UNL     1      -5.703   8.374  70.605  1.00  0.00     0.000 HD 
ENDROOT
BRANCH   2   4
HETATM    4  C   UNL     1      -8.893   9.039  70.341  1.00  0.00    -0.228 C  
BRANCH   4   5
HETATM    5  C   UNL     1      -9.912   9.305  69.228  1.00  0.00    -0.180 C  
BRANCH   5   6
HETATM    6  C   UNL     1     -11.251   9.943  69.666  1.00  0.00    -0.251 C  
HETATM    7  H   UNL     1     -12.906  13.251  71.246  1.00  0.00     0.000 HD 
HETATM    8  C   UNL     1     -11.241  11.451  70.162  1.00  0.00    -0.076 C  
HETATM    9  C   UNL     1     -11.786   9.170  70.879  1.00  0.00    -0.284 C  
HETATM   10  C   UNL     1     -12.844  10.074  71.441  1.00  0.00    -0.519 C  
HETATM   11  O   UNL     1     -12.359   7.926  70.523  1.00  0.00    -0.489 OA 
HETATM   12  O   UNL     1     -13.292  12.384  71.289  1.00  0.00    -0.104 OA 
HETATM   13  H   UNL     1     -12.690   7.448  71.274  1.00  0.00     0.000 HD 
HETATM   14  C   UNL     1     -12.229  11.456  71.373  1.00  0.00    -0.031 C  
BRANCH   8  15
HETATM   15  C   UNL     1     -11.540  12.522  69.064  1.00  0.00    -0.365 C  
BRANCH  15  16
HETATM   16  C   UNL     1     -12.032  11.978  67.735  1.00  0.00    -0.177 C  
HETATM   17  C   UNL     1     -11.644  12.224  66.468  1.00  0.00    -0.440 C  
BRANCH  17  18
HETATM   18  C   UNL     1     -10.576  13.157  65.972  1.00  0.00    -0.291 C  
BRANCH  18  19
HETATM   19  C   UNL     1      -9.307  12.410  65.533  1.00  0.00     0.106 C  
BRANCH  19  20
HETATM   20  C   UNL     1      -8.901  11.267  66.455  1.00  0.00    -0.184 C  
BRANCH  20  21
HETATM   21  C   UNL     1      -7.435  11.314  66.757  1.00  0.00    -0.146 C  
HETATM   22  O   UNL     1      -6.523  11.123  65.962  1.00  0.00    -0.092 OA 
BRANCH  21  23
HETATM   23  O   UNL     1      -7.286  11.464  68.101  1.00  0.00    -0.075 OA 
BRANCH  23  24
HETATM   24  C   UNL     1      -7.905  12.659  68.530  1.00  0.00    -0.104 C  
BRANCH  24  25
HETATM   25  C   UNL     1      -6.919  13.784  68.752  1.00  0.00    -0.109 C  
BRANCH  25  26
HETATM   26  C   UNL     1      -7.516  14.953  69.532  1.00  0.00    -0.162 C  
BRANCH  26  27
HETATM   27  C   UNL     1      -8.540  15.795  68.756  1.00  0.00    -0.203 C  
BRANCH  27  28
HETATM   28  O   UNL     1      -8.218  17.160  68.903  1.00  0.00    -0.255 OA 
HETATM   29  N   UNL     1      -9.355  17.997  68.804  1.00  0.00    -0.278 N  
HETATM   30  O   UNL     1      -9.068  19.194  68.867  1.00  0.00    -0.360 OA 
HETATM   31  O   UNL     1     -10.445  17.456  68.664  1.00  0.00    -0.352 OA 
ENDBRANCH  27  28
ENDBRANCH  26  27
ENDBRANCH  25  26
ENDBRANCH  24  25
ENDBRANCH  23  24
ENDBRANCH  21  23
ENDBRANCH  20  21
ENDBRANCH  19  20
ENDBRANCH  18  19
ENDBRANCH  17  18
ENDBRANCH  15  16
ENDBRANCH   8  15
ENDBRANCH   5   6
ENDBRANCH   4   5
ENDBRANCH   2   4
BRANCH   2  32
HETATM   32  C   UNL     1      -7.555   7.058  69.505  1.00  0.00    -0.098 C  
BRANCH  32  33
HETATM   33  C   UNL     1      -7.172   6.819  68.049  1.00  0.00    -0.091 C  
BRANCH  33  34
HETATM   34  C   UNL     1      -8.347   6.261  67.314  1.00  0.00    -0.109 A  
HETATM   35  C   UNL     1     -10.652   5.532  67.325  1.00  0.00    -0.294 A  
HETATM   36  C   UNL     1      -9.278   5.211  65.359  1.00  0.00    -0.122 A  
HETATM   37  C   UNL     1      -9.575   6.125  67.978  1.00  0.00    -0.115 A  
HETATM   38  C   UNL     1      -8.199   5.802  66.006  1.00  0.00    -0.114 A  
HETATM   39  C   UNL     1     -10.503   5.076  66.017  1.00  0.00    -0.289 A  
ENDBRANCH  33  34
ENDBRANCH  32  33
ENDBRANCH   2  32
TORSDOF 18
ENDMDL
MODEL      385
REMARK 921   NORMALIZED FREE ENERGY PREDICTED BY IDOCK:   -2.54 KCAL/MOL
REMARK 922        TOTAL FREE ENERGY PREDICTED BY IDOCK:   -9.99 KCAL/MOL
REMARK 923 INTER-LIGAND FREE ENERGY PREDICTED BY IDOCK:   -9.00 KCAL/MOL
REMARK 924 INTRA-LIGAND FREE ENERGY PREDICTED BY IDOCK:   -0.99 KCAL/MOL
REMARK 927      BINDING AFFINITY PREDICTED BY RF-SCORE:    0.00 PKD
ROOT
HETATM    1  O   UNL     1     -10.737  17.824  67.115  1.00  0.00    -0.319 OA 
HETATM    2  C   UNL     1     -10.430  16.549  67.676  1.00  0.00    -0.305 C  
HETATM    3  H   UNL     1      -9.978  18.174  66.664  1.00  0.00     0.000 HD 
ENDROOT
BRANCH   2   4
HETATM    4  C   UNL     1     -11.661  15.980  68.408  1.00  0.00    -0.196 C  
BRANCH   4   5
HETATM    5  C   UNL     1     -11.426  14.656  69.145  1.00  0.00    -0.320 C  
BRANCH   5   6
HETATM    6  C   UNL     1     -11.577  13.370  68.301  1.00  0.00    -0.379 C  
HETATM    7  H   UNL     1      -9.718   9.982  67.187  1.00  0.00     0.000 HD 
HETATM    8  C   UNL     1     -10.420  12.285  68.364  1.00  0.00    -0.244 C  
HETATM    9  C   UNL     1     -11.621  13.761  66.818  1.00  0.00    -0.370 C  
HETATM   10  C   UNL     1     -11.386  12.465  66.099  1.00  0.00    -0.398 C  
HETATM   11  O   UNL     1     -12.871  14.302  66.434  1.00  0.00    -0.479 OA 
HETATM   12  O   UNL     1     -10.412  10.402  66.692  1.00  0.00    -0.240 OA 
HETATM   13  H   UNL     1     -12.899  14.544  65.516  1.00  0.00     0.000 HD 
HETATM   14  C   UNL     1     -10.281  11.796  66.887  1.00  0.00    -0.209 C  
BRANCH   8  15
HETATM   15  C   UNL     1     -10.619  11.150  69.419  1.00  0.00    -0.174 C  
BRANCH  15  16
HETATM   16  C   UNL     1     -12.055  10.883  69.831  1.00  0.00    -0.428 C  
HETATM   17  C   UNL     1     -12.577  10.244  70.897  1.00  0.00    -0.465 C  
BRANCH  17  18
HETATM   18  C   UNL     1     -11.865   9.568  72.034  1.00  0.00    -0.226 C  
BRANCH  18  19
HETATM   19  C   UNL     1     -11.051   8.349  71.570  1.00  0.00    -0.329 C  
BRANCH  19  20
HETATM   20  C   UNL     1     -11.846   7.051  71.507  1.00  0.00    -0.351 C  
BRANCH  20  21
HETATM   21  C   UNL     1     -10.941   5.862  71.602  1.00  0.00    -0.268 C  
HETATM   22  O   UNL     1     -10.123   5.503  70.764  1.00  0.00    -0.189 OA 
BRANCH  21  23
HETATM   23  O   UNL     1     -11.283   5.159  72.716  1.00  0.00    -0.263 OA 
BRANCH  23  24
HETATM   24  C   UNL     1     -10.615   5.682  73.845  1.00  0.00    -0.256 C  
BRANCH  24  25
HETATM   25  C   UNL     1      -9.486   4.794  74.323  1.00  0.00    -0.135 C  
BRANCH  25  26
HETATM   26  C   UNL     1      -8.132   5.500  74.318  1.00  0.00    -0.105 C  
BRANCH  26  27
HETATM   27  C   UNL     1      -8.119   6.877  73.639  1.00  0.00    -0.105 C  
BRANCH  27  28
HETATM   28  O   UNL     1      -7.350   6.800  72.459  1.00  0.00    -0.088 OA 
HETATM   29  N   UNL     1      -6.191   7.610  72.517  1.00  0.00    -0.046 N  
HETATM   30  O   UNL     1      -5.551   7.595  71.463  1.00  0.00    -0.035 OA 
HETATM   31  O   UNL     1      -5.973   8.212  73.561  1.00  0.00    -0.068 OA 
ENDBRANCH  27  28
ENDBRANCH  26  27
ENDBRANCH  25  26
ENDBRANCH  24  25
ENDBRANCH  23  24
ENDBRANCH  21  23
ENDBRANCH  20  21
ENDBRANCH  19  20
ENDBRANCH  18  19
ENDBRANCH  17  18
ENDBRANCH  15  16
ENDBRANCH   8  15
ENDBRANCH   5   6
ENDBRANCH   4   5
ENDBRANCH   2   4
BRANCH   2  32
HETATM   32  C   UNL     1      -9.262  16.759  68.628  1.00  0.00    -0.257 C  
BRANCH  32  33
HETATM   33  C   UNL     1      -8.711  18.178  68.540  1.00  0.00    -0.309 C  
BRANCH  33  34
HETATM   34  C   UNL     1      -7.694  18.246  67.448  1.00  0.00    -0.222 A  
HETATM   35  C   UNL     1      -5.607  17.479  66.499  1.00  0.00    -0.232 A  
HETATM   36  C   UNL     1      -6.794  19.338  65.502  1.00  0.00    -0.295 A  
HETATM   37  C   UNL     1      -6.601  17.369  67.468  1.00  0.00    -0.162 A  
HETATM   38  C   UNL     1      -7.788  19.232  66.466  1.00  0.00    -0.290 A  
HETATM   39  C   UNL     1      -5.704  18.463  65.517  1.00  0.00    -0.244 A  
ENDBRANCH  33  34
ENDBRANCH  32  33
ENDBRANCH   2  32
TORSDOF 18
ENDMDL
MODEL      386
REMARK 921   NORMALIZED FREE ENERGY PREDICTED BY IDOCK:   -2.54 KCAL/MOL
REMARK 922        TOTAL FREE ENERGY PREDICTED BY IDOCK:   -9.99 KCAL/MOL
REMARK 923 INTER-LIGAND FREE ENERGY PREDICTED BY IDOCK:   -7.78 KCAL/MOL
REMARK 924 INTRA-LIGAND FREE ENERGY PREDICTED BY IDOCK:   -2.21 KCAL/MOL
REMARK 927      BINDING AFFINITY PREDICTED BY RF-SCORE:    0.00 PKD
ROOT
HETATM    1  O   UNL     1     -10.832  10.746  66.353  1.00  0.00    -0.204 OA 
HETATM    2  C   UNL     1      -9.550  10.430  65.816  1.00  0.00    -0.216 C  
HETATM    3  H   UNL     1     -11.516  10.473  65.752  1.00  0.00     0.000 HD 
ENDROOT
BRANCH   2   4
HETATM    4  C   UNL     1      -8.441  10.873  66.791  1.00  0.00    -0.139 C  
BRANCH   4   5
HETATM    5  C   UNL     1      -7.400   9.798  67.124  1.00  0.00    -0.087 C  
BRANCH   5   6
HETATM    6  C   UNL     1      -7.937   8.513  67.797  1.00  0.00    -0.107 C  
HETATM    7  H   UNL     1      -9.515   7.044  71.192  1.00  0.00     0.000 HD 
HETATM    8  C   UNL     1      -8.568   8.629  69.249  1.00  0.00    -0.131 C  
HETATM    9  C   UNL     1      -6.768   7.539  67.990  1.00  0.00    -0.059 C  
HETATM   10  C   UNL     1      -7.302   6.528  68.963  1.00  0.00    -0.093 C  
HETATM   11  O   UNL     1      -6.391   6.894  66.788  1.00  0.00    -0.042 OA 
HETATM   12  O   UNL     1      -9.046   6.525  70.549  1.00  0.00    -0.151 OA 
HETATM   13  H   UNL     1      -5.667   6.291  66.908  1.00  0.00     0.000 HD 
HETATM   14  C   UNL     1      -8.048   7.355  69.988  1.00  0.00    -0.129 C  
BRANCH   8  15
HETATM   15  C   UNL     1     -10.116   8.832  69.295  1.00  0.00    -0.206 C  
BRANCH  15  16
HETATM   16  C   UNL     1     -10.692   9.171  70.659  1.00  0.00    -0.313 C  
HETATM   17  C   UNL     1     -11.631  10.061  71.038  1.00  0.00    -0.476 C  
BRANCH  17  18
HETATM   18  C   UNL     1     -12.408  11.031  70.194  1.00  0.00    -0.389 C  
BRANCH  18  19
HETATM   19  C   UNL     1     -12.371  12.458  70.764  1.00  0.00    -0.377 C  
BRANCH  19  20
HETATM   20  C   UNL     1     -12.722  13.545  69.756  1.00  0.00     0.171 C  
BRANCH  20  21
HETATM   21  C   UNL     1     -12.012  14.824  70.076  1.00  0.00    -0.316 C  
HETATM   22  O   UNL     1     -11.956  15.369  71.171  1.00  0.00    -0.296 OA 
BRANCH  21  23
HETATM   23  O   UNL     1     -11.558  15.359  68.909  1.00  0.00    -0.315 OA 
BRANCH  23  24
HETATM   24  C   UNL     1     -11.828  14.482  67.835  1.00  0.00    -0.336 C  
BRANCH  24  25
HETATM   25  C   UNL     1     -10.764  14.527  66.760  1.00  0.00    -0.291 C  
BRANCH  25  26
HETATM   26  C   UNL     1      -9.965  15.828  66.768  1.00  0.00    -0.260 C  
BRANCH  26  27
HETATM   27  C   UNL     1     -10.650  17.015  66.074  1.00  0.00    -0.206 C  
BRANCH  27  28
HETATM   28  O   UNL     1      -9.670  17.965  65.716  1.00  0.00    -0.527 OA 
HETATM   29  N   UNL     1      -9.968  19.258  66.206  1.00  0.00    -0.388 N  
HETATM   30  O   UNL     1      -9.147  20.103  65.840  1.00  0.00    -0.276 OA 
HETATM   31  O   UNL     1     -10.968  19.383  66.901  1.00  0.00    -0.444 OA 
ENDBRANCH  27  28
ENDBRANCH  26  27
ENDBRANCH  25  26
ENDBRANCH  24  25
ENDBRANCH  23  24
ENDBRANCH  21  23
ENDBRANCH  20  21
ENDBRANCH  19  20
ENDBRANCH  18  19
ENDBRANCH  17  18
ENDBRANCH  15  16
ENDBRANCH   8  15
ENDBRANCH   5   6
ENDBRANCH   4   5
ENDBRANCH   2   4
BRANCH   2  32
HETATM   32  C   UNL     1      -9.443  11.156  64.483  1.00  0.00    -0.254 C  
BRANCH  32  33
HETATM   33  C   UNL     1      -9.436  10.182  63.309  1.00  0.00    -0.302 C  
BRANCH  33  34
HETATM   34  C   UNL     1      -8.069   9.600  63.158  1.00  0.00    -0.146 A  
HETATM   35  C   UNL     1      -5.703   9.921  62.779  1.00  0.00    -0.098 A  
HETATM   36  C   UNL     1      -6.636   7.690  62.865  1.00  0.00    -0.070 A  
HETATM   37  C   UNL     1      -6.969  10.456  63.001  1.00  0.00    -0.082 A  
HETATM   38  C   UNL     1      -7.901   8.218  63.087  1.00  0.00    -0.148 A  
HETATM   39  C   UNL     1      -5.537   8.539  62.711  1.00  0.00    -0.071 A  
ENDBRANCH  33  34
ENDBRANCH  32  33
ENDBRANCH   2  32
TORSDOF 18
ENDMDL
MODEL      387
REMARK 921   NORMALIZED FREE ENERGY PREDICTED BY IDOCK:   -2.49 KCAL/MOL
REMARK 922        TOTAL FREE ENERGY PREDICTED BY IDOCK:   -9.90 KCAL/MOL
REMARK 923 INTER-LIGAND FREE ENERGY PREDICTED BY IDOCK:   -7.68 KCAL/MOL
REMARK 924 INTRA-LIGAND FREE ENERGY PREDICTED BY IDOCK:   -2.23 KCAL/MOL
REMARK 927      BINDING AFFINITY PREDICTED BY RF-SCORE:    0.00 PKD
ROOT
HETATM    1  O   UNL     1      -9.070  15.402  65.789  1.00  0.00    -0.409 OA 
HETATM    2  C   UNL     1      -7.919  15.047  66.553  1.00  0.00     0.394 C  
HETATM    3  H   UNL     1      -8.840  16.044  65.127  1.00  0.00     0.000 HD 
ENDROOT
BRANCH   2   4
HETATM    4  C   UNL     1      -8.293  14.006  67.626  1.00  0.00    -0.191 C  
BRANCH   4   5
HETATM    5  C   UNL     1      -9.766  13.584  67.637  1.00  0.00    -0.229 C  
BRANCH   5   6
HETATM    6  C   UNL     1     -10.464  13.579  69.017  1.00  0.00    -0.075 C  
HETATM    7  H   UNL     1     -13.975  12.952  70.876  1.00  0.00     0.000 HD 
HETATM    8  C   UNL     1     -11.977  13.105  69.096  1.00  0.00    -0.329 C  
HETATM    9  C   UNL     1     -10.511  15.019  69.545  1.00  0.00    -0.235 C  
HETATM   10  C   UNL     1     -11.512  14.958  70.662  1.00  0.00    -0.313 C  
HETATM   11  O   UNL     1      -9.262  15.457  70.046  1.00  0.00    -0.363 OA 
HETATM   12  O   UNL     1     -13.274  13.494  71.220  1.00  0.00    -0.300 OA 
HETATM   13  H   UNL     1      -9.291  16.348  70.373  1.00  0.00     0.000 HD 
HETATM   14  C   UNL     1     -12.629  14.094  70.114  1.00  0.00    -0.268 C  
BRANCH   8  15
HETATM   15  C   UNL     1     -12.192  11.591  69.417  1.00  0.00    -0.273 C  
BRANCH  15  16
HETATM   16  C   UNL     1     -11.584  11.106  70.721  1.00  0.00    -0.064 C  
HETATM   17  C   UNL     1     -10.993   9.941  71.054  1.00  0.00    -0.360 C  
BRANCH  17  18
HETATM   18  C   UNL     1     -10.762   8.723  70.206  1.00  0.00    -0.249 C  
BRANCH  18  19
HETATM   19  C   UNL     1      -9.268   8.394  70.053  1.00  0.00    -0.158 C  
BRANCH  19  20
HETATM   20  C   UNL     1      -8.432   9.527  69.471  1.00  0.00    -0.156 C  
BRANCH  20  21
HETATM   21  C   UNL     1      -7.053   9.056  69.129  1.00  0.00    -0.063 C  
HETATM   22  O   UNL     1      -6.707   7.896  68.940  1.00  0.00    -0.047 OA 
BRANCH  21  23
HETATM   23  O   UNL     1      -6.212  10.123  69.205  1.00  0.00    -0.040 OA 
BRANCH  23  24
HETATM   24  C   UNL     1      -5.356  10.149  68.081  1.00  0.00    -0.035 C  
BRANCH  24  25
HETATM   25  C   UNL     1      -5.599  11.344  67.186  1.00  0.00    -0.087 C  
BRANCH  25  26
HETATM   26  C   UNL     1      -5.907  10.953  65.743  1.00  0.00    -0.110 C  
BRANCH  26  27
HETATM   27  C   UNL     1      -7.005   9.893  65.578  1.00  0.00    -0.110 C  
BRANCH  27  28
HETATM   28  O   UNL     1      -8.199  10.526  65.172  1.00  0.00    -0.161 OA 
HETATM   29  N   UNL     1      -9.350   9.781  65.518  1.00  0.00    -0.220 N  
HETATM   30  O   UNL     1     -10.391  10.300  65.107  1.00  0.00    -0.286 OA 
HETATM   31  O   UNL     1      -9.185   8.747  66.152  1.00  0.00    -0.184 OA 
ENDBRANCH  27  28
ENDBRANCH  26  27
ENDBRANCH  25  26
ENDBRANCH  24  25
ENDBRANCH  23  24
ENDBRANCH  21  23
ENDBRANCH  20  21
ENDBRANCH  19  20
ENDBRANCH  18  19
ENDBRANCH  17  18
ENDBRANCH  15  16
ENDBRANCH   8  15
ENDBRANCH   5   6
ENDBRANCH   4   5
ENDBRANCH   2   4
BRANCH   2  32
HETATM   32  C   UNL     1      -7.397  16.332  67.179  1.00  0.00    -0.244 C  
BRANCH  32  33
HETATM   33  C   UNL     1      -7.669  17.543  66.294  1.00  0.00    -0.334 C  
BRANCH  33  34
HETATM   34  C   UNL     1      -8.722  18.392  66.927  1.00  0.00    -0.275 A  
HETATM   35  C   UNL     1     -10.303  20.213  66.760  1.00  0.00    -0.505 A  
HETATM   36  C   UNL     1      -9.913  19.124  68.886  1.00  0.00    -0.481 A  
HETATM   37  C   UNL     1      -9.378  19.365  66.158  1.00  0.00    -0.341 A  
HETATM   38  C   UNL     1      -8.989  18.275  68.290  1.00  0.00    -0.318 A  
HETATM   39  C   UNL     1     -10.570  20.093  68.122  1.00  0.00    -0.255 A  
ENDBRANCH  33  34
ENDBRANCH  32  33
ENDBRANCH   2  32
TORSDOF 18
ENDMDL
MODEL      388
REMARK 921   NORMALIZED FREE ENERGY PREDICTED BY IDOCK:   -2.49 KCAL/MOL
REMARK 922        TOTAL FREE ENERGY PREDICTED BY IDOCK:   -9.89 KCAL/MOL
REMARK 923 INTER-LIGAND FREE ENERGY PREDICTED BY IDOCK:   -7.85 KCAL/MOL
REMARK 924 INTRA-LIGAND FREE ENERGY PREDICTED BY IDOCK:   -2.04 KCAL/MOL
REMARK 927      BINDING AFFINITY PREDICTED BY RF-SCORE:    0.00 PKD
ROOT
HETATM    1  O   UNL     1     -12.867  13.008  63.966  1.00  0.00    -0.657 OA 
HETATM    2  C   UNL     1     -12.041  12.418  64.968  1.00  0.00    -0.407 C  
HETATM    3  H   UNL     1     -13.560  12.408  63.717  1.00  0.00     0.000 HD 
ENDROOT
BRANCH   2   4
HETATM    4  C   UNL     1     -10.917  13.391  65.372  1.00  0.00    -0.297 C  
BRANCH   4   5
HETATM    5  C   UNL     1      -9.912  12.839  66.389  1.00  0.00    -0.268 C  
BRANCH   5   6
HETATM    6  C   UNL     1     -10.023  13.394  67.828  1.00  0.00    -0.233 C  
HETATM    7  H   UNL     1     -12.558  15.024  70.491  1.00  0.00     0.000 HD 
HETATM    8  C   UNL     1     -11.453  13.833  68.359  1.00  0.00    -0.351 C  
HETATM    9  C   UNL     1      -9.195  14.683  67.919  1.00  0.00    -0.197 C  
HETATM   10  C   UNL     1      -9.667  15.322  69.192  1.00  0.00    -0.243 C  
HETATM   11  O   UNL     1      -7.805  14.432  67.996  1.00  0.00    -0.118 OA 
HETATM   12  O   UNL     1     -11.615  15.137  70.508  1.00  0.00    -0.260 OA 
HETATM   13  H   UNL     1      -7.292  15.230  68.052  1.00  0.00     0.000 HD 
HETATM   14  C   UNL     1     -11.170  15.140  69.166  1.00  0.00    -0.279 C  
BRANCH   8  15
HETATM   15  C   UNL     1     -12.247  12.736  69.138  1.00  0.00    -0.065 C  
BRANCH  15  16
HETATM   16  C   UNL     1     -11.761  11.312  68.942  1.00  0.00    -0.409 C  
HETATM   17  C   UNL     1     -11.650  10.278  69.800  1.00  0.00    -0.294 C  
BRANCH  17  18
HETATM   18  C   UNL     1     -11.974  10.228  71.266  1.00  0.00    -0.457 C  
BRANCH  18  19
HETATM   19  C   UNL     1     -12.296   8.804  71.745  1.00  0.00    -0.412 C  
BRANCH  19  20
HETATM   20  C   UNL     1     -11.366   7.731  71.194  1.00  0.00    -0.290 C  
BRANCH  20  21
HETATM   21  C   UNL     1     -10.548   7.116  72.286  1.00  0.00    -0.215 C  
HETATM   22  O   UNL     1     -10.701   7.282  73.490  1.00  0.00    -0.382 OA 
BRANCH  21  23
HETATM   23  O   UNL     1      -9.508   6.451  71.712  1.00  0.00    -0.154 OA 
BRANCH  23  24
HETATM   24  C   UNL     1      -9.921   5.163  71.303  1.00  0.00    -0.192 C  
BRANCH  24  25
HETATM   25  C   UNL     1      -9.745   4.936  69.817  1.00  0.00    -0.262 C  
BRANCH  25  26
HETATM   26  C   UNL     1      -8.688   3.880  69.499  1.00  0.00    -0.127 C  
BRANCH  26  27
HETATM   27  C   UNL     1      -7.298   4.435  69.158  1.00  0.00    -0.055 C  
BRANCH  27  28
HETATM   28  O   UNL     1      -6.648   4.812  70.352  1.00  0.00    -0.033 OA 
HETATM   29  N   UNL     1      -5.672   3.871  70.756  1.00  0.00    -0.013 N  
HETATM   30  O   UNL     1      -5.148   4.166  71.833  1.00  0.00     0.000 OA 
HETATM   31  O   UNL     1      -5.475   2.910  70.023  1.00  0.00    -0.014 OA 
ENDBRANCH  27  28
ENDBRANCH  26  27
ENDBRANCH  25  26
ENDBRANCH  24  25
ENDBRANCH  23  24
ENDBRANCH  21  23
ENDBRANCH  20  21
ENDBRANCH  19  20
ENDBRANCH  18  19
ENDBRANCH  17  18
ENDBRANCH  15  16
ENDBRANCH   8  15
ENDBRANCH   5   6
ENDBRANCH   4   5
ENDBRANCH   2   4
BRANCH   2  32
HETATM   32  C   UNL     1     -11.481  11.134  64.372  1.00  0.00     0.188 C  
BRANCH  32  33
HETATM   33  C   UNL     1     -10.633  11.409  63.135  1.00  0.00    -0.278 C  
BRANCH  33  34
HETATM   34  C   UNL     1      -9.320  10.711  63.271  1.00  0.00    -0.329 A  
HETATM   35  C   UNL     1      -7.043  10.401  62.522  1.00  0.00    -0.152 A  
HETATM   36  C   UNL     1      -7.988   8.934  64.198  1.00  0.00    -0.148 A  
HETATM   37  C   UNL     1      -8.245  11.098  62.458  1.00  0.00    -0.137 A  
HETATM   38  C   UNL     1      -9.191   9.627  64.139  1.00  0.00    -0.218 A  
HETATM   39  C   UNL     1      -6.915   9.319  63.391  1.00  0.00    -0.090 A  
ENDBRANCH  33  34
ENDBRANCH  32  33
ENDBRANCH   2  32
TORSDOF 18
ENDMDL
MODEL      389
REMARK 921   NORMALIZED FREE ENERGY PREDICTED BY IDOCK:   -2.48 KCAL/MOL
REMARK 922        TOTAL FREE ENERGY PREDICTED BY IDOCK:   -9.86 KCAL/MOL
REMARK 923 INTER-LIGAND FREE ENERGY PREDICTED BY IDOCK:   -7.79 KCAL/MOL
REMARK 924 INTRA-LIGAND FREE ENERGY PREDICTED BY IDOCK:   -2.07 KCAL/MOL
REMARK 927      BINDING AFFINITY PREDICTED BY RF-SCORE:    0.00 PKD
ROOT
HETATM    1  O   UNL     1      -5.758   9.241  67.309  1.00  0.00    -0.041 OA 
HETATM    2  C   UNL     1      -7.063   9.778  67.101  1.00  0.00    -0.086 C  
HETATM    3  H   UNL     1      -5.520   8.670  66.588  1.00  0.00     0.000 HD 
ENDROOT
BRANCH   2   4
HETATM    4  C   UNL     1      -7.449  10.705  68.270  1.00  0.00    -0.091 C  
BRANCH   4   5
HETATM    5  C   UNL     1      -8.835  10.450  68.871  1.00  0.00    -0.161 C  
BRANCH   5   6
HETATM    6  C   UNL     1      -9.954  11.431  68.449  1.00  0.00    -0.206 C  
HETATM    7  H   UNL     1     -11.196  15.247  68.718  1.00  0.00     0.000 HD 
HETATM    8  C   UNL     1      -9.794  12.965  68.826  1.00  0.00     0.023 C  
HETATM    9  C   UNL     1     -11.253  11.022  69.154  1.00  0.00    -0.255 C  
HETATM   10  C   UNL     1     -12.143  12.219  68.987  1.00  0.00    -0.197 C  
HETATM   11  O   UNL     1     -11.861   9.889  68.562  1.00  0.00    -0.448 OA 
HETATM   12  O   UNL     1     -11.767  14.506  68.552  1.00  0.00    -0.294 OA 
HETATM   13  H   UNL     1     -12.665   9.635  68.998  1.00  0.00     0.000 HD 
HETATM   14  C   UNL     1     -11.232  13.400  69.252  1.00  0.00    -0.219 C  
BRANCH   8  15
HETATM   15  C   UNL     1      -9.131  13.861  67.730  1.00  0.00    -0.191 C  
BRANCH  15  16
HETATM   16  C   UNL     1      -7.616  13.805  67.667  1.00  0.00    -0.189 C  
HETATM   17  C   UNL     1      -6.666  14.355  68.450  1.00  0.00    -0.103 C  
BRANCH  17  18
HETATM   18  C   UNL     1      -6.830  15.234  69.657  1.00  0.00    -0.187 C  
BRANCH  18  19
HETATM   19  C   UNL     1      -6.178  16.613  69.468  1.00  0.00    -0.220 C  
BRANCH  19  20
HETATM   20  C   UNL     1      -7.018  17.600  68.667  1.00  0.00    -0.237 C  
BRANCH  20  21
HETATM   21  C   UNL     1      -6.548  19.005  68.883  1.00  0.00    -0.277 C  
HETATM   22  O   UNL     1      -6.485  19.593  69.956  1.00  0.00    -0.306 OA 
BRANCH  21  23
HETATM   23  O   UNL     1      -6.339  19.572  67.664  1.00  0.00    -0.204 OA 
BRANCH  23  24
HETATM   24  C   UNL     1      -7.222  19.018  66.711  1.00  0.00    -0.208 C  
BRANCH  24  25
HETATM   25  C   UNL     1      -8.272  20.001  66.242  1.00  0.00    -0.324 C  
BRANCH  25  26
HETATM   26  C   UNL     1      -9.082  20.598  67.391  1.00  0.00    -0.392 C  
BRANCH  26  27
HETATM   27  C   UNL     1     -10.373  19.843  67.735  1.00  0.00    -0.407 C  
BRANCH  27  28
HETATM   28  O   UNL     1     -10.115  18.953  68.800  1.00  0.00    -0.388 OA 
HETATM   29  N   UNL     1     -10.454  17.617  68.480  1.00  0.00    -0.358 N  
HETATM   30  O   UNL     1     -10.290  16.848  69.430  1.00  0.00    -0.298 OA 
HETATM   31  O   UNL     1     -10.860  17.392  67.347  1.00  0.00    -0.290 OA 
ENDBRANCH  27  28
ENDBRANCH  26  27
ENDBRANCH  25  26
ENDBRANCH  24  25
ENDBRANCH  23  24
ENDBRANCH  21  23
ENDBRANCH  20  21
ENDBRANCH  19  20
ENDBRANCH  18  19
ENDBRANCH  17  18
ENDBRANCH  15  16
ENDBRANCH   8  15
ENDBRANCH   5   6
ENDBRANCH   4   5
ENDBRANCH   2   4
BRANCH   2  32
HETATM   32  C   UNL     1      -8.011   8.593  66.991  1.00  0.00    -0.096 C  
BRANCH  32  33
HETATM   33  C   UNL     1      -7.400   7.325  67.578  1.00  0.00    -0.092 C  
BRANCH  33  34
HETATM   34  C   UNL     1      -8.459   6.549  68.289  1.00  0.00    -0.116 A  
HETATM   35  C   UNL     1      -9.651   4.471  68.614  1.00  0.00    -0.222 A  
HETATM   36  C   UNL     1     -10.372   6.483  69.748  1.00  0.00    -0.234 A  
HETATM   37  C   UNL     1      -8.615   5.183  68.015  1.00  0.00    -0.103 A  
HETATM   38  C   UNL     1      -9.340   7.198  69.154  1.00  0.00    -0.141 A  
HETATM   39  C   UNL     1     -10.528   5.121  69.479  1.00  0.00    -0.233 A  
ENDBRANCH  33  34
ENDBRANCH  32  33
ENDBRANCH   2  32
TORSDOF 18
ENDMDL
MODEL      390
REMARK 921   NORMALIZED FREE ENERGY PREDICTED BY IDOCK:   -2.47 KCAL/MOL
REMARK 922        TOTAL FREE ENERGY PREDICTED BY IDOCK:   -9.85 KCAL/MOL
REMARK 923 INTER-LIGAND FREE ENERGY PREDICTED BY IDOCK:   -7.64 KCAL/MOL
REMARK 924 INTRA-LIGAND FREE ENERGY PREDICTED BY IDOCK:   -2.22 KCAL/MOL
REMARK 927      BINDING AFFINITY PREDICTED BY RF-SCORE:    0.00 PKD
ROOT
HETATM    1  O   UNL     1      -7.356  14.333  69.558  1.00  0.00    -0.313 OA 
HETATM    2  C   UNL     1      -8.241  14.091  68.466  1.00  0.00    -0.136 C  
HETATM    3  H   UNL     1      -7.658  15.076  70.067  1.00  0.00     0.000 HD 
ENDROOT
BRANCH   2   4
HETATM    4  C   UNL     1      -7.751  12.886  67.640  1.00  0.00    -0.162 C  
BRANCH   4   5
HETATM    5  C   UNL     1      -8.723  11.704  67.574  1.00  0.00    -0.156 C  
BRANCH   5   6
HETATM    6  C   UNL     1      -8.125  10.353  67.117  1.00  0.00    -0.115 C  
HETATM    7  H   UNL     1      -5.285   7.622  67.925  1.00  0.00     0.000 HD 
HETATM    8  C   UNL     1      -6.977   9.700  67.998  1.00  0.00    -0.078 C  
HETATM    9  C   UNL     1      -7.459  10.552  65.750  1.00  0.00    -0.139 C  
HETATM   10  C   UNL     1      -6.608   9.327  65.584  1.00  0.00    -0.069 C  
HETATM   11  O   UNL     1      -8.397  10.629  64.693  1.00  0.00    -0.283 OA 
HETATM   12  O   UNL     1      -5.681   7.748  67.071  1.00  0.00    -0.031 OA 
HETATM   13  H   UNL     1      -7.985  10.753  63.846  1.00  0.00     0.000 HD 
HETATM   14  C   UNL     1      -5.975   9.126  66.945  1.00  0.00    -0.053 C  
BRANCH   8  15
HETATM   15  C   UNL     1      -7.456   8.677  69.077  1.00  0.00    -0.089 C  
BRANCH  15  16
HETATM   16  C   UNL     1      -8.211   9.271  70.253  1.00  0.00    -0.187 C  
HETATM   17  C   UNL     1      -9.522   9.528  70.437  1.00  0.00    -0.317 C  
BRANCH  17  18
HETATM   18  C   UNL     1     -10.669   9.308  69.493  1.00  0.00    -0.236 C  
BRANCH  18  19
HETATM   19  C   UNL     1     -10.639   7.910  68.855  1.00  0.00    -0.165 C  
BRANCH  19  20
HETATM   20  C   UNL     1     -11.278   6.818  69.704  1.00  0.00    -0.345 C  
BRANCH  20  21
HETATM   21  C   UNL     1     -10.414   5.597  69.749  1.00  0.00    -0.306 C  
HETATM   22  O   UNL     1     -10.323   4.739  68.880  1.00  0.00    -0.089 OA 
BRANCH  21  23
HETATM   23  O   UNL     1      -9.850   5.523  70.986  1.00  0.00    -0.168 OA 
BRANCH  23  24
HETATM   24  C   UNL     1      -9.650   4.174  71.350  1.00  0.00    -0.168 C  
BRANCH  24  25
HETATM   25  C   UNL     1     -10.199   3.849  72.722  1.00  0.00    -0.233 C  
BRANCH  25  26
HETATM   26  C   UNL     1     -10.923   5.028  73.368  1.00  0.00    -0.393 C  
BRANCH  26  27
HETATM   27  C   UNL     1     -10.165   5.705  74.518  1.00  0.00    -0.268 C  
BRANCH  27  28
HETATM   28  O   UNL     1      -9.815   7.015  74.128  1.00  0.00    -0.287 OA 
HETATM   29  N   UNL     1      -8.415   7.191  74.023  1.00  0.00    -0.149 N  
HETATM   30  O   UNL     1      -8.104   8.352  73.746  1.00  0.00    -0.314 OA 
HETATM   31  O   UNL     1      -7.705   6.213  74.218  1.00  0.00    -0.096 OA 
ENDBRANCH  27  28
ENDBRANCH  26  27
ENDBRANCH  25  26
ENDBRANCH  24  25
ENDBRANCH  23  24
ENDBRANCH  21  23
ENDBRANCH  20  21
ENDBRANCH  19  20
ENDBRANCH  18  19
ENDBRANCH  17  18
ENDBRANCH  15  16
ENDBRANCH   8  15
ENDBRANCH   5   6
ENDBRANCH   4   5
ENDBRANCH   2   4
BRANCH   2  32
HETATM   32  C   UNL     1      -8.268  15.365  67.634  1.00  0.00    -0.171 C  
BRANCH  32  33
HETATM   33  C   UNL     1      -9.204  16.410  68.230  1.00  0.00    -0.207 C  
BRANCH  33  34
HETATM   34  C   UNL     1      -9.029  17.703  67.502  1.00  0.00    -0.235 A  
HETATM   35  C   UNL     1     -10.003  19.563  66.306  1.00  0.00    -0.538 A  
HETATM   36  C   UNL     1      -7.599  19.328  66.451  1.00  0.00    -0.278 A  
HETATM   37  C   UNL     1     -10.160  18.400  67.053  1.00  0.00    -0.382 A  
HETATM   38  C   UNL     1      -7.750  18.166  67.198  1.00  0.00    -0.232 A  
HETATM   39  C   UNL     1      -8.724  20.026  66.005  1.00  0.00    -0.246 A  
ENDBRANCH  33  34
ENDBRANCH  32  33
ENDBRANCH   2  32
TORSDOF 18
ENDMDL
MODEL      391
REMARK 921   NORMALIZED FREE ENERGY PREDICTED BY IDOCK:   -2.47 KCAL/MOL
REMARK 922        TOTAL FREE ENERGY PREDICTED BY IDOCK:   -9.85 KCAL/MOL
REMARK 923 INTER-LIGAND FREE ENERGY PREDICTED BY IDOCK:   -7.68 KCAL/MOL
REMARK 924 INTRA-LIGAND FREE ENERGY PREDICTED BY IDOCK:   -2.17 KCAL/MOL
REMARK 927      BINDING AFFINITY PREDICTED BY RF-SCORE:    0.00 PKD
ROOT
HETATM    1  O   UNL     1      -7.353  14.450  69.597  1.00  0.00    -0.332 OA 
HETATM    2  C   UNL     1      -8.156  13.898  68.555  1.00  0.00    -0.133 C  
HETATM    3  H   UNL     1      -7.797  15.189  69.996  1.00  0.00     0.000 HD 
ENDROOT
BRANCH   2   4
HETATM    4  C   UNL     1      -7.435  12.700  67.907  1.00  0.00    -0.124 C  
BRANCH   4   5
HETATM    5  C   UNL     1      -8.340  11.519  67.539  1.00  0.00    -0.143 C  
BRANCH   5   6
HETATM    6  C   UNL     1      -7.628  10.257  66.997  1.00  0.00    -0.099 C  
HETATM    7  H   UNL     1      -4.983   7.373  67.925  1.00  0.00     0.000 HD 
HETATM    8  C   UNL     1      -6.691   9.438  67.983  1.00  0.00    -0.063 C  
HETATM    9  C   UNL     1      -6.680  10.679  65.867  1.00  0.00    -0.116 C  
HETATM   10  C   UNL     1      -5.789   9.485  65.684  1.00  0.00    -0.058 C  
HETATM   11  O   UNL     1      -7.362  10.957  64.659  1.00  0.00    -0.335 OA 
HETATM   12  O   UNL     1      -5.184   7.653  67.040  1.00  0.00    -0.028 OA 
HETATM   13  H   UNL     1      -6.775  11.218  63.960  1.00  0.00     0.000 HD 
HETATM   14  C   UNL     1      -5.470   9.037  67.095  1.00  0.00    -0.041 C  
BRANCH   8  15
HETATM   15  C   UNL     1      -7.377   8.252  68.734  1.00  0.00    -0.088 C  
BRANCH  15  16
HETATM   16  C   UNL     1      -7.540   8.432  70.232  1.00  0.00    -0.068 C  
HETATM   17  C   UNL     1      -8.480   9.068  70.960  1.00  0.00    -0.254 C  
BRANCH  17  18
HETATM   18  C   UNL     1      -9.686   9.828  70.488  1.00  0.00    -0.195 C  
BRANCH  18  19
HETATM   19  C   UNL     1     -10.437   9.094  69.366  1.00  0.00    -0.226 C  
BRANCH  19  20
HETATM   20  C   UNL     1     -11.123   7.808  69.808  1.00  0.00    -0.095 C  
BRANCH  20  21
HETATM   21  C   UNL     1     -10.679   6.646  68.975  1.00  0.00    -0.259 C  
HETATM   22  O   UNL     1     -11.284   6.157  68.029  1.00  0.00    -0.310 OA 
BRANCH  21  23
HETATM   23  O   UNL     1      -9.552   6.131  69.536  1.00  0.00    -0.141 OA 
BRANCH  23  24
HETATM   24  C   UNL     1      -9.811   4.841  70.051  1.00  0.00    -0.227 C  
BRANCH  24  25
HETATM   25  C   UNL     1      -9.298   4.659  71.463  1.00  0.00    -0.202 C  
BRANCH  25  26
HETATM   26  C   UNL     1     -10.311   3.976  72.379  1.00  0.00    -0.207 C  
BRANCH  26  27
HETATM   27  C   UNL     1     -10.946   4.887  73.439  1.00  0.00    -0.325 C  
BRANCH  27  28
HETATM   28  O   UNL     1     -11.454   6.042  72.807  1.00  0.00    -0.267 OA 
HETATM   29  N   UNL     1     -10.849   7.228  73.284  1.00  0.00    -0.371 N  
HETATM   30  O   UNL     1     -11.337   8.243  72.780  1.00  0.00    -0.381 OA 
HETATM   31  O   UNL     1      -9.954   7.114  74.111  1.00  0.00    -0.301 OA 
ENDBRANCH  27  28
ENDBRANCH  26  27
ENDBRANCH  25  26
ENDBRANCH  24  25
ENDBRANCH  23  24
ENDBRANCH  21  23
ENDBRANCH  20  21
ENDBRANCH  19  20
ENDBRANCH  18  19
ENDBRANCH  17  18
ENDBRANCH  15  16
ENDBRANCH   8  15
ENDBRANCH   5   6
ENDBRANCH   4   5
ENDBRANCH   2   4
BRANCH   2  32
HETATM   32  C   UNL     1      -8.395  15.015  67.549  1.00  0.00    -0.192 C  
BRANCH  32  33
HETATM   33  C   UNL     1      -9.804  14.961  66.970  1.00  0.00    -0.239 C  
BRANCH  33  34
HETATM   34  C   UNL     1     -10.795  14.897  68.086  1.00  0.00    -0.256 A  
HETATM   35  C   UNL     1     -11.856  15.949  69.987  1.00  0.00    -0.322 A  
HETATM   36  C   UNL     1     -12.309  13.630  69.461  1.00  0.00    -0.232 A  
HETATM   37  C   UNL     1     -10.994  16.025  68.896  1.00  0.00    -0.309 A  
HETATM   38  C   UNL     1     -11.450  13.701  68.371  1.00  0.00    -0.346 A  
HETATM   39  C   UNL     1     -12.512  14.752  70.269  1.00  0.00    -0.393 A  
ENDBRANCH  33  34
ENDBRANCH  32  33
ENDBRANCH   2  32
TORSDOF 18
ENDMDL
MODEL      392
REMARK 921   NORMALIZED FREE ENERGY PREDICTED BY IDOCK:   -2.42 KCAL/MOL
REMARK 922        TOTAL FREE ENERGY PREDICTED BY IDOCK:   -9.76 KCAL/MOL
REMARK 923 INTER-LIGAND FREE ENERGY PREDICTED BY IDOCK:   -6.60 KCAL/MOL
REMARK 924 INTRA-LIGAND FREE ENERGY PREDICTED BY IDOCK:   -3.16 KCAL/MOL
REMARK 927      BINDING AFFINITY PREDICTED BY RF-SCORE:    0.00 PKD
ROOT
HETATM    1  O   UNL     1      -5.241   8.527  63.258  1.00  0.00    -0.061 OA 
HETATM    2  C   UNL     1      -5.692   9.772  63.786  1.00  0.00    -0.105 C  
HETATM    3  H   UNL     1      -5.526   8.430  62.357  1.00  0.00     0.000 HD 
ENDROOT
BRANCH   2   4
HETATM    4  C   UNL     1      -5.229   9.929  65.247  1.00  0.00    -0.050 C  
BRANCH   4   5
HETATM    5  C   UNL     1      -6.109  10.834  66.115  1.00  0.00    -0.133 C  
BRANCH   5   6
HETATM    6  C   UNL     1      -6.621  10.222  67.440  1.00  0.00    -0.068 C  
HETATM    7  H   UNL     1      -6.995  10.882  71.390  1.00  0.00     0.000 HD 
HETATM    8  C   UNL     1      -6.563  11.110  68.754  1.00  0.00    -0.059 C  
HETATM    9  C   UNL     1      -5.747   9.010  67.787  1.00  0.00    -0.039 C  
HETATM   10  C   UNL     1      -6.069   8.737  69.227  1.00  0.00    -0.042 C  
HETATM   11  O   UNL     1      -6.057   7.872  67.003  1.00  0.00    -0.050 OA 
HETATM   12  O   UNL     1      -6.968  10.020  70.989  1.00  0.00    -0.339 OA 
HETATM   13  H   UNL     1      -5.516   7.122  67.218  1.00  0.00     0.000 HD 
HETATM   14  C   UNL     1      -6.113  10.109  69.866  1.00  0.00    -0.057 C  
BRANCH   8  15
HETATM   15  C   UNL     1      -7.861  11.917  69.079  1.00  0.00     0.099 C  
BRANCH  15  16
HETATM   16  C   UNL     1      -9.078  11.565  68.243  1.00  0.00    -0.185 C  
HETATM   17  C   UNL     1     -10.301  11.115  68.587  1.00  0.00    -0.219 C  
BRANCH  17  18
HETATM   18  C   UNL     1     -10.841  10.801  69.953  1.00  0.00    -0.264 C  
BRANCH  18  19
HETATM   19  C   UNL     1     -12.245  11.388  70.174  1.00  0.00    -0.401 C  
BRANCH  19  20
HETATM   20  C   UNL     1     -12.836  11.102  71.548  1.00  0.00    -0.542 C  
BRANCH  20  21
HETATM   21  C   UNL     1     -13.132   9.644  71.714  1.00  0.00    -0.421 C  
HETATM   22  O   UNL     1     -13.982   9.002  71.110  1.00  0.00    -0.254 OA 
BRANCH  21  23
HETATM   23  O   UNL     1     -12.392   9.179  72.758  1.00  0.00    -0.133 OA 
BRANCH  23  24
HETATM   24  C   UNL     1     -11.710   8.000  72.384  1.00  0.00    -0.386 C  
BRANCH  24  25
HETATM   25  C   UNL     1     -10.213   8.196  72.283  1.00  0.00    -0.348 C  
BRANCH  25  26
HETATM   26  C   UNL     1      -9.460   7.665  73.500  1.00  0.00    -0.347 C  
BRANCH  26  27
HETATM   27  C   UNL     1      -9.086   6.177  73.435  1.00  0.00    -0.131 C  
BRANCH  27  28
HETATM   28  O   UNL     1      -8.969   5.792  72.082  1.00  0.00    -0.137 OA 
HETATM   29  N   UNL     1      -9.930   4.822  71.712  1.00  0.00    -0.183 N  
HETATM   30  O   UNL     1      -9.788   4.437  70.549  1.00  0.00    -0.202 OA 
HETATM   31  O   UNL     1     -10.751   4.488  72.557  1.00  0.00    -0.188 OA 
ENDBRANCH  27  28
ENDBRANCH  26  27
ENDBRANCH  25  26
ENDBRANCH  24  25
ENDBRANCH  23  24
ENDBRANCH  21  23
ENDBRANCH  20  21
ENDBRANCH  19  20
ENDBRANCH  18  19
ENDBRANCH  17  18
ENDBRANCH  15  16
ENDBRANCH   8  15
ENDBRANCH   5   6
ENDBRANCH   4   5
ENDBRANCH   2   4
BRANCH   2  32
HETATM   32  C   UNL     1      -7.210   9.768  63.679  1.00  0.00    -0.119 C  
BRANCH  32  33
HETATM   33  C   UNL     1      -7.759   8.359  63.487  1.00  0.00    -0.144 C  
BRANCH  33  34
HETATM   34  C   UNL     1      -8.374   7.890  64.765  1.00  0.00    -0.066 A  
HETATM   35  C   UNL     1      -8.865   6.086  66.298  1.00  0.00    -0.144 A  
HETATM   36  C   UNL     1      -9.795   8.290  66.666  1.00  0.00    -0.337 A  
HETATM   37  C   UNL     1      -8.227   6.550  65.151  1.00  0.00    -0.126 A  
HETATM   38  C   UNL     1      -9.160   8.758  65.522  1.00  0.00    -0.221 A  
HETATM   39  C   UNL     1      -9.648   6.956  67.054  1.00  0.00    -0.197 A  
ENDBRANCH  33  34
ENDBRANCH  32  33
ENDBRANCH   2  32
TORSDOF 18
ENDMDL
MODEL      393
REMARK 921   NORMALIZED FREE ENERGY PREDICTED BY IDOCK:   -2.42 KCAL/MOL
REMARK 922        TOTAL FREE ENERGY PREDICTED BY IDOCK:   -9.75 KCAL/MOL
REMARK 923 INTER-LIGAND FREE ENERGY PREDICTED BY IDOCK:   -7.95 KCAL/MOL
REMARK 924 INTRA-LIGAND FREE ENERGY PREDICTED BY IDOCK:   -1.80 KCAL/MOL
REMARK 927      BINDING AFFINITY PREDICTED BY RF-SCORE:    0.00 PKD
ROOT
HETATM    1  O   UNL     1     -11.429  18.612  68.246  1.00  0.00     0.331 OA 
HETATM    2  C   UNL     1     -10.677  18.832  67.054  1.00  0.00    -0.367 C  
HETATM    3  H   UNL     1     -11.810  19.428  68.549  1.00  0.00     0.000 HD 
ENDROOT
BRANCH   2   4
HETATM    4  C   UNL     1     -10.059  17.509  66.563  1.00  0.00    -0.331 C  
BRANCH   4   5
HETATM    5  C   UNL     1     -10.650  16.242  67.190  1.00  0.00    -0.291 C  
BRANCH   5   6
HETATM    6  C   UNL     1      -9.768  14.974  67.128  1.00  0.00    -0.228 C  
HETATM    7  H   UNL     1      -8.843  11.567  69.055  1.00  0.00     0.000 HD 
HETATM    8  C   UNL     1      -9.963  13.864  68.247  1.00  0.00    -0.238 C  
HETATM    9  C   UNL     1      -8.301  15.392  67.289  1.00  0.00    -0.199 C  
HETATM   10  C   UNL     1      -7.593  14.103  67.593  1.00  0.00    -0.193 C  
HETATM   11  O   UNL     1      -7.766  15.965  66.111  1.00  0.00    -0.093 OA 
HETATM   12  O   UNL     1      -8.269  12.010  68.441  1.00  0.00    -0.154 OA 
HETATM   13  H   UNL     1      -6.857  16.224  66.210  1.00  0.00     0.000 HD 
HETATM   14  C   UNL     1      -8.508  13.397  68.571  1.00  0.00    -0.079 C  
BRANCH   8  15
HETATM   15  C   UNL     1     -10.959  12.715  67.888  1.00  0.00    -0.262 C  
BRANCH  15  16
HETATM   16  C   UNL     1     -11.768  12.921  66.620  1.00  0.00    -0.452 C  
HETATM   17  C   UNL     1     -11.475  12.696  65.324  1.00  0.00    -0.368 C  
BRANCH  17  18
HETATM   18  C   UNL     1     -10.205  12.165  64.722  1.00  0.00    -0.310 C  
BRANCH  18  19
HETATM   19  C   UNL     1     -10.188  10.630  64.655  1.00  0.00    -0.404 C  
BRANCH  19  20
HETATM   20  C   UNL     1      -9.023   9.982  65.393  1.00  0.00    -0.213 C  
BRANCH  20  21
HETATM   21  C   UNL     1      -9.513   9.048  66.456  1.00  0.00    -0.206 C  
HETATM   22  O   UNL     1     -10.396   9.276  67.273  1.00  0.00    -0.232 OA 
BRANCH  21  23
HETATM   23  O   UNL     1      -8.709   7.949  66.455  1.00  0.00    -0.137 OA 
BRANCH  23  24
HETATM   24  C   UNL     1      -7.866   7.964  65.322  1.00  0.00    -0.111 C  
BRANCH  24  25
HETATM   25  C   UNL     1      -6.863   6.831  65.322  1.00  0.00    -0.051 C  
BRANCH  25  26
HETATM   26  C   UNL     1      -7.509   5.466  65.549  1.00  0.00    -0.077 C  
BRANCH  26  27
HETATM   27  C   UNL     1      -7.914   4.719  64.271  1.00  0.00    -0.101 C  
BRANCH  27  28
HETATM   28  O   UNL     1      -9.305   4.857  64.079  1.00  0.00    -0.011 OA 
HETATM   29  N   UNL     1     -10.023   3.707  64.483  1.00  0.00    -0.186 N  
HETATM   30  O   UNL     1     -11.232   3.801  64.256  1.00  0.00    -0.306 OA 
HETATM   31  O   UNL     1      -9.386   2.788  64.982  1.00  0.00    -0.150 OA 
ENDBRANCH  27  28
ENDBRANCH  26  27
ENDBRANCH  25  26
ENDBRANCH  24  25
ENDBRANCH  23  24
ENDBRANCH  21  23
ENDBRANCH  20  21
ENDBRANCH  19  20
ENDBRANCH  18  19
ENDBRANCH  17  18
ENDBRANCH  15  16
ENDBRANCH   8  15
ENDBRANCH   5   6
ENDBRANCH   4   5
ENDBRANCH   2   4
BRANCH   2  32
HETATM   32  C   UNL     1      -9.604  19.856  67.398  1.00  0.00    -0.499 C  
BRANCH  32  33
HETATM   33  C   UNL     1      -8.290  19.187  67.788  1.00  0.00    -0.325 C  
BRANCH  33  34
HETATM   34  C   UNL     1      -7.172  19.809  67.018  1.00  0.00    -0.242 A  
HETATM   35  C   UNL     1      -5.273  21.304  66.950  1.00  0.00    -0.297 A  
HETATM   36  C   UNL     1      -6.082  20.263  64.921  1.00  0.00    -0.299 A  
HETATM   37  C   UNL     1      -6.270  20.658  67.676  1.00  0.00    -0.318 A  
HETATM   38  C   UNL     1      -7.078  19.615  65.640  1.00  0.00    -0.321 A  
HETATM   39  C   UNL     1      -5.180  21.107  65.574  1.00  0.00    -0.233 A  
ENDBRANCH  33  34
ENDBRANCH  32  33
ENDBRANCH   2  32
TORSDOF 18
ENDMDL
MODEL      394
REMARK 921   NORMALIZED FREE ENERGY PREDICTED BY IDOCK:   -2.39 KCAL/MOL
REMARK 922        TOTAL FREE ENERGY PREDICTED BY IDOCK:   -9.70 KCAL/MOL
REMARK 923 INTER-LIGAND FREE ENERGY PREDICTED BY IDOCK:   -7.84 KCAL/MOL
REMARK 924 INTRA-LIGAND FREE ENERGY PREDICTED BY IDOCK:   -1.86 KCAL/MOL
REMARK 927      BINDING AFFINITY PREDICTED BY RF-SCORE:    0.00 PKD
ROOT
HETATM    1  O   UNL     1     -10.047   6.301  68.070  1.00  0.00    -0.133 OA 
HETATM    2  C   UNL     1      -9.049   7.197  68.555  1.00  0.00    -0.132 C  
HETATM    3  H   UNL     1     -10.605   6.014  68.783  1.00  0.00     0.000 HD 
ENDROOT
BRANCH   2   4
HETATM    4  C   UNL     1      -8.143   7.661  67.398  1.00  0.00    -0.119 C  
BRANCH   4   5
HETATM    5  C   UNL     1      -7.638   9.104  67.506  1.00  0.00    -0.088 C  
BRANCH   5   6
HETATM    6  C   UNL     1      -8.431  10.166  66.709  1.00  0.00    -0.126 C  
HETATM    7  H   UNL     1     -12.096  11.164  65.387  1.00  0.00     0.000 HD 
HETATM    8  C   UNL     1     -10.009  10.021  66.622  1.00  0.00    -0.274 C  
HETATM    9  C   UNL     1      -7.984  10.108  65.242  1.00  0.00    -0.145 C  
HETATM   10  C   UNL     1      -9.048  10.876  64.513  1.00  0.00    -0.181 C  
HETATM   11  O   UNL     1      -6.725  10.718  65.031  1.00  0.00    -0.352 OA 
HETATM   12  O   UNL     1     -11.283  11.456  64.990  1.00  0.00    -0.207 OA 
HETATM   13  H   UNL     1      -6.448  10.682  64.123  1.00  0.00     0.000 HD 
HETATM   14  C   UNL     1     -10.343  10.412  65.147  1.00  0.00    -0.190 C  
BRANCH   8  15
HETATM   15  C   UNL     1     -10.817  10.802  67.709  1.00  0.00    -0.320 C  
BRANCH  15  16
HETATM   16  C   UNL     1     -10.155  12.061  68.239  1.00  0.00    -0.201 C  
HETATM   17  C   UNL     1     -10.608  13.323  68.369  1.00  0.00    -0.263 C  
BRANCH  17  18
HETATM   18  C   UNL     1     -11.951  13.887  68.000  1.00  0.00    -0.390 C  
BRANCH  18  19
HETATM   19  C   UNL     1     -12.012  14.338  66.532  1.00  0.00    -0.448 C  
BRANCH  19  20
HETATM   20  C   UNL     1     -10.674  14.785  65.957  1.00  0.00    -0.314 C  
BRANCH  20  21
HETATM   21  C   UNL     1     -10.619  16.274  65.817  1.00  0.00    -0.324 C  
HETATM   22  O   UNL     1     -10.340  16.898  64.800  1.00  0.00    -0.276 OA 
BRANCH  21  23
HETATM   23  O   UNL     1     -10.790  16.821  67.051  1.00  0.00    -0.211 OA 
BRANCH  23  24
HETATM   24  C   UNL     1      -9.734  17.715  67.338  1.00  0.00    -0.283 C  
BRANCH  24  25
HETATM   25  C   UNL     1     -10.196  19.152  67.444  1.00  0.00    -0.490 C  
BRANCH  25  26
HETATM   26  C   UNL     1      -9.235  20.136  66.780  1.00  0.00    -0.487 C  
BRANCH  26  27
HETATM   27  C   UNL     1      -7.827  19.586  66.510  1.00  0.00    -0.291 C  
BRANCH  27  28
HETATM   28  O   UNL     1      -7.005  19.862  67.622  1.00  0.00    -0.232 OA 
HETATM   29  N   UNL     1      -5.982  20.793  67.320  1.00  0.00    -0.210 N  
HETATM   30  O   UNL     1      -5.223  20.986  68.273  1.00  0.00    -0.269 OA 
HETATM   31  O   UNL     1      -5.967  21.271  66.193  1.00  0.00    -0.262 OA 
ENDBRANCH  27  28
ENDBRANCH  26  27
ENDBRANCH  25  26
ENDBRANCH  24  25
ENDBRANCH  23  24
ENDBRANCH  21  23
ENDBRANCH  20  21
ENDBRANCH  19  20
ENDBRANCH  18  19
ENDBRANCH  17  18
ENDBRANCH  15  16
ENDBRANCH   8  15
ENDBRANCH   5   6
ENDBRANCH   4   5
ENDBRANCH   2   4
BRANCH   2  32
HETATM   32  C   UNL     1      -8.259   6.440  69.613  1.00  0.00    -0.126 C  
BRANCH  32  33
HETATM   33  C   UNL     1      -9.081   5.317  70.236  1.00  0.00    -0.169 C  
BRANCH  33  34
HETATM   34  C   UNL     1      -8.183   4.431  71.035  1.00  0.00    -0.082 A  
HETATM   35  C   UNL     1      -6.339   2.869  71.116  1.00  0.00    -0.019 A  
HETATM   36  C   UNL     1      -7.648   3.319  73.101  1.00  0.00    -0.060 A  
HETATM   37  C   UNL     1      -7.131   3.758  70.395  1.00  0.00    -0.038 A  
HETATM   38  C   UNL     1      -8.441   4.209  72.386  1.00  0.00    -0.105 A  
HETATM   39  C   UNL     1      -6.598   2.650  72.468  1.00  0.00    -0.018 A  
ENDBRANCH  33  34
ENDBRANCH  32  33
ENDBRANCH   2  32
TORSDOF 18
ENDMDL
MODEL      395
REMARK 921   NORMALIZED FREE ENERGY PREDICTED BY IDOCK:   -2.39 KCAL/MOL
REMARK 922        TOTAL FREE ENERGY PREDICTED BY IDOCK:   -9.69 KCAL/MOL
REMARK 923 INTER-LIGAND FREE ENERGY PREDICTED BY IDOCK:   -7.08 KCAL/MOL
REMARK 924 INTRA-LIGAND FREE ENERGY PREDICTED BY IDOCK:   -2.62 KCAL/MOL
REMARK 927      BINDING AFFINITY PREDICTED BY RF-SCORE:    0.00 PKD
ROOT
HETATM    1  O   UNL     1      -8.216  15.420  69.373  1.00  0.00    -0.236 OA 
HETATM    2  C   UNL     1      -9.332  14.680  68.881  1.00  0.00    -0.160 C  
HETATM    3  H   UNL     1      -8.447  15.863  70.181  1.00  0.00     0.000 HD 
ENDROOT
BRANCH   2   4
HETATM    4  C   UNL     1      -8.957  13.961  67.570  1.00  0.00    -0.197 C  
BRANCH   4   5
HETATM    5  C   UNL     1      -9.832  12.754  67.217  1.00  0.00    -0.207 C  
BRANCH   5   6
HETATM    6  C   UNL     1      -9.110  11.389  67.130  1.00  0.00    -0.164 C  
HETATM    7  H   UNL     1      -6.620   8.905  69.081  1.00  0.00     0.000 HD 
HETATM    8  C   UNL     1      -8.276  10.896  68.387  1.00  0.00    -0.133 C  
HETATM    9  C   UNL     1      -8.063  11.462  66.011  1.00  0.00     0.053 C  
HETATM   10  C   UNL     1      -7.190  10.267  66.260  1.00  0.00    -0.117 C  
HETATM   11  O   UNL     1      -8.638  11.374  64.721  1.00  0.00    -0.360 OA 
HETATM   12  O   UNL     1      -6.741   8.914  68.138  1.00  0.00    -0.063 OA 
HETATM   13  H   UNL     1      -7.989  11.419  64.028  1.00  0.00     0.000 HD 
HETATM   14  C   UNL     1      -6.997  10.253  67.762  1.00  0.00    -0.083 C  
BRANCH   8  15
HETATM   15  C   UNL     1      -9.050   9.982  69.391  1.00  0.00    -0.228 C  
BRANCH  15  16
HETATM   16  C   UNL     1     -10.395   9.471  68.908  1.00  0.00    -0.225 C  
HETATM   17  C   UNL     1     -10.724   8.587  67.945  1.00  0.00    -0.148 C  
BRANCH  17  18
HETATM   18  C   UNL     1      -9.823   7.824  67.016  1.00  0.00    -0.286 C  
BRANCH  18  19
HETATM   19  C   UNL     1      -9.304   6.522  67.645  1.00  0.00    -0.118 C  
BRANCH  19  20
HETATM   20  C   UNL     1     -10.173   5.302  67.369  1.00  0.00    -0.240 C  
BRANCH  20  21
HETATM   21  C   UNL     1      -9.411   4.034  67.602  1.00  0.00    -0.183 C  
HETATM   22  O   UNL     1      -8.459   3.628  66.946  1.00  0.00    -0.101 OA 
BRANCH  21  23
HETATM   23  O   UNL     1     -10.047   3.333  68.580  1.00  0.00     0.348 OA 
BRANCH  23  24
HETATM   24  C   UNL     1      -9.120   2.919  69.562  1.00  0.00    -0.127 C  
BRANCH  24  25
HETATM   25  C   UNL     1      -9.661   3.048  70.970  1.00  0.00    -0.224 C  
BRANCH  25  26
HETATM   26  C   UNL     1      -9.927   4.496  71.374  1.00  0.00    -0.259 C  
BRANCH  26  27
HETATM   27  C   UNL     1      -8.672   5.332  71.660  1.00  0.00    -0.134 C  
BRANCH  27  28
HETATM   28  O   UNL     1      -9.025   6.428  72.476  1.00  0.00    -0.137 OA 
HETATM   29  N   UNL     1      -8.232   7.571  72.217  1.00  0.00    -0.100 N  
HETATM   30  O   UNL     1      -8.495   8.510  72.972  1.00  0.00    -0.360 OA 
HETATM   31  O   UNL     1      -7.407   7.495  71.315  1.00  0.00    -0.075 OA 
ENDBRANCH  27  28
ENDBRANCH  26  27
ENDBRANCH  25  26
ENDBRANCH  24  25
ENDBRANCH  23  24
ENDBRANCH  21  23
ENDBRANCH  20  21
ENDBRANCH  19  20
ENDBRANCH  18  19
ENDBRANCH  17  18
ENDBRANCH  15  16
ENDBRANCH   8  15
ENDBRANCH   5   6
ENDBRANCH   4   5
ENDBRANCH   2   4
BRANCH   2  32
HETATM   32  C   UNL     1     -10.459  15.680  68.666  1.00  0.00    -0.231 C  
BRANCH  32  33
HETATM   33  C   UNL     1     -10.493  16.193  67.231  1.00  0.00    -0.309 C  
BRANCH  33  34
HETATM   34  C   UNL     1     -10.041  17.617  67.205  1.00  0.00    -0.328 A  
HETATM   35  C   UNL     1      -8.300  19.238  66.776  1.00  0.00    -0.311 A  
HETATM   36  C   UNL     1     -10.395  19.928  67.772  1.00  0.00    -0.548 A  
HETATM   37  C   UNL     1      -8.758  17.925  66.730  1.00  0.00    -0.269 A  
HETATM   38  C   UNL     1     -10.857  18.619  67.728  1.00  0.00    -0.313 A  
HETATM   39  C   UNL     1      -9.118  20.239  67.297  1.00  0.00    -0.504 A  
ENDBRANCH  33  34
ENDBRANCH  32  33
ENDBRANCH   2  32
TORSDOF 18
ENDMDL
MODEL      396
REMARK 921   NORMALIZED FREE ENERGY PREDICTED BY IDOCK:   -2.34 KCAL/MOL
REMARK 922        TOTAL FREE ENERGY PREDICTED BY IDOCK:   -9.58 KCAL/MOL
REMARK 923 INTER-LIGAND FREE ENERGY PREDICTED BY IDOCK:   -6.83 KCAL/MOL
REMARK 924 INTRA-LIGAND FREE ENERGY PREDICTED BY IDOCK:   -2.76 KCAL/MOL
REMARK 927      BINDING AFFINITY PREDICTED BY RF-SCORE:    0.00 PKD
ROOT
HETATM    1  O   UNL     1     -12.724  10.730  69.105  1.00  0.00    -0.660 OA 
HETATM    2  C   UNL     1     -11.829  11.766  68.706  1.00  0.00    -0.320 C  
HETATM    3  H   UNL     1     -13.610  10.940  68.831  1.00  0.00     0.000 HD 
ENDROOT
BRANCH   2   4
HETATM    4  C   UNL     1     -10.392  11.426  69.149  1.00  0.00    -0.122 C  
BRANCH   4   5
HETATM    5  C   UNL     1      -9.344  11.448  68.031  1.00  0.00    -0.171 C  
BRANCH   5   6
HETATM    6  C   UNL     1      -8.976  10.079  67.414  1.00  0.00    -0.139 C  
HETATM    7  H   UNL     1      -7.919   8.238  63.998  1.00  0.00     0.000 HD 
HETATM    8  C   UNL     1      -8.520  10.035  65.894  1.00  0.00    -0.139 C  
HETATM    9  C   UNL     1     -10.219   9.181  67.442  1.00  0.00    -0.247 C  
HETATM   10  C   UNL     1      -9.873   8.061  66.505  1.00  0.00    -0.289 C  
HETATM   11  O   UNL     1     -10.487   8.661  68.731  1.00  0.00    -0.214 OA 
HETATM   12  O   UNL     1      -8.338   7.806  64.734  1.00  0.00    -0.130 OA 
HETATM   13  H   UNL     1     -11.257   8.105  68.749  1.00  0.00     0.000 HD 
HETATM   14  C   UNL     1      -9.206   8.748  65.333  1.00  0.00    -0.088 C  
BRANCH   8  15
HETATM   15  C   UNL     1      -6.979  10.120  65.651  1.00  0.00    -0.125 C  
BRANCH  15  16
HETATM   16  C   UNL     1      -6.108   9.610  66.785  1.00  0.00    -0.063 C  
HETATM   17  C   UNL     1      -5.567   8.398  67.023  1.00  0.00    -0.038 C  
BRANCH  17  18
HETATM   18  C   UNL     1      -5.681   7.138  66.214  1.00  0.00    -0.031 C  
BRANCH  18  19
HETATM   19  C   UNL     1      -6.407   6.019  66.977  1.00  0.00    -0.042 C  
BRANCH  19  20
HETATM   20  C   UNL     1      -6.079   5.958  68.463  1.00  0.00    -0.024 C  
BRANCH  20  21
HETATM   21  C   UNL     1      -7.311   6.142  69.294  1.00  0.00    -0.088 C  
HETATM   22  O   UNL     1      -7.843   7.208  69.577  1.00  0.00    -0.114 OA 
BRANCH  21  23
HETATM   23  O   UNL     1      -7.661   4.930  69.805  1.00  0.00    -0.055 OA 
BRANCH  23  24
HETATM   24  C   UNL     1      -8.054   5.067  71.155  1.00  0.00    -0.109 C  
BRANCH  24  25
HETATM   25  C   UNL     1      -9.538   4.848  71.358  1.00  0.00    -0.226 C  
BRANCH  25  26
HETATM   26  C   UNL     1     -10.074   5.539  72.610  1.00  0.00    -0.211 C  
BRANCH  26  27
HETATM   27  C   UNL     1     -11.573   5.871  72.577  1.00  0.00    -0.277 C  
BRANCH  27  28
HETATM   28  O   UNL     1     -11.731   7.265  72.423  1.00  0.00    -0.278 OA 
HETATM   29  N   UNL     1     -12.198   7.616  71.134  1.00  0.00    -0.306 N  
HETATM   30  O   UNL     1     -12.275   8.837  70.976  1.00  0.00    -0.277 OA 
HETATM   31  O   UNL     1     -12.452   6.705  70.357  1.00  0.00    -0.196 OA 
ENDBRANCH  27  28
ENDBRANCH  26  27
ENDBRANCH  25  26
ENDBRANCH  24  25
ENDBRANCH  23  24
ENDBRANCH  21  23
ENDBRANCH  20  21
ENDBRANCH  19  20
ENDBRANCH  18  19
ENDBRANCH  17  18
ENDBRANCH  15  16
ENDBRANCH   8  15
ENDBRANCH   5   6
ENDBRANCH   4   5
ENDBRANCH   2   4
BRANCH   2  32
HETATM   32  C   UNL     1     -12.325  13.049  69.357  1.00  0.00    -0.025 C  
BRANCH  32  33
HETATM   33  C   UNL     1     -11.171  13.935  69.811  1.00  0.00    -0.149 C  
BRANCH  33  34
HETATM   34  C   UNL     1     -11.007  15.065  68.849  1.00  0.00    -0.256 A  
HETATM   35  C   UNL     1     -10.528  15.835  66.608  1.00  0.00    -0.302 A  
HETATM   36  C   UNL     1     -10.781  17.422  68.417  1.00  0.00    -0.301 A  
HETATM   37  C   UNL     1     -10.761  14.789  67.496  1.00  0.00    -0.269 A  
HETATM   38  C   UNL     1     -11.014  16.381  69.308  1.00  0.00    -0.322 A  
HETATM   39  C   UNL     1     -10.538  17.150  67.069  1.00  0.00    -0.227 A  
ENDBRANCH  33  34
ENDBRANCH  32  33
ENDBRANCH   2  32
TORSDOF 18
ENDMDL
MODEL      397
REMARK 921   NORMALIZED FREE ENERGY PREDICTED BY IDOCK:   -2.30 KCAL/MOL
REMARK 922        TOTAL FREE ENERGY PREDICTED BY IDOCK:   -9.51 KCAL/MOL
REMARK 923 INTER-LIGAND FREE ENERGY PREDICTED BY IDOCK:   -7.09 KCAL/MOL
REMARK 924 INTRA-LIGAND FREE ENERGY PREDICTED BY IDOCK:   -2.42 KCAL/MOL
REMARK 927      BINDING AFFINITY PREDICTED BY RF-SCORE:    0.00 PKD
ROOT
HETATM    1  O   UNL     1      -8.610   4.549  66.549  1.00  0.00    -0.112 OA 
HETATM    2  C   UNL     1      -9.603   5.494  66.154  1.00  0.00    -0.139 C  
HETATM    3  H   UNL     1      -9.021   3.786  66.939  1.00  0.00     0.000 HD 
ENDROOT
BRANCH   2   4
HETATM    4  C   UNL     1      -8.936   6.731  65.521  1.00  0.00     0.089 C  
BRANCH   4   5
HETATM    5  C   UNL     1      -7.456   6.921  65.866  1.00  0.00    -0.084 C  
BRANCH   5   6
HETATM    6  C   UNL     1      -7.129   8.040  66.881  1.00  0.00    -0.081 C  
HETATM    7  H   UNL     1      -4.876  11.316  67.486  1.00  0.00     0.000 HD 
HETATM    8  C   UNL     1      -6.133   9.194  66.438  1.00  0.00    -0.063 C  
HETATM    9  C   UNL     1      -6.431   7.411  68.094  1.00  0.00    -0.046 C  
HETATM   10  C   UNL     1      -5.833   8.585  68.812  1.00  0.00    -0.044 C  
HETATM   11  O   UNL     1      -7.332   6.734  68.950  1.00  0.00    -0.088 OA 
HETATM   12  O   UNL     1      -5.237  10.777  68.180  1.00  0.00    -0.037 OA 
HETATM   13  H   UNL     1      -6.900   6.344  69.701  1.00  0.00     0.000 HD 
HETATM   14  C   UNL     1      -5.258   9.445  67.707  1.00  0.00    -0.037 C  
BRANCH   8  15
HETATM   15  C   UNL     1      -6.807  10.470  65.839  1.00  0.00    -0.132 C  
BRANCH  15  16
HETATM   16  C   UNL     1      -8.196  10.786  66.364  1.00  0.00    -0.155 C  
HETATM   17  C   UNL     1      -8.667  11.826  67.080  1.00  0.00    -0.169 C  
BRANCH  17  18
HETATM   18  C   UNL     1      -7.927  13.023  67.605  1.00  0.00    -0.169 C  
BRANCH  18  19
HETATM   19  C   UNL     1      -8.475  14.342  67.039  1.00  0.00    -0.206 C  
BRANCH  19  20
HETATM   20  C   UNL     1      -9.592  14.171  66.017  1.00  0.00    -0.251 C  
BRANCH  20  21
HETATM   21  C   UNL     1     -10.538  15.331  66.055  1.00  0.00    -0.319 C  
HETATM   22  O   UNL     1     -11.676  15.325  66.507  1.00  0.00    -0.124 OA 
BRANCH  21  23
HETATM   23  O   UNL     1      -9.971  16.360  65.368  1.00  0.00    -0.534 OA 
BRANCH  23  24
HETATM   24  C   UNL     1     -10.864  17.453  65.306  1.00  0.00     0.056 C  
BRANCH  24  25
HETATM   25  C   UNL     1     -10.376  18.654  66.088  1.00  0.00    -0.481 C  
BRANCH  25  26
HETATM   26  C   UNL     1      -8.872  18.621  66.350  1.00  0.00    -0.283 C  
BRANCH  26  27
HETATM   27  C   UNL     1      -8.473  18.440  67.822  1.00  0.00    -0.259 C  
BRANCH  27  28
HETATM   28  O   UNL     1      -7.092  18.693  67.958  1.00  0.00    -0.229 OA 
HETATM   29  N   UNL     1      -6.459  17.776  68.830  1.00  0.00    -0.215 N  
HETATM   30  O   UNL     1      -5.265  18.035  69.002  1.00  0.00    -0.173 OA 
HETATM   31  O   UNL     1      -7.143  16.875  69.298  1.00  0.00    -0.237 OA 
ENDBRANCH  27  28
ENDBRANCH  26  27
ENDBRANCH  25  26
ENDBRANCH  24  25
ENDBRANCH  23  24
ENDBRANCH  21  23
ENDBRANCH  20  21
ENDBRANCH  19  20
ENDBRANCH  18  19
ENDBRANCH  17  18
ENDBRANCH  15  16
ENDBRANCH   8  15
ENDBRANCH   5   6
ENDBRANCH   4   5
ENDBRANCH   2   4
BRANCH   2  32
HETATM   32  C   UNL     1     -10.381   5.860  67.409  1.00  0.00    -0.274 C  
BRANCH  32  33
HETATM   33  C   UNL     1     -10.122   4.874  68.542  1.00  0.00    -0.148 C  
BRANCH  33  34
HETATM   34  C   UNL     1     -10.585   5.470  69.831  1.00  0.00    -0.387 A  
HETATM   35  C   UNL     1     -10.576   5.458  72.249  1.00  0.00    -0.280 A  
HETATM   36  C   UNL     1     -12.046   6.952  71.039  1.00  0.00    -0.429 A  
HETATM   37  C   UNL     1     -10.090   4.963  71.042  1.00  0.00    -0.288 A  
HETATM   38  C   UNL     1     -11.564   6.461  69.832  1.00  0.00    -0.422 A  
HETATM   39  C   UNL     1     -11.554   6.451  72.247  1.00  0.00    -0.341 A  
ENDBRANCH  33  34
ENDBRANCH  32  33
ENDBRANCH   2  32
TORSDOF 18
ENDMDL
MODEL      398
REMARK 921   NORMALIZED FREE ENERGY PREDICTED BY IDOCK:   -2.30 KCAL/MOL
REMARK 922        TOTAL FREE ENERGY PREDICTED BY IDOCK:   -9.50 KCAL/MOL
REMARK 923 INTER-LIGAND FREE ENERGY PREDICTED BY IDOCK:   -7.73 KCAL/MOL
REMARK 924 INTRA-LIGAND FREE ENERGY PREDICTED BY IDOCK:   -1.77 KCAL/MOL
REMARK 927      BINDING AFFINITY PREDICTED BY RF-SCORE:    0.00 PKD
ROOT
HETATM    1  O   UNL     1     -11.428  18.618  68.244  1.00  0.00     0.331 OA 
HETATM    2  C   UNL     1     -10.681  18.831  67.048  1.00  0.00    -0.367 C  
HETATM    3  H   UNL     1     -11.804  19.437  68.546  1.00  0.00     0.000 HD 
ENDROOT
BRANCH   2   4
HETATM    4  C   UNL     1     -10.071  17.503  66.558  1.00  0.00    -0.331 C  
BRANCH   4   5
HETATM    5  C   UNL     1     -10.669  16.241  67.189  1.00  0.00    -0.247 C  
BRANCH   5   6
HETATM    6  C   UNL     1      -9.793  14.968  67.131  1.00  0.00    -0.233 C  
HETATM    7  H   UNL     1      -8.886  11.562  69.067  1.00  0.00     0.000 HD 
HETATM    8  C   UNL     1      -9.994  13.862  68.252  1.00  0.00    -0.238 C  
HETATM    9  C   UNL     1      -8.324  15.379  67.291  1.00  0.00    -0.199 C  
HETATM   10  C   UNL     1      -7.623  14.088  67.599  1.00  0.00    -0.191 C  
HETATM   11  O   UNL     1      -7.785  15.947  66.112  1.00  0.00    -0.093 OA 
HETATM   12  O   UNL     1      -8.309  12.000  68.452  1.00  0.00    -0.160 OA 
HETATM   13  H   UNL     1      -6.875  16.202  66.212  1.00  0.00     0.000 HD 
HETATM   14  C   UNL     1      -8.541  13.389  68.579  1.00  0.00    -0.074 C  
BRANCH   8  15
HETATM   15  C   UNL     1     -10.995  12.717  67.896  1.00  0.00    -0.262 C  
BRANCH  15  16
HETATM   16  C   UNL     1     -11.795  12.919  66.621  1.00  0.00    -0.461 C  
HETATM   17  C   UNL     1     -11.493  12.683  65.329  1.00  0.00    -0.368 C  
BRANCH  17  18
HETATM   18  C   UNL     1     -10.221  12.142  64.740  1.00  0.00    -0.310 C  
BRANCH  18  19
HETATM   19  C   UNL     1     -10.204  10.606  64.700  1.00  0.00    -0.404 C  
BRANCH  19  20
HETATM   20  C   UNL     1      -9.046   9.971  65.459  1.00  0.00    -0.227 C  
BRANCH  20  21
HETATM   21  C   UNL     1      -9.545   9.058  66.536  1.00  0.00    -0.223 C  
HETATM   22  O   UNL     1     -10.441   9.299  67.336  1.00  0.00    -0.249 OA 
BRANCH  21  23
HETATM   23  O   UNL     1      -8.736   7.964  66.570  1.00  0.00    -0.133 OA 
BRANCH  23  24
HETATM   24  C   UNL     1      -9.464   6.808  66.212  1.00  0.00    -0.067 C  
BRANCH  24  25
HETATM   25  C   UNL     1      -8.595   5.573  66.116  1.00  0.00    -0.129 C  
BRANCH  25  26
HETATM   26  C   UNL     1      -7.733   5.355  67.358  1.00  0.00    -0.096 C  
BRANCH  26  27
HETATM   27  C   UNL     1      -8.366   4.468  68.440  1.00  0.00    -0.089 C  
BRANCH  27  28
HETATM   28  O   UNL     1      -8.873   5.289  69.469  1.00  0.00    -0.102 OA 
HETATM   29  N   UNL     1      -8.018   5.331  70.596  1.00  0.00    -0.101 N  
HETATM   30  O   UNL     1      -8.490   5.995  71.522  1.00  0.00    -0.126 OA 
HETATM   31  O   UNL     1      -6.959   4.721  70.526  1.00  0.00    -0.036 OA 
ENDBRANCH  27  28
ENDBRANCH  26  27
ENDBRANCH  25  26
ENDBRANCH  24  25
ENDBRANCH  23  24
ENDBRANCH  21  23
ENDBRANCH  20  21
ENDBRANCH  19  20
ENDBRANCH  18  19
ENDBRANCH  17  18
ENDBRANCH  15  16
ENDBRANCH   8  15
ENDBRANCH   5   6
ENDBRANCH   4   5
ENDBRANCH   2   4
BRANCH   2  32
HETATM   32  C   UNL     1      -9.602  19.851  67.382  1.00  0.00    -0.499 C  
BRANCH  32  33
HETATM   33  C   UNL     1      -8.289  19.178  67.768  1.00  0.00    -0.325 C  
BRANCH  33  34
HETATM   34  C   UNL     1      -7.171  19.795  66.993  1.00  0.00    -0.242 A  
HETATM   35  C   UNL     1      -5.269  21.285  66.917  1.00  0.00    -0.297 A  
HETATM   36  C   UNL     1      -6.086  20.241  64.892  1.00  0.00    -0.299 A  
HETATM   37  C   UNL     1      -6.265  20.643  67.647  1.00  0.00    -0.318 A  
HETATM   38  C   UNL     1      -7.082  19.597  65.616  1.00  0.00    -0.321 A  
HETATM   39  C   UNL     1      -5.180  21.084  65.541  1.00  0.00    -0.240 A  
ENDBRANCH  33  34
ENDBRANCH  32  33
ENDBRANCH   2  32
TORSDOF 18
ENDMDL
MODEL      399
REMARK 921   NORMALIZED FREE ENERGY PREDICTED BY IDOCK:   -2.19 KCAL/MOL
REMARK 922        TOTAL FREE ENERGY PREDICTED BY IDOCK:   -9.27 KCAL/MOL
REMARK 923 INTER-LIGAND FREE ENERGY PREDICTED BY IDOCK:   -7.43 KCAL/MOL
REMARK 924 INTRA-LIGAND FREE ENERGY PREDICTED BY IDOCK:   -1.84 KCAL/MOL
REMARK 927      BINDING AFFINITY PREDICTED BY RF-SCORE:    0.00 PKD
ROOT
HETATM    1  O   UNL     1     -11.139  16.000  68.419  1.00  0.00    -0.318 OA 
HETATM    2  C   UNL     1     -11.645  14.988  67.551  1.00  0.00    -0.301 C  
HETATM    3  H   UNL     1     -11.502  16.845  68.183  1.00  0.00     0.000 HD 
ENDROOT
BRANCH   2   4
HETATM    4  C   UNL     1     -11.056  13.615  67.934  1.00  0.00    -0.283 C  
BRANCH   4   5
HETATM    5  C   UNL     1      -9.589  13.637  68.376  1.00  0.00    -0.203 C  
BRANCH   5   6
HETATM    6  C   UNL     1      -8.669  12.568  67.742  1.00  0.00    -0.178 C  
HETATM    7  H   UNL     1      -7.538   8.715  67.968  1.00  0.00     0.000 HD 
HETATM    8  C   UNL     1      -8.772  11.075  68.272  1.00  0.00    -0.144 C  
HETATM    9  C   UNL     1      -7.211  12.950  68.025  1.00  0.00    -0.115 C  
HETATM   10  C   UNL     1      -6.446  11.695  67.718  1.00  0.00    -0.067 C  
HETATM   11  O   UNL     1      -6.753  14.003  67.199  1.00  0.00    -0.414 OA 
HETATM   12  O   UNL     1      -7.010   9.409  67.591  1.00  0.00    -0.079 OA 
HETATM   13  H   UNL     1      -5.850  14.240  67.374  1.00  0.00     0.000 HD 
HETATM   14  C   UNL     1      -7.288  10.589  68.318  1.00  0.00    -0.088 C  
BRANCH   8  15
HETATM   15  C   UNL     1      -9.746  10.145  67.479  1.00  0.00    -0.190 C  
BRANCH  15  16
HETATM   16  C   UNL     1     -10.468   9.096  68.305  1.00  0.00    -0.254 C  
HETATM   17  C   UNL     1     -10.763   7.805  68.051  1.00  0.00    -0.130 C  
BRANCH  17  18
HETATM   18  C   UNL     1     -10.468   6.992  66.824  1.00  0.00    -0.297 C  
BRANCH  18  19
HETATM   19  C   UNL     1     -10.620   5.484  67.072  1.00  0.00    -0.332 C  
BRANCH  19  20
HETATM   20  C   UNL     1      -9.667   4.614  66.262  1.00  0.00    -0.212 C  
BRANCH  20  21
HETATM   21  C   UNL     1      -8.601   4.028  67.134  1.00  0.00    -0.102 C  
HETATM   22  O   UNL     1      -8.676   2.986  67.773  1.00  0.00    -0.096 OA 
BRANCH  21  23
HETATM   23  O   UNL     1      -7.580   4.925  67.212  1.00  0.00    -0.085 OA 
BRANCH  23  24
HETATM   24  C   UNL     1      -7.073   4.971  68.530  1.00  0.00    -0.058 C  
BRANCH  24  25
HETATM   25  C   UNL     1      -8.139   5.285  69.557  1.00  0.00    -0.094 C  
BRANCH  25  26
HETATM   26  C   UNL     1      -7.856   6.569  70.334  1.00  0.00    -0.110 C  
BRANCH  26  27
HETATM   27  C   UNL     1      -8.696   6.757  71.605  1.00  0.00    -0.126 C  
BRANCH  27  28
HETATM   28  O   UNL     1      -9.994   7.173  71.242  1.00  0.00    -0.189 OA 
HETATM   29  N   UNL     1     -10.478   8.214  72.069  1.00  0.00    -0.241 N  
HETATM   30  O   UNL     1     -11.637   8.535  71.795  1.00  0.00    -0.273 OA 
HETATM   31  O   UNL     1      -9.725   8.649  72.930  1.00  0.00    -0.177 OA 
ENDBRANCH  27  28
ENDBRANCH  26  27
ENDBRANCH  25  26
ENDBRANCH  24  25
ENDBRANCH  23  24
ENDBRANCH  21  23
ENDBRANCH  20  21
ENDBRANCH  19  20
ENDBRANCH  18  19
ENDBRANCH  17  18
ENDBRANCH  15  16
ENDBRANCH   8  15
ENDBRANCH   5   6
ENDBRANCH   4   5
ENDBRANCH   2   4
BRANCH   2  32
HETATM   32  C   UNL     1     -11.251  15.388  66.136  1.00  0.00    -0.161 C  
BRANCH  32  33
HETATM   33  C   UNL     1     -10.117  14.523  65.600  1.00  0.00    -0.384 C  
BRANCH  33  34
HETATM   34  C   UNL     1     -10.682  13.462  64.712  1.00  0.00    -0.403 A  
HETATM   35  C   UNL     1     -12.585  12.504  63.569  1.00  0.00    -0.475 A  
HETATM   36  C   UNL     1     -10.458  11.349  63.582  1.00  0.00    -0.472 A  
HETATM   37  C   UNL     1     -12.030  13.530  64.329  1.00  0.00    -0.479 A  
HETATM   38  C   UNL     1      -9.899  12.371  64.341  1.00  0.00    -0.116 A  
HETATM   39  C   UNL     1     -11.799  11.415  63.197  1.00  0.00     0.219 A  
ENDBRANCH  33  34
ENDBRANCH  32  33
ENDBRANCH   2  32
TORSDOF 18
ENDMDL
MODEL      400
REMARK 921   NORMALIZED FREE ENERGY PREDICTED BY IDOCK:   -2.18 KCAL/MOL
REMARK 922        TOTAL FREE ENERGY PREDICTED BY IDOCK:   -9.26 KCAL/MOL
REMARK 923 INTER-LIGAND FREE ENERGY PREDICTED BY IDOCK:   -7.12 KCAL/MOL
REMARK 924 INTRA-LIGAND FREE ENERGY PREDICTED BY IDOCK:   -2.14 KCAL/MOL
REMARK 927      BINDING AFFINITY PREDICTED BY RF-SCORE:    0.00 PKD
ROOT
HETATM    1  O   UNL     1     -11.321  18.807  66.558  1.00  0.00     0.393 OA 
HETATM    2  C   UNL     1     -10.381  17.892  67.120  1.00  0.00    -0.367 C  
HETATM    3  H   UNL     1     -12.063  18.335  66.199  1.00  0.00     0.000 HD 
ENDROOT
BRANCH   2   4
HETATM    4  C   UNL     1      -9.177  18.658  67.702  1.00  0.00    -0.300 C  
BRANCH   4   5
HETATM    5  C   UNL     1      -8.222  17.816  68.555  1.00  0.00    -0.296 C  
BRANCH   5   6
HETATM    6  C   UNL     1      -7.362  16.779  67.796  1.00  0.00    -0.165 C  
HETATM    7  H   UNL     1      -6.101  12.960  67.830  1.00  0.00     0.000 HD 
HETATM    8  C   UNL     1      -7.352  15.280  68.318  1.00  0.00    -0.113 C  
HETATM    9  C   UNL     1      -5.890  17.202  67.892  1.00  0.00    -0.123 C  
HETATM   10  C   UNL     1      -5.137  15.973  67.474  1.00  0.00    -0.101 C  
HETATM   11  O   UNL     1      -5.574  18.276  67.026  1.00  0.00    -0.136 OA 
HETATM   12  O   UNL     1      -5.647  13.673  67.395  1.00  0.00    -0.354 OA 
HETATM   13  H   UNL     1      -4.663  18.537  67.085  1.00  0.00     0.000 HD 
HETATM   14  C   UNL     1      -5.862  14.838  68.166  1.00  0.00    -0.138 C  
BRANCH   8  15
HETATM   15  C   UNL     1      -8.394  14.328  67.647  1.00  0.00    -0.187 C  
BRANCH  15  16
HETATM   16  C   UNL     1      -8.278  12.862  68.022  1.00  0.00    -0.168 C  
HETATM   17  C   UNL     1      -9.198  11.969  68.440  1.00  0.00    -0.160 C  
BRANCH  17  18
HETATM   18  C   UNL     1     -10.666  12.171  68.683  1.00  0.00    -0.261 C  
BRANCH  18  19
HETATM   19  C   UNL     1     -11.423  10.840  68.819  1.00  0.00    -0.364 C  
BRANCH  19  20
HETATM   20  C   UNL     1     -10.612   9.719  69.456  1.00  0.00    -0.253 C  
BRANCH  20  21
HETATM   21  C   UNL     1     -10.391   8.598  68.489  1.00  0.00    -0.196 C  
HETATM   22  O   UNL     1     -10.799   7.449  68.603  1.00  0.00    -0.150 OA 
BRANCH  21  23
HETATM   23  O   UNL     1      -9.534   9.034  67.525  1.00  0.00    -0.134 OA 
BRANCH  23  24
HETATM   24  C   UNL     1      -9.669   8.246  66.361  1.00  0.00    -0.230 C  
BRANCH  24  25
HETATM   25  C   UNL     1      -8.788   8.722  65.226  1.00  0.00    -0.205 C  
BRANCH  25  26
HETATM   26  C   UNL     1      -8.403   7.601  64.264  1.00  0.00     0.074 C  
BRANCH  26  27
HETATM   27  C   UNL     1      -8.183   6.229  64.918  1.00  0.00    -0.119 C  
BRANCH  27  28
HETATM   28  O   UNL     1      -8.679   5.225  64.060  1.00  0.00    -0.112 OA 
HETATM   29  N   UNL     1      -9.725   4.478  64.651  1.00  0.00    -0.094 N  
HETATM   30  O   UNL     1     -10.116   3.558  63.928  1.00  0.00    -0.169 OA 
HETATM   31  O   UNL     1     -10.098   4.813  65.768  1.00  0.00    -0.204 OA 
ENDBRANCH  27  28
ENDBRANCH  26  27
ENDBRANCH  25  26
ENDBRANCH  24  25
ENDBRANCH  23  24
ENDBRANCH  21  23
ENDBRANCH  20  21
ENDBRANCH  19  20
ENDBRANCH  18  19
ENDBRANCH  17  18
ENDBRANCH  15  16
ENDBRANCH   8  15
ENDBRANCH   5   6
ENDBRANCH   4   5
ENDBRANCH   2   4
BRANCH   2  32
HETATM   32  C   UNL     1      -9.957  16.957  65.996  1.00  0.00    -0.313 C  
BRANCH  32  33
HETATM   33  C   UNL     1     -11.155  16.457  65.197  1.00  0.00    -0.176 C  
BRANCH  33  34
HETATM   34  C   UNL     1     -11.213  14.966  65.275  1.00  0.00    -0.369 A  
HETATM   35  C   UNL     1     -10.355  12.812  64.591  1.00  0.00    -0.362 A  
HETATM   36  C   UNL     1     -12.349  12.956  65.955  1.00  0.00    -0.330 A  
HETATM   37  C   UNL     1     -10.260  14.201  64.588  1.00  0.00    -0.195 A  
HETATM   38  C   UNL     1     -12.258  14.343  65.956  1.00  0.00    -0.352 A  
HETATM   39  C   UNL     1     -11.399  12.191  65.274  1.00  0.00    -0.386 A  
ENDBRANCH  33  34
ENDBRANCH  32  33
ENDBRANCH   2  32
TORSDOF 18
ENDMDL
MODEL      401
REMARK 921   NORMALIZED FREE ENERGY PREDICTED BY IDOCK:   -2.17 KCAL/MOL
REMARK 922        TOTAL FREE ENERGY PREDICTED BY IDOCK:   -9.24 KCAL/MOL
REMARK 923 INTER-LIGAND FREE ENERGY PREDICTED BY IDOCK:   -7.29 KCAL/MOL
REMARK 924 INTRA-LIGAND FREE ENERGY PREDICTED BY IDOCK:   -1.95 KCAL/MOL
REMARK 927      BINDING AFFINITY PREDICTED BY RF-SCORE:    0.00 PKD
ROOT
HETATM    1  O   UNL     1      -7.051  18.465  65.115  1.00  0.00    -0.469 OA 
HETATM    2  C   UNL     1      -7.592  17.886  66.300  1.00  0.00    -0.280 C  
HETATM    3  H   UNL     1      -6.288  18.991  65.326  1.00  0.00     0.000 HD 
ENDROOT
BRANCH   2   4
HETATM    4  C   UNL     1      -8.829  17.033  65.959  1.00  0.00    -0.170 C  
BRANCH   4   5
HETATM    5  C   UNL     1      -8.633  15.519  66.093  1.00  0.00    -0.078 C  
BRANCH   5   6
HETATM    6  C   UNL     1      -9.912  14.683  66.332  1.00  0.00    -0.296 C  
HETATM    7  H   UNL     1     -11.434  10.964  66.179  1.00  0.00     0.000 HD 
HETATM    8  C   UNL     1      -9.824  13.106  66.173  1.00  0.00    -0.284 C  
HETATM    9  C   UNL     1     -10.963  15.091  65.291  1.00  0.00    -0.382 C  
HETATM   10  C   UNL     1     -11.983  13.992  65.363  1.00  0.00    -0.386 C  
HETATM   11  O   UNL     1     -11.575  16.332  65.592  1.00  0.00     0.379 OA 
HETATM   12  O   UNL     1     -11.951  11.759  66.120  1.00  0.00    -0.464 OA 
HETATM   13  H   UNL     1     -12.225  16.584  64.948  1.00  0.00     0.000 HD 
HETATM   14  C   UNL     1     -11.159  12.725  65.458  1.00  0.00    -0.285 C  
BRANCH   8  15
HETATM   15  C   UNL     1      -9.529  12.313  67.486  1.00  0.00    -0.182 C  
BRANCH  15  16
HETATM   16  C   UNL     1      -8.158  12.542  68.096  1.00  0.00    -0.167 C  
HETATM   17  C   UNL     1      -7.324  11.715  68.758  1.00  0.00    -0.118 C  
BRANCH  17  18
HETATM   18  C   UNL     1      -7.514  10.269  69.115  1.00  0.00    -0.105 C  
BRANCH  18  19
HETATM   19  C   UNL     1      -6.606   9.829  70.273  1.00  0.00    -0.102 C  
BRANCH  19  20
HETATM   20  C   UNL     1      -7.353   9.371  71.519  1.00  0.00     0.266 C  
BRANCH  20  21
HETATM   21  C   UNL     1      -6.948   7.985  71.911  1.00  0.00    -0.072 C  
HETATM   22  O   UNL     1      -6.099   7.293  71.362  1.00  0.00    -0.036 OA 
BRANCH  21  23
HETATM   23  O   UNL     1      -7.787   7.562  72.896  1.00  0.00    -0.092 OA 
BRANCH  23  24
HETATM   24  C   UNL     1      -9.015   8.257  72.821  1.00  0.00    -0.253 C  
BRANCH  24  25
HETATM   25  C   UNL     1     -10.203   7.387  73.169  1.00  0.00    -0.363 C  
BRANCH  25  26
HETATM   26  C   UNL     1     -11.289   7.408  72.096  1.00  0.00    -0.311 C  
BRANCH  26  27
HETATM   27  C   UNL     1     -12.164   8.670  72.083  1.00  0.00    -0.386 C  
BRANCH  27  28
HETATM   28  O   UNL     1     -11.542   9.652  71.285  1.00  0.00    -0.334 OA 
HETATM   29  N   UNL     1     -12.469  10.574  70.743  1.00  0.00    -0.348 N  
HETATM   30  O   UNL     1     -11.935  11.395  69.993  1.00  0.00    -0.310 OA 
HETATM   31  O   UNL     1     -13.644  10.449  71.062  1.00  0.00    -0.173 OA 
ENDBRANCH  27  28
ENDBRANCH  26  27
ENDBRANCH  25  26
ENDBRANCH  24  25
ENDBRANCH  23  24
ENDBRANCH  21  23
ENDBRANCH  20  21
ENDBRANCH  19  20
ENDBRANCH  18  19
ENDBRANCH  17  18
ENDBRANCH  15  16
ENDBRANCH   8  15
ENDBRANCH   5   6
ENDBRANCH   4   5
ENDBRANCH   2   4
BRANCH   2  32
HETATM   32  C   UNL     1      -7.948  19.039  67.228  1.00  0.00    -0.273 C  
BRANCH  32  33
HETATM   33  C   UNL     1      -7.785  18.655  68.694  1.00  0.00    -0.344 C  
BRANCH  33  34
HETATM   34  C   UNL     1      -8.727  17.543  69.021  1.00  0.00    -0.031 A  
HETATM   35  C   UNL     1     -10.990  16.775  69.387  1.00  0.00    -0.176 A  
HETATM   36  C   UNL     1      -9.117  15.301  69.803  1.00  0.00    -0.033 A  
HETATM   37  C   UNL     1     -10.109  17.783  69.006  1.00  0.00    -0.294 A  
HETATM   38  C   UNL     1      -8.233  16.303  69.423  1.00  0.00    -0.035 A  
HETATM   39  C   UNL     1     -10.494  15.536  69.785  1.00  0.00    -0.308 A  
ENDBRANCH  33  34
ENDBRANCH  32  33
ENDBRANCH   2  32
TORSDOF 18
ENDMDL
MODEL      402
REMARK 921   NORMALIZED FREE ENERGY PREDICTED BY IDOCK:   -2.16 KCAL/MOL
REMARK 922        TOTAL FREE ENERGY PREDICTED BY IDOCK:   -9.21 KCAL/MOL
REMARK 923 INTER-LIGAND FREE ENERGY PREDICTED BY IDOCK:   -6.62 KCAL/MOL
REMARK 924 INTRA-LIGAND FREE ENERGY PREDICTED BY IDOCK:   -2.59 KCAL/MOL
REMARK 927      BINDING AFFINITY PREDICTED BY RF-SCORE:    0.00 PKD
ROOT
HETATM    1  O   UNL     1      -9.804  14.503  65.273  1.00  0.00    -0.499 OA 
HETATM    2  C   UNL     1      -8.613  14.561  66.057  1.00  0.00     0.798 C  
HETATM    3  H   UNL     1      -9.682  14.976  64.458  1.00  0.00     0.000 HD 
ENDROOT
BRANCH   2   4
HETATM    4  C   UNL     1      -8.810  13.793  67.379  1.00  0.00    -0.211 C  
BRANCH   4   5
HETATM    5  C   UNL     1     -10.221  13.242  67.608  1.00  0.00    -0.228 C  
BRANCH   5   6
HETATM    6  C   UNL     1     -10.772  13.354  69.049  1.00  0.00    -0.160 C  
HETATM    7  H   UNL     1     -14.059  12.861  71.313  1.00  0.00     0.000 HD 
HETATM    8  C   UNL     1     -12.259  12.874  69.327  1.00  0.00    -0.115 C  
HETATM    9  C   UNL     1     -10.792  14.835  69.449  1.00  0.00    -0.255 C  
HETATM   10  C   UNL     1     -11.671  14.864  70.666  1.00  0.00    -0.357 C  
HETATM   11  O   UNL     1      -9.506  15.328  69.776  1.00  0.00    -0.405 OA 
HETATM   12  O   UNL     1     -13.337  13.439  71.532  1.00  0.00    -0.337 OA 
HETATM   13  H   UNL     1      -9.519  16.245  70.025  1.00  0.00     0.000 HD 
HETATM   14  C   UNL     1     -12.822  13.944  70.317  1.00  0.00    -0.072 C  
BRANCH   8  15
HETATM   15  C   UNL     1     -12.410  11.393  69.801  1.00  0.00    -0.250 C  
BRANCH  15  16
HETATM   16  C   UNL     1     -11.212  10.813  70.530  1.00  0.00    -0.188 C  
HETATM   17  C   UNL     1     -10.807   9.541  70.715  1.00  0.00    -0.386 C  
BRANCH  17  18
HETATM   18  C   UNL     1     -11.454   8.267  70.251  1.00  0.00    -0.065 C  
BRANCH  18  19
HETATM   19  C   UNL     1     -10.541   7.455  69.319  1.00  0.00    -0.220 C  
BRANCH  19  20
HETATM   20  C   UNL     1     -10.087   8.206  68.074  1.00  0.00    -0.241 C  
BRANCH  20  21
HETATM   21  C   UNL     1      -9.384   7.291  67.120  1.00  0.00    -0.141 C  
HETATM   22  O   UNL     1      -9.883   6.348  66.517  1.00  0.00    -0.164 OA 
BRANCH  21  23
HETATM   23  O   UNL     1      -8.057   7.594  67.144  1.00  0.00    -0.114 OA 
BRANCH  23  24
HETATM   24  C   UNL     1      -7.415   7.054  66.008  1.00  0.00    -0.080 C  
BRANCH  24  25
HETATM   25  C   UNL     1      -6.911   8.119  65.058  1.00  0.00    -0.062 C  
BRANCH  25  26
HETATM   26  C   UNL     1      -7.368   7.896  63.619  1.00  0.00    -0.103 C  
BRANCH  26  27
HETATM   27  C   UNL     1      -8.652   8.639  63.223  1.00  0.00    -0.011 C  
BRANCH  27  28
HETATM   28  O   UNL     1      -8.933   9.622  64.195  1.00  0.00    -0.227 OA 
HETATM   29  N   UNL     1      -9.502  10.789  63.633  1.00  0.00    -0.262 N  
HETATM   30  O   UNL     1      -9.689  11.675  64.472  1.00  0.00    -0.236 OA 
HETATM   31  O   UNL     1      -9.727  10.786  62.430  1.00  0.00    -0.185 OA 
ENDBRANCH  27  28
ENDBRANCH  26  27
ENDBRANCH  25  26
ENDBRANCH  24  25
ENDBRANCH  23  24
ENDBRANCH  21  23
ENDBRANCH  20  21
ENDBRANCH  19  20
ENDBRANCH  18  19
ENDBRANCH  17  18
ENDBRANCH  15  16
ENDBRANCH   8  15
ENDBRANCH   5   6
ENDBRANCH   4   5
ENDBRANCH   2   4
BRANCH   2  32
HETATM   32  C   UNL     1      -8.324  16.034  66.305  1.00  0.00    -0.287 C  
BRANCH  32  33
HETATM   33  C   UNL     1      -9.607  16.848  66.431  1.00  0.00    -0.305 C  
BRANCH  33  34
HETATM   34  C   UNL     1      -9.389  17.967  67.396  1.00  0.00    -0.254 A  
HETATM   35  C   UNL     1     -10.302  19.590  68.938  1.00  0.00    -0.254 A  
HETATM   36  C   UNL     1      -7.950  19.631  68.370  1.00  0.00    -0.357 A  
HETATM   37  C   UNL     1     -10.483  18.495  68.098  1.00  0.00    -0.361 A  
HETATM   38  C   UNL     1      -8.125  18.538  67.531  1.00  0.00    -0.261 A  
HETATM   39  C   UNL     1      -9.036  20.157  69.073  1.00  0.00     0.240 A  
ENDBRANCH  33  34
ENDBRANCH  32  33
ENDBRANCH   2  32
TORSDOF 18
ENDMDL
MODEL      403
REMARK 921   NORMALIZED FREE ENERGY PREDICTED BY IDOCK:   -2.14 KCAL/MOL
REMARK 922        TOTAL FREE ENERGY PREDICTED BY IDOCK:   -9.19 KCAL/MOL
REMARK 923 INTER-LIGAND FREE ENERGY PREDICTED BY IDOCK:   -7.45 KCAL/MOL
REMARK 924 INTRA-LIGAND FREE ENERGY PREDICTED BY IDOCK:   -1.74 KCAL/MOL
REMARK 927      BINDING AFFINITY PREDICTED BY RF-SCORE:    0.00 PKD
ROOT
HETATM    1  O   UNL     1      -9.010  15.497  65.746  1.00  0.00    -0.381 OA 
HETATM    2  C   UNL     1      -7.913  15.049  66.540  1.00  0.00     0.394 C  
HETATM    3  H   UNL     1      -8.702  16.076  65.058  1.00  0.00     0.000 HD 
ENDROOT
BRANCH   2   4
HETATM    4  C   UNL     1      -8.411  14.110  67.656  1.00  0.00    -0.189 C  
BRANCH   4   5
HETATM    5  C   UNL     1      -9.929  13.904  67.702  1.00  0.00    -0.237 C  
BRANCH   5   6
HETATM    6  C   UNL     1     -10.576  13.911  69.107  1.00  0.00    -0.124 C  
HETATM    7  H   UNL     1     -14.075  13.623  71.070  1.00  0.00     0.000 HD 
HETATM    8  C   UNL     1     -12.133  13.625  69.222  1.00  0.00    -0.360 C  
HETATM    9  C   UNL     1     -10.424  15.315  69.707  1.00  0.00    -0.275 C  
HETATM   10  C   UNL     1     -11.388  15.318  70.858  1.00  0.00    -0.380 C  
HETATM   11  O   UNL     1      -9.114  15.566  70.180  1.00  0.00    -0.160 OA 
HETATM   12  O   UNL     1     -13.300  14.055  71.412  1.00  0.00    -0.340 OA 
HETATM   13  H   UNL     1      -9.020  16.435  70.551  1.00  0.00     0.000 HD 
HETATM   14  C   UNL     1     -12.622  14.630  70.313  1.00  0.00    -0.318 C  
BRANCH   8  15
HETATM   15  C   UNL     1     -12.526  12.134  69.476  1.00  0.00     0.147 C  
BRANCH  15  16
HETATM   16  C   UNL     1     -11.934  11.504  70.724  1.00  0.00    -0.317 C  
HETATM   17  C   UNL     1     -11.413  10.281  70.948  1.00  0.00    -0.425 C  
BRANCH  17  18
HETATM   18  C   UNL     1     -11.270   9.127  69.997  1.00  0.00    -0.168 C  
BRANCH  18  19
HETATM   19  C   UNL     1      -9.800   8.750  69.754  1.00  0.00    -0.189 C  
BRANCH  19  20
HETATM   20  C   UNL     1      -8.937   9.892  69.234  1.00  0.00    -0.184 C  
BRANCH  20  21
HETATM   21  C   UNL     1      -7.590   9.397  68.808  1.00  0.00    -0.079 C  
HETATM   22  O   UNL     1      -6.510   9.909  69.076  1.00  0.00    -0.047 OA 
BRANCH  21  23
HETATM   23  O   UNL     1      -7.774   8.359  67.947  1.00  0.00    -0.100 OA 
BRANCH  23  24
HETATM   24  C   UNL     1      -6.918   7.288  68.286  1.00  0.00    -0.076 C  
BRANCH  24  25
HETATM   25  C   UNL     1      -7.670   6.070  68.777  1.00  0.00    -0.095 C  
BRANCH  25  26
HETATM   26  C   UNL     1      -7.167   5.566  70.128  1.00  0.00    -0.067 C  
BRANCH  26  27
HETATM   27  C   UNL     1      -6.991   6.650  71.201  1.00  0.00    -0.071 C  
BRANCH  27  28
HETATM   28  O   UNL     1      -8.068   6.577  72.110  1.00  0.00    -0.106 OA 
HETATM   29  N   UNL     1      -8.289   7.801  72.785  1.00  0.00    -0.123 N  
HETATM   30  O   UNL     1      -9.188   7.721  73.626  1.00  0.00    -0.258 OA 
HETATM   31  O   UNL     1      -7.586   8.753  72.473  1.00  0.00    -0.347 OA 
ENDBRANCH  27  28
ENDBRANCH  26  27
ENDBRANCH  25  26
ENDBRANCH  24  25
ENDBRANCH  23  24
ENDBRANCH  21  23
ENDBRANCH  20  21
ENDBRANCH  19  20
ENDBRANCH  18  19
ENDBRANCH  17  18
ENDBRANCH  15  16
ENDBRANCH   8  15
ENDBRANCH   5   6
ENDBRANCH   4   5
ENDBRANCH   2   4
BRANCH   2  32
HETATM   32  C   UNL     1      -7.251  16.294  67.113  1.00  0.00    -0.243 C  
BRANCH  32  33
HETATM   33  C   UNL     1      -7.254  17.446  66.114  1.00  0.00    -0.327 C  
BRANCH  33  34
HETATM   34  C   UNL     1      -8.080  18.567  66.655  1.00  0.00    -0.280 A  
HETATM   35  C   UNL     1     -10.203  19.376  67.479  1.00  0.00    -0.536 A  
HETATM   36  C   UNL     1      -8.369  20.911  67.115  1.00  0.00    -0.113 A  
HETATM   37  C   UNL     1      -9.403  18.321  67.050  1.00  0.00    -0.274 A  
HETATM   38  C   UNL     1      -7.565  19.862  66.685  1.00  0.00    -0.293 A  
HETATM   39  C   UNL     1      -9.686  20.669  67.511  1.00  0.00    -0.509 A  
ENDBRANCH  33  34
ENDBRANCH  32  33
ENDBRANCH   2  32
TORSDOF 18
ENDMDL
MODEL      404
REMARK 921   NORMALIZED FREE ENERGY PREDICTED BY IDOCK:   -2.14 KCAL/MOL
REMARK 922        TOTAL FREE ENERGY PREDICTED BY IDOCK:   -9.17 KCAL/MOL
REMARK 923 INTER-LIGAND FREE ENERGY PREDICTED BY IDOCK:   -6.54 KCAL/MOL
REMARK 924 INTRA-LIGAND FREE ENERGY PREDICTED BY IDOCK:   -2.63 KCAL/MOL
REMARK 927      BINDING AFFINITY PREDICTED BY RF-SCORE:    0.00 PKD
ROOT
HETATM    1  O   UNL     1     -13.058  11.385  68.939  1.00  0.00     0.728 OA 
HETATM    2  C   UNL     1     -11.768  11.005  69.415  1.00  0.00    -0.323 C  
HETATM    3  H   UNL     1     -13.379  12.135  69.426  1.00  0.00     0.000 HD 
ENDROOT
BRANCH   2   4
HETATM    4  C   UNL     1     -11.248   9.788  68.626  1.00  0.00    -0.068 C  
BRANCH   4   5
HETATM    5  C   UNL     1     -10.197   8.943  69.353  1.00  0.00    -0.210 C  
BRANCH   5   6
HETATM    6  C   UNL     1      -9.781   7.625  68.658  1.00  0.00    -0.157 C  
HETATM    7  H   UNL     1     -10.641   5.156  65.602  1.00  0.00     0.000 HD 
HETATM    8  C   UNL     1     -10.522   7.214  67.316  1.00  0.00    -0.372 C  
HETATM    9  C   UNL     1     -10.083   6.457  69.607  1.00  0.00    -0.175 C  
HETATM   10  C   UNL     1     -10.009   5.248  68.721  1.00  0.00    -0.243 C  
HETATM   11  O   UNL     1      -9.135   6.345  70.651  1.00  0.00    -0.147 OA 
HETATM   12  O   UNL     1     -10.194   4.891  66.397  1.00  0.00    -0.228 OA 
HETATM   13  H   UNL     1      -9.321   5.622  71.238  1.00  0.00     0.000 HD 
HETATM   14  C   UNL     1     -10.721   5.670  67.453  1.00  0.00    -0.198 C  
BRANCH   8  15
HETATM   15  C   UNL     1      -9.825   7.673  65.995  1.00  0.00     0.196 C  
BRANCH  15  16
HETATM   16  C   UNL     1      -8.353   7.323  65.875  1.00  0.00    -0.144 C  
HETATM   17  C   UNL     1      -7.246   7.937  66.339  1.00  0.00    -0.082 C  
BRANCH  17  18
HETATM   18  C   UNL     1      -7.133   9.208  67.131  1.00  0.00    -0.082 C  
BRANCH  18  19
HETATM   19  C   UNL     1      -7.644  10.429  66.350  1.00  0.00    -0.123 C  
BRANCH  19  20
HETATM   20  C   UNL     1      -7.784  10.202  64.850  1.00  0.00    -0.143 C  
BRANCH  20  21
HETATM   21  C   UNL     1      -9.097  10.716  64.349  1.00  0.00    -0.215 C  
HETATM   22  O   UNL     1      -9.469  10.741  63.182  1.00  0.00    -0.267 OA 
BRANCH  21  23
HETATM   23  O   UNL     1      -9.755  11.287  65.394  1.00  0.00    -0.214 OA 
BRANCH  23  24
HETATM   24  C   UNL     1     -11.053  11.677  64.998  1.00  0.00    -0.249 C  
BRANCH  24  25
HETATM   25  C   UNL     1     -11.528  12.931  65.700  1.00  0.00    -0.368 C  
BRANCH  25  26
HETATM   26  C   UNL     1     -12.392  13.820  64.808  1.00  0.00    -0.420 C  
BRANCH  26  27
HETATM   27  C   UNL     1     -12.308  15.322  65.113  1.00  0.00     0.301 C  
BRANCH  27  28
HETATM   28  O   UNL     1     -11.678  15.503  66.362  1.00  0.00     0.074 OA 
HETATM   29  N   UNL     1     -10.557  16.364  66.282  1.00  0.00    -0.281 N  
HETATM   30  O   UNL     1      -9.966  16.472  67.359  1.00  0.00    -0.255 OA 
HETATM   31  O   UNL     1     -10.312  16.873  65.196  1.00  0.00    -0.631 OA 
ENDBRANCH  27  28
ENDBRANCH  26  27
ENDBRANCH  25  26
ENDBRANCH  24  25
ENDBRANCH  23  24
ENDBRANCH  21  23
ENDBRANCH  20  21
ENDBRANCH  19  20
ENDBRANCH  18  19
ENDBRANCH  17  18
ENDBRANCH  15  16
ENDBRANCH   8  15
ENDBRANCH   5   6
ENDBRANCH   4   5
ENDBRANCH   2   4
BRANCH   2  32
HETATM   32  C   UNL     1     -11.925  10.685  70.895  1.00  0.00    -0.469 C  
BRANCH  32  33
HETATM   33  C   UNL     1     -13.052   9.689  71.141  1.00  0.00    -0.383 C  
BRANCH  33  34
HETATM   34  C   UNL     1     -12.510   8.498  71.861  1.00  0.00    -0.402 A  
HETATM   35  C   UNL     1     -10.837   7.529  73.313  1.00  0.00    -0.409 A  
HETATM   36  C   UNL     1     -12.489   6.122  72.243  1.00  0.00    -0.020 A  
HETATM   37  C   UNL     1     -11.397   8.647  72.702  1.00  0.00    -0.122 A  
HETATM   38  C   UNL     1     -13.052   7.235  71.630  1.00  0.00    -0.417 A  
HETATM   39  C   UNL     1     -11.383   6.268  73.083  1.00  0.00    -0.028 A  
ENDBRANCH  33  34
ENDBRANCH  32  33
ENDBRANCH   2  32
TORSDOF 18
ENDMDL
MODEL      405
REMARK 921   NORMALIZED FREE ENERGY PREDICTED BY IDOCK:   -2.00 KCAL/MOL
REMARK 922        TOTAL FREE ENERGY PREDICTED BY IDOCK:   -8.88 KCAL/MOL
REMARK 923 INTER-LIGAND FREE ENERGY PREDICTED BY IDOCK:   -6.70 KCAL/MOL
REMARK 924 INTRA-LIGAND FREE ENERGY PREDICTED BY IDOCK:   -2.18 KCAL/MOL
REMARK 927      BINDING AFFINITY PREDICTED BY RF-SCORE:    0.00 PKD
ROOT
HETATM    1  O   UNL     1      -8.499   4.747  66.641  1.00  0.00    -0.107 OA 
HETATM    2  C   UNL     1      -9.610   5.641  66.615  1.00  0.00    -0.152 C  
HETATM    3  H   UNL     1      -8.790   3.870  66.862  1.00  0.00     0.000 HD 
ENDROOT
BRANCH   2   4
HETATM    4  C   UNL     1      -9.138   7.064  66.257  1.00  0.00    -0.178 C  
BRANCH   4   5
HETATM    5  C   UNL     1      -7.660   7.351  66.542  1.00  0.00    -0.092 C  
BRANCH   5   6
HETATM    6  C   UNL     1      -7.365   8.545  67.479  1.00  0.00    -0.089 C  
HETATM    7  H   UNL     1      -5.312  11.988  67.799  1.00  0.00     0.000 HD 
HETATM    8  C   UNL     1      -6.469   9.733  66.927  1.00  0.00    -0.066 C  
HETATM    9  C   UNL     1      -6.574   8.031  68.689  1.00  0.00    -0.057 C  
HETATM   10  C   UNL     1      -6.025   9.281  69.314  1.00  0.00    -0.038 C  
HETATM   11  O   UNL     1      -7.389   7.348  69.623  1.00  0.00    -0.085 OA 
HETATM   12  O   UNL     1      -5.605  11.467  68.538  1.00  0.00    -0.043 OA 
HETATM   13  H   UNL     1      -6.899   7.030  70.372  1.00  0.00     0.000 HD 
HETATM   14  C   UNL     1      -5.557  10.112  68.138  1.00  0.00    -0.038 C  
BRANCH   8  15
HETATM   15  C   UNL     1      -7.252  10.928  66.294  1.00  0.00    -0.126 C  
BRANCH  15  16
HETATM   16  C   UNL     1      -8.677  11.111  66.785  1.00  0.00    -0.157 C  
HETATM   17  C   UNL     1      -9.217  11.984  67.659  1.00  0.00    -0.182 C  
BRANCH  17  18
HETATM   18  C   UNL     1      -8.542  13.068  68.449  1.00  0.00    -0.116 C  
BRANCH  18  19
HETATM   19  C   UNL     1      -8.981  14.473  68.006  1.00  0.00    -0.180 C  
BRANCH  19  20
HETATM   20  C   UNL     1      -8.442  14.900  66.647  1.00  0.00    -0.138 C  
BRANCH  20  21
HETATM   21  C   UNL     1      -9.013  16.220  66.232  1.00  0.00    -0.331 C  
HETATM   22  O   UNL     1     -10.042  16.397  65.592  1.00  0.00    -0.453 OA 
BRANCH  21  23
HETATM   23  O   UNL     1      -8.117  17.190  66.562  1.00  0.00    -0.232 OA 
BRANCH  23  24
HETATM   24  C   UNL     1      -8.588  18.452  66.136  1.00  0.00    -0.112 C  
BRANCH  24  25
HETATM   25  C   UNL     1      -9.149  19.282  67.271  1.00  0.00    -0.346 C  
BRANCH  25  26
HETATM   26  C   UNL     1      -8.676  18.809  68.644  1.00  0.00    -0.360 C  
BRANCH  26  27
HETATM   27  C   UNL     1      -9.763  18.173  69.522  1.00  0.00     0.320 C  
BRANCH  27  28
HETATM   28  O   UNL     1     -10.605  17.384  68.710  1.00  0.00    -0.341 OA 
HETATM   29  N   UNL     1     -11.265  16.369  69.444  1.00  0.00    -0.300 N  
HETATM   30  O   UNL     1     -11.951  15.637  68.727  1.00  0.00    -0.348 OA 
HETATM   31  O   UNL     1     -11.078  16.333  70.653  1.00  0.00    -0.341 OA 
ENDBRANCH  27  28
ENDBRANCH  26  27
ENDBRANCH  25  26
ENDBRANCH  24  25
ENDBRANCH  23  24
ENDBRANCH  21  23
ENDBRANCH  20  21
ENDBRANCH  19  20
ENDBRANCH  18  19
ENDBRANCH  17  18
ENDBRANCH  15  16
ENDBRANCH   8  15
ENDBRANCH   5   6
ENDBRANCH   4   5
ENDBRANCH   2   4
BRANCH   2  32
HETATM   32  C   UNL     1     -10.242   5.595  67.999  1.00  0.00    -0.234 C  
BRANCH  32  33
HETATM   33  C   UNL     1      -9.828   4.344  68.766  1.00  0.00    -0.149 C  
BRANCH  33  34
HETATM   34  C   UNL     1     -10.063   4.559  70.226  1.00  0.00    -0.230 A  
HETATM   35  C   UNL     1      -9.922   3.743  72.497  1.00  0.00    -0.228 A  
HETATM   36  C   UNL     1     -11.059   5.824  72.014  1.00  0.00    -0.318 A  
HETATM   37  C   UNL     1      -9.636   3.589  71.144  1.00  0.00    -0.240 A  
HETATM   38  C   UNL     1     -10.776   5.675  70.662  1.00  0.00    -0.333 A  
HETATM   39  C   UNL     1     -10.633   4.860  72.931  1.00  0.00    -0.276 A  
ENDBRANCH  33  34
ENDBRANCH  32  33
ENDBRANCH   2  32
TORSDOF 18
ENDMDL
MODEL      406
REMARK 921   NORMALIZED FREE ENERGY PREDICTED BY IDOCK:   -1.96 KCAL/MOL
REMARK 922        TOTAL FREE ENERGY PREDICTED BY IDOCK:   -8.81 KCAL/MOL
REMARK 923 INTER-LIGAND FREE ENERGY PREDICTED BY IDOCK:   -5.51 KCAL/MOL
REMARK 924 INTRA-LIGAND FREE ENERGY PREDICTED BY IDOCK:   -3.29 KCAL/MOL
REMARK 927      BINDING AFFINITY PREDICTED BY RF-SCORE:    0.00 PKD
ROOT
HETATM    1  O   UNL     1     -11.661   6.214  68.519  1.00  0.00    -0.309 OA 
HETATM    2  C   UNL     1     -10.493   5.565  69.019  1.00  0.00    -0.226 C  
HETATM    3  H   UNL     1     -11.634   6.252  67.570  1.00  0.00     0.000 HD 
ENDROOT
BRANCH   2   4
HETATM    4  C   UNL     1     -10.537   5.504  70.558  1.00  0.00    -0.339 C  
BRANCH   4   5
HETATM    5  C   UNL     1      -9.311   6.090  71.267  1.00  0.00    -0.170 C  
BRANCH   5   6
HETATM    6  C   UNL     1      -8.411   5.082  72.019  1.00  0.00    -0.124 C  
HETATM    7  H   UNL     1      -4.785   3.343  72.019  1.00  0.00     0.000 HD 
HETATM    8  C   UNL     1      -6.914   4.895  71.526  1.00  0.00    -0.048 C  
HETATM    9  C   UNL     1      -9.016   3.681  71.869  1.00  0.00    -0.105 C  
HETATM   10  C   UNL     1      -7.904   2.764  72.287  1.00  0.00    -0.054 C  
HETATM   11  O   UNL     1     -10.141   3.480  72.705  1.00  0.00    -0.152 OA 
HETATM   12  O   UNL     1      -5.559   2.971  72.425  1.00  0.00    -0.007 OA 
HETATM   13  H   UNL     1     -10.516   2.613  72.612  1.00  0.00     0.000 HD 
HETATM   14  C   UNL     1      -6.670   3.356  71.639  1.00  0.00    -0.026 C  
BRANCH   8  15
HETATM   15  C   UNL     1      -5.852   5.785  72.247  1.00  0.00    -0.031 C  
BRANCH  15  16
HETATM   16  C   UNL     1      -6.013   7.283  72.055  1.00  0.00    -0.037 C  
HETATM   17  C   UNL     1      -6.113   8.037  70.942  1.00  0.00    -0.033 C  
BRANCH  17  18
HETATM   18  C   UNL     1      -6.079   7.606  69.503  1.00  0.00    -0.030 C  
BRANCH  18  19
HETATM   19  C   UNL     1      -5.685   8.753  68.560  1.00  0.00    -0.038 C  
BRANCH  19  20
HETATM   20  C   UNL     1      -6.327   8.679  67.180  1.00  0.00    -0.057 C  
BRANCH  20  21
HETATM   21  C   UNL     1      -7.666   9.347  67.173  1.00  0.00    -0.091 C  
HETATM   22  O   UNL     1      -8.594   9.107  66.410  1.00  0.00    -0.120 OA 
BRANCH  21  23
HETATM   23  O   UNL     1      -7.632  10.373  68.067  1.00  0.00    -0.090 OA 
BRANCH  23  24
HETATM   24  C   UNL     1      -8.928  10.624  68.570  1.00  0.00    -0.156 C  
BRANCH  24  25
HETATM   25  C   UNL     1      -9.341   9.642  69.644  1.00  0.00    -0.226 C  
BRANCH  25  26
HETATM   26  C   UNL     1     -10.856   9.536  69.802  1.00  0.00    -0.264 C  
BRANCH  26  27
HETATM   27  C   UNL     1     -11.397   9.959  71.176  1.00  0.00    -0.370 C  
BRANCH  27  28
HETATM   28  O   UNL     1     -12.797   9.785  71.192  1.00  0.00    -0.335 OA 
HETATM   29  N   UNL     1     -13.184   8.584  71.832  1.00  0.00    -0.353 N  
HETATM   30  O   UNL     1     -14.402   8.398  71.791  1.00  0.00    -0.435 OA 
HETATM   31  O   UNL     1     -12.300   7.896  72.325  1.00  0.00    -0.305 OA 
ENDBRANCH  27  28
ENDBRANCH  26  27
ENDBRANCH  25  26
ENDBRANCH  24  25
ENDBRANCH  23  24
ENDBRANCH  21  23
ENDBRANCH  20  21
ENDBRANCH  19  20
ENDBRANCH  18  19
ENDBRANCH  17  18
ENDBRANCH  15  16
ENDBRANCH   8  15
ENDBRANCH   5   6
ENDBRANCH   4   5
ENDBRANCH   2   4
BRANCH   2  32
HETATM   32  C   UNL     1      -9.300   6.370  68.525  1.00  0.00    -0.122 C  
BRANCH  32  33
HETATM   33  C   UNL     1      -8.102   5.477  68.225  1.00  0.00    -0.096 C  
BRANCH  33  34
HETATM   34  C   UNL     1      -8.434   4.573  67.083  1.00  0.00    -0.104 A  
HETATM   35  C   UNL     1      -9.278   4.285  64.836  1.00  0.00    -0.156 A  
HETATM   36  C   UNL     1      -8.760   2.357  66.203  1.00  0.00    -0.123 A  
HETATM   37  C   UNL     1      -8.891   5.124  65.877  1.00  0.00    -0.142 A  
HETATM   38  C   UNL     1      -8.372   3.189  67.245  1.00  0.00    -0.089 A  
HETATM   39  C   UNL     1      -9.213   2.903  65.000  1.00  0.00    -0.148 A  
ENDBRANCH  33  34
ENDBRANCH  32  33
ENDBRANCH   2  32
TORSDOF 18
ENDMDL
MODEL      407
REMARK 921   NORMALIZED FREE ENERGY PREDICTED BY IDOCK:   -1.92 KCAL/MOL
REMARK 922        TOTAL FREE ENERGY PREDICTED BY IDOCK:   -8.73 KCAL/MOL
REMARK 923 INTER-LIGAND FREE ENERGY PREDICTED BY IDOCK:   -5.64 KCAL/MOL
REMARK 924 INTRA-LIGAND FREE ENERGY PREDICTED BY IDOCK:   -3.09 KCAL/MOL
REMARK 927      BINDING AFFINITY PREDICTED BY RF-SCORE:    0.00 PKD
ROOT
HETATM    1  O   UNL     1     -11.549   6.418  68.465  1.00  0.00    -0.499 OA 
HETATM    2  C   UNL     1     -10.654   5.553  69.161  1.00  0.00    -0.230 C  
HETATM    3  H   UNL     1     -11.372   6.390  67.532  1.00  0.00     0.000 HD 
ENDROOT
BRANCH   2   4
HETATM    4  C   UNL     1     -10.940   5.598  70.675  1.00  0.00    -0.258 C  
BRANCH   4   5
HETATM    5  C   UNL     1     -10.102   6.609  71.465  1.00  0.00    -0.200 C  
BRANCH   5   6
HETATM    6  C   UNL     1      -9.074   6.016  72.457  1.00  0.00    -0.135 C  
HETATM    7  H   UNL     1      -5.246   4.847  72.852  1.00  0.00     0.000 HD 
HETATM    8  C   UNL     1      -7.565   5.876  71.986  1.00  0.00    -0.097 C  
HETATM    9  C   UNL     1      -9.485   4.573  72.780  1.00  0.00    -0.132 C  
HETATM   10  C   UNL     1      -8.259   3.987  73.417  1.00  0.00    -0.089 C  
HETATM   11  O   UNL     1     -10.573   4.505  73.682  1.00  0.00    -0.194 OA 
HETATM   12  O   UNL     1      -5.964   4.526  73.386  1.00  0.00    -0.018 OA 
HETATM   13  H   UNL     1     -10.827   3.612  73.882  1.00  0.00     0.000 HD 
HETATM   14  C   UNL     1      -7.115   4.497  72.566  1.00  0.00    -0.074 C  
BRANCH   8  15
HETATM   15  C   UNL     1      -6.634   7.078  72.346  1.00  0.00    -0.057 C  
BRANCH  15  16
HETATM   16  C   UNL     1      -7.136   8.446  71.921  1.00  0.00    -0.103 C  
HETATM   17  C   UNL     1      -7.300   9.000  70.703  1.00  0.00    -0.099 C  
BRANCH  17  18
HETATM   18  C   UNL     1      -7.010   8.413  69.352  1.00  0.00    -0.050 C  
BRANCH  18  19
HETATM   19  C   UNL     1      -6.897   9.489  68.260  1.00  0.00    -0.062 C  
BRANCH  19  20
HETATM   20  C   UNL     1      -7.365   9.038  66.883  1.00  0.00    -0.086 C  
BRANCH  20  21
HETATM   21  C   UNL     1      -8.843   9.223  66.729  1.00  0.00    -0.127 C  
HETATM   22  O   UNL     1      -9.679   8.335  66.621  1.00  0.00    -0.210 OA 
BRANCH  21  23
HETATM   23  O   UNL     1      -9.088  10.554  66.583  1.00  0.00    -0.152 OA 
BRANCH  23  24
HETATM   24  C   UNL     1     -10.316  10.892  67.192  1.00  0.00    -0.220 C  
BRANCH  24  25
HETATM   25  C   UNL     1     -10.198  11.073  68.690  1.00  0.00    -0.211 C  
BRANCH  25  26
HETATM   26  C   UNL     1     -11.552  11.095  69.395  1.00  0.00    -0.388 C  
BRANCH  26  27
HETATM   27  C   UNL     1     -11.989  12.471  69.918  1.00  0.00    -0.301 C  
BRANCH  27  28
HETATM   28  O   UNL     1     -12.245  13.320  68.820  1.00  0.00    -0.278 OA 
HETATM   29  N   UNL     1     -11.345  14.410  68.759  1.00  0.00    -0.257 N  
HETATM   30  O   UNL     1     -11.606  15.188  67.838  1.00  0.00    -0.333 OA 
HETATM   31  O   UNL     1     -10.454  14.455  69.597  1.00  0.00    -0.093 OA 
ENDBRANCH  27  28
ENDBRANCH  26  27
ENDBRANCH  25  26
ENDBRANCH  24  25
ENDBRANCH  23  24
ENDBRANCH  21  23
ENDBRANCH  20  21
ENDBRANCH  19  20
ENDBRANCH  18  19
ENDBRANCH  17  18
ENDBRANCH  15  16
ENDBRANCH   8  15
ENDBRANCH   5   6
ENDBRANCH   4   5
ENDBRANCH   2   4
BRANCH   2  32
HETATM   32  C   UNL     1      -9.245   6.035  68.845  1.00  0.00    -0.125 C  
BRANCH  32  33
HETATM   33  C   UNL     1      -8.350   4.893  68.377  1.00  0.00    -0.091 C  
BRANCH  33  34
HETATM   34  C   UNL     1      -8.699   4.536  66.970  1.00  0.00    -0.104 A  
HETATM   35  C   UNL     1      -9.064   5.219  64.680  1.00  0.00     0.083 A  
HETATM   36  C   UNL     1      -9.542   2.949  65.368  1.00  0.00     0.040 A  
HETATM   37  C   UNL     1      -8.662   5.525  65.977  1.00  0.00    -0.141 A  
HETATM   38  C   UNL     1      -9.142   3.249  66.665  1.00  0.00    -0.180 A  
HETATM   39  C   UNL     1      -9.503   3.932  64.376  1.00  0.00    -0.163 A  
ENDBRANCH  33  34
ENDBRANCH  32  33
ENDBRANCH   2  32
TORSDOF 18
ENDMDL
MODEL      408
REMARK 921   NORMALIZED FREE ENERGY PREDICTED BY IDOCK:   -1.91 KCAL/MOL
REMARK 922        TOTAL FREE ENERGY PREDICTED BY IDOCK:   -8.70 KCAL/MOL
REMARK 923 INTER-LIGAND FREE ENERGY PREDICTED BY IDOCK:   -7.39 KCAL/MOL
REMARK 924 INTRA-LIGAND FREE ENERGY PREDICTED BY IDOCK:   -1.31 KCAL/MOL
REMARK 927      BINDING AFFINITY PREDICTED BY RF-SCORE:    0.00 PKD
ROOT
HETATM    1  O   UNL     1     -10.186   5.721  68.070  1.00  0.00    -0.156 OA 
HETATM    2  C   UNL     1      -9.500   6.971  68.018  1.00  0.00    -0.125 C  
HETATM    3  H   UNL     1     -10.556   5.515  67.219  1.00  0.00     0.000 HD 
ENDROOT
BRANCH   2   4
HETATM    4  C   UNL     1      -8.900   7.306  69.397  1.00  0.00    -0.137 C  
BRANCH   4   5
HETATM    5  C   UNL     1      -7.369   7.298  69.460  1.00  0.00    -0.086 C  
BRANCH   5   6
HETATM    6  C   UNL     1      -6.744   7.354  70.873  1.00  0.00    -0.044 C  
HETATM    7  H   UNL     1      -7.534   6.913  74.792  1.00  0.00     0.000 HD 
HETATM    8  C   UNL     1      -7.645   6.943  72.114  1.00  0.00    -0.092 C  
HETATM    9  C   UNL     1      -6.355   8.807  71.177  1.00  0.00    -0.054 C  
HETATM   10  C   UNL     1      -6.127   8.813  72.660  1.00  0.00    -0.059 C  
HETATM   11  O   UNL     1      -5.173   9.206  70.509  1.00  0.00    -0.023 OA 
HETATM   12  O   UNL     1      -6.820   7.435  74.443  1.00  0.00    -0.094 OA 
HETATM   13  H   UNL     1      -4.933  10.106  70.697  1.00  0.00     0.000 HD 
HETATM   14  C   UNL     1      -7.263   7.982  73.217  1.00  0.00    -0.121 C  
BRANCH   8  15
HETATM   15  C   UNL     1      -7.542   5.448  72.553  1.00  0.00    -0.098 C  
BRANCH  15  16
HETATM   16  C   UNL     1      -8.663   4.545  72.071  1.00  0.00    -0.128 C  
HETATM   17  C   UNL     1     -10.004   4.661  72.153  1.00  0.00    -0.241 C  
BRANCH  17  18
HETATM   18  C   UNL     1     -10.820   5.753  72.783  1.00  0.00    -0.295 C  
BRANCH  18  19
HETATM   19  C   UNL     1     -12.087   6.075  71.974  1.00  0.00    -0.170 C  
BRANCH  19  20
HETATM   20  C   UNL     1     -12.028   7.392  71.211  1.00  0.00    -0.343 C  
BRANCH  20  21
HETATM   21  C   UNL     1     -12.853   8.442  71.886  1.00  0.00    -0.353 C  
HETATM   22  O   UNL     1     -13.195   8.453  73.063  1.00  0.00    -0.054 OA 
BRANCH  21  23
HETATM   23  O   UNL     1     -13.284   9.316  70.936  1.00  0.00    -0.151 OA 
BRANCH  23  24
HETATM   24  C   UNL     1     -12.686  10.581  71.131  1.00  0.00    -0.418 C  
BRANCH  24  25
HETATM   25  C   UNL     1     -13.564  11.530  71.917  1.00  0.00    -0.097 C  
BRANCH  25  26
HETATM   26  C   UNL     1     -12.919  12.898  72.128  1.00  0.00    -0.350 C  
BRANCH  26  27
HETATM   27  C   UNL     1     -12.771  13.749  70.859  1.00  0.00    -0.323 C  
BRANCH  27  28
HETATM   28  O   UNL     1     -11.824  14.768  71.096  1.00  0.00    -0.314 OA 
HETATM   29  N   UNL     1     -12.419  15.951  71.594  1.00  0.00    -0.457 N  
HETATM   30  O   UNL     1     -11.603  16.864  71.741  1.00  0.00    -0.096 OA 
HETATM   31  O   UNL     1     -13.625  15.933  71.804  1.00  0.00    -0.380 OA 
ENDBRANCH  27  28
ENDBRANCH  26  27
ENDBRANCH  25  26
ENDBRANCH  24  25
ENDBRANCH  23  24
ENDBRANCH  21  23
ENDBRANCH  20  21
ENDBRANCH  19  20
ENDBRANCH  18  19
ENDBRANCH  17  18
ENDBRANCH  15  16
ENDBRANCH   8  15
ENDBRANCH   5   6
ENDBRANCH   4   5
ENDBRANCH   2   4
BRANCH   2  32
HETATM   32  C   UNL     1     -10.522   8.013  67.585  1.00  0.00    -0.301 C  
BRANCH  32  33
HETATM   33  C   UNL     1     -10.848   8.985  68.713  1.00  0.00    -0.067 C  
BRANCH  33  34
HETATM   34  C   UNL     1     -10.784  10.384  68.193  1.00  0.00    -0.277 A  
HETATM   35  C   UNL     1     -11.757  12.592  68.041  1.00  0.00    -0.402 A  
HETATM   36  C   UNL     1      -9.808  12.021  66.724  1.00  0.00    -0.218 A  
HETATM   37  C   UNL     1     -11.763  11.310  68.583  1.00  0.00    -0.391 A  
HETATM   38  C   UNL     1      -9.810  10.740  67.262  1.00  0.00    -0.208 A  
HETATM   39  C   UNL     1     -10.780  12.947  67.112  1.00  0.00    -0.268 A  
ENDBRANCH  33  34
ENDBRANCH  32  33
ENDBRANCH   2  32
TORSDOF 18
ENDMDL
MODEL      409
REMARK 921   NORMALIZED FREE ENERGY PREDICTED BY IDOCK:   -1.89 KCAL/MOL
REMARK 922        TOTAL FREE ENERGY PREDICTED BY IDOCK:   -8.67 KCAL/MOL
REMARK 923 INTER-LIGAND FREE ENERGY PREDICTED BY IDOCK:   -6.76 KCAL/MOL
REMARK 924 INTRA-LIGAND FREE ENERGY PREDICTED BY IDOCK:   -1.90 KCAL/MOL
REMARK 927      BINDING AFFINITY PREDICTED BY RF-SCORE:    0.00 PKD
ROOT
HETATM    1  O   UNL     1     -10.507   9.775  64.569  1.00  0.00    -0.089 OA 
HETATM    2  C   UNL     1      -9.611   8.958  65.318  1.00  0.00     0.186 C  
HETATM    3  H   UNL     1     -10.204   9.857  63.672  1.00  0.00     0.000 HD 
ENDROOT
BRANCH   2   4
HETATM    4  C   UNL     1     -10.103   8.826  66.773  1.00  0.00    -0.359 C  
BRANCH   4   5
HETATM    5  C   UNL     1     -10.597  10.127  67.413  1.00  0.00    -0.329 C  
BRANCH   5   6
HETATM    6  C   UNL     1     -10.393  10.257  68.941  1.00  0.00    -0.221 C  
HETATM    7  H   UNL     1      -9.290   8.255  72.250  1.00  0.00     0.000 HD 
HETATM    8  C   UNL     1      -9.790   9.019  69.729  1.00  0.00    -0.188 C  
HETATM    9  C   UNL     1     -11.762  10.470  69.599  1.00  0.00    -0.256 C  
HETATM   10  C   UNL     1     -11.504  10.204  71.054  1.00  0.00    -0.436 C  
HETATM   11  O   UNL     1     -12.248  11.789  69.432  1.00  0.00    -0.256 OA 
HETATM   12  O   UNL     1      -9.850   9.022  72.248  1.00  0.00    -0.218 OA 
HETATM   13  H   UNL     1     -13.096  11.921  69.840  1.00  0.00     0.000 HD 
HETATM   14  C   UNL     1     -10.612   8.981  71.057  1.00  0.00    -0.271 C  
BRANCH   8  15
HETATM   15  C   UNL     1      -8.239   9.030  69.915  1.00  0.00    -0.124 C  
BRANCH  15  16
HETATM   16  C   UNL     1      -7.449   9.676  68.790  1.00  0.00    -0.075 C  
HETATM   17  C   UNL     1      -7.138  10.963  68.540  1.00  0.00    -0.076 C  
BRANCH  17  18
HETATM   18  C   UNL     1      -7.505  12.192  69.321  1.00  0.00     0.219 C  
BRANCH  18  19
HETATM   19  C   UNL     1      -6.382  13.241  69.321  1.00  0.00    -0.108 C  
BRANCH  19  20
HETATM   20  C   UNL     1      -6.796  14.605  69.857  1.00  0.00    -0.136 C  
BRANCH  20  21
HETATM   21  C   UNL     1      -7.428  15.436  68.783  1.00  0.00    -0.136 C  
HETATM   22  O   UNL     1      -7.081  15.491  67.609  1.00  0.00    -0.140 OA 
BRANCH  21  23
HETATM   23  O   UNL     1      -8.365  16.234  69.363  1.00  0.00    -0.197 OA 
BRANCH  23  24
HETATM   24  C   UNL     1      -9.653  15.893  68.892  1.00  0.00    -0.230 C  
BRANCH  24  25
HETATM   25  C   UNL     1      -9.756  15.936  67.383  1.00  0.00    -0.227 C  
BRANCH  25  26
HETATM   26  C   UNL     1     -10.954  15.156  66.846  1.00  0.00    -0.323 C  
BRANCH  26  27
HETATM   27  C   UNL     1     -11.131  15.206  65.322  1.00  0.00    -0.383 C  
BRANCH  27  28
HETATM   28  O   UNL     1     -10.968  13.906  64.798  1.00  0.00    -0.361 OA 
HETATM   29  N   UNL     1     -12.181  13.179  64.772  1.00  0.00    -0.403 N  
HETATM   30  O   UNL     1     -12.030  12.021  64.375  1.00  0.00    -0.347 OA 
HETATM   31  O   UNL     1     -13.196  13.757  65.139  1.00  0.00    -0.757 OA 
ENDBRANCH  27  28
ENDBRANCH  26  27
ENDBRANCH  25  26
ENDBRANCH  24  25
ENDBRANCH  23  24
ENDBRANCH  21  23
ENDBRANCH  20  21
ENDBRANCH  19  20
ENDBRANCH  18  19
ENDBRANCH  17  18
ENDBRANCH  15  16
ENDBRANCH   8  15
ENDBRANCH   5   6
ENDBRANCH   4   5
ENDBRANCH   2   4
BRANCH   2  32
HETATM   32  C   UNL     1      -8.246   9.627  65.249  1.00  0.00    -0.131 C  
BRANCH  32  33
HETATM   33  C   UNL     1      -7.589   9.428  63.888  1.00  0.00    -0.118 C  
BRANCH  33  34
HETATM   34  C   UNL     1      -6.917   8.094  63.854  1.00  0.00    -0.075 A  
HETATM   35  C   UNL     1      -5.141   6.640  64.614  1.00  0.00    -0.026 A  
HETATM   36  C   UNL     1      -6.639   5.924  62.853  1.00  0.00    -0.036 A  
HETATM   37  C   UNL     1      -5.822   7.851  64.696  1.00  0.00    -0.045 A  
HETATM   38  C   UNL     1      -7.322   7.131  62.932  1.00  0.00    -0.079 A  
HETATM   39  C   UNL     1      -5.549   5.678  63.693  1.00  0.00    -0.014 A  
ENDBRANCH  33  34
ENDBRANCH  32  33
ENDBRANCH   2  32
TORSDOF 18
ENDMDL
MODEL      410
REMARK 921   NORMALIZED FREE ENERGY PREDICTED BY IDOCK:   -1.89 KCAL/MOL
REMARK 922        TOTAL FREE ENERGY PREDICTED BY IDOCK:   -8.65 KCAL/MOL
REMARK 923 INTER-LIGAND FREE ENERGY PREDICTED BY IDOCK:   -6.74 KCAL/MOL
REMARK 924 INTRA-LIGAND FREE ENERGY PREDICTED BY IDOCK:   -1.92 KCAL/MOL
REMARK 927      BINDING AFFINITY PREDICTED BY RF-SCORE:    0.00 PKD
ROOT
HETATM    1  O   UNL     1     -11.612  18.935  66.551  1.00  0.00     0.890 OA 
HETATM    2  C   UNL     1     -10.518  18.152  67.027  1.00  0.00    -0.370 C  
HETATM    3  H   UNL     1     -12.333  18.370  66.298  1.00  0.00     0.000 HD 
ENDROOT
BRANCH   2   4
HETATM    4  C   UNL     1      -9.348  19.068  67.438  1.00  0.00    -0.345 C  
BRANCH   4   5
HETATM    5  C   UNL     1      -8.305  18.418  68.353  1.00  0.00    -0.328 C  
BRANCH   5   6
HETATM    6  C   UNL     1      -7.442  17.302  67.720  1.00  0.00    -0.184 C  
HETATM    7  H   UNL     1      -6.192  13.508  68.187  1.00  0.00     0.000 HD 
HETATM    8  C   UNL     1      -7.440  15.870  68.405  1.00  0.00    -0.127 C  
HETATM    9  C   UNL     1      -5.970  17.730  67.779  1.00  0.00    -0.153 C  
HETATM   10  C   UNL     1      -5.217  16.460  67.506  1.00  0.00    -0.156 C  
HETATM   11  O   UNL     1      -5.645  18.699  66.801  1.00  0.00    -0.146 OA 
HETATM   12  O   UNL     1      -5.732  14.166  67.680  1.00  0.00    -0.302 OA 
HETATM   13  H   UNL     1      -4.733  18.964  66.837  1.00  0.00     0.000 HD 
HETATM   14  C   UNL     1      -5.950  15.411  68.315  1.00  0.00    -0.119 C  
BRANCH   8  15
HETATM   15  C   UNL     1      -8.480  14.851  67.837  1.00  0.00    -0.154 C  
BRANCH  15  16
HETATM   16  C   UNL     1      -8.415  13.452  68.424  1.00  0.00    -0.135 C  
HETATM   17  C   UNL     1      -9.377  12.544  68.680  1.00  0.00     0.005 C  
BRANCH  17  18
HETATM   18  C   UNL     1     -10.859  12.653  68.466  1.00  0.00    -0.279 C  
BRANCH  18  19
HETATM   19  C   UNL     1     -11.543  11.278  68.407  1.00  0.00    -0.378 C  
BRANCH  19  20
HETATM   20  C   UNL     1     -11.969  10.730  69.763  1.00  0.00    -0.397 C  
BRANCH  20  21
HETATM   21  C   UNL     1     -11.274   9.439  70.065  1.00  0.00    -0.190 C  
HETATM   22  O   UNL     1     -11.136   8.492  69.301  1.00  0.00    -0.040 OA 
BRANCH  21  23
HETATM   23  O   UNL     1     -10.942   9.437  71.385  1.00  0.00    -0.335 OA 
BRANCH  23  24
HETATM   24  C   UNL     1     -10.457   8.165  71.763  1.00  0.00    -0.242 C  
BRANCH  24  25
HETATM   25  C   UNL     1     -10.516   7.935  73.257  1.00  0.00    -0.259 C  
BRANCH  25  26
HETATM   26  C   UNL     1      -9.271   7.238  73.801  1.00  0.00    -0.281 C  
BRANCH  26  27
HETATM   27  C   UNL     1      -8.693   6.142  72.894  1.00  0.00    -0.122 C  
BRANCH  27  28
HETATM   28  O   UNL     1      -7.629   6.682  72.141  1.00  0.00    -0.094 OA 
HETATM   29  N   UNL     1      -7.439   6.004  70.913  1.00  0.00    -0.089 N  
HETATM   30  O   UNL     1      -6.469   6.433  70.282  1.00  0.00    -0.038 OA 
HETATM   31  O   UNL     1      -8.221   5.104  70.637  1.00  0.00    -0.102 OA 
ENDBRANCH  27  28
ENDBRANCH  26  27
ENDBRANCH  25  26
ENDBRANCH  24  25
ENDBRANCH  23  24
ENDBRANCH  21  23
ENDBRANCH  20  21
ENDBRANCH  19  20
ENDBRANCH  18  19
ENDBRANCH  17  18
ENDBRANCH  15  16
ENDBRANCH   8  15
ENDBRANCH   5   6
ENDBRANCH   4   5
ENDBRANCH   2   4
BRANCH   2  32
HETATM   32  C   UNL     1     -10.123  17.217  65.893  1.00  0.00    -0.257 C  
BRANCH  32  33
HETATM   33  C   UNL     1     -11.344  16.671  65.161  1.00  0.00     0.171 C  
BRANCH  33  34
HETATM   34  C   UNL     1     -11.301  15.178  65.173  1.00  0.00    -0.357 A  
HETATM   35  C   UNL     1     -10.037  13.132  64.926  1.00  0.00    -0.236 A  
HETATM   36  C   UNL     1     -12.440  13.058  65.201  1.00  0.00    -0.552 A  
HETATM   37  C   UNL     1     -10.074  14.522  64.996  1.00  0.00    -0.325 A  
HETATM   38  C   UNL     1     -12.483  14.445  65.272  1.00  0.00    -0.359 A  
HETATM   39  C   UNL     1     -11.219  12.402  65.028  1.00  0.00    -0.354 A  
ENDBRANCH  33  34
ENDBRANCH  32  33
ENDBRANCH   2  32
TORSDOF 18
ENDMDL
MODEL      411
REMARK 921   NORMALIZED FREE ENERGY PREDICTED BY IDOCK:   -1.86 KCAL/MOL
REMARK 922        TOTAL FREE ENERGY PREDICTED BY IDOCK:   -8.60 KCAL/MOL
REMARK 923 INTER-LIGAND FREE ENERGY PREDICTED BY IDOCK:   -7.69 KCAL/MOL
REMARK 924 INTRA-LIGAND FREE ENERGY PREDICTED BY IDOCK:   -0.91 KCAL/MOL
REMARK 927      BINDING AFFINITY PREDICTED BY RF-SCORE:    0.00 PKD
ROOT
HETATM    1  O   UNL     1      -9.081  15.763  66.125  1.00  0.00    -0.307 OA 
HETATM    2  C   UNL     1      -7.930  15.200  66.750  1.00  0.00    -0.012 C  
HETATM    3  H   UNL     1      -8.830  16.495  65.574  1.00  0.00     0.000 HD 
ENDROOT
BRANCH   2   4
HETATM    4  C   UNL     1      -8.338  14.012  67.644  1.00  0.00    -0.191 C  
BRANCH   4   5
HETATM    5  C   UNL     1      -9.834  13.680  67.641  1.00  0.00    -0.228 C  
BRANCH   5   6
HETATM    6  C   UNL     1     -10.500  13.522  69.028  1.00  0.00    -0.075 C  
HETATM    7  H   UNL     1     -13.941  12.588  70.887  1.00  0.00     0.000 HD 
HETATM    8  C   UNL     1     -11.991  12.982  69.091  1.00  0.00    -0.320 C  
HETATM    9  C   UNL     1     -10.590  14.905  69.686  1.00  0.00    -0.197 C  
HETATM   10  C   UNL     1     -11.563  14.703  70.811  1.00  0.00    -0.289 C  
HETATM   11  O   UNL     1      -9.347  15.345  70.202  1.00  0.00    -0.336 OA 
HETATM   12  O   UNL     1     -13.255  13.125  71.266  1.00  0.00    -0.246 OA 
HETATM   13  H   UNL     1      -9.403  16.201  70.609  1.00  0.00     0.000 HD 
HETATM   14  C   UNL     1     -12.658  13.848  70.208  1.00  0.00    -0.264 C  
BRANCH   8  15
HETATM   15  C   UNL     1     -12.141  11.438  69.277  1.00  0.00    -0.356 C  
BRANCH  15  16
HETATM   16  C   UNL     1     -11.713  10.897  70.629  1.00  0.00    -0.418 C  
HETATM   17  C   UNL     1     -10.946   9.842  70.969  1.00  0.00    -0.402 C  
BRANCH  17  18
HETATM   18  C   UNL     1     -10.271   8.839  70.077  1.00  0.00    -0.208 C  
BRANCH  18  19
HETATM   19  C   UNL     1      -8.763   8.732  70.357  1.00  0.00    -0.181 C  
BRANCH  19  20
HETATM   20  C   UNL     1      -8.244   7.304  70.463  1.00  0.00    -0.124 C  
BRANCH  20  21
HETATM   21  C   UNL     1      -6.823   7.282  70.934  1.00  0.00    -0.052 C  
HETATM   22  O   UNL     1      -6.317   8.039  71.753  1.00  0.00    -0.039 OA 
BRANCH  21  23
HETATM   23  O   UNL     1      -6.146   6.367  70.188  1.00  0.00    -0.031 OA 
BRANCH  23  24
HETATM   24  C   UNL     1      -5.429   5.488  71.029  1.00  0.00    -0.009 C  
BRANCH  24  25
HETATM   25  C   UNL     1      -5.804   4.037  70.817  1.00  0.00    -0.014 C  
BRANCH  25  26
HETATM   26  C   UNL     1      -6.131   3.311  72.120  1.00  0.00    -0.013 C  
BRANCH  26  27
HETATM   27  C   UNL     1      -7.264   3.938  72.946  1.00  0.00    -0.059 C  
BRANCH  27  28
HETATM   28  O   UNL     1      -8.394   3.095  72.891  1.00  0.00    -0.077 OA 
HETATM   29  N   UNL     1      -9.609   3.816  72.956  1.00  0.00    -0.117 N  
HETATM   30  O   UNL     1     -10.597   3.078  72.974  1.00  0.00    -0.155 OA 
HETATM   31  O   UNL     1      -9.541   5.038  72.993  1.00  0.00    -0.141 OA 
ENDBRANCH  27  28
ENDBRANCH  26  27
ENDBRANCH  25  26
ENDBRANCH  24  25
ENDBRANCH  23  24
ENDBRANCH  21  23
ENDBRANCH  20  21
ENDBRANCH  19  20
ENDBRANCH  18  19
ENDBRANCH  17  18
ENDBRANCH  15  16
ENDBRANCH   8  15
ENDBRANCH   5   6
ENDBRANCH   4   5
ENDBRANCH   2   4
BRANCH   2  32
HETATM   32  C   UNL     1      -7.285  16.314  67.563  1.00  0.00    -0.179 C  
BRANCH  32  33
HETATM   33  C   UNL     1      -7.222  17.620  66.780  1.00  0.00    -0.247 C  
BRANCH  33  34
HETATM   34  C   UNL     1      -8.362  18.495  67.185  1.00  0.00    -0.253 A  
HETATM   35  C   UNL     1      -9.948  19.197  68.869  1.00  0.00    -0.481 A  
HETATM   36  C   UNL     1     -10.115  20.039  66.607  1.00  0.00    -0.607 A  
HETATM   37  C   UNL     1      -8.836  18.444  68.504  1.00  0.00    -0.336 A  
HETATM   38  C   UNL     1      -9.005  19.291  66.237  1.00  0.00    -0.347 A  
HETATM   39  C   UNL     1     -10.587  19.993  67.921  1.00  0.00    -0.379 A  
ENDBRANCH  33  34
ENDBRANCH  32  33
ENDBRANCH   2  32
TORSDOF 18
ENDMDL
MODEL      412
REMARK 921   NORMALIZED FREE ENERGY PREDICTED BY IDOCK:   -1.79 KCAL/MOL
REMARK 922        TOTAL FREE ENERGY PREDICTED BY IDOCK:   -8.45 KCAL/MOL
REMARK 923 INTER-LIGAND FREE ENERGY PREDICTED BY IDOCK:   -7.03 KCAL/MOL
REMARK 924 INTRA-LIGAND FREE ENERGY PREDICTED BY IDOCK:   -1.42 KCAL/MOL
REMARK 927      BINDING AFFINITY PREDICTED BY RF-SCORE:    0.00 PKD
ROOT
HETATM    1  O   UNL     1      -8.961  15.480  69.543  1.00  0.00    -0.268 OA 
HETATM    2  C   UNL     1      -9.451  14.356  68.815  1.00  0.00    -0.161 C  
HETATM    3  H   UNL     1      -9.372  15.522  70.398  1.00  0.00     0.000 HD 
ENDROOT
BRANCH   2   4
HETATM    4  C   UNL     1      -8.783  14.288  67.427  1.00  0.00    -0.217 C  
BRANCH   4   5
HETATM    5  C   UNL     1      -8.945  12.954  66.692  1.00  0.00    -0.141 C  
BRANCH   5   6
HETATM    6  C   UNL     1      -8.213  11.740  67.310  1.00  0.00    -0.163 C  
HETATM    7  H   UNL     1      -7.574   9.738  70.740  1.00  0.00     0.000 HD 
HETATM    8  C   UNL     1      -8.472  11.402  68.839  1.00  0.00    -0.028 C  
HETATM    9  C   UNL     1      -6.702  12.001  67.252  1.00  0.00    -0.144 C  
HETATM   10  C   UNL     1      -6.127  10.981  68.191  1.00  0.00    -0.049 C  
HETATM   11  O   UNL     1      -6.166  11.814  65.955  1.00  0.00    -0.444 OA 
HETATM   12  O   UNL     1      -6.986   9.727  69.993  1.00  0.00    -0.074 OA 
HETATM   13  H   UNL     1      -5.231  11.975  65.919  1.00  0.00     0.000 HD 
HETATM   14  C   UNL     1      -7.063  10.999  69.381  1.00  0.00    -0.128 C  
BRANCH   8  15
HETATM   15  C   UNL     1      -9.606  10.363  69.115  1.00  0.00    -0.226 C  
BRANCH  15  16
HETATM   16  C   UNL     1     -10.694  10.284  68.059  1.00  0.00    -0.299 C  
HETATM   17  C   UNL     1     -10.887   9.430  67.034  1.00  0.00    -0.096 C  
BRANCH  17  18
HETATM   18  C   UNL     1     -10.042   8.265  66.605  1.00  0.00    -0.351 C  
BRANCH  18  19
HETATM   19  C   UNL     1      -8.863   8.017  67.558  1.00  0.00    -0.129 C  
BRANCH  19  20
HETATM   20  C   UNL     1      -9.114   6.933  68.599  1.00  0.00    -0.131 C  
BRANCH  20  21
HETATM   21  C   UNL     1      -9.111   5.574  67.972  1.00  0.00    -0.108 C  
HETATM   22  O   UNL     1      -9.921   5.148  67.157  1.00  0.00    -0.159 OA 
BRANCH  21  23
HETATM   23  O   UNL     1      -8.137   4.834  68.569  1.00  0.00    -0.084 OA 
BRANCH  23  24
HETATM   24  C   UNL     1      -6.875   5.433  68.361  1.00  0.00    -0.056 C  
BRANCH  24  25
HETATM   25  C   UNL     1      -5.728   4.556  68.812  1.00  0.00    -0.017 C  
BRANCH  25  26
HETATM   26  C   UNL     1      -5.933   3.983  70.213  1.00  0.00    -0.018 C  
BRANCH  26  27
HETATM   27  C   UNL     1      -6.455   2.540  70.254  1.00  0.00    -0.028 C  
BRANCH  27  28
HETATM   28  O   UNL     1      -7.616   2.494  71.055  1.00  0.00    -0.033 OA 
HETATM   29  N   UNL     1      -8.773   2.165  70.309  1.00  0.00    -0.058 N  
HETATM   30  O   UNL     1      -9.799   2.188  70.994  1.00  0.00    -0.121 OA 
HETATM   31  O   UNL     1      -8.628   1.915  69.120  1.00  0.00    -0.053 OA 
ENDBRANCH  27  28
ENDBRANCH  26  27
ENDBRANCH  25  26
ENDBRANCH  24  25
ENDBRANCH  23  24
ENDBRANCH  21  23
ENDBRANCH  20  21
ENDBRANCH  19  20
ENDBRANCH  18  19
ENDBRANCH  17  18
ENDBRANCH  15  16
ENDBRANCH   8  15
ENDBRANCH   5   6
ENDBRANCH   4   5
ENDBRANCH   2   4
BRANCH   2  32
HETATM   32  C   UNL     1     -10.958  14.531  68.701  1.00  0.00    -0.263 C  
BRANCH  32  33
HETATM   33  C   UNL     1     -11.712  13.445  69.461  1.00  0.00    -0.385 C  
BRANCH  33  34
HETATM   34  C   UNL     1     -12.494  14.069  70.570  1.00  0.00    -0.429 A  
HETATM   35  C   UNL     1     -13.139  16.046  71.803  1.00  0.00    -0.151 A  
HETATM   36  C   UNL     1     -13.819  13.852  72.567  1.00  0.00    -0.620 A  
HETATM   37  C   UNL     1     -12.479  15.463  70.725  1.00  0.00    -0.476 A  
HETATM   38  C   UNL     1     -13.162  13.265  71.492  1.00  0.00    -0.383 A  
HETATM   39  C   UNL     1     -13.808  15.241  72.723  1.00  0.00    -0.541 A  
ENDBRANCH  33  34
ENDBRANCH  32  33
ENDBRANCH   2  32
TORSDOF 18
ENDMDL
MODEL      413
REMARK 921   NORMALIZED FREE ENERGY PREDICTED BY IDOCK:   -1.77 KCAL/MOL
REMARK 922        TOTAL FREE ENERGY PREDICTED BY IDOCK:   -8.42 KCAL/MOL
REMARK 923 INTER-LIGAND FREE ENERGY PREDICTED BY IDOCK:   -6.64 KCAL/MOL
REMARK 924 INTRA-LIGAND FREE ENERGY PREDICTED BY IDOCK:   -1.78 KCAL/MOL
REMARK 927      BINDING AFFINITY PREDICTED BY RF-SCORE:    0.00 PKD
ROOT
HETATM    1  O   UNL     1      -9.292  15.438  69.279  1.00  0.00    -0.224 OA 
HETATM    2  C   UNL     1      -9.498  14.241  68.531  1.00  0.00    -0.206 C  
HETATM    3  H   UNL     1      -9.852  15.445  70.047  1.00  0.00     0.000 HD 
ENDROOT
BRANCH   2   4
HETATM    4  C   UNL     1      -8.590  14.229  67.286  1.00  0.00    -0.229 C  
BRANCH   4   5
HETATM    5  C   UNL     1      -8.587  12.917  66.495  1.00  0.00     0.107 C  
BRANCH   5   6
HETATM    6  C   UNL     1      -7.897  11.712  67.174  1.00  0.00    -0.163 C  
HETATM    7  H   UNL     1      -7.407   9.806  70.682  1.00  0.00     0.000 HD 
HETATM    8  C   UNL     1      -8.213  11.424  68.703  1.00  0.00    -0.142 C  
HETATM    9  C   UNL     1      -6.380  11.946  67.160  1.00  0.00    -0.151 C  
HETATM   10  C   UNL     1      -5.854  10.947  68.148  1.00  0.00    -0.046 C  
HETATM   11  O   UNL     1      -5.805  11.711  65.888  1.00  0.00    -0.495 OA 
HETATM   12  O   UNL     1      -6.794   9.762  69.957  1.00  0.00    -0.068 OA 
HETATM   13  H   UNL     1      -4.866  11.856  65.879  1.00  0.00     0.000 HD 
HETATM   14  C   UNL     1      -6.830  11.016  69.304  1.00  0.00    -0.110 C  
BRANCH   8  15
HETATM   15  C   UNL     1      -9.373  10.412  68.971  1.00  0.00    -0.201 C  
BRANCH  15  16
HETATM   16  C   UNL     1     -10.377  10.253  67.844  1.00  0.00    -0.234 C  
HETATM   17  C   UNL     1     -10.660   9.210  67.038  1.00  0.00    -0.266 C  
BRANCH  17  18
HETATM   18  C   UNL     1     -10.032   7.846  67.003  1.00  0.00    -0.322 C  
BRANCH  18  19
HETATM   19  C   UNL     1      -9.045   7.628  68.161  1.00  0.00    -0.132 C  
BRANCH  19  20
HETATM   20  C   UNL     1      -9.656   6.971  69.392  1.00  0.00    -0.155 C  
BRANCH  20  21
HETATM   21  C   UNL     1      -9.815   5.496  69.192  1.00  0.00    -0.167 C  
HETATM   22  O   UNL     1     -10.533   4.949  68.364  1.00  0.00    -0.027 OA 
BRANCH  21  23
HETATM   23  O   UNL     1      -9.136   4.860  70.184  1.00  0.00    -0.102 OA 
BRANCH  23  24
HETATM   24  C   UNL     1      -7.744   5.008  69.994  1.00  0.00    -0.063 C  
BRANCH  24  25
HETATM   25  C   UNL     1      -6.928   4.196  70.976  1.00  0.00    -0.036 C  
BRANCH  25  26
HETATM   26  C   UNL     1      -7.244   4.531  72.431  1.00  0.00    -0.075 C  
BRANCH  26  27
HETATM   27  C   UNL     1      -8.016   3.446  73.195  1.00  0.00    -0.070 C  
BRANCH  27  28
HETATM   28  O   UNL     1      -9.057   4.052  73.928  1.00  0.00    -0.094 OA 
HETATM   29  N   UNL     1     -10.335   3.587  73.537  1.00  0.00    -0.143 N  
HETATM   30  O   UNL     1     -11.250   4.162  74.131  1.00  0.00    -0.147 OA 
HETATM   31  O   UNL     1     -10.381   2.710  72.684  1.00  0.00    -0.156 OA 
ENDBRANCH  27  28
ENDBRANCH  26  27
ENDBRANCH  25  26
ENDBRANCH  24  25
ENDBRANCH  23  24
ENDBRANCH  21  23
ENDBRANCH  20  21
ENDBRANCH  19  20
ENDBRANCH  18  19
ENDBRANCH  17  18
ENDBRANCH  15  16
ENDBRANCH   8  15
ENDBRANCH   5   6
ENDBRANCH   4   5
ENDBRANCH   2   4
BRANCH   2  32
HETATM   32  C   UNL     1     -10.970  14.212  68.148  1.00  0.00    -0.264 C  
BRANCH  32  33
HETATM   33  C   UNL     1     -11.249  15.061  66.914  1.00  0.00    -0.323 C  
BRANCH  33  34
HETATM   34  C   UNL     1     -11.732  14.181  65.807  1.00  0.00    -0.360 A  
HETATM   35  C   UNL     1     -12.474  12.007  65.053  1.00  0.00     0.087 A  
HETATM   36  C   UNL     1     -12.106  13.793  63.462  1.00  0.00    -0.241 A  
HETATM   37  C   UNL     1     -12.100  12.857  66.090  1.00  0.00    -0.458 A  
HETATM   38  C   UNL     1     -11.732  14.646  64.493  1.00  0.00    -0.410 A  
HETATM   39  C   UNL     1     -12.476  12.475  63.740  1.00  0.00    -0.552 A  
ENDBRANCH  33  34
ENDBRANCH  32  33
ENDBRANCH   2  32
TORSDOF 18
ENDMDL
MODEL      414
REMARK 921   NORMALIZED FREE ENERGY PREDICTED BY IDOCK:   -1.74 KCAL/MOL
REMARK 922        TOTAL FREE ENERGY PREDICTED BY IDOCK:   -8.36 KCAL/MOL
REMARK 923 INTER-LIGAND FREE ENERGY PREDICTED BY IDOCK:   -7.24 KCAL/MOL
REMARK 924 INTRA-LIGAND FREE ENERGY PREDICTED BY IDOCK:   -1.12 KCAL/MOL
REMARK 927      BINDING AFFINITY PREDICTED BY RF-SCORE:    0.00 PKD
ROOT
HETATM    1  O   UNL     1      -8.993  15.512  65.732  1.00  0.00    -0.381 OA 
HETATM    2  C   UNL     1      -7.907  15.117  66.568  1.00  0.00     0.429 C  
HETATM    3  H   UNL     1      -8.687  16.108  65.058  1.00  0.00     0.000 HD 
ENDROOT
BRANCH   2   4
HETATM    4  C   UNL     1      -8.403  14.151  67.662  1.00  0.00    -0.187 C  
BRANCH   4   5
HETATM    5  C   UNL     1      -9.891  13.791  67.586  1.00  0.00    -0.234 C  
BRANCH   5   6
HETATM    6  C   UNL     1     -10.648  13.732  68.934  1.00  0.00    -0.224 C  
HETATM    7  H   UNL     1     -14.240  13.055  70.610  1.00  0.00     0.000 HD 
HETATM    8  C   UNL     1     -12.166  13.269  68.926  1.00  0.00    -0.133 C  
HETATM    9  C   UNL     1     -10.707  15.147  69.523  1.00  0.00    -0.266 C  
HETATM   10  C   UNL     1     -11.756  15.046  70.591  1.00  0.00    -0.357 C  
HETATM   11  O   UNL     1      -9.477  15.550  70.096  1.00  0.00    -0.279 OA 
HETATM   12  O   UNL     1     -13.551  13.575  71.008  1.00  0.00    -0.023 OA 
HETATM   13  H   UNL     1      -9.514  16.427  70.461  1.00  0.00     0.000 HD 
HETATM   14  C   UNL     1     -12.854  14.218  69.959  1.00  0.00     0.011 C  
BRANCH   8  15
HETATM   15  C   UNL     1     -12.406  11.744  69.170  1.00  0.00     0.000 C  
BRANCH  15  16
HETATM   16  C   UNL     1     -11.923  11.211  70.507  1.00  0.00    -0.475 C  
HETATM   17  C   UNL     1     -11.251  10.089  70.833  1.00  0.00    -0.415 C  
BRANCH  17  18
HETATM   18  C   UNL     1     -10.772   8.982  69.938  1.00  0.00    -0.240 C  
BRANCH  18  19
HETATM   19  C   UNL     1      -9.997   7.902  70.710  1.00  0.00    -0.192 C  
BRANCH  19  20
HETATM   20  C   UNL     1     -10.210   6.485  70.192  1.00  0.00    -0.226 C  
BRANCH  20  21
HETATM   21  C   UNL     1      -9.651   5.475  71.144  1.00  0.00    -0.162 C  
HETATM   22  O   UNL     1      -8.922   4.532  70.858  1.00  0.00    -0.112 OA 
BRANCH  21  23
HETATM   23  O   UNL     1     -10.206   5.694  72.367  1.00  0.00    -0.184 OA 
BRANCH  23  24
HETATM   24  C   UNL     1      -9.207   5.673  73.366  1.00  0.00    -0.135 C  
BRANCH  24  25
HETATM   25  C   UNL     1      -9.050   7.005  74.066  1.00  0.00    -0.243 C  
BRANCH  25  26
HETATM   26  C   UNL     1      -7.606   7.502  74.079  1.00  0.00    -0.155 C  
BRANCH  26  27
HETATM   27  C   UNL     1      -6.898   7.477  72.717  1.00  0.00    -0.066 C  
BRANCH  27  28
HETATM   28  O   UNL     1      -6.831   8.791  72.209  1.00  0.00    -0.223 OA 
HETATM   29  N   UNL     1      -6.694   8.819  70.801  1.00  0.00    -0.046 N  
HETATM   30  O   UNL     1      -6.570   9.965  70.361  1.00  0.00    -0.096 OA 
HETATM   31  O   UNL     1      -6.705   7.747  70.210  1.00  0.00    -0.038 OA 
ENDBRANCH  27  28
ENDBRANCH  26  27
ENDBRANCH  25  26
ENDBRANCH  24  25
ENDBRANCH  23  24
ENDBRANCH  21  23
ENDBRANCH  20  21
ENDBRANCH  19  20
ENDBRANCH  18  19
ENDBRANCH  17  18
ENDBRANCH  15  16
ENDBRANCH   8  15
ENDBRANCH   5   6
ENDBRANCH   4   5
ENDBRANCH   2   4
BRANCH   2  32
HETATM   32  C   UNL     1      -7.331  16.391  67.169  1.00  0.00    -0.230 C  
BRANCH  32  33
HETATM   33  C   UNL     1      -7.317  17.534  66.160  1.00  0.00    -0.347 C  
BRANCH  33  34
HETATM   34  C   UNL     1      -8.234  18.617  66.628  1.00  0.00    -0.289 A  
HETATM   35  C   UNL     1     -10.448  19.325  67.289  1.00  0.00    -0.566 A  
HETATM   36  C   UNL     1      -8.671  20.948  67.037  1.00  0.00    -0.071 A  
HETATM   37  C   UNL     1      -9.568  18.309  66.931  1.00  0.00    -0.296 A  
HETATM   38  C   UNL     1      -7.788  19.937  66.679  1.00  0.00    -0.334 A  
HETATM   39  C   UNL     1     -10.000  20.644  67.342  1.00  0.00    -0.457 A  
ENDBRANCH  33  34
ENDBRANCH  32  33
ENDBRANCH   2  32
TORSDOF 18
ENDMDL
MODEL      415
REMARK 921   NORMALIZED FREE ENERGY PREDICTED BY IDOCK:   -1.70 KCAL/MOL
REMARK 922        TOTAL FREE ENERGY PREDICTED BY IDOCK:   -8.27 KCAL/MOL
REMARK 923 INTER-LIGAND FREE ENERGY PREDICTED BY IDOCK:   -7.33 KCAL/MOL
REMARK 924 INTRA-LIGAND FREE ENERGY PREDICTED BY IDOCK:   -0.94 KCAL/MOL
REMARK 927      BINDING AFFINITY PREDICTED BY RF-SCORE:    0.00 PKD
ROOT
HETATM    1  O   UNL     1     -10.097  11.164  63.409  1.00  0.00    -0.326 OA 
HETATM    2  C   UNL     1      -9.513   9.908  63.749  1.00  0.00    -0.120 C  
HETATM    3  H   UNL     1      -9.956  11.352  62.488  1.00  0.00     0.000 HD 
ENDROOT
BRANCH   2   4
HETATM    4  C   UNL     1      -9.742   9.603  65.242  1.00  0.00    -0.330 C  
BRANCH   4   5
HETATM    5  C   UNL     1     -10.329  10.758  66.060  1.00  0.00    -0.300 C  
BRANCH   5   6
HETATM    6  C   UNL     1      -9.661  11.036  67.427  1.00  0.00    -0.189 C  
HETATM    7  H   UNL     1      -6.158  10.968  69.401  1.00  0.00     0.000 HD 
HETATM    8  C   UNL     1      -8.084  10.898  67.538  1.00  0.00    -0.116 C  
HETATM    9  C   UNL     1     -10.184  10.010  68.442  1.00  0.00    -0.172 C  
HETATM   10  C   UNL     1      -9.220  10.119  69.588  1.00  0.00    -0.206 C  
HETATM   11  O   UNL     1     -11.494  10.304  68.888  1.00  0.00    -0.419 OA 
HETATM   12  O   UNL     1      -7.010  10.907  69.816  1.00  0.00    -0.142 OA 
HETATM   13  H   UNL     1     -11.817   9.670  69.517  1.00  0.00     0.000 HD 
HETATM   14  C   UNL     1      -7.862  10.215  68.925  1.00  0.00    -0.100 C  
BRANCH   8  15
HETATM   15  C   UNL     1      -7.276  12.217  67.315  1.00  0.00    -0.144 C  
BRANCH  15  16
HETATM   16  C   UNL     1      -7.800  13.437  68.051  1.00  0.00    -0.148 C  
HETATM   17  C   UNL     1      -8.835  14.262  67.793  1.00  0.00    -0.185 C  
BRANCH  17  18
HETATM   18  C   UNL     1      -9.809  14.226  66.650  1.00  0.00    -0.288 C  
BRANCH  18  19
HETATM   19  C   UNL     1      -9.825  15.541  65.856  1.00  0.00    -0.385 C  
BRANCH  19  20
HETATM   20  C   UNL     1     -10.036  16.786  66.708  1.00  0.00    -0.286 C  
BRANCH  20  21
HETATM   21  C   UNL     1     -10.748  16.452  67.982  1.00  0.00    -0.334 C  
HETATM   22  O   UNL     1     -11.896  16.037  68.085  1.00  0.00    -0.194 OA 
BRANCH  21  23
HETATM   23  O   UNL     1      -9.953  16.827  69.021  1.00  0.00    -0.257 OA 
BRANCH  23  24
HETATM   24  C   UNL     1      -9.329  18.061  68.736  1.00  0.00    -0.241 C  
BRANCH  24  25
HETATM   25  C   UNL     1      -7.832  18.026  68.954  1.00  0.00    -0.197 C  
BRANCH  25  26
HETATM   26  C   UNL     1      -7.214  19.418  69.058  1.00  0.00    -0.397 C  
BRANCH  26  27
HETATM   27  C   UNL     1      -7.005  20.138  67.718  1.00  0.00    -0.278 C  
BRANCH  27  28
HETATM   28  O   UNL     1      -8.234  20.688  67.296  1.00  0.00    -0.336 OA 
HETATM   29  N   UNL     1      -8.716  20.086  66.109  1.00  0.00    -0.316 N  
HETATM   30  O   UNL     1      -9.756  20.609  65.703  1.00  0.00     0.027 OA 
HETATM   31  O   UNL     1      -8.066  19.161  65.640  1.00  0.00    -0.413 OA 
ENDBRANCH  27  28
ENDBRANCH  26  27
ENDBRANCH  25  26
ENDBRANCH  24  25
ENDBRANCH  23  24
ENDBRANCH  21  23
ENDBRANCH  20  21
ENDBRANCH  19  20
ENDBRANCH  18  19
ENDBRANCH  17  18
ENDBRANCH  15  16
ENDBRANCH   8  15
ENDBRANCH   5   6
ENDBRANCH   4   5
ENDBRANCH   2   4
BRANCH   2  32
HETATM   32  C   UNL     1      -8.030  10.012  63.421  1.00  0.00    -0.156 C  
BRANCH  32  33
HETATM   33  C   UNL     1      -7.172   9.295  64.457  1.00  0.00    -0.101 C  
BRANCH  33  34
HETATM   34  C   UNL     1      -6.975   7.875  64.038  1.00  0.00    -0.063 A  
HETATM   35  C   UNL     1      -6.767   5.541  64.633  1.00  0.00    -0.043 A  
HETATM   36  C   UNL     1      -6.395   6.258  62.352  1.00  0.00    -0.030 A  
HETATM   37  C   UNL     1      -7.029   6.858  65.002  1.00  0.00    -0.051 A  
HETATM   38  C   UNL     1      -6.655   7.574  62.715  1.00  0.00    -0.070 A  
HETATM   39  C   UNL     1      -6.450   5.243  63.310  1.00  0.00    -0.026 A  
ENDBRANCH  33  34
ENDBRANCH  32  33
ENDBRANCH   2  32
TORSDOF 18
ENDMDL
MODEL      416
REMARK 921   NORMALIZED FREE ENERGY PREDICTED BY IDOCK:   -1.68 KCAL/MOL
REMARK 922        TOTAL FREE ENERGY PREDICTED BY IDOCK:   -8.24 KCAL/MOL
REMARK 923 INTER-LIGAND FREE ENERGY PREDICTED BY IDOCK:   -7.46 KCAL/MOL
REMARK 924 INTRA-LIGAND FREE ENERGY PREDICTED BY IDOCK:   -0.78 KCAL/MOL
REMARK 927      BINDING AFFINITY PREDICTED BY RF-SCORE:    0.00 PKD
ROOT
HETATM    1  O   UNL     1      -5.234  10.372  67.894  1.00  0.00    -0.038 OA 
HETATM    2  C   UNL     1      -6.610  10.554  67.566  1.00  0.00    -0.066 C  
HETATM    3  H   UNL     1      -4.893   9.598  67.462  1.00  0.00     0.000 HD 
ENDROOT
BRANCH   2   4
HETATM    4  C   UNL     1      -7.162  11.811  68.266  1.00  0.00    -0.084 C  
BRANCH   4   5
HETATM    5  C   UNL     1      -8.599  11.689  68.784  1.00  0.00    -0.023 C  
BRANCH   5   6
HETATM    6  C   UNL     1      -9.589  12.780  68.315  1.00  0.00    -0.211 C  
HETATM    7  H   UNL     1     -10.575  16.658  68.721  1.00  0.00     0.000 HD 
HETATM    8  C   UNL     1      -9.362  14.270  68.815  1.00  0.00    -0.119 C  
HETATM    9  C   UNL     1     -10.986  12.432  68.846  1.00  0.00    -0.223 C  
HETATM   10  C   UNL     1     -11.762  13.704  68.670  1.00  0.00    -0.389 C  
HETATM   11  O   UNL     1     -11.603  11.390  68.113  1.00  0.00    -0.341 OA 
HETATM   12  O   UNL     1     -11.177  15.977  68.442  1.00  0.00    -0.339 OA 
HETATM   13  H   UNL     1     -12.468  11.174  68.441  1.00  0.00     0.000 HD 
HETATM   14  C   UNL     1     -10.805  14.790  69.114  1.00  0.00    -0.260 C  
BRANCH   8  15
HETATM   15  C   UNL     1      -8.518  15.177  67.864  1.00  0.00    -0.152 C  
BRANCH  15  16
HETATM   16  C   UNL     1      -7.016  15.130  68.076  1.00  0.00    -0.144 C  
HETATM   17  C   UNL     1      -6.167  15.999  68.661  1.00  0.00    -0.115 C  
BRANCH  17  18
HETATM   18  C   UNL     1      -6.463  17.331  69.288  1.00  0.00    -0.243 C  
BRANCH  18  19
HETATM   19  C   UNL     1      -7.441  18.167  68.448  1.00  0.00    -0.287 C  
BRANCH  19  20
HETATM   20  C   UNL     1      -8.675  18.639  69.207  1.00  0.00     0.169 C  
BRANCH  20  21
HETATM   21  C   UNL     1      -9.167  19.948  68.673  1.00  0.00    -0.142 C  
HETATM   22  O   UNL     1     -10.231  20.490  68.945  1.00  0.00    -0.100 OA 
BRANCH  21  23
HETATM   23  O   UNL     1      -8.293  20.370  67.718  1.00  0.00    -0.266 OA 
BRANCH  23  24
HETATM   24  C   UNL     1      -8.491  19.643  66.523  1.00  0.00    -0.345 C  
BRANCH  24  25
HETATM   25  C   UNL     1      -9.725  20.083  65.766  1.00  0.00    -0.271 C  
BRANCH  25  26
HETATM   26  C   UNL     1     -10.902  19.127  65.940  1.00  0.00    -0.316 C  
BRANCH  26  27
HETATM   27  C   UNL     1     -10.631  17.678  65.513  1.00  0.00    -0.068 C  
BRANCH  27  28
HETATM   28  O   UNL     1     -11.631  17.272  64.605  1.00  0.00    -0.487 OA 
HETATM   29  N   UNL     1     -11.773  15.865  64.552  1.00  0.00    -0.260 N  
HETATM   30  O   UNL     1     -12.601  15.504  63.712  1.00  0.00    -0.618 OA 
HETATM   31  O   UNL     1     -11.080  15.197  65.309  1.00  0.00    -0.350 OA 
ENDBRANCH  27  28
ENDBRANCH  26  27
ENDBRANCH  25  26
ENDBRANCH  24  25
ENDBRANCH  23  24
ENDBRANCH  21  23
ENDBRANCH  20  21
ENDBRANCH  19  20
ENDBRANCH  18  19
ENDBRANCH  17  18
ENDBRANCH  15  16
ENDBRANCH   8  15
ENDBRANCH   5   6
ENDBRANCH   4   5
ENDBRANCH   2   4
BRANCH   2  32
HETATM   32  C   UNL     1      -7.337   9.297  68.020  1.00  0.00    -0.080 C  
BRANCH  32  33
HETATM   33  C   UNL     1      -8.411   8.875  67.023  1.00  0.00    -0.106 C  
BRANCH  33  34
HETATM   34  C   UNL     1      -9.377   7.957  67.696  1.00  0.00    -0.161 A  
HETATM   35  C   UNL     1     -11.083   7.599  69.371  1.00  0.00     0.009 A  
HETATM   36  C   UNL     1     -10.211   5.735  68.098  1.00  0.00    -0.235 A  
HETATM   37  C   UNL     1     -10.237   8.463  68.683  1.00  0.00    -0.220 A  
HETATM   38  C   UNL     1      -9.364   6.593  67.407  1.00  0.00    -0.136 A  
HETATM   39  C   UNL     1     -11.070   6.237  69.079  1.00  0.00    -0.446 A  
ENDBRANCH  33  34
ENDBRANCH  32  33
ENDBRANCH   2  32
TORSDOF 18
ENDMDL
MODEL      417
REMARK 921   NORMALIZED FREE ENERGY PREDICTED BY IDOCK:   -1.62 KCAL/MOL
REMARK 922        TOTAL FREE ENERGY PREDICTED BY IDOCK:   -8.12 KCAL/MOL
REMARK 923 INTER-LIGAND FREE ENERGY PREDICTED BY IDOCK:   -4.81 KCAL/MOL
REMARK 924 INTRA-LIGAND FREE ENERGY PREDICTED BY IDOCK:   -3.31 KCAL/MOL
REMARK 927      BINDING AFFINITY PREDICTED BY RF-SCORE:    0.00 PKD
ROOT
HETATM    1  O   UNL     1     -10.383   7.961  70.295  1.00  0.00    -0.205 OA 
HETATM    2  C   UNL     1      -8.992   7.644  70.332  1.00  0.00    -0.152 C  
HETATM    3  H   UNL     1     -10.649   8.362  71.115  1.00  0.00     0.000 HD 
ENDROOT
BRANCH   2   4
HETATM    4  C   UNL     1      -8.561   6.994  69.003  1.00  0.00    -0.129 C  
BRANCH   4   5
HETATM    5  C   UNL     1      -7.205   6.279  69.038  1.00  0.00    -0.083 C  
BRANCH   5   6
HETATM    6  C   UNL     1      -7.021   5.115  68.038  1.00  0.00    -0.061 C  
HETATM    7  H   UNL     1      -8.986   2.571  65.620  1.00  0.00     0.000 HD 
HETATM    8  C   UNL     1      -8.301   4.563  67.278  1.00  0.00    -0.104 C  
HETATM    9  C   UNL     1      -6.503   3.891  68.804  1.00  0.00    -0.037 C  
HETATM   10  C   UNL     1      -6.721   2.753  67.849  1.00  0.00    -0.040 C  
HETATM   11  O   UNL     1      -5.127   3.991  69.124  1.00  0.00    -0.003 OA 
HETATM   12  O   UNL     1      -8.125   2.407  65.988  1.00  0.00    -0.081 OA 
HETATM   13  H   UNL     1      -4.807   3.233  69.598  1.00  0.00     0.000 HD 
HETATM   14  C   UNL     1      -8.092   3.015  67.264  1.00  0.00    -0.078 C  
BRANCH   8  15
HETATM   15  C   UNL     1      -8.582   5.203  65.881  1.00  0.00    -0.128 C  
BRANCH  15  16
HETATM   16  C   UNL     1      -7.522   6.166  65.376  1.00  0.00    -0.083 C  
HETATM   17  C   UNL     1      -7.613   7.411  64.867  1.00  0.00    -0.105 C  
BRANCH  17  18
HETATM   18  C   UNL     1      -8.839   8.245  64.626  1.00  0.00     0.196 C  
BRANCH  18  19
HETATM   19  C   UNL     1      -8.772   9.601  65.345  1.00  0.00    -0.183 C  
BRANCH  19  20
HETATM   20  C   UNL     1      -7.394   9.959  65.884  1.00  0.00    -0.108 C  
BRANCH  20  21
HETATM   21  C   UNL     1      -7.434  10.172  67.366  1.00  0.00    -0.094 C  
HETATM   22  O   UNL     1      -6.526   9.948  68.157  1.00  0.00    -0.055 OA 
BRANCH  21  23
HETATM   23  O   UNL     1      -8.704  10.522  67.707  1.00  0.00    -0.122 OA 
BRANCH  23  24
HETATM   24  C   UNL     1      -8.727  11.843  68.208  1.00  0.00    -0.170 C  
BRANCH  24  25
HETATM   25  C   UNL     1      -9.003  12.872  67.133  1.00  0.00    -0.219 C  
BRANCH  25  26
HETATM   26  C   UNL     1      -8.146  14.127  67.279  1.00  0.00    -0.188 C  
BRANCH  26  27
HETATM   27  C   UNL     1      -8.862  15.445  66.949  1.00  0.00    -0.253 C  
BRANCH  27  28
HETATM   28  O   UNL     1      -8.051  16.524  67.360  1.00  0.00    -0.143 OA 
HETATM   29  N   UNL     1      -8.392  17.733  66.709  1.00  0.00    -0.238 N  
HETATM   30  O   UNL     1      -7.643  18.663  67.017  1.00  0.00    -0.220 OA 
HETATM   31  O   UNL     1      -9.346  17.713  65.942  1.00  0.00    -0.520 OA 
ENDBRANCH  27  28
ENDBRANCH  26  27
ENDBRANCH  25  26
ENDBRANCH  24  25
ENDBRANCH  23  24
ENDBRANCH  21  23
ENDBRANCH  20  21
ENDBRANCH  19  20
ENDBRANCH  18  19
ENDBRANCH  17  18
ENDBRANCH  15  16
ENDBRANCH   8  15
ENDBRANCH   5   6
ENDBRANCH   4   5
ENDBRANCH   2   4
BRANCH   2  32
HETATM   32  C   UNL     1      -8.790   6.699  71.507  1.00  0.00    -0.138 C  
BRANCH  32  33
HETATM   33  C   UNL     1     -10.002   5.800  71.724  1.00  0.00    -0.209 C  
BRANCH  33  34
HETATM   34  C   UNL     1      -9.549   4.382  71.850  1.00  0.00    -0.212 A  
HETATM   35  C   UNL     1      -8.361   2.681  73.091  1.00  0.00    -0.070 A  
HETATM   36  C   UNL     1      -9.241   2.197  70.889  1.00  0.00    -0.189 A  
HETATM   37  C   UNL     1      -8.857   3.978  73.001  1.00  0.00    -0.103 A  
HETATM   38  C   UNL     1      -9.738   3.491  70.794  1.00  0.00    -0.207 A  
HETATM   39  C   UNL     1      -8.553   1.792  72.036  1.00  0.00    -0.075 A  
ENDBRANCH  33  34
ENDBRANCH  32  33
ENDBRANCH   2  32
TORSDOF 18
ENDMDL
MODEL      418
REMARK 921   NORMALIZED FREE ENERGY PREDICTED BY IDOCK:   -1.60 KCAL/MOL
REMARK 922        TOTAL FREE ENERGY PREDICTED BY IDOCK:   -8.07 KCAL/MOL
REMARK 923 INTER-LIGAND FREE ENERGY PREDICTED BY IDOCK:   -6.54 KCAL/MOL
REMARK 924 INTRA-LIGAND FREE ENERGY PREDICTED BY IDOCK:   -1.53 KCAL/MOL
REMARK 927      BINDING AFFINITY PREDICTED BY RF-SCORE:    0.00 PKD
ROOT
HETATM    1  O   UNL     1     -11.000  17.999  68.002  1.00  0.00    -0.265 OA 
HETATM    2  C   UNL     1      -9.676  17.532  67.752  1.00  0.00    -0.274 C  
HETATM    3  H   UNL     1     -11.624  17.512  67.476  1.00  0.00     0.000 HD 
ENDROOT
BRANCH   2   4
HETATM    4  C   UNL     1      -8.664  18.321  68.604  1.00  0.00    -0.290 C  
BRANCH   4   5
HETATM    5  C   UNL     1      -7.503  17.495  69.167  1.00  0.00    -0.097 C  
BRANCH   5   6
HETATM    6  C   UNL     1      -7.074  16.264  68.334  1.00  0.00    -0.136 C  
HETATM    7  H   UNL     1      -6.527  12.282  68.473  1.00  0.00     0.000 HD 
HETATM    8  C   UNL     1      -7.180  14.828  69.001  1.00  0.00    -0.135 C  
HETATM    9  C   UNL     1      -5.582  16.397  68.001  1.00  0.00    -0.113 C  
HETATM   10  C   UNL     1      -5.194  15.020  67.545  1.00  0.00     0.143 C  
HETATM   11  O   UNL     1      -5.336  17.331  66.967  1.00  0.00    -0.125 OA 
HETATM   12  O   UNL     1      -6.093  12.863  67.859  1.00  0.00    -0.094 OA 
HETATM   13  H   UNL     1      -4.412  17.413  66.761  1.00  0.00     0.000 HD 
HETATM   14  C   UNL     1      -5.886  14.094  68.523  1.00  0.00    -0.094 C  
BRANCH   8  15
HETATM   15  C   UNL     1      -8.512  14.057  68.732  1.00  0.00    -0.038 C  
BRANCH  15  16
HETATM   16  C   UNL     1      -8.355  12.635  68.224  1.00  0.00    -0.165 C  
HETATM   17  C   UNL     1      -9.184  11.573  68.268  1.00  0.00    -0.186 C  
BRANCH  17  18
HETATM   18  C   UNL     1     -10.557  11.471  68.868  1.00  0.00    -0.236 C  
BRANCH  18  19
HETATM   19  C   UNL     1     -11.216  10.111  68.589  1.00  0.00    -0.223 C  
BRANCH  19  20
HETATM   20  C   UNL     1     -10.341   8.909  68.922  1.00  0.00    -0.229 C  
BRANCH  20  21
HETATM   21  C   UNL     1     -10.045   8.103  67.696  1.00  0.00    -0.207 C  
HETATM   22  O   UNL     1     -10.867   7.637  66.917  1.00  0.00    -0.328 OA 
BRANCH  21  23
HETATM   23  O   UNL     1      -8.708   7.850  67.670  1.00  0.00    -0.126 OA 
BRANCH  23  24
HETATM   24  C   UNL     1      -8.210   7.729  68.987  1.00  0.00    -0.126 C  
BRANCH  24  25
HETATM   25  C   UNL     1      -6.705   7.870  69.060  1.00  0.00    -0.049 C  
BRANCH  25  26
HETATM   26  C   UNL     1      -6.252   9.315  69.254  1.00  0.00    -0.041 C  
BRANCH  26  27
HETATM   27  C   UNL     1      -6.914  10.052  70.426  1.00  0.00    -0.131 C  
BRANCH  27  28
HETATM   28  O   UNL     1      -6.295   9.652  71.629  1.00  0.00    -0.290 OA 
HETATM   29  N   UNL     1      -7.201   9.033  72.523  1.00  0.00     0.262 N  
HETATM   30  O   UNL     1      -6.676   8.741  73.601  1.00  0.00    -0.300 OA 
HETATM   31  O   UNL     1      -8.353   8.874  72.141  1.00  0.00    -0.381 OA 
ENDBRANCH  27  28
ENDBRANCH  26  27
ENDBRANCH  25  26
ENDBRANCH  24  25
ENDBRANCH  23  24
ENDBRANCH  21  23
ENDBRANCH  20  21
ENDBRANCH  19  20
ENDBRANCH  18  19
ENDBRANCH  17  18
ENDBRANCH  15  16
ENDBRANCH   8  15
ENDBRANCH   5   6
ENDBRANCH   4   5
ENDBRANCH   2   4
BRANCH   2  32
HETATM   32  C   UNL     1      -9.420  17.720  66.263  1.00  0.00    -0.232 C  
BRANCH  32  33
HETATM   33  C   UNL     1     -10.691  17.531  65.443  1.00  0.00    -0.008 C  
BRANCH  33  34
HETATM   34  C   UNL     1     -10.836  16.089  65.083  1.00  0.00    -0.411 A  
HETATM   35  C   UNL     1     -12.177  14.300  64.162  1.00  0.00    -0.410 A  
HETATM   36  C   UNL     1     -10.045  13.819  65.200  1.00  0.00    -0.314 A  
HETATM   37  C   UNL     1     -11.999  15.654  64.430  1.00  0.00    -0.139 A  
HETATM   38  C   UNL     1      -9.861  15.170  65.469  1.00  0.00    -0.356 A  
HETATM   39  C   UNL     1     -11.201  13.384  64.547  1.00  0.00    -0.393 A  
ENDBRANCH  33  34
ENDBRANCH  32  33
ENDBRANCH   2  32
TORSDOF 18
ENDMDL
MODEL      419
REMARK 921   NORMALIZED FREE ENERGY PREDICTED BY IDOCK:   -1.58 KCAL/MOL
REMARK 922        TOTAL FREE ENERGY PREDICTED BY IDOCK:   -8.03 KCAL/MOL
REMARK 923 INTER-LIGAND FREE ENERGY PREDICTED BY IDOCK:   -6.43 KCAL/MOL
REMARK 924 INTRA-LIGAND FREE ENERGY PREDICTED BY IDOCK:   -1.59 KCAL/MOL
REMARK 927      BINDING AFFINITY PREDICTED BY RF-SCORE:    0.00 PKD
ROOT
HETATM    1  O   UNL     1     -11.072  10.589  65.687  1.00  0.00     0.162 OA 
HETATM    2  C   UNL     1      -9.742  10.401  65.207  1.00  0.00    -0.278 C  
HETATM    3  H   UNL     1     -11.696  10.209  65.080  1.00  0.00     0.000 HD 
ENDROOT
BRANCH   2   4
HETATM    4  C   UNL     1      -8.729  11.019  66.191  1.00  0.00    -0.188 C  
BRANCH   4   5
HETATM    5  C   UNL     1      -7.667  10.052  66.723  1.00  0.00    -0.103 C  
BRANCH   5   6
HETATM    6  C   UNL     1      -8.193   8.794  67.453  1.00  0.00    -0.109 C  
HETATM    7  H   UNL     1     -10.016   7.507  70.799  1.00  0.00     0.000 HD 
HETATM    8  C   UNL     1      -8.972   8.986  68.822  1.00  0.00    -0.137 C  
HETATM    9  C   UNL     1      -6.995   7.918  67.841  1.00  0.00    -0.077 C  
HETATM   10  C   UNL     1      -7.564   6.957  68.844  1.00  0.00    -0.105 C  
HETATM   11  O   UNL     1      -6.463   7.203  66.742  1.00  0.00    -0.050 OA 
HETATM   12  O   UNL     1      -9.456   6.969  70.251  1.00  0.00    -0.165 OA 
HETATM   13  H   UNL     1      -5.721   6.661  66.982  1.00  0.00     0.000 HD 
HETATM   14  C   UNL     1      -8.457   7.814  69.717  1.00  0.00    -0.133 C  
BRANCH   8  15
HETATM   15  C   UNL     1     -10.527   9.090  68.703  1.00  0.00    -0.229 C  
BRANCH  15  16
HETATM   16  C   UNL     1     -11.240   9.663  69.914  1.00  0.00    -0.244 C  
HETATM   17  C   UNL     1     -11.929  10.809  70.088  1.00  0.00    -0.432 C  
BRANCH  17  18
HETATM   18  C   UNL     1     -12.194  11.910  69.101  1.00  0.00    -0.141 C  
BRANCH  18  19
HETATM   19  C   UNL     1     -12.024  13.305  69.723  1.00  0.00    -0.391 C  
BRANCH  19  20
HETATM   20  C   UNL     1     -11.526  14.368  68.753  1.00  0.00    -0.319 C  
BRANCH  20  21
HETATM   21  C   UNL     1     -10.634  15.351  69.445  1.00  0.00    -0.251 C  
HETATM   22  O   UNL     1     -10.536  15.518  70.655  1.00  0.00    -0.308 OA 
BRANCH  21  23
HETATM   23  O   UNL     1     -10.052  16.134  68.496  1.00  0.00    -0.228 OA 
BRANCH  23  24
HETATM   24  C   UNL     1     -10.963  17.117  68.051  1.00  0.00    -0.229 C  
BRANCH  24  25
HETATM   25  C   UNL     1     -10.563  17.730  66.726  1.00  0.00    -0.235 C  
BRANCH  25  26
HETATM   26  C   UNL     1      -9.093  17.500  66.384  1.00  0.00    -0.264 C  
BRANCH  26  27
HETATM   27  C   UNL     1      -8.098  17.937  67.468  1.00  0.00    -0.225 C  
BRANCH  27  28
HETATM   28  O   UNL     1      -6.787  17.837  66.956  1.00  0.00    -0.164 OA 
HETATM   29  N   UNL     1      -6.315  16.503  66.937  1.00  0.00    -0.174 N  
HETATM   30  O   UNL     1      -5.147  16.420  66.551  1.00  0.00    -0.305 OA 
HETATM   31  O   UNL     1      -7.087  15.625  67.300  1.00  0.00    -0.195 OA 
ENDBRANCH  27  28
ENDBRANCH  26  27
ENDBRANCH  25  26
ENDBRANCH  24  25
ENDBRANCH  23  24
ENDBRANCH  21  23
ENDBRANCH  20  21
ENDBRANCH  19  20
ENDBRANCH  18  19
ENDBRANCH  17  18
ENDBRANCH  15  16
ENDBRANCH   8  15
ENDBRANCH   5   6
ENDBRANCH   4   5
ENDBRANCH   2   4
BRANCH   2  32
HETATM   32  C   UNL     1      -9.672  11.069  63.841  1.00  0.00    -0.336 C  
BRANCH  32  33
HETATM   33  C   UNL     1      -9.534  10.046  62.719  1.00  0.00    -0.228 C  
BRANCH  33  34
HETATM   34  C   UNL     1      -8.306   9.227  62.946  1.00  0.00    -0.193 A  
HETATM   35  C   UNL     1      -5.896   9.040  62.919  1.00  0.00    -0.089 A  
HETATM   36  C   UNL     1      -7.267   7.095  63.358  1.00  0.00    -0.075 A  
HETATM   37  C   UNL     1      -7.043   9.816  62.788  1.00  0.00    -0.115 A  
HETATM   38  C   UNL     1      -8.416   7.866  63.229  1.00  0.00     0.172 A  
HETATM   39  C   UNL     1      -6.008   7.680  63.204  1.00  0.00    -0.055 A  
ENDBRANCH  33  34
ENDBRANCH  32  33
ENDBRANCH   2  32
TORSDOF 18
ENDMDL
MODEL      420
REMARK 921   NORMALIZED FREE ENERGY PREDICTED BY IDOCK:   -1.43 KCAL/MOL
REMARK 922        TOTAL FREE ENERGY PREDICTED BY IDOCK:   -7.72 KCAL/MOL
REMARK 923 INTER-LIGAND FREE ENERGY PREDICTED BY IDOCK:   -6.09 KCAL/MOL
REMARK 924 INTRA-LIGAND FREE ENERGY PREDICTED BY IDOCK:   -1.63 KCAL/MOL
REMARK 927      BINDING AFFINITY PREDICTED BY RF-SCORE:    0.00 PKD
ROOT
HETATM    1  O   UNL     1     -11.235  18.669  67.077  1.00  0.00    -0.040 OA 
HETATM    2  C   UNL     1     -10.227  17.716  67.405  1.00  0.00    -0.345 C  
HETATM    3  H   UNL     1     -11.995  18.231  66.712  1.00  0.00     0.000 HD 
ENDROOT
BRANCH   2   4
HETATM    4  C   UNL     1      -8.994  18.428  67.997  1.00  0.00    -0.305 C  
BRANCH   4   5
HETATM    5  C   UNL     1      -8.026  17.522  68.764  1.00  0.00    -0.238 C  
BRANCH   5   6
HETATM    6  C   UNL     1      -7.359  16.389  67.949  1.00  0.00    -0.146 C  
HETATM    7  H   UNL     1      -6.227  12.532  68.078  1.00  0.00     0.000 HD 
HETATM    8  C   UNL     1      -7.292  14.938  68.589  1.00  0.00    -0.120 C  
HETATM    9  C   UNL     1      -5.885  16.752  67.727  1.00  0.00    -0.134 C  
HETATM   10  C   UNL     1      -5.262  15.460  67.283  1.00  0.00     0.314 C  
HETATM   11  O   UNL     1      -5.711  17.736  66.725  1.00  0.00    -0.135 OA 
HETATM   12  O   UNL     1      -5.844  13.186  67.504  1.00  0.00    -0.240 OA 
HETATM   13  H   UNL     1      -4.798  17.960  66.587  1.00  0.00     0.000 HD 
HETATM   14  C   UNL     1      -5.872  14.418  68.197  1.00  0.00    -0.133 C  
BRANCH   8  15
HETATM   15  C   UNL     1      -8.471  13.983  68.215  1.00  0.00    -0.171 C  
BRANCH  15  16
HETATM   16  C   UNL     1      -8.217  12.505  68.452  1.00  0.00    -0.136 C  
HETATM   17  C   UNL     1      -9.059  11.481  68.700  1.00  0.00    -0.124 C  
BRANCH  17  18
HETATM   18  C   UNL     1     -10.555  11.500  68.834  1.00  0.00    -0.236 C  
BRANCH  18  19
HETATM   19  C   UNL     1     -11.195  10.170  68.407  1.00  0.00    -0.238 C  
BRANCH  19  20
HETATM   20  C   UNL     1     -10.434   8.932  68.864  1.00  0.00    -0.225 C  
BRANCH  20  21
HETATM   21  C   UNL     1      -9.975   8.120  67.693  1.00  0.00    -0.185 C  
HETATM   22  O   UNL     1     -10.658   7.773  66.737  1.00  0.00    -0.331 OA 
BRANCH  21  23
HETATM   23  O   UNL     1      -8.702   7.706  67.938  1.00  0.00    -0.124 OA 
BRANCH  23  24
HETATM   24  C   UNL     1      -8.279   6.810  66.932  1.00  0.00    -0.113 C  
BRANCH  24  25
HETATM   25  C   UNL     1      -7.078   5.988  67.346  1.00  0.00    -0.074 C  
BRANCH  25  26
HETATM   26  C   UNL     1      -5.762   6.753  67.221  1.00  0.00    -0.013 C  
BRANCH  26  27
HETATM   27  C   UNL     1      -5.643   7.641  65.974  1.00  0.00    -0.032 C  
BRANCH  27  28
HETATM   28  O   UNL     1      -6.130   8.929  66.279  1.00  0.00    -0.060 OA 
HETATM   29  N   UNL     1      -6.572   9.625  65.129  1.00  0.00    -0.087 N  
HETATM   30  O   UNL     1      -6.938  10.775  65.384  1.00  0.00    -0.061 OA 
HETATM   31  O   UNL     1      -6.535   9.031  64.059  1.00  0.00    -0.085 OA 
ENDBRANCH  27  28
ENDBRANCH  26  27
ENDBRANCH  25  26
ENDBRANCH  24  25
ENDBRANCH  23  24
ENDBRANCH  21  23
ENDBRANCH  20  21
ENDBRANCH  19  20
ENDBRANCH  18  19
ENDBRANCH  17  18
ENDBRANCH  15  16
ENDBRANCH   8  15
ENDBRANCH   5   6
ENDBRANCH   4   5
ENDBRANCH   2   4
BRANCH   2  32
HETATM   32  C   UNL     1      -9.883  16.982  66.117  1.00  0.00    -0.297 C  
BRANCH  32  33
HETATM   33  C   UNL     1     -11.132  16.627  65.319  1.00  0.00    -0.036 C  
BRANCH  33  34
HETATM   34  C   UNL     1     -11.071  15.190  64.918  1.00  0.00    -0.425 A  
HETATM   35  C   UNL     1     -12.201  13.197  64.146  1.00  0.00    -0.465 A  
HETATM   36  C   UNL     1      -9.872  13.107  64.796  1.00  0.00    -0.030 A  
HETATM   37  C   UNL     1     -12.229  14.556  64.445  1.00  0.00    -0.480 A  
HETATM   38  C   UNL     1      -9.894  14.464  65.096  1.00  0.00    -0.137 A  
HETATM   39  C   UNL     1     -11.023  12.474  64.322  1.00  0.00    -0.401 A  
ENDBRANCH  33  34
ENDBRANCH  32  33
ENDBRANCH   2  32
TORSDOF 18
ENDMDL
MODEL      421
REMARK 921   NORMALIZED FREE ENERGY PREDICTED BY IDOCK:   -1.43 KCAL/MOL
REMARK 922        TOTAL FREE ENERGY PREDICTED BY IDOCK:   -7.71 KCAL/MOL
REMARK 923 INTER-LIGAND FREE ENERGY PREDICTED BY IDOCK:   -6.28 KCAL/MOL
REMARK 924 INTRA-LIGAND FREE ENERGY PREDICTED BY IDOCK:   -1.43 KCAL/MOL
REMARK 927      BINDING AFFINITY PREDICTED BY RF-SCORE:    0.00 PKD
ROOT
HETATM    1  O   UNL     1     -11.227  18.673  67.075  1.00  0.00    -0.040 OA 
HETATM    2  C   UNL     1     -10.220  17.718  67.404  1.00  0.00    -0.353 C  
HETATM    3  H   UNL     1     -11.994  18.233  66.725  1.00  0.00     0.000 HD 
ENDROOT
BRANCH   2   4
HETATM    4  C   UNL     1      -8.977  18.430  67.971  1.00  0.00    -0.305 C  
BRANCH   4   5
HETATM    5  C   UNL     1      -7.997  17.526  68.726  1.00  0.00    -0.238 C  
BRANCH   5   6
HETATM    6  C   UNL     1      -7.303  16.425  67.892  1.00  0.00    -0.146 C  
HETATM    7  H   UNL     1      -6.111  12.584  67.940  1.00  0.00     0.000 HD 
HETATM    8  C   UNL     1      -7.220  14.959  68.497  1.00  0.00    -0.113 C  
HETATM    9  C   UNL     1      -5.832  16.815  67.696  1.00  0.00    -0.146 C  
HETATM   10  C   UNL     1      -5.184  15.545  67.228  1.00  0.00     0.249 C  
HETATM   11  O   UNL     1      -5.662  17.827  66.720  1.00  0.00    -0.135 OA 
HETATM   12  O   UNL     1      -5.732  13.257  67.387  1.00  0.00    -0.333 OA 
HETATM   13  H   UNL     1      -4.752  18.069  66.599  1.00  0.00     0.000 HD 
HETATM   14  C   UNL     1      -5.788  14.472  68.108  1.00  0.00    -0.133 C  
BRANCH   8  15
HETATM   15  C   UNL     1      -8.379  13.996  68.085  1.00  0.00    -0.164 C  
BRANCH  15  16
HETATM   16  C   UNL     1      -8.125  12.520  68.337  1.00  0.00    -0.136 C  
HETATM   17  C   UNL     1      -8.968  11.493  68.561  1.00  0.00    -0.146 C  
BRANCH  17  18
HETATM   18  C   UNL     1     -10.468  11.503  68.645  1.00  0.00    -0.224 C  
BRANCH  18  19
HETATM   19  C   UNL     1     -11.087  10.175  68.180  1.00  0.00    -0.290 C  
BRANCH  19  20
HETATM   20  C   UNL     1     -11.149   9.100  69.257  1.00  0.00     0.001 C  
BRANCH  20  21
HETATM   21  C   UNL     1     -10.364   7.890  68.857  1.00  0.00    -0.213 C  
HETATM   22  O   UNL     1     -10.419   7.313  67.777  1.00  0.00    -0.201 OA 
BRANCH  21  23
HETATM   23  O   UNL     1      -9.682   7.448  69.949  1.00  0.00    -0.170 OA 
BRANCH  23  24
HETATM   24  C   UNL     1      -9.057   6.214  69.665  1.00  0.00    -0.137 C  
BRANCH  24  25
HETATM   25  C   UNL     1      -8.658   5.458  70.914  1.00  0.00    -0.129 C  
BRANCH  25  26
HETATM   26  C   UNL     1      -7.363   5.976  71.534  1.00  0.00    -0.088 C  
BRANCH  26  27
HETATM   27  C   UNL     1      -6.266   6.353  70.528  1.00  0.00    -0.039 C  
BRANCH  27  28
HETATM   28  O   UNL     1      -6.405   7.714  70.185  1.00  0.00    -0.033 OA 
HETATM   29  N   UNL     1      -5.856   8.010  68.915  1.00  0.00    -0.034 N  
HETATM   30  O   UNL     1      -5.918   9.211  68.641  1.00  0.00    -0.044 OA 
HETATM   31  O   UNL     1      -5.395   7.079  68.267  1.00  0.00    -0.018 OA 
ENDBRANCH  27  28
ENDBRANCH  26  27
ENDBRANCH  25  26
ENDBRANCH  24  25
ENDBRANCH  23  24
ENDBRANCH  21  23
ENDBRANCH  20  21
ENDBRANCH  19  20
ENDBRANCH  18  19
ENDBRANCH  17  18
ENDBRANCH  15  16
ENDBRANCH   8  15
ENDBRANCH   5   6
ENDBRANCH   4   5
ENDBRANCH   2   4
BRANCH   2  32
HETATM   32  C   UNL     1      -9.896  16.964  66.122  1.00  0.00    -0.318 C  
BRANCH  32  33
HETATM   33  C   UNL     1     -11.154  16.640  65.325  1.00  0.00    -0.036 C  
BRANCH  33  34
HETATM   34  C   UNL     1     -11.158  15.188  64.976  1.00  0.00    -0.428 A  
HETATM   35  C   UNL     1     -12.372  13.227  64.250  1.00  0.00    -0.406 A  
HETATM   36  C   UNL     1     -10.064  13.045  64.954  1.00  0.00    -0.233 A  
HETATM   37  C   UNL     1     -12.337  14.596  64.500  1.00  0.00    -0.416 A  
HETATM   38  C   UNL     1     -10.024  14.411  65.205  1.00  0.00    -0.314 A  
HETATM   39  C   UNL     1     -11.236  12.453  64.477  1.00  0.00    -0.371 A  
ENDBRANCH  33  34
ENDBRANCH  32  33
ENDBRANCH   2  32
TORSDOF 18
ENDMDL
MODEL      422
REMARK 921   NORMALIZED FREE ENERGY PREDICTED BY IDOCK:   -1.31 KCAL/MOL
REMARK 922        TOTAL FREE ENERGY PREDICTED BY IDOCK:   -7.47 KCAL/MOL
REMARK 923 INTER-LIGAND FREE ENERGY PREDICTED BY IDOCK:   -6.69 KCAL/MOL
REMARK 924 INTRA-LIGAND FREE ENERGY PREDICTED BY IDOCK:   -0.79 KCAL/MOL
REMARK 927      BINDING AFFINITY PREDICTED BY RF-SCORE:    0.00 PKD
ROOT
HETATM    1  O   UNL     1     -12.302  10.480  69.021  1.00  0.00    -0.759 OA 
HETATM    2  C   UNL     1     -11.562  11.067  70.089  1.00  0.00    -0.334 C  
HETATM    3  H   UNL     1     -13.223  10.696  69.103  1.00  0.00     0.000 HD 
ENDROOT
BRANCH   2   4
HETATM    4  C   UNL     1     -10.067  10.717  69.956  1.00  0.00     0.178 C  
BRANCH   4   5
HETATM    5  C   UNL     1      -9.767   9.237  69.691  1.00  0.00    -0.192 C  
BRANCH   5   6
HETATM    6  C   UNL     1      -8.280   8.818  69.768  1.00  0.00    -0.117 C  
HETATM    7  H   UNL     1      -5.055   7.876  67.558  1.00  0.00     0.000 HD 
HETATM    8  C   UNL     1      -7.462   8.687  68.415  1.00  0.00    -0.095 C  
HETATM    9  C   UNL     1      -8.202   7.410  70.373  1.00  0.00    -0.121 C  
HETATM   10  C   UNL     1      -6.805   6.962  70.055  1.00  0.00    -0.057 C  
HETATM   11  O   UNL     1      -8.399   7.407  71.774  1.00  0.00    -0.106 OA 
HETATM   12  O   UNL     1      -5.193   7.594  68.455  1.00  0.00    -0.024 OA 
HETATM   13  H   UNL     1      -8.350   6.535  72.149  1.00  0.00     0.000 HD 
HETATM   14  C   UNL     1      -6.585   7.412  68.626  1.00  0.00    -0.045 C  
BRANCH   8  15
HETATM   15  C   UNL     1      -6.674   9.964  67.979  1.00  0.00    -0.061 C  
BRANCH  15  16
HETATM   16  C   UNL     1      -6.190  10.853  69.110  1.00  0.00    -0.047 C  
HETATM   17  C   UNL     1      -5.754  12.129  69.122  1.00  0.00    -0.069 C  
BRANCH  17  18
HETATM   18  C   UNL     1      -5.599  13.084  67.973  1.00  0.00    -0.106 C  
BRANCH  18  19
HETATM   19  C   UNL     1      -6.920  13.315  67.223  1.00  0.00     0.003 C  
BRANCH  19  20
HETATM   20  C   UNL     1      -8.154  12.793  67.949  1.00  0.00    -0.159 C  
BRANCH  20  21
HETATM   21  C   UNL     1      -9.340  12.758  67.037  1.00  0.00    -0.229 C  
HETATM   22  O   UNL     1      -9.906  11.755  66.619  1.00  0.00    -0.196 OA 
BRANCH  21  23
HETATM   23  O   UNL     1      -9.598  14.031  66.631  1.00  0.00    -0.270 OA 
BRANCH  23  24
HETATM   24  C   UNL     1      -9.689  14.889  67.749  1.00  0.00    -0.212 C  
BRANCH  24  25
HETATM   25  C   UNL     1     -10.981  14.717  68.518  1.00  0.00    -0.261 C  
BRANCH  25  26
HETATM   26  C   UNL     1     -11.992  13.834  67.790  1.00  0.00    -0.391 C  
BRANCH  26  27
HETATM   27  C   UNL     1     -12.457  14.366  66.427  1.00  0.00    -0.167 C  
BRANCH  27  28
HETATM   28  O   UNL     1     -12.612  13.281  65.539  1.00  0.00    -0.474 OA 
HETATM   29  N   UNL     1     -12.229  13.607  64.217  1.00  0.00    -0.414 N  
HETATM   30  O   UNL     1     -12.424  12.681  63.426  1.00  0.00    -0.663 OA 
HETATM   31  O   UNL     1     -11.774  14.726  64.019  1.00  0.00    -0.195 OA 
ENDBRANCH  27  28
ENDBRANCH  26  27
ENDBRANCH  25  26
ENDBRANCH  24  25
ENDBRANCH  23  24
ENDBRANCH  21  23
ENDBRANCH  20  21
ENDBRANCH  19  20
ENDBRANCH  18  19
ENDBRANCH  17  18
ENDBRANCH  15  16
ENDBRANCH   8  15
ENDBRANCH   5   6
ENDBRANCH   4   5
ENDBRANCH   2   4
BRANCH   2  32
HETATM   32  C   UNL     1     -12.150  10.520  71.382  1.00  0.00    -0.380 C  
BRANCH  32  33
HETATM   33  C   UNL     1     -13.193   9.440  71.114  1.00  0.00    -0.288 C  
BRANCH  33  34
HETATM   34  C   UNL     1     -12.546   8.097  71.198  1.00  0.00    -0.162 A  
HETATM   35  C   UNL     1     -11.318   6.456  72.481  1.00  0.00    -0.299 A  
HETATM   36  C   UNL     1     -11.743   6.097  70.126  1.00  0.00    -0.119 A  
HETATM   37  C   UNL     1     -11.993   7.672  72.415  1.00  0.00    -0.298 A  
HETATM   38  C   UNL     1     -12.418   7.310  70.054  1.00  0.00     0.606 A  
HETATM   39  C   UNL     1     -11.193   5.670  71.338  1.00  0.00    -0.167 A  
ENDBRANCH  33  34
ENDBRANCH  32  33
ENDBRANCH   2  32
TORSDOF 18
ENDMDL
MODEL      423
REMARK 921   NORMALIZED FREE ENERGY PREDICTED BY IDOCK:   -1.18 KCAL/MOL
REMARK 922        TOTAL FREE ENERGY PREDICTED BY IDOCK:   -7.20 KCAL/MOL
REMARK 923 INTER-LIGAND FREE ENERGY PREDICTED BY IDOCK:   -6.23 KCAL/MOL
REMARK 924 INTRA-LIGAND FREE ENERGY PREDICTED BY IDOCK:   -0.96 KCAL/MOL
REMARK 927      BINDING AFFINITY PREDICTED BY RF-SCORE:    0.00 PKD
ROOT
HETATM    1  O   UNL     1      -9.824  10.772  63.955  1.00  0.00    -0.277 OA 
HETATM    2  C   UNL     1      -8.902   9.696  64.115  1.00  0.00    -0.226 C  
HETATM    3  H   UNL     1     -10.199  10.756  63.082  1.00  0.00     0.000 HD 
ENDROOT
BRANCH   2   4
HETATM    4  C   UNL     1      -8.294   9.723  65.531  1.00  0.00    -0.141 C  
BRANCH   4   5
HETATM    5  C   UNL     1      -8.402  11.066  66.259  1.00  0.00    -0.166 C  
BRANCH   5   6
HETATM    6  C   UNL     1      -7.793  11.123  67.680  1.00  0.00    -0.115 C  
HETATM    7  H   UNL     1      -4.413  11.847  69.736  1.00  0.00     0.000 HD 
HETATM    8  C   UNL     1      -6.292  11.615  67.839  1.00  0.00    -0.054 C  
HETATM    9  C   UNL     1      -7.768   9.702  68.257  1.00  0.00    -0.082 C  
HETATM   10  C   UNL     1      -6.840   9.809  69.432  1.00  0.00    -0.057 C  
HETATM   11  O   UNL     1      -9.043   9.267  68.692  1.00  0.00    -0.132 OA 
HETATM   12  O   UNL     1      -5.130  11.309  70.052  1.00  0.00    -0.050 OA 
HETATM   13  H   UNL     1      -9.027   8.388  69.049  1.00  0.00     0.000 HD 
HETATM   14  C   UNL     1      -5.698  10.666  68.928  1.00  0.00    -0.040 C  
BRANCH   8  15
HETATM   15  C   UNL     1      -6.111  13.141  68.123  1.00  0.00    -0.103 C  
BRANCH  15  16
HETATM   16  C   UNL     1      -6.824  13.666  69.356  1.00  0.00    -0.022 C  
HETATM   17  C   UNL     1      -8.013  14.283  69.508  1.00  0.00     0.316 C  
BRANCH  17  18
HETATM   18  C   UNL     1      -9.020  14.662  68.460  1.00  0.00    -0.184 C  
BRANCH  18  19
HETATM   19  C   UNL     1     -10.232  15.397  69.055  1.00  0.00    -0.233 C  
BRANCH  19  20
HETATM   20  C   UNL     1     -11.580  14.877  68.574  1.00  0.00    -0.347 C  
BRANCH  20  21
HETATM   21  C   UNL     1     -11.917  13.573  69.228  1.00  0.00    -0.330 C  
HETATM   22  O   UNL     1     -11.679  13.259  70.388  1.00  0.00    -0.228 OA 
BRANCH  21  23
HETATM   23  O   UNL     1     -12.407  12.735  68.273  1.00  0.00    -0.050 OA 
BRANCH  23  24
HETATM   24  C   UNL     1     -12.154  13.263  66.988  1.00  0.00    -0.320 C  
BRANCH  24  25
HETATM   25  C   UNL     1     -11.242  12.383  66.161  1.00  0.00    -0.364 C  
BRANCH  25  26
HETATM   26  C   UNL     1     -10.187  13.176  65.393  1.00  0.00    -0.301 C  
BRANCH  26  27
HETATM   27  C   UNL     1     -10.744  14.181  64.375  1.00  0.00    -0.155 C  
BRANCH  27  28
HETATM   28  O   UNL     1     -10.419  15.488  64.795  1.00  0.00    -0.390 OA 
HETATM   29  N   UNL     1     -11.340  16.452  64.322  1.00  0.00    -0.180 N  
HETATM   30  O   UNL     1     -11.023  17.603  64.633  1.00  0.00    -0.803 OA 
HETATM   31  O   UNL     1     -12.300  16.049  63.678  1.00  0.00    -0.705 OA 
ENDBRANCH  27  28
ENDBRANCH  26  27
ENDBRANCH  25  26
ENDBRANCH  24  25
ENDBRANCH  23  24
ENDBRANCH  21  23
ENDBRANCH  20  21
ENDBRANCH  19  20
ENDBRANCH  18  19
ENDBRANCH  17  18
ENDBRANCH  15  16
ENDBRANCH   8  15
ENDBRANCH   5   6
ENDBRANCH   4   5
ENDBRANCH   2   4
BRANCH   2  32
HETATM   32  C   UNL     1      -7.834   9.872  63.045  1.00  0.00    -0.138 C  
BRANCH  32  33
HETATM   33  C   UNL     1      -6.477   9.361  63.513  1.00  0.00    -0.094 C  
BRANCH  33  34
HETATM   34  C   UNL     1      -6.479   7.868  63.498  1.00  0.00    -0.067 A  
HETATM   35  C   UNL     1      -5.847   5.777  64.534  1.00  0.00    -0.024 A  
HETATM   36  C   UNL     1      -6.876   5.794  62.344  1.00  0.00    -0.039 A  
HETATM   37  C   UNL     1      -5.921   7.166  64.577  1.00  0.00    -0.037 A  
HETATM   38  C   UNL     1      -6.953   7.181  62.381  1.00  0.00    -0.068 A  
HETATM   39  C   UNL     1      -6.324   5.092  63.418  1.00  0.00    -0.026 A  
ENDBRANCH  33  34
ENDBRANCH  32  33
ENDBRANCH   2  32
TORSDOF 18
ENDMDL
MODEL      424
REMARK 921   NORMALIZED FREE ENERGY PREDICTED BY IDOCK:   -0.93 KCAL/MOL
REMARK 922        TOTAL FREE ENERGY PREDICTED BY IDOCK:   -6.69 KCAL/MOL
REMARK 923 INTER-LIGAND FREE ENERGY PREDICTED BY IDOCK:   -6.30 KCAL/MOL
REMARK 924 INTRA-LIGAND FREE ENERGY PREDICTED BY IDOCK:   -0.38 KCAL/MOL
REMARK 927      BINDING AFFINITY PREDICTED BY RF-SCORE:    0.00 PKD
ROOT
HETATM    1  O   UNL     1      -8.234  10.678  68.252  1.00  0.00    -0.111 OA 
HETATM    2  C   UNL     1      -9.153   9.601  68.421  1.00  0.00    -0.123 C  
HETATM    3  H   UNL     1      -7.802  10.873  69.076  1.00  0.00     0.000 HD 
ENDROOT
BRANCH   2   4
HETATM    4  C   UNL     1      -9.853   9.285  67.085  1.00  0.00    -0.251 C  
BRANCH   4   5
HETATM    5  C   UNL     1      -8.992   9.493  65.835  1.00  0.00    -0.210 C  
BRANCH   5   6
HETATM    6  C   UNL     1      -9.344  10.718  64.960  1.00  0.00    -0.261 C  
HETATM    7  H   UNL     1     -12.397  12.870  63.467  1.00  0.00     0.000 HD 
HETATM    8  C   UNL     1     -10.870  11.136  64.827  1.00  0.00    -0.277 C  
HETATM    9  C   UNL     1      -8.927  10.421  63.513  1.00  0.00    -0.233 C  
HETATM   10  C   UNL     1      -9.638  11.472  62.712  1.00  0.00    -0.212 C  
HETATM   11  O   UNL     1      -7.530  10.533  63.316  1.00  0.00    -0.289 OA 
HETATM   12  O   UNL     1     -11.529  12.831  63.084  1.00  0.00    -0.408 OA 
HETATM   13  H   UNL     1      -7.271  10.349  62.421  1.00  0.00     0.000 HD 
HETATM   14  C   UNL     1     -11.022  11.533  63.324  1.00  0.00    -0.224 C  
BRANCH   8  15
HETATM   15  C   UNL     1     -11.363  12.213  65.846  1.00  0.00    -0.407 C  
BRANCH  15  16
HETATM   16  C   UNL     1     -10.737  13.588  65.701  1.00  0.00    -0.284 C  
HETATM   17  C   UNL     1     -10.388  14.514  66.616  1.00  0.00    -0.274 C  
BRANCH  17  18
HETATM   18  C   UNL     1     -10.533  14.466  68.110  1.00  0.00    -0.237 C  
BRANCH  18  19
HETATM   19  C   UNL     1     -10.365  15.849  68.758  1.00  0.00    -0.228 C  
BRANCH  19  20
HETATM   20  C   UNL     1     -10.558  17.018  67.801  1.00  0.00    -0.350 C  
BRANCH  20  21
HETATM   21  C   UNL     1      -9.945  18.269  68.348  1.00  0.00    -0.382 C  
HETATM   22  O   UNL     1     -10.105  19.405  67.918  1.00  0.00    -0.348 OA 
BRANCH  21  23
HETATM   23  O   UNL     1      -9.060  17.916  69.320  1.00  0.00     0.021 OA 
BRANCH  23  24
HETATM   24  C   UNL     1      -7.947  17.260  68.749  1.00  0.00    -0.250 C  
BRANCH  24  25
HETATM   25  C   UNL     1      -6.779  17.147  69.704  1.00  0.00    -0.044 C  
BRANCH  25  26
HETATM   26  C   UNL     1      -6.453  15.703  70.077  1.00  0.00    -0.088 C  
BRANCH  26  27
HETATM   27  C   UNL     1      -5.555  14.960  69.077  1.00  0.00    -0.096 C  
BRANCH  27  28
HETATM   28  O   UNL     1      -6.041  13.646  68.911  1.00  0.00    -0.080 OA 
HETATM   29  N   UNL     1      -6.186  13.293  67.548  1.00  0.00    -0.147 N  
HETATM   30  O   UNL     1      -6.672  12.169  67.401  1.00  0.00    -0.115 OA 
HETATM   31  O   UNL     1      -5.835  14.113  66.711  1.00  0.00     0.824 OA 
ENDBRANCH  27  28
ENDBRANCH  26  27
ENDBRANCH  25  26
ENDBRANCH  24  25
ENDBRANCH  23  24
ENDBRANCH  21  23
ENDBRANCH  20  21
ENDBRANCH  19  20
ENDBRANCH  18  19
ENDBRANCH  17  18
ENDBRANCH  15  16
ENDBRANCH   8  15
ENDBRANCH   5   6
ENDBRANCH   4   5
ENDBRANCH   2   4
BRANCH   2  32
HETATM   32  C   UNL     1     -10.151  10.040  69.484  1.00  0.00    -0.248 C  
BRANCH  32  33
HETATM   33  C   UNL     1     -10.540   8.888  70.403  1.00  0.00    -0.252 C  
BRANCH  33  34
HETATM   34  C   UNL     1      -9.390   7.943  70.524  1.00  0.00    -0.162 A  
HETATM   35  C   UNL     1      -7.147   7.485  71.301  1.00  0.00    -0.058 A  
HETATM   36  C   UNL     1      -8.305   5.887  69.901  1.00  0.00    -0.121 A  
HETATM   37  C   UNL     1      -8.253   8.328  71.250  1.00  0.00    -0.147 A  
HETATM   38  C   UNL     1      -9.413   6.724  69.848  1.00  0.00    -0.156 A  
HETATM   39  C   UNL     1      -7.173   6.266  70.626  1.00  0.00    -0.074 A  
ENDBRANCH  33  34
ENDBRANCH  32  33
ENDBRANCH   2  32
TORSDOF 18
ENDMDL
MODEL      425
REMARK 921   NORMALIZED FREE ENERGY PREDICTED BY IDOCK:   -0.90 KCAL/MOL
REMARK 922        TOTAL FREE ENERGY PREDICTED BY IDOCK:   -6.64 KCAL/MOL
REMARK 923 INTER-LIGAND FREE ENERGY PREDICTED BY IDOCK:   -6.32 KCAL/MOL
REMARK 924 INTRA-LIGAND FREE ENERGY PREDICTED BY IDOCK:   -0.32 KCAL/MOL
REMARK 927      BINDING AFFINITY PREDICTED BY RF-SCORE:    0.00 PKD
ROOT
HETATM    1  O   UNL     1     -12.636  10.617  68.882  1.00  0.00    -0.742 OA 
HETATM    2  C   UNL     1     -11.255  10.270  68.793  1.00  0.00    -0.206 C  
HETATM    3  H   UNL     1     -12.731  11.556  68.994  1.00  0.00     0.000 HD 
ENDROOT
BRANCH   2   4
HETATM    4  C   UNL     1     -11.101   8.748  68.611  1.00  0.00     0.230 C  
BRANCH   4   5
HETATM    5  C   UNL     1      -9.707   8.194  68.925  1.00  0.00    -0.156 C  
BRANCH   5   6
HETATM    6  C   UNL     1      -9.220   7.026  68.035  1.00  0.00    -0.129 C  
HETATM    7  H   UNL     1      -9.346   5.514  64.310  1.00  0.00     0.000 HD 
HETATM    8  C   UNL     1      -9.562   7.066  66.485  1.00  0.00    -0.201 C  
HETATM    9  C   UNL     1      -9.890   5.733  68.518  1.00  0.00    -0.141 C  
HETATM   10  C   UNL     1      -9.661   4.770  67.389  1.00  0.00    -0.186 C  
HETATM   11  O   UNL     1      -9.307   5.228  69.704  1.00  0.00    -0.116 OA 
HETATM   12  O   UNL     1      -9.180   5.002  65.093  1.00  0.00    -0.155 OA 
HETATM   13  H   UNL     1      -9.721   4.427  70.003  1.00  0.00     0.000 HD 
HETATM   14  C   UNL     1      -9.926   5.586  66.142  1.00  0.00    -0.096 C  
BRANCH   8  15
HETATM   15  C   UNL     1      -8.468   7.704  65.571  1.00  0.00    -0.132 C  
BRANCH  15  16
HETATM   16  C   UNL     1      -7.089   7.075  65.661  1.00  0.00    -0.068 C  
HETATM   17  C   UNL     1      -6.176   7.058  66.653  1.00  0.00    -0.042 C  
BRANCH  17  18
HETATM   18  C   UNL     1      -6.246   7.695  68.011  1.00  0.00    -0.045 C  
BRANCH  18  19
HETATM   19  C   UNL     1      -5.811   9.169  67.988  1.00  0.00    -0.038 C  
BRANCH  19  20
HETATM   20  C   UNL     1      -5.249   9.636  66.652  1.00  0.00    -0.044 C  
BRANCH  20  21
HETATM   21  C   UNL     1      -6.152  10.644  66.011  1.00  0.00    -0.131 C  
HETATM   22  O   UNL     1      -5.904  11.312  65.015  1.00  0.00     0.120 OA 
BRANCH  21  23
HETATM   23  O   UNL     1      -7.243  10.801  66.810  1.00  0.00    -0.113 OA 
BRANCH  23  24
HETATM   24  C   UNL     1      -8.259  11.493  66.114  1.00  0.00     0.018 C  
BRANCH  24  25
HETATM   25  C   UNL     1      -9.000  12.481  66.989  1.00  0.00    -0.211 C  
BRANCH  25  26
HETATM   26  C   UNL     1      -9.403  13.750  66.242  1.00  0.00    -0.166 C  
BRANCH  26  27
HETATM   27  C   UNL     1     -10.530  14.560  66.898  1.00  0.00    -0.269 C  
BRANCH  27  28
HETATM   28  O   UNL     1     -11.067  13.815  67.969  1.00  0.00    -0.247 OA 
HETATM   29  N   UNL     1     -11.623  14.641  68.976  1.00  0.00    -0.282 N  
HETATM   30  O   UNL     1     -12.035  13.995  69.942  1.00  0.00    -0.296 OA 
HETATM   31  O   UNL     1     -11.622  15.849  68.780  1.00  0.00    -0.373 OA 
ENDBRANCH  27  28
ENDBRANCH  26  27
ENDBRANCH  25  26
ENDBRANCH  24  25
ENDBRANCH  23  24
ENDBRANCH  21  23
ENDBRANCH  20  21
ENDBRANCH  19  20
ENDBRANCH  18  19
ENDBRANCH  17  18
ENDBRANCH  15  16
ENDBRANCH   8  15
ENDBRANCH   5   6
ENDBRANCH   4   5
ENDBRANCH   2   4
BRANCH   2  32
HETATM   32  C   UNL     1     -10.600  10.749  70.080  1.00  0.00     0.050 C  
BRANCH  32  33
HETATM   33  C   UNL     1     -10.462   9.620  71.096  1.00  0.00    -0.281 C  
BRANCH  33  34
HETATM   34  C   UNL     1     -11.819   9.208  71.564  1.00  0.00    -0.428 A  
HETATM   35  C   UNL     1     -13.385   7.449  72.108  1.00  0.00    -0.059 A  
HETATM   36  C   UNL     1     -14.103   9.760  72.087  1.00  0.00    -0.021 A  
HETATM   37  C   UNL     1     -12.101   7.847  71.750  1.00  0.00    -0.340 A  
HETATM   38  C   UNL     1     -12.822  10.163  71.730  1.00  0.00    -0.554 A  
HETATM   39  C   UNL     1     -14.385   8.405  72.276  1.00  0.00    -0.465 A  
ENDBRANCH  33  34
ENDBRANCH  32  33
ENDBRANCH   2  32
TORSDOF 18
ENDMDL
MODEL      426
REMARK 921   NORMALIZED FREE ENERGY PREDICTED BY IDOCK:   -0.84 KCAL/MOL
REMARK 922        TOTAL FREE ENERGY PREDICTED BY IDOCK:   -6.50 KCAL/MOL
REMARK 923 INTER-LIGAND FREE ENERGY PREDICTED BY IDOCK:   -5.19 KCAL/MOL
REMARK 924 INTRA-LIGAND FREE ENERGY PREDICTED BY IDOCK:   -1.31 KCAL/MOL
REMARK 927      BINDING AFFINITY PREDICTED BY RF-SCORE:    0.00 PKD
ROOT
HETATM    1  O   UNL     1      -9.241   6.232  67.590  1.00  0.00    -0.115 OA 
HETATM    2  C   UNL     1      -7.993   6.886  67.812  1.00  0.00    -0.114 C  
HETATM    3  H   UNL     1      -9.737   6.188  68.399  1.00  0.00     0.000 HD 
ENDROOT
BRANCH   2   4
HETATM    4  C   UNL     1      -7.189   6.958  66.499  1.00  0.00    -0.072 C  
BRANCH   4   5
HETATM    5  C   UNL     1      -6.439   8.274  66.267  1.00  0.00    -0.047 C  
BRANCH   5   6
HETATM    6  C   UNL     1      -7.257   9.423  65.635  1.00  0.00    -0.091 C  
HETATM    7  H   UNL     1     -10.349  10.247  63.199  1.00  0.00     0.000 HD 
HETATM    8  C   UNL     1      -8.533   9.052  64.766  1.00  0.00    -0.197 C  
HETATM    9  C   UNL     1      -6.357  10.176  64.647  1.00  0.00    -0.130 C  
HETATM   10  C   UNL     1      -7.320  10.992  63.835  1.00  0.00     0.764 C  
HETATM   11  O   UNL     1      -5.433  11.031  65.294  1.00  0.00    -0.308 OA 
HETATM   12  O   UNL     1      -9.627  10.840  63.369  1.00  0.00    -0.274 OA 
HETATM   13  H   UNL     1      -4.876  11.498  64.682  1.00  0.00     0.000 HD 
HETATM   14  C   UNL     1      -8.472  10.048  63.564  1.00  0.00    -0.187 C  
BRANCH   8  15
HETATM   15  C   UNL     1      -9.891   9.034  65.539  1.00  0.00     0.039 C  
BRANCH  15  16
HETATM   16  C   UNL     1      -9.847   9.583  66.953  1.00  0.00    -0.262 C  
HETATM   17  C   UNL     1      -9.939  10.841  67.428  1.00  0.00    -0.214 C  
BRANCH  17  18
HETATM   18  C   UNL     1     -10.105  12.127  66.669  1.00  0.00    -0.218 C  
BRANCH  18  19
HETATM   19  C   UNL     1      -8.757  12.742  66.262  1.00  0.00     0.219 C  
BRANCH  19  20
HETATM   20  C   UNL     1      -7.903  13.214  67.431  1.00  0.00    -0.169 C  
BRANCH  20  21
HETATM   21  C   UNL     1      -8.186  14.647  67.759  1.00  0.00    -0.162 C  
HETATM   22  O   UNL     1      -7.463  15.605  67.513  1.00  0.00    -0.144 OA 
BRANCH  21  23
HETATM   23  O   UNL     1      -9.320  14.693  68.510  1.00  0.00    -0.191 OA 
BRANCH  23  24
HETATM   24  C   UNL     1      -9.448  15.959  69.123  1.00  0.00    -0.260 C  
BRANCH  24  25
HETATM   25  C   UNL     1     -10.671  16.717  68.654  1.00  0.00    -0.349 C  
BRANCH  25  26
HETATM   26  C   UNL     1     -10.372  18.174  68.310  1.00  0.00    -0.377 C  
BRANCH  26  27
HETATM   27  C   UNL     1     -10.500  18.528  66.821  1.00  0.00    -0.394 C  
BRANCH  27  28
HETATM   28  O   UNL     1      -9.251  18.335  66.194  1.00  0.00    -0.475 OA 
HETATM   29  N   UNL     1      -8.344  19.387  66.461  1.00  0.00    -0.312 N  
HETATM   30  O   UNL     1      -7.274  19.253  65.862  1.00  0.00    -0.268 OA 
HETATM   31  O   UNL     1      -8.714  20.275  67.218  1.00  0.00    -0.337 OA 
ENDBRANCH  27  28
ENDBRANCH  26  27
ENDBRANCH  25  26
ENDBRANCH  24  25
ENDBRANCH  23  24
ENDBRANCH  21  23
ENDBRANCH  20  21
ENDBRANCH  19  20
ENDBRANCH  18  19
ENDBRANCH  17  18
ENDBRANCH  15  16
ENDBRANCH   8  15
ENDBRANCH   5   6
ENDBRANCH   4   5
ENDBRANCH   2   4
BRANCH   2  32
HETATM   32  C   UNL     1      -7.259   6.077  68.872  1.00  0.00    -0.083 C  
BRANCH  32  33
HETATM   33  C   UNL     1      -6.213   5.156  68.256  1.00  0.00    -0.034 C  
BRANCH  33  34
HETATM   34  C   UNL     1      -6.850   3.851  67.904  1.00  0.00    -0.047 A  
HETATM   35  C   UNL     1      -6.715   1.700  66.809  1.00  0.00    -0.034 A  
HETATM   36  C   UNL     1      -8.800   2.446  67.785  1.00  0.00    -0.165 A  
HETATM   37  C   UNL     1      -6.106   2.885  67.210  1.00  0.00    -0.028 A  
HETATM   38  C   UNL     1      -8.197   3.631  68.188  1.00  0.00    -0.090 A  
HETATM   39  C   UNL     1      -8.061   1.481  67.096  1.00  0.00    -0.067 A  
ENDBRANCH  33  34
ENDBRANCH  32  33
ENDBRANCH   2  32
TORSDOF 18
ENDMDL
MODEL      427
REMARK 921   NORMALIZED FREE ENERGY PREDICTED BY IDOCK:   -0.78 KCAL/MOL
REMARK 922        TOTAL FREE ENERGY PREDICTED BY IDOCK:   -6.38 KCAL/MOL
REMARK 923 INTER-LIGAND FREE ENERGY PREDICTED BY IDOCK:   -5.91 KCAL/MOL
REMARK 924 INTRA-LIGAND FREE ENERGY PREDICTED BY IDOCK:   -0.47 KCAL/MOL
REMARK 927      BINDING AFFINITY PREDICTED BY RF-SCORE:    0.00 PKD
ROOT
HETATM    1  O   UNL     1      -8.295   5.424  65.190  1.00  0.00    -0.132 OA 
HETATM    2  C   UNL     1      -9.240   6.465  65.429  1.00  0.00     0.323 C  
HETATM    3  H   UNL     1      -8.745   4.606  65.014  1.00  0.00     0.000 HD 
ENDROOT
BRANCH   2   4
HETATM    4  C   UNL     1      -8.510   7.792  65.714  1.00  0.00    -0.155 C  
BRANCH   4   5
HETATM    5  C   UNL     1      -7.247   7.668  66.572  1.00  0.00    -0.082 C  
BRANCH   5   6
HETATM    6  C   UNL     1      -7.139   8.637  67.772  1.00  0.00    -0.079 C  
HETATM    7  H   UNL     1      -5.962  12.322  68.872  1.00  0.00     0.000 HD 
HETATM    8  C   UNL     1      -6.634  10.118  67.503  1.00  0.00    -0.068 C  
HETATM    9  C   UNL     1      -6.105   8.078  68.759  1.00  0.00    -0.040 C  
HETATM   10  C   UNL     1      -5.805   9.241  69.659  1.00  0.00    -0.033 C  
HETATM   11  O   UNL     1      -6.609   6.999  69.523  1.00  0.00    -0.042 OA 
HETATM   12  O   UNL     1      -6.028  11.580  69.462  1.00  0.00    -0.066 OA 
HETATM   13  H   UNL     1      -5.969   6.653  70.134  1.00  0.00     0.000 HD 
HETATM   14  C   UNL     1      -5.701  10.424  68.718  1.00  0.00    -0.041 C  
BRANCH   8  15
HETATM   15  C   UNL     1      -7.755  11.175  67.251  1.00  0.00    -0.130 C  
BRANCH  15  16
HETATM   16  C   UNL     1      -8.030  12.126  68.402  1.00  0.00    -0.152 C  
HETATM   17  C   UNL     1      -7.951  13.469  68.492  1.00  0.00    -0.119 C  
BRANCH  17  18
HETATM   18  C   UNL     1      -7.537  14.463  67.445  1.00  0.00    -0.196 C  
BRANCH  18  19
HETATM   19  C   UNL     1      -8.688  14.816  66.489  1.00  0.00    -0.160 C  
BRANCH  19  20
HETATM   20  C   UNL     1     -10.037  15.002  67.172  1.00  0.00    -0.239 C  
BRANCH  20  21
HETATM   21  C   UNL     1     -10.336  16.453  67.386  1.00  0.00    -0.295 C  
HETATM   22  O   UNL     1     -11.094  16.922  68.226  1.00  0.00    -0.349 OA 
BRANCH  21  23
HETATM   23  O   UNL     1      -9.733  17.160  66.392  1.00  0.00    -0.269 OA 
BRANCH  23  24
HETATM   24  C   UNL     1     -10.704  17.821  65.607  1.00  0.00    -0.064 C  
BRANCH  24  25
HETATM   25  C   UNL     1     -10.725  19.317  65.838  1.00  0.00    -0.463 C  
BRANCH  25  26
HETATM   26  C   UNL     1      -9.361  19.970  65.628  1.00  0.00     0.082 C  
BRANCH  26  27
HETATM   27  C   UNL     1      -8.793  20.695  66.857  1.00  0.00    -0.111 C  
BRANCH  27  28
HETATM   28  O   UNL     1      -9.767  20.701  67.878  1.00  0.00    -0.295 OA 
HETATM   29  N   UNL     1      -9.465  19.788  68.916  1.00  0.00    -0.292 N  
HETATM   30  O   UNL     1     -10.346  19.744  69.778  1.00  0.00    -0.088 OA 
HETATM   31  O   UNL     1      -8.412  19.169  68.837  1.00  0.00    -0.350 OA 
ENDBRANCH  27  28
ENDBRANCH  26  27
ENDBRANCH  25  26
ENDBRANCH  24  25
ENDBRANCH  23  24
ENDBRANCH  21  23
ENDBRANCH  20  21
ENDBRANCH  19  20
ENDBRANCH  18  19
ENDBRANCH  17  18
ENDBRANCH  15  16
ENDBRANCH   8  15
ENDBRANCH   5   6
ENDBRANCH   4   5
ENDBRANCH   2   4
BRANCH   2  32
HETATM   32  C   UNL     1     -10.083   6.025  66.618  1.00  0.00    -0.226 C  
BRANCH  32  33
HETATM   33  C   UNL     1      -9.733   4.610  67.065  1.00  0.00    -0.216 C  
BRANCH  33  34
HETATM   34  C   UNL     1      -9.737   4.548  68.557  1.00  0.00    -0.198 A  
HETATM   35  C   UNL     1      -9.379   3.284  70.586  1.00  0.00    -0.229 A  
HETATM   36  C   UNL     1     -10.320   5.511  70.684  1.00  0.00    -0.332 A  
HETATM   37  C   UNL     1      -9.304   3.379  69.200  1.00  0.00    -0.237 A  
HETATM   38  C   UNL     1     -10.247   5.612  69.300  1.00  0.00    -0.309 A  
HETATM   39  C   UNL     1      -9.887   4.349  71.327  1.00  0.00    -0.260 A  
ENDBRANCH  33  34
ENDBRANCH  32  33
ENDBRANCH   2  32
TORSDOF 18
ENDMDL
MODEL      428
REMARK 921   NORMALIZED FREE ENERGY PREDICTED BY IDOCK:   -0.66 KCAL/MOL
REMARK 922        TOTAL FREE ENERGY PREDICTED BY IDOCK:   -6.13 KCAL/MOL
REMARK 923 INTER-LIGAND FREE ENERGY PREDICTED BY IDOCK:   -5.33 KCAL/MOL
REMARK 924 INTRA-LIGAND FREE ENERGY PREDICTED BY IDOCK:   -0.80 KCAL/MOL
REMARK 927      BINDING AFFINITY PREDICTED BY RF-SCORE:    0.00 PKD
ROOT
HETATM    1  O   UNL     1     -12.614  10.544  68.901  1.00  0.00    -0.682 OA 
HETATM    2  C   UNL     1     -11.302   9.990  68.977  1.00  0.00    -0.084 C  
HETATM    3  H   UNL     1     -12.585  11.479  69.070  1.00  0.00     0.000 HD 
ENDROOT
BRANCH   2   4
HETATM    4  C   UNL     1     -11.348   8.474  68.703  1.00  0.00     0.707 C  
BRANCH   4   5
HETATM    5  C   UNL     1     -10.108   7.694  69.153  1.00  0.00    -0.194 C  
BRANCH   5   6
HETATM    6  C   UNL     1      -9.727   6.465  68.296  1.00  0.00    -0.127 C  
HETATM    7  H   UNL     1      -9.785   4.967  64.563  1.00  0.00     0.000 HD 
HETATM    8  C   UNL     1      -9.941   6.545  66.725  1.00  0.00    -0.224 C  
HETATM    9  C   UNL     1     -10.609   5.283  68.719  1.00  0.00    -0.045 C  
HETATM   10  C   UNL     1     -10.435   4.291  67.605  1.00  0.00     0.556 C  
HETATM   11  O   UNL     1     -10.196   4.705  69.943  1.00  0.00    -0.237 OA 
HETATM   12  O   UNL     1      -9.753   4.440  65.354  1.00  0.00    -0.173 OA 
HETATM   13  H   UNL     1     -10.742   3.973  70.205  1.00  0.00     0.000 HD 
HETATM   14  C   UNL     1     -10.486   5.130  66.346  1.00  0.00    -0.303 C  
BRANCH   8  15
HETATM   15  C   UNL     1      -8.701   7.016  65.900  1.00  0.00    -0.140 C  
BRANCH  15  16
HETATM   16  C   UNL     1      -7.434   6.204  66.101  1.00  0.00    -0.085 C  
HETATM   17  C   UNL     1      -6.609   6.080  67.160  1.00  0.00    -0.056 C  
BRANCH  17  18
HETATM   18  C   UNL     1      -6.693   6.743  68.505  1.00  0.00    -0.064 C  
BRANCH  18  19
HETATM   19  C   UNL     1      -6.130   8.172  68.487  1.00  0.00    -0.041 C  
BRANCH  19  20
HETATM   20  C   UNL     1      -5.444   8.560  67.183  1.00  0.00    -0.038 C  
BRANCH  20  21
HETATM   21  C   UNL     1      -6.253   9.570  66.430  1.00  0.00    -0.064 C  
HETATM   22  O   UNL     1      -5.885  10.214  65.455  1.00  0.00    -0.078 OA 
BRANCH  21  23
HETATM   23  O   UNL     1      -7.422   9.761  67.100  1.00  0.00    -0.088 OA 
BRANCH  23  24
HETATM   24  C   UNL     1      -8.357  10.417  66.271  1.00  0.00    -0.146 C  
BRANCH  24  25
HETATM   25  C   UNL     1      -9.215  11.410  67.025  1.00  0.00    -0.174 C  
BRANCH  25  26
HETATM   26  C   UNL     1      -9.548  12.653  66.202  1.00  0.00    -0.222 C  
BRANCH  26  27
HETATM   27  C   UNL     1     -10.785  13.430  66.673  1.00  0.00    -0.282 C  
BRANCH  27  28
HETATM   28  O   UNL     1     -11.297  12.820  67.837  1.00  0.00    -0.256 OA 
HETATM   29  N   UNL     1     -12.000  13.731  68.660  1.00  0.00    -0.365 N  
HETATM   30  O   UNL     1     -12.392  13.215  69.709  1.00  0.00    -0.222 OA 
HETATM   31  O   UNL     1     -12.125  14.879  68.254  1.00  0.00    -0.246 OA 
ENDBRANCH  27  28
ENDBRANCH  26  27
ENDBRANCH  25  26
ENDBRANCH  24  25
ENDBRANCH  23  24
ENDBRANCH  21  23
ENDBRANCH  20  21
ENDBRANCH  19  20
ENDBRANCH  18  19
ENDBRANCH  17  18
ENDBRANCH  15  16
ENDBRANCH   8  15
ENDBRANCH   5   6
ENDBRANCH   4   5
ENDBRANCH   2   4
BRANCH   2  32
HETATM   32  C   UNL     1     -10.782  10.289  70.376  1.00  0.00    -0.270 C  
BRANCH  32  33
HETATM   33  C   UNL     1     -11.034   9.128  71.332  1.00  0.00    -0.414 C  
BRANCH  33  34
HETATM   34  C   UNL     1      -9.751   8.745  71.994  1.00  0.00    -0.370 A  
HETATM   35  C   UNL     1      -8.566   8.036  73.978  1.00  0.00    -0.296 A  
HETATM   36  C   UNL     1      -7.348   8.614  71.968  1.00  0.00    -0.076 A  
HETATM   37  C   UNL     1      -9.765   8.317  73.329  1.00  0.00    -0.104 A  
HETATM   38  C   UNL     1      -8.542   8.896  71.316  1.00  0.00    -0.259 A  
HETATM   39  C   UNL     1      -7.359   8.185  73.297  1.00  0.00    -0.170 A  
ENDBRANCH  33  34
ENDBRANCH  32  33
ENDBRANCH   2  32
TORSDOF 18
ENDMDL
MODEL      429
REMARK 921   NORMALIZED FREE ENERGY PREDICTED BY IDOCK:   -0.63 KCAL/MOL
REMARK 922        TOTAL FREE ENERGY PREDICTED BY IDOCK:   -6.07 KCAL/MOL
REMARK 923 INTER-LIGAND FREE ENERGY PREDICTED BY IDOCK:   -5.05 KCAL/MOL
REMARK 924 INTRA-LIGAND FREE ENERGY PREDICTED BY IDOCK:   -1.02 KCAL/MOL
REMARK 927      BINDING AFFINITY PREDICTED BY RF-SCORE:    0.00 PKD
ROOT
HETATM    1  O   UNL     1     -10.092   9.388  64.670  1.00  0.00    -0.205 OA 
HETATM    2  C   UNL     1      -9.610   8.150  65.188  1.00  0.00     1.069 C  
HETATM    3  H   UNL     1      -9.877   9.464  63.748  1.00  0.00     0.000 HD 
ENDROOT
BRANCH   2   4
HETATM    4  C   UNL     1      -9.960   8.027  66.684  1.00  0.00    -0.326 C  
BRANCH   4   5
HETATM    5  C   UNL     1      -9.824   9.321  67.492  1.00  0.00    -0.224 C  
BRANCH   5   6
HETATM    6  C   UNL     1      -8.935   9.247  68.755  1.00  0.00    -0.132 C  
HETATM    7  H   UNL     1      -6.936   6.731  71.173  1.00  0.00     0.000 HD 
HETATM    8  C   UNL     1      -8.330   7.839  69.170  1.00  0.00    -0.134 C  
HETATM    9  C   UNL     1      -9.781   9.647  69.971  1.00  0.00    -0.241 C  
HETATM   10  C   UNL     1      -8.964   9.185  71.142  1.00  0.00    -0.249 C  
HETATM   11  O   UNL     1      -9.988  11.045  70.054  1.00  0.00    -0.201 OA 
HETATM   12  O   UNL     1      -7.254   7.588  71.434  1.00  0.00    -0.068 OA 
HETATM   13  H   UNL     1     -10.512  11.292  70.807  1.00  0.00     0.000 HD 
HETATM   14  C   UNL     1      -8.456   7.820  70.727  1.00  0.00    -0.121 C  
BRANCH   8  15
HETATM   15  C   UNL     1      -6.900   7.534  68.621  1.00  0.00    -0.066 C  
BRANCH  15  16
HETATM   16  C   UNL     1      -6.312   8.588  67.701  1.00  0.00    -0.053 C  
HETATM   17  C   UNL     1      -6.203   9.926  67.826  1.00  0.00    -0.055 C  
BRANCH  17  18
HETATM   18  C   UNL     1      -6.660  10.809  68.952  1.00  0.00    -0.057 C  
BRANCH  18  19
HETATM   19  C   UNL     1      -5.549  11.749  69.445  1.00  0.00    -0.062 C  
BRANCH  19  20
HETATM   20  C   UNL     1      -6.047  12.944  70.247  1.00  0.00    -0.068 C  
BRANCH  20  21
HETATM   21  C   UNL     1      -6.345  14.106  69.353  1.00  0.00    -0.114 C  
HETATM   22  O   UNL     1      -5.665  14.490  68.409  1.00  0.00    -0.091 OA 
BRANCH  21  23
HETATM   23  O   UNL     1      -7.431  14.757  69.854  1.00  0.00    -0.111 OA 
BRANCH  23  24
HETATM   24  C   UNL     1      -8.403  14.930  68.844  1.00  0.00    -0.178 C  
BRANCH  24  25
HETATM   25  C   UNL     1      -8.538  16.370  68.400  1.00  0.00    -0.209 C  
BRANCH  25  26
HETATM   26  C   UNL     1      -9.695  16.586  67.427  1.00  0.00    -0.246 C  
BRANCH  26  27
HETATM   27  C   UNL     1      -9.283  16.782  65.961  1.00  0.00    -0.201 C  
BRANCH  27  28
HETATM   28  O   UNL     1     -10.107  15.983  65.141  1.00  0.00    -0.485 OA 
HETATM   29  N   UNL     1     -11.184  16.713  64.585  1.00  0.00    -0.236 N  
HETATM   30  O   UNL     1     -11.943  16.004  63.921  1.00  0.00    -0.855 OA 
HETATM   31  O   UNL     1     -11.239  17.913  64.825  1.00  0.00    -0.695 OA 
ENDBRANCH  27  28
ENDBRANCH  26  27
ENDBRANCH  25  26
ENDBRANCH  24  25
ENDBRANCH  23  24
ENDBRANCH  21  23
ENDBRANCH  20  21
ENDBRANCH  19  20
ENDBRANCH  18  19
ENDBRANCH  17  18
ENDBRANCH  15  16
ENDBRANCH   8  15
ENDBRANCH   5   6
ENDBRANCH   4   5
ENDBRANCH   2   4
BRANCH   2  32
HETATM   32  C   UNL     1      -8.104   8.140  64.964  1.00  0.00    -0.155 C  
BRANCH  32  33
HETATM   33  C   UNL     1      -7.741   7.569  63.598  1.00  0.00    -0.126 C  
BRANCH  33  34
HETATM   34  C   UNL     1      -6.888   6.357  63.780  1.00  0.00    -0.041 A  
HETATM   35  C   UNL     1      -6.007   4.632  65.227  1.00  0.00    -0.022 A  
HETATM   36  C   UNL     1      -5.212   4.841  62.951  1.00  0.00    -0.009 A  
HETATM   37  C   UNL     1      -6.860   5.714  65.026  1.00  0.00    -0.051 A  
HETATM   38  C   UNL     1      -6.062   5.921  62.745  1.00  0.00    -0.025 A  
HETATM   39  C   UNL     1      -5.184   4.197  64.190  1.00  0.00    -0.009 A  
ENDBRANCH  33  34
ENDBRANCH  32  33
ENDBRANCH   2  32
TORSDOF 18
ENDMDL
MODEL      430
REMARK 921   NORMALIZED FREE ENERGY PREDICTED BY IDOCK:   -0.62 KCAL/MOL
REMARK 922        TOTAL FREE ENERGY PREDICTED BY IDOCK:   -6.06 KCAL/MOL
REMARK 923 INTER-LIGAND FREE ENERGY PREDICTED BY IDOCK:   -5.34 KCAL/MOL
REMARK 924 INTRA-LIGAND FREE ENERGY PREDICTED BY IDOCK:   -0.72 KCAL/MOL
REMARK 927      BINDING AFFINITY PREDICTED BY RF-SCORE:    0.00 PKD
ROOT
HETATM    1  O   UNL     1      -8.777   7.350  68.964  1.00  0.00    -0.132 OA 
HETATM    2  C   UNL     1      -7.916   8.432  68.615  1.00  0.00    -0.121 C  
HETATM    3  H   UNL     1      -8.932   6.798  68.207  1.00  0.00     0.000 HD 
ENDROOT
BRANCH   2   4
HETATM    4  C   UNL     1      -7.664   9.329  69.843  1.00  0.00    -0.101 C  
BRANCH   4   5
HETATM    5  C   UNL     1      -8.710   9.214  70.957  1.00  0.00    -0.251 C  
BRANCH   5   6
HETATM    6  C   UNL     1     -10.190   9.260  70.512  1.00  0.00    -0.309 C  
HETATM    7  H   UNL     1     -13.169  11.721  69.396  1.00  0.00     0.000 HD 
HETATM    8  C   UNL     1     -10.805  10.658  70.080  1.00  0.00    -0.280 C  
HETATM    9  C   UNL     1     -11.069   8.831  71.694  1.00  0.00    -0.327 C  
HETATM   10  C   UNL     1     -12.447   9.267  71.292  1.00  0.00    -0.389 C  
HETATM   11  O   UNL     1     -11.052   7.432  71.906  1.00  0.00    -0.233 OA 
HETATM   12  O   UNL     1     -13.298  10.858  69.774  1.00  0.00     0.156 OA 
HETATM   13  H   UNL     1     -11.596   7.167  72.638  1.00  0.00     0.000 HD 
HETATM   14  C   UNL     1     -12.243  10.642  70.690  1.00  0.00    -0.365 C  
BRANCH   8  15
HETATM   15  C   UNL     1     -10.742  10.977  68.552  1.00  0.00    -0.236 C  
BRANCH  15  16
HETATM   16  C   UNL     1     -10.689  12.451  68.192  1.00  0.00    -0.243 C  
HETATM   17  C   UNL     1      -9.864  13.441  68.591  1.00  0.00    -0.116 C  
BRANCH  17  18
HETATM   18  C   UNL     1      -8.717  13.381  69.559  1.00  0.00     1.342 C  
BRANCH  18  19
HETATM   19  C   UNL     1      -8.129  14.770  69.852  1.00  0.00     0.323 C  
BRANCH  19  20
HETATM   20  C   UNL     1      -7.542  15.473  68.635  1.00  0.00    -0.141 C  
BRANCH  20  21
HETATM   21  C   UNL     1      -7.603  16.961  68.792  1.00  0.00    -0.243 C  
HETATM   22  O   UNL     1      -6.779  17.666  69.360  1.00  0.00    -0.248 OA 
BRANCH  21  23
HETATM   23  O   UNL     1      -8.807  17.386  68.319  1.00  0.00    -0.248 OA 
BRANCH  23  24
HETATM   24  C   UNL     1      -9.245  18.514  69.047  1.00  0.00    -0.091 C  
BRANCH  24  25
HETATM   25  C   UNL     1      -8.518  19.783  68.656  1.00  0.00    -0.225 C  
BRANCH  25  26
HETATM   26  C   UNL     1      -9.114  20.451  67.419  1.00  0.00    -0.484 C  
BRANCH  26  27
HETATM   27  C   UNL     1      -8.865  19.711  66.097  1.00  0.00    -0.332 C  
BRANCH  27  28
HETATM   28  O   UNL     1      -7.738  20.271  65.462  1.00  0.00    -0.211 OA 
HETATM   29  N   UNL     1      -6.719  19.317  65.230  1.00  0.00    -0.262 N  
HETATM   30  O   UNL     1      -5.707  19.818  64.733  1.00  0.00    -0.184 OA 
HETATM   31  O   UNL     1      -6.949  18.157  65.543  1.00  0.00    -0.495 OA 
ENDBRANCH  27  28
ENDBRANCH  26  27
ENDBRANCH  25  26
ENDBRANCH  24  25
ENDBRANCH  23  24
ENDBRANCH  21  23
ENDBRANCH  20  21
ENDBRANCH  19  20
ENDBRANCH  18  19
ENDBRANCH  17  18
ENDBRANCH  15  16
ENDBRANCH   8  15
ENDBRANCH   5   6
ENDBRANCH   4   5
ENDBRANCH   2   4
BRANCH   2  32
HETATM   32  C   UNL     1      -8.608   9.199  67.497  1.00  0.00    -0.116 C  
BRANCH  32  33
HETATM   33  C   UNL     1      -7.642  10.124  66.765  1.00  0.00    -0.105 C  
BRANCH  33  34
HETATM   34  C   UNL     1      -7.351   9.564  65.411  1.00  0.00    -0.099 A  
HETATM   35  C   UNL     1      -7.956   8.081  63.601  1.00  0.00    -0.130 A  
HETATM   36  C   UNL     1      -5.851   9.273  63.553  1.00  0.00    -0.087 A  
HETATM   37  C   UNL     1      -8.258   8.669  64.826  1.00  0.00    -0.161 A  
HETATM   38  C   UNL     1      -6.147   9.863  64.775  1.00  0.00    -0.102 A  
HETATM   39  C   UNL     1      -6.753   8.383  62.965  1.00  0.00    -0.090 A  
ENDBRANCH  33  34
ENDBRANCH  32  33
ENDBRANCH   2  32
TORSDOF 18
ENDMDL
MODEL      431
REMARK 921   NORMALIZED FREE ENERGY PREDICTED BY IDOCK:   -0.36 KCAL/MOL
REMARK 922        TOTAL FREE ENERGY PREDICTED BY IDOCK:   -5.53 KCAL/MOL
REMARK 923 INTER-LIGAND FREE ENERGY PREDICTED BY IDOCK:   -5.93 KCAL/MOL
REMARK 924 INTRA-LIGAND FREE ENERGY PREDICTED BY IDOCK:    0.40 KCAL/MOL
REMARK 927      BINDING AFFINITY PREDICTED BY RF-SCORE:    0.00 PKD
ROOT
HETATM    1  O   UNL     1     -12.566  12.996  64.675  1.00  0.00    -0.591 OA 
HETATM    2  C   UNL     1     -11.673  12.678  65.741  1.00  0.00    -0.419 C  
HETATM    3  H   UNL     1     -13.274  12.363  64.641  1.00  0.00     0.000 HD 
ENDROOT
BRANCH   2   4
HETATM    4  C   UNL     1     -10.525  13.705  65.797  1.00  0.00    -0.296 C  
BRANCH   4   5
HETATM    5  C   UNL     1      -9.585  13.565  66.999  1.00  0.00    -0.248 C  
BRANCH   5   6
HETATM    6  C   UNL     1     -10.241  13.682  68.395  1.00  0.00    -0.245 C  
HETATM    7  H   UNL     1     -13.657  14.596  70.310  1.00  0.00     0.000 HD 
HETATM    8  C   UNL     1     -11.789  14.022  68.476  1.00  0.00    -0.399 C  
HETATM    9  C   UNL     1      -9.579  14.844  69.149  1.00  0.00    -0.172 C  
HETATM   10  C   UNL     1     -10.515  15.108  70.291  1.00  0.00    -0.151 C  
HETATM   11  O   UNL     1      -8.297  14.509  69.647  1.00  0.00    -0.379 OA 
HETATM   12  O   UNL     1     -12.792  14.651  70.699  1.00  0.00    -0.344 OA 
HETATM   13  H   UNL     1      -7.887  15.228  70.114  1.00  0.00     0.000 HD 
HETATM   14  C   UNL     1     -11.894  15.021  69.672  1.00  0.00    -0.324 C  
BRANCH   8  15
HETATM   15  C   UNL     1     -12.745  12.789  68.561  1.00  0.00     1.256 C  
BRANCH  15  16
HETATM   16  C   UNL     1     -12.098  11.440  68.302  1.00  0.00    -0.079 C  
HETATM   17  C   UNL     1     -11.387  10.620  69.102  1.00  0.00    -0.338 C  
BRANCH  17  18
HETATM   18  C   UNL     1     -10.994  10.810  70.539  1.00  0.00     0.072 C  
BRANCH  18  19
HETATM   19  C   UNL     1     -11.023   9.494  71.331  1.00  0.00    -0.415 C  
BRANCH  19  20
HETATM   20  C   UNL     1     -10.105   8.410  70.782  1.00  0.00    -0.226 C  
BRANCH  20  21
HETATM   21  C   UNL     1      -8.991   8.112  71.737  1.00  0.00    -0.163 C  
HETATM   22  O   UNL     1      -8.758   8.700  72.786  1.00  0.00    -0.387 OA 
BRANCH  21  23
HETATM   23  O   UNL     1      -8.191   7.168  71.172  1.00  0.00    -0.110 OA 
BRANCH  23  24
HETATM   24  C   UNL     1      -8.225   7.280  69.764  1.00  0.00    -0.130 C  
BRANCH  24  25
HETATM   25  C   UNL     1      -6.849   7.436  69.154  1.00  0.00    -0.060 C  
BRANCH  25  26
HETATM   26  C   UNL     1      -6.748   6.834  67.755  1.00  0.00    -0.068 C  
BRANCH  26  27
HETATM   27  C   UNL     1      -6.270   5.375  67.708  1.00  0.00    -0.038 C  
BRANCH  27  28
HETATM   28  O   UNL     1      -7.390   4.521  67.795  1.00  0.00    -0.068 OA 
HETATM   29  N   UNL     1      -8.398   4.858  66.861  1.00  0.00    -0.107 N  
HETATM   30  O   UNL     1      -9.405   4.154  66.979  1.00  0.00    -0.148 OA 
HETATM   31  O   UNL     1      -8.167   5.775  66.085  1.00  0.00    -0.106 OA 
ENDBRANCH  27  28
ENDBRANCH  26  27
ENDBRANCH  25  26
ENDBRANCH  24  25
ENDBRANCH  23  24
ENDBRANCH  21  23
ENDBRANCH  20  21
ENDBRANCH  19  20
ENDBRANCH  18  19
ENDBRANCH  17  18
ENDBRANCH  15  16
ENDBRANCH   8  15
ENDBRANCH   5   6
ENDBRANCH   4   5
ENDBRANCH   2   4
BRANCH   2  32
HETATM   32  C   UNL     1     -11.153  11.274  65.471  1.00  0.00    -0.138 C  
BRANCH  32  33
HETATM   33  C   UNL     1     -11.036  10.992  63.978  1.00  0.00     0.015 C  
BRANCH  33  34
HETATM   34  C   UNL     1      -9.694  10.405  63.689  1.00  0.00    -0.338 A  
HETATM   35  C   UNL     1      -7.687  10.369  62.341  1.00  0.00    -0.172 A  
HETATM   36  C   UNL     1      -8.053   8.679  64.034  1.00  0.00    -0.163 A  
HETATM   37  C   UNL     1      -8.903  10.959  62.671  1.00  0.00    -0.333 A  
HETATM   38  C   UNL     1      -9.269   9.264  64.367  1.00  0.00    -0.021 A  
HETATM   39  C   UNL     1      -7.263   9.230  63.023  1.00  0.00    -0.098 A  
ENDBRANCH  33  34
ENDBRANCH  32  33
ENDBRANCH   2  32
TORSDOF 18
ENDMDL
MODEL      432
REMARK 921   NORMALIZED FREE ENERGY PREDICTED BY IDOCK:   -0.34 KCAL/MOL
REMARK 922        TOTAL FREE ENERGY PREDICTED BY IDOCK:   -5.48 KCAL/MOL
REMARK 923 INTER-LIGAND FREE ENERGY PREDICTED BY IDOCK:   -4.63 KCAL/MOL
REMARK 924 INTRA-LIGAND FREE ENERGY PREDICTED BY IDOCK:   -0.84 KCAL/MOL
REMARK 927      BINDING AFFINITY PREDICTED BY RF-SCORE:    0.00 PKD
ROOT
HETATM    1  O   UNL     1     -11.653  18.372  68.521  1.00  0.00     0.812 OA 
HETATM    2  C   UNL     1     -10.766  18.841  67.507  1.00  0.00    -0.411 C  
HETATM    3  H   UNL     1     -12.233  19.072  68.797  1.00  0.00     0.000 HD 
ENDROOT
BRANCH   2   4
HETATM    4  C   UNL     1      -9.825  17.706  67.058  1.00  0.00    -0.307 C  
BRANCH   4   5
HETATM    5  C   UNL     1      -9.994  16.383  67.813  1.00  0.00    -0.248 C  
BRANCH   5   6
HETATM    6  C   UNL     1      -8.941  15.289  67.519  1.00  0.00    -0.192 C  
HETATM    7  H   UNL     1      -6.895  12.233  69.147  1.00  0.00     0.000 HD 
HETATM    8  C   UNL     1      -8.606  14.238  68.661  1.00  0.00    -0.149 C  
HETATM    9  C   UNL     1      -7.592  15.970  67.252  1.00  0.00    -0.194 C  
HETATM   10  C   UNL     1      -6.599  14.850  67.358  1.00  0.00    -0.039 C  
HETATM   11  O   UNL     1      -7.522  16.552  65.963  1.00  0.00    -0.050 OA 
HETATM   12  O   UNL     1      -6.607  12.730  68.390  1.00  0.00    -0.071 OA 
HETATM   13  H   UNL     1      -6.687  16.973  65.797  1.00  0.00     0.000 HD 
HETATM   14  C   UNL     1      -7.058  14.058  68.565  1.00  0.00    -0.102 C  
BRANCH   8  15
HETATM   15  C   UNL     1      -9.428  12.910  68.614  1.00  0.00    -0.002 C  
BRANCH  15  16
HETATM   16  C   UNL     1     -10.735  12.975  67.845  1.00  0.00    -0.249 C  
HETATM   17  C   UNL     1     -10.999  13.229  66.547  1.00  0.00    -0.299 C  
BRANCH  17  18
HETATM   18  C   UNL     1     -10.042  13.550  65.435  1.00  0.00    -0.279 C  
BRANCH  18  19
HETATM   19  C   UNL     1      -9.614  12.297  64.654  1.00  0.00     0.088 C  
BRANCH  19  20
HETATM   20  C   UNL     1      -8.985  11.207  65.513  1.00  0.00    -0.178 C  
BRANCH  20  21
HETATM   21  C   UNL     1      -9.898  10.027  65.637  1.00  0.00    -0.295 C  
HETATM   22  O   UNL     1     -11.071   9.976  65.289  1.00  0.00     0.835 OA 
BRANCH  21  23
HETATM   23  O   UNL     1      -9.244   9.060  66.337  1.00  0.00    -0.162 OA 
BRANCH  23  24
HETATM   24  C   UNL     1     -10.046   8.609  67.408  1.00  0.00    -0.229 C  
BRANCH  24  25
HETATM   25  C   UNL     1      -9.333   7.612  68.296  1.00  0.00    -0.145 C  
BRANCH  25  26
HETATM   26  C   UNL     1      -7.871   7.976  68.543  1.00  0.00    -0.115 C  
BRANCH  26  27
HETATM   27  C   UNL     1      -7.043   6.893  69.251  1.00  0.00    -0.084 C  
BRANCH  27  28
HETATM   28  O   UNL     1      -5.988   6.495  68.404  1.00  0.00    -0.019 OA 
HETATM   29  N   UNL     1      -6.165   5.184  67.902  1.00  0.00    -0.033 N  
HETATM   30  O   UNL     1      -5.212   4.809  67.214  1.00  0.00    -0.007 OA 
HETATM   31  O   UNL     1      -7.196   4.596  68.204  1.00  0.00    -0.063 OA 
ENDBRANCH  27  28
ENDBRANCH  26  27
ENDBRANCH  25  26
ENDBRANCH  24  25
ENDBRANCH  23  24
ENDBRANCH  21  23
ENDBRANCH  20  21
ENDBRANCH  19  20
ENDBRANCH  18  19
ENDBRANCH  17  18
ENDBRANCH  15  16
ENDBRANCH   8  15
ENDBRANCH   5   6
ENDBRANCH   4   5
ENDBRANCH   2   4
BRANCH   2  32
HETATM   32  C   UNL     1      -9.990  20.004  68.108  1.00  0.00    -0.533 C  
BRANCH  32  33
HETATM   33  C   UNL     1      -8.846  19.522  68.993  1.00  0.00    -0.225 C  
BRANCH  33  34
HETATM   34  C   UNL     1      -7.544  19.891  68.363  1.00  0.00    -0.298 A  
HETATM   35  C   UNL     1      -6.329  21.072  66.638  1.00  0.00    -0.359 A  
HETATM   36  C   UNL     1      -5.168  19.576  68.144  1.00  0.00    -0.186 A  
HETATM   37  C   UNL     1      -7.529  20.785  67.282  1.00  0.00    -0.381 A  
HETATM   38  C   UNL     1      -6.363  19.286  68.790  1.00  0.00    -0.282 A  
HETATM   39  C   UNL     1      -5.150  20.468  67.069  1.00  0.00    -0.181 A  
ENDBRANCH  33  34
ENDBRANCH  32  33
ENDBRANCH   2  32
TORSDOF 18
ENDMDL
MODEL      433
REMARK 921   NORMALIZED FREE ENERGY PREDICTED BY IDOCK:    0.37 KCAL/MOL
REMARK 922        TOTAL FREE ENERGY PREDICTED BY IDOCK:   -4.03 KCAL/MOL
REMARK 923 INTER-LIGAND FREE ENERGY PREDICTED BY IDOCK:   -5.22 KCAL/MOL
REMARK 924 INTRA-LIGAND FREE ENERGY PREDICTED BY IDOCK:    1.19 KCAL/MOL
REMARK 927      BINDING AFFINITY PREDICTED BY RF-SCORE:    0.00 PKD
ROOT
HETATM    1  O   UNL     1      -8.141   6.526  68.101  1.00  0.00    -0.111 OA 
HETATM    2  C   UNL     1      -7.173   7.388  67.506  1.00  0.00    -0.094 C  
HETATM    3  H   UNL     1      -8.567   6.000  67.434  1.00  0.00     0.000 HD 
ENDROOT
BRANCH   2   4
HETATM    4  C   UNL     1      -6.483   8.240  68.588  1.00  0.00    -0.054 C  
BRANCH   4   5
HETATM    5  C   UNL     1      -7.318   8.493  69.848  1.00  0.00    -0.055 C  
BRANCH   5   6
HETATM    6  C   UNL     1      -8.830   8.727  69.629  1.00  0.00    -0.141 C  
HETATM    7  H   UNL     1     -11.655  11.567  69.267  1.00  0.00     0.000 HD 
HETATM    8  C   UNL     1      -9.347  10.220  69.467  1.00  0.00    -0.200 C  
HETATM    9  C   UNL     1      -9.587   8.218  70.863  1.00  0.00    -0.165 C  
HETATM   10  C   UNL     1     -10.953   8.823  70.720  1.00  0.00    -0.294 C  
HETATM   11  O   UNL     1      -9.689   6.807  70.895  1.00  0.00    -0.178 OA 
HETATM   12  O   UNL     1     -11.823  10.676  69.549  1.00  0.00    -0.286 OA 
HETATM   13  H   UNL     1     -10.158   6.491  71.658  1.00  0.00     0.000 HD 
HETATM   14  C   UNL     1     -10.686  10.244  70.270  1.00  0.00    -0.250 C  
BRANCH   8  15
HETATM   15  C   UNL     1      -9.450  10.740  67.997  1.00  0.00    -0.166 C  
BRANCH  15  16
HETATM   16  C   UNL     1      -8.978  12.165  67.771  1.00  0.00    -0.179 C  
HETATM   17  C   UNL     1      -7.849  12.802  68.138  1.00  0.00    -0.146 C  
BRANCH  17  18
HETATM   18  C   UNL     1      -6.681  12.277  68.924  1.00  0.00    -0.094 C  
BRANCH  18  19
HETATM   19  C   UNL     1      -5.665  13.378  69.265  1.00  0.00    -0.082 C  
BRANCH  19  20
HETATM   20  C   UNL     1      -5.461  14.408  68.162  1.00  0.00    -0.122 C  
BRANCH  20  21
HETATM   21  C   UNL     1      -6.128  15.704  68.506  1.00  0.00    -0.102 C  
HETATM   22  O   UNL     1      -5.600  16.674  69.034  1.00  0.00    -0.129 OA 
BRANCH  21  23
HETATM   23  O   UNL     1      -7.461  15.570  68.264  1.00  0.00    -0.111 OA 
BRANCH  23  24
HETATM   24  C   UNL     1      -8.193  16.479  69.058  1.00  0.00    -0.208 C  
BRANCH  24  25
HETATM   25  C   UNL     1      -7.604  17.873  69.048  1.00  0.00    -0.150 C  
BRANCH  25  26
HETATM   26  C   UNL     1      -7.889  18.630  67.752  1.00  0.00    -0.261 C  
BRANCH  26  27
HETATM   27  C   UNL     1      -7.229  18.040  66.498  1.00  0.00    -0.235 C  
BRANCH  27  28
HETATM   28  O   UNL     1      -7.444  18.913  65.411  1.00  0.00    -0.452 OA 
HETATM   29  N   UNL     1      -6.301  19.040  64.586  1.00  0.00    -0.150 N  
HETATM   30  O   UNL     1      -6.466  19.853  63.673  1.00  0.00    -0.178 OA 
HETATM   31  O   UNL     1      -5.322  18.363  64.868  1.00  0.00    -0.159 OA 
ENDBRANCH  27  28
ENDBRANCH  26  27
ENDBRANCH  25  26
ENDBRANCH  24  25
ENDBRANCH  23  24
ENDBRANCH  21  23
ENDBRANCH  20  21
ENDBRANCH  19  20
ENDBRANCH  18  19
ENDBRANCH  17  18
ENDBRANCH  15  16
ENDBRANCH   8  15
ENDBRANCH   5   6
ENDBRANCH   4   5
ENDBRANCH   2   4
BRANCH   2  32
HETATM   32  C   UNL     1      -7.920   8.257  66.503  1.00  0.00    -0.100 C  
BRANCH  32  33
HETATM   33  C   UNL     1      -7.090   8.514  65.251  1.00  0.00    -0.082 C  
BRANCH  33  34
HETATM   34  C   UNL     1      -6.887   7.227  64.520  1.00  0.00    -0.050 A  
HETATM   35  C   UNL     1      -5.383   5.587  63.576  1.00  0.00    -0.013 A  
HETATM   36  C   UNL     1      -7.769   5.406  63.217  1.00  0.00    -0.081 A  
HETATM   37  C   UNL     1      -5.585   6.742  64.324  1.00  0.00    -0.031 A  
HETATM   38  C   UNL     1      -7.977   6.559  63.964  1.00  0.00    -0.081 A  
HETATM   39  C   UNL     1      -6.474   4.920  63.023  1.00  0.00    -0.026 A  
ENDBRANCH  33  34
ENDBRANCH  32  33
ENDBRANCH   2  32
TORSDOF 18
ENDMDL
MODEL      434
REMARK 921   NORMALIZED FREE ENERGY PREDICTED BY IDOCK:    0.54 KCAL/MOL
REMARK 922        TOTAL FREE ENERGY PREDICTED BY IDOCK:   -3.68 KCAL/MOL
REMARK 923 INTER-LIGAND FREE ENERGY PREDICTED BY IDOCK:   -3.75 KCAL/MOL
REMARK 924 INTRA-LIGAND FREE ENERGY PREDICTED BY IDOCK:    0.07 KCAL/MOL
REMARK 927      BINDING AFFINITY PREDICTED BY RF-SCORE:    0.00 PKD
ROOT
HETATM    1  O   UNL     1     -12.713  10.649  69.250  1.00  0.00    -0.689 OA 
HETATM    2  C   UNL     1     -11.546  11.295  68.745  1.00  0.00    -0.316 C  
HETATM    3  H   UNL     1     -13.494  11.066  68.904  1.00  0.00     0.000 HD 
ENDROOT
BRANCH   2   4
HETATM    4  C   UNL     1     -10.280  10.620  69.307  1.00  0.00    -0.235 C  
BRANCH   4   5
HETATM    5  C   UNL     1      -8.996  10.882  68.512  1.00  0.00    -0.157 C  
BRANCH   5   6
HETATM    6  C   UNL     1      -8.714   9.921  67.333  1.00  0.00    -0.129 C  
HETATM    7  H   UNL     1      -7.388   9.739  63.541  1.00  0.00     0.000 HD 
HETATM    8  C   UNL     1      -8.040  10.512  66.023  1.00  0.00    -0.148 C  
HETATM    9  C   UNL     1     -10.052   9.364  66.828  1.00  0.00    -0.256 C  
HETATM   10  C   UNL     1      -9.711   8.773  65.492  1.00  0.00     0.103 C  
HETATM   11  O   UNL     1     -10.579   8.360  67.676  1.00  0.00    -0.351 OA 
HETATM   12  O   UNL     1      -7.967   9.099  63.939  1.00  0.00    -0.126 OA 
HETATM   13  H   UNL     1     -11.407   8.015  67.363  1.00  0.00     0.000 HD 
HETATM   14  C   UNL     1      -8.789   9.792  64.857  1.00  0.00    -0.197 C  
BRANCH   8  15
HETATM   15  C   UNL     1      -6.482  10.412  65.966  1.00  0.00    -0.119 C  
BRANCH  15  16
HETATM   16  C   UNL     1      -5.877   9.194  66.641  1.00  0.00    -0.058 C  
HETATM   17  C   UNL     1      -5.526   7.986  66.159  1.00  0.00    -0.028 C  
BRANCH  17  18
HETATM   18  C   UNL     1      -5.645   7.458  64.758  1.00  0.00    -0.033 C  
BRANCH  18  19
HETATM   19  C   UNL     1      -5.931   5.948  64.726  1.00  0.00    -0.025 C  
BRANCH  19  20
HETATM   20  C   UNL     1      -5.320   5.168  65.883  1.00  0.00    -0.013 C  
BRANCH  20  21
HETATM   21  C   UNL     1      -6.366   4.389  66.618  1.00  0.00    -0.037 C  
HETATM   22  O   UNL     1      -7.276   4.852  67.293  1.00  0.00    -0.071 OA 
BRANCH  21  23
HETATM   23  O   UNL     1      -6.049   3.068  66.529  1.00  0.00    -0.023 OA 
BRANCH  23  24
HETATM   24  C   UNL     1      -6.190   2.448  67.789  1.00  0.00    -0.025 C  
BRANCH  24  25
HETATM   25  C   UNL     1      -7.613   2.479  68.302  1.00  0.00    -0.055 C  
BRANCH  25  26
HETATM   26  C   UNL     1      -7.714   2.182  69.797  1.00  0.00    -0.046 C  
BRANCH  26  27
HETATM   27  C   UNL     1      -9.131   2.264  70.382  1.00  0.00    -0.105 C  
BRANCH  27  28
HETATM   28  O   UNL     1      -9.223   3.407  71.203  1.00  0.00    -0.100 OA 
HETATM   29  N   UNL     1     -10.110   4.377  70.681  1.00  0.00    -0.178 N  
HETATM   30  O   UNL     1     -10.143   5.404  71.364  1.00  0.00    -0.186 OA 
HETATM   31  O   UNL     1     -10.711   4.099  69.651  1.00  0.00     1.058 OA 
ENDBRANCH  27  28
ENDBRANCH  26  27
ENDBRANCH  25  26
ENDBRANCH  24  25
ENDBRANCH  23  24
ENDBRANCH  21  23
ENDBRANCH  20  21
ENDBRANCH  19  20
ENDBRANCH  18  19
ENDBRANCH  17  18
ENDBRANCH  15  16
ENDBRANCH   8  15
ENDBRANCH   5   6
ENDBRANCH   4   5
ENDBRANCH   2   4
BRANCH   2  32
HETATM   32  C   UNL     1     -11.635  12.754  69.169  1.00  0.00    -0.373 C  
BRANCH  32  33
HETATM   33  C   UNL     1     -10.265  13.327  69.513  1.00  0.00     0.680 C  
BRANCH  33  34
HETATM   34  C   UNL     1      -9.882  14.343  68.487  1.00  0.00    -0.233 A  
HETATM   35  C   UNL     1     -10.455  16.293  67.178  1.00  0.00    -0.297 A  
HETATM   36  C   UNL     1      -8.386  15.107  66.765  1.00  0.00    -0.225 A  
HETATM   37  C   UNL     1     -10.768  15.388  68.188  1.00  0.00    -0.271 A  
HETATM   38  C   UNL     1      -8.694  14.202  67.773  1.00  0.00    -0.182 A  
HETATM   39  C   UNL     1      -9.265  16.152  66.467  1.00  0.00    -0.303 A  
ENDBRANCH  33  34
ENDBRANCH  32  33
ENDBRANCH   2  32
TORSDOF 18
ENDMDL
MODEL      435
REMARK 921   NORMALIZED FREE ENERGY PREDICTED BY IDOCK:    1.65 KCAL/MOL
REMARK 922        TOTAL FREE ENERGY PREDICTED BY IDOCK:   -1.39 KCAL/MOL
REMARK 923 INTER-LIGAND FREE ENERGY PREDICTED BY IDOCK:   -2.01 KCAL/MOL
REMARK 924 INTRA-LIGAND FREE ENERGY PREDICTED BY IDOCK:    0.61 KCAL/MOL
REMARK 927      BINDING AFFINITY PREDICTED BY RF-SCORE:    0.00 PKD
ROOT
HETATM    1  O   UNL     1      -8.543  16.409  70.743  1.00  0.00     2.939 OA 
HETATM    2  C   UNL     1      -8.893  15.848  69.480  1.00  0.00    -0.115 C  
HETATM    3  H   UNL     1      -9.262  16.311  71.357  1.00  0.00     0.000 HD 
ENDROOT
BRANCH   2   4
HETATM    4  C   UNL     1      -7.727  16.008  68.485  1.00  0.00    -0.158 C  
BRANCH   4   5
HETATM    5  C   UNL     1      -7.745  15.036  67.300  1.00  0.00    -0.233 C  
BRANCH   5   6
HETATM    6  C   UNL     1      -7.502  13.546  67.634  1.00  0.00    -0.187 C  
HETATM    7  H   UNL     1      -8.460  10.597  70.196  1.00  0.00     0.000 HD 
HETATM    8  C   UNL     1      -8.331  12.894  68.821  1.00  0.00     0.140 C  
HETATM    9  C   UNL     1      -6.044  13.379  68.081  1.00  0.00    -0.112 C  
HETATM   10  C   UNL     1      -6.022  12.025  68.728  1.00  0.00    -0.056 C  
HETATM   11  O   UNL     1      -5.135  13.406  66.997  1.00  0.00    -0.172 OA 
HETATM   12  O   UNL     1      -7.662  10.624  69.681  1.00  0.00    -0.146 OA 
HETATM   13  H   UNL     1      -4.233  13.302  67.273  1.00  0.00     0.000 HD 
HETATM   14  C   UNL     1      -7.293  11.982  69.549  1.00  0.00     0.345 C  
BRANCH   8  15
HETATM   15  C   UNL     1      -9.657  12.181  68.402  1.00  0.00    -0.186 C  
BRANCH  15  16
HETATM   16  C   UNL     1     -10.552  12.963  67.459  1.00  0.00    -0.234 C  
HETATM   17  C   UNL     1     -10.810  12.819  66.143  1.00  0.00    -0.303 C  
BRANCH  17  18
HETATM   18  C   UNL     1     -10.254  11.812  65.178  1.00  0.00    -0.309 C  
BRANCH  18  19
HETATM   19  C   UNL     1      -8.927  11.208  65.663  1.00  0.00    -0.195 C  
BRANCH  19  20
HETATM   20  C   UNL     1      -9.079  10.137  66.736  1.00  0.00    -0.159 C  
BRANCH  20  21
HETATM   21  C   UNL     1     -10.124   9.136  66.352  1.00  0.00    -0.274 C  
HETATM   22  O   UNL     1     -11.333   9.250  66.511  1.00  0.00     0.832 OA 
BRANCH  21  23
HETATM   23  O   UNL     1      -9.492   8.008  65.926  1.00  0.00    -0.104 OA 
BRANCH  23  24
HETATM   24  C   UNL     1      -8.657   8.305  64.825  1.00  0.00    -0.020 C  
BRANCH  24  25
HETATM   25  C   UNL     1      -8.300   7.079  64.013  1.00  0.00     0.181 C  
BRANCH  25  26
HETATM   26  C   UNL     1      -7.546   6.027  64.824  1.00  0.00    -0.090 C  
BRANCH  26  27
HETATM   27  C   UNL     1      -8.373   5.335  65.918  1.00  0.00    -0.120 C  
BRANCH  27  28
HETATM   28  O   UNL     1      -8.839   4.097  65.427  1.00  0.00    -0.118 OA 
HETATM   29  N   UNL     1     -10.231   4.106  65.177  1.00  0.00    -0.225 N  
HETATM   30  O   UNL     1     -10.653   3.006  64.810  1.00  0.00     0.267 OA 
HETATM   31  O   UNL     1     -10.832   5.158  65.354  1.00  0.00     0.100 OA 
ENDBRANCH  27  28
ENDBRANCH  26  27
ENDBRANCH  25  26
ENDBRANCH  24  25
ENDBRANCH  23  24
ENDBRANCH  21  23
ENDBRANCH  20  21
ENDBRANCH  19  20
ENDBRANCH  18  19
ENDBRANCH  17  18
ENDBRANCH  15  16
ENDBRANCH   8  15
ENDBRANCH   5   6
ENDBRANCH   4   5
ENDBRANCH   2   4
BRANCH   2  32
HETATM   32  C   UNL     1     -10.137  16.585  69.004  1.00  0.00    -0.279 C  
BRANCH  32  33
HETATM   33  C   UNL     1     -11.320  15.639  68.827  1.00  0.00    -0.351 C  
BRANCH  33  34
HETATM   34  C   UNL     1     -11.861  15.268  70.169  1.00  0.00    -0.356 A  
HETATM   35  C   UNL     1     -11.964  15.664  72.552  1.00  0.00    -0.567 A  
HETATM   36  C   UNL     1     -13.047  13.727  71.587  1.00  0.00    -0.456 A  
HETATM   37  C   UNL     1     -11.530  16.049  71.286  1.00  0.00    -0.475 A  
HETATM   38  C   UNL     1     -12.617  14.107  70.321  1.00  0.00    -0.367 A  
HETATM   39  C   UNL     1     -12.722  14.504  72.701  1.00  0.00    -0.444 A  
ENDBRANCH  33  34
ENDBRANCH  32  33
ENDBRANCH   2  32
TORSDOF 18
ENDMDL
MODEL      436
REMARK 921   NORMALIZED FREE ENERGY PREDICTED BY IDOCK:    1.80 KCAL/MOL
REMARK 922        TOTAL FREE ENERGY PREDICTED BY IDOCK:   -1.10 KCAL/MOL
REMARK 923 INTER-LIGAND FREE ENERGY PREDICTED BY IDOCK:   -4.16 KCAL/MOL
REMARK 924 INTRA-LIGAND FREE ENERGY PREDICTED BY IDOCK:    3.06 KCAL/MOL
REMARK 927      BINDING AFFINITY PREDICTED BY RF-SCORE:    0.00 PKD
ROOT
HETATM    1  O   UNL     1      -7.529   4.886  64.985  1.00  0.00    -0.073 OA 
HETATM    2  C   UNL     1      -8.509   5.759  65.545  1.00  0.00    -0.150 C  
HETATM    3  H   UNL     1      -7.916   4.040  64.794  1.00  0.00     0.000 HD 
ENDROOT
BRANCH   2   4
HETATM    4  C   UNL     1      -7.882   7.133  65.855  1.00  0.00    -0.106 C  
BRANCH   4   5
HETATM    5  C   UNL     1      -6.543   7.083  66.599  1.00  0.00    -0.052 C  
BRANCH   5   6
HETATM    6  C   UNL     1      -6.470   7.872  67.927  1.00  0.00    -0.052 C  
HETATM    7  H   UNL     1      -5.530  11.434  69.539  1.00  0.00     0.000 HD 
HETATM    8  C   UNL     1      -6.080   9.410  67.871  1.00  0.00    -0.053 C  
HETATM    9  C   UNL     1      -5.371   7.254  68.801  1.00  0.00    -0.018 C  
HETATM   10  C   UNL     1      -5.129   8.292  69.858  1.00  0.00    -0.023 C  
HETATM   11  O   UNL     1      -5.774   6.040  69.406  1.00  0.00    -0.014 OA 
HETATM   12  O   UNL     1      -5.525  10.611  70.014  1.00  0.00    -0.043 OA 
HETATM   13  H   UNL     1      -5.093   5.658  69.948  1.00  0.00     0.000 HD 
HETATM   14  C   UNL     1      -5.137   9.604  69.101  1.00  0.00    -0.036 C  
BRANCH   8  15
HETATM   15  C   UNL     1      -7.282  10.406  67.798  1.00  0.00    -0.086 C  
BRANCH  15  16
HETATM   16  C   UNL     1      -7.624  11.116  69.096  1.00  0.00    -0.098 C  
HETATM   17  C   UNL     1      -7.071  12.184  69.704  1.00  0.00     0.297 C  
BRANCH  17  18
HETATM   18  C   UNL     1      -5.896  13.014  69.271  1.00  0.00    -0.086 C  
BRANCH  18  19
HETATM   19  C   UNL     1      -6.097  13.626  67.876  1.00  0.00    -0.154 C  
BRANCH  19  20
HETATM   20  C   UNL     1      -7.549  13.925  67.525  1.00  0.00    -0.190 C  
BRANCH  20  21
HETATM   21  C   UNL     1      -7.846  15.386  67.662  1.00  0.00    -0.157 C  
HETATM   22  O   UNL     1      -8.943  15.887  67.877  1.00  0.00    -0.180 OA 
BRANCH  21  23
HETATM   23  O   UNL     1      -6.713  16.077  67.362  1.00  0.00    -0.159 OA 
BRANCH  23  24
HETATM   24  C   UNL     1      -6.957  16.975  66.300  1.00  0.00    -0.170 C  
BRANCH  24  25
HETATM   25  C   UNL     1      -6.910  18.424  66.734  1.00  0.00    -0.216 C  
BRANCH  25  26
HETATM   26  C   UNL     1      -7.059  18.598  68.243  1.00  0.00    -0.271 C  
BRANCH  26  27
HETATM   27  C   UNL     1      -8.137  19.601  68.678  1.00  0.00    -0.289 C  
BRANCH  27  28
HETATM   28  O   UNL     1      -8.633  20.266  67.537  1.00  0.00    -0.334 OA 
HETATM   29  N   UNL     1     -10.003  19.995  67.307  1.00  0.00    -0.407 N  
HETATM   30  O   UNL     1     -10.423  20.522  66.274  1.00  0.00    -0.185 OA 
HETATM   31  O   UNL     1     -10.585  19.291  68.123  1.00  0.00    -0.377 OA 
ENDBRANCH  27  28
ENDBRANCH  26  27
ENDBRANCH  25  26
ENDBRANCH  24  25
ENDBRANCH  23  24
ENDBRANCH  21  23
ENDBRANCH  20  21
ENDBRANCH  19  20
ENDBRANCH  18  19
ENDBRANCH  17  18
ENDBRANCH  15  16
ENDBRANCH   8  15
ENDBRANCH   5   6
ENDBRANCH   4   5
ENDBRANCH   2   4
BRANCH   2  32
HETATM   32  C   UNL     1      -9.026   5.084  66.807  1.00  0.00    -0.113 C  
BRANCH  32  33
HETATM   33  C   UNL     1      -8.567   3.633  66.899  1.00  0.00    -0.112 C  
BRANCH  33  34
HETATM   34  C   UNL     1      -7.743   3.454  68.132  1.00  0.00    -0.063 A  
HETATM   35  C   UNL     1      -5.954   2.310  69.288  1.00  0.00    -0.024 A  
HETATM   36  C   UNL     1      -7.361   3.887  70.468  1.00  0.00    -0.041 A  
HETATM   37  C   UNL     1      -6.676   2.542  68.121  1.00  0.00    -0.039 A  
HETATM   38  C   UNL     1      -8.085   4.122  69.306  1.00  0.00    -0.063 A  
HETATM   39  C   UNL     1      -6.297   2.982  70.460  1.00  0.00    -0.024 A  
ENDBRANCH  33  34
ENDBRANCH  32  33
ENDBRANCH   2  32
TORSDOF 18
ENDMDL
MODEL      437
REMARK 921   NORMALIZED FREE ENERGY PREDICTED BY IDOCK:    2.18 KCAL/MOL
REMARK 922        TOTAL FREE ENERGY PREDICTED BY IDOCK:   -0.30 KCAL/MOL
REMARK 923 INTER-LIGAND FREE ENERGY PREDICTED BY IDOCK:   -3.11 KCAL/MOL
REMARK 924 INTRA-LIGAND FREE ENERGY PREDICTED BY IDOCK:    2.81 KCAL/MOL
REMARK 927      BINDING AFFINITY PREDICTED BY RF-SCORE:    0.00 PKD
ROOT
HETATM    1  O   UNL     1     -12.994  11.072  69.566  1.00  0.00    -0.295 OA 
HETATM    2  C   UNL     1     -11.827  11.595  68.933  1.00  0.00    -0.329 C  
HETATM    3  H   UNL     1     -13.773  11.469  69.196  1.00  0.00     0.000 HD 
ENDROOT
BRANCH   2   4
HETATM    4  C   UNL     1     -10.563  10.950  69.534  1.00  0.00    -0.217 C  
BRANCH   4   5
HETATM    5  C   UNL     1      -9.319  11.003  68.641  1.00  0.00    -0.196 C  
BRANCH   5   6
HETATM    6  C   UNL     1      -9.386  10.189  67.328  1.00  0.00    -0.173 C  
HETATM    7  H   UNL     1      -8.301  10.181  63.455  1.00  0.00     0.000 HD 
HETATM    8  C   UNL     1      -8.603  10.736  66.060  1.00  0.00    -0.181 C  
HETATM    9  C   UNL     1     -10.845  10.144  66.856  1.00  0.00    -0.106 C  
HETATM   10  C   UNL     1     -10.747   9.683  65.431  1.00  0.00     1.172 C  
HETATM   11  O   UNL     1     -11.631   9.232  67.601  1.00  0.00     0.119 OA 
HETATM   12  O   UNL     1      -9.037   9.694  63.808  1.00  0.00    -0.241 OA 
HETATM   13  H   UNL     1     -12.534   9.204  67.309  1.00  0.00     0.000 HD 
HETATM   14  C   UNL     1      -9.574  10.459  64.869  1.00  0.00    -0.289 C  
BRANCH   8  15
HETATM   15  C   UNL     1      -7.155  10.180  65.873  1.00  0.00    -0.121 C  
BRANCH  15  16
HETATM   16  C   UNL     1      -6.920   8.775  66.397  1.00  0.00    -0.082 C  
HETATM   17  C   UNL     1      -7.580   7.619  66.186  1.00  0.00    -0.088 C  
BRANCH  17  18
HETATM   18  C   UNL     1      -8.801   7.368  65.349  1.00  0.00     0.071 C  
BRANCH  18  19
HETATM   19  C   UNL     1      -9.496   6.046  65.711  1.00  0.00     0.071 C  
BRANCH  19  20
HETATM   20  C   UNL     1      -8.546   4.930  66.124  1.00  0.00    -0.116 C  
BRANCH  20  21
HETATM   21  C   UNL     1      -8.435   4.841  67.614  1.00  0.00    -0.104 C  
HETATM   22  O   UNL     1      -8.103   5.743  68.373  1.00  0.00    -0.106 OA 
BRANCH  21  23
HETATM   23  O   UNL     1      -8.625   3.542  67.975  1.00  0.00    -0.091 OA 
BRANCH  23  24
HETATM   24  C   UNL     1      -7.796   3.215  69.070  1.00  0.00    -0.050 C  
BRANCH  24  25
HETATM   25  C   UNL     1      -7.894   4.217  70.200  1.00  0.00    -0.052 C  
BRANCH  25  26
HETATM   26  C   UNL     1      -6.647   4.245  71.080  1.00  0.00    -0.030 C  
BRANCH  26  27
HETATM   27  C   UNL     1      -6.798   5.021  72.396  1.00  0.00    -0.069 C  
BRANCH  27  28
HETATM   28  O   UNL     1      -6.308   6.332  72.215  1.00  0.00    -0.051 OA 
HETATM   29  N   UNL     1      -7.337   7.254  71.909  1.00  0.00    -0.079 N  
HETATM   30  O   UNL     1      -6.904   8.388  71.686  1.00  0.00    -0.063 OA 
HETATM   31  O   UNL     1      -8.487   6.835  71.893  1.00  0.00    -0.116 OA 
ENDBRANCH  27  28
ENDBRANCH  26  27
ENDBRANCH  25  26
ENDBRANCH  24  25
ENDBRANCH  23  24
ENDBRANCH  21  23
ENDBRANCH  20  21
ENDBRANCH  19  20
ENDBRANCH  18  19
ENDBRANCH  17  18
ENDBRANCH  15  16
ENDBRANCH   8  15
ENDBRANCH   5   6
ENDBRANCH   4   5
ENDBRANCH   2   4
BRANCH   2  32
HETATM   32  C   UNL     1     -11.846  13.100  69.156  1.00  0.00    -0.364 C  
BRANCH  32  33
HETATM   33  C   UNL     1     -10.506  13.739  68.808  1.00  0.00    -0.224 C  
BRANCH  33  34
HETATM   34  C   UNL     1     -10.594  14.366  67.455  1.00  0.00    -0.265 A  
HETATM   35  C   UNL     1     -11.697  15.889  65.937  1.00  0.00     0.667 A  
HETATM   36  C   UNL     1      -9.929  14.440  65.143  1.00  0.00    -0.268 A  
HETATM   37  C   UNL     1     -11.556  15.358  67.215  1.00  0.00    -0.094 A  
HETATM   38  C   UNL     1      -9.783  13.906  66.418  1.00  0.00    -0.309 A  
HETATM   39  C   UNL     1     -10.885  15.431  64.902  1.00  0.00    -0.445 A  
ENDBRANCH  33  34
ENDBRANCH  32  33
ENDBRANCH   2  32
TORSDOF 18
ENDMDL
MODEL      438
REMARK 921   NORMALIZED FREE ENERGY PREDICTED BY IDOCK:    2.51 KCAL/MOL
REMARK 922        TOTAL FREE ENERGY PREDICTED BY IDOCK:    0.36 KCAL/MOL
REMARK 923 INTER-LIGAND FREE ENERGY PREDICTED BY IDOCK:   -6.20 KCAL/MOL
REMARK 924 INTRA-LIGAND FREE ENERGY PREDICTED BY IDOCK:    6.56 KCAL/MOL
REMARK 927      BINDING AFFINITY PREDICTED BY RF-SCORE:    0.00 PKD
ROOT
HETATM    1  O   UNL     1      -6.607  17.462  65.718  1.00  0.00    -0.141 OA 
HETATM    2  C   UNL     1      -6.982  16.709  66.870  1.00  0.00    -0.227 C  
HETATM    3  H   UNL     1      -5.661  17.492  65.640  1.00  0.00     0.000 HD 
ENDROOT
BRANCH   2   4
HETATM    4  C   UNL     1      -8.517  16.660  66.997  1.00  0.00    -0.225 C  
BRANCH   4   5
HETATM    5  C   UNL     1      -9.115  15.255  67.123  1.00  0.00    -0.226 C  
BRANCH   5   6
HETATM    6  C   UNL     1     -10.488  15.034  66.448  1.00  0.00    -0.296 C  
HETATM    7  H   UNL     1     -13.823  12.787  66.532  1.00  0.00     0.000 HD 
HETATM    8  C   UNL     1     -11.471  13.955  67.071  1.00  0.00    -0.367 C  
HETATM    9  C   UNL     1     -10.252  14.523  65.020  1.00  0.00    -0.365 C  
HETATM   10  C   UNL     1     -11.594  13.992  64.605  1.00  0.00    -0.400 C  
HETATM   11  O   UNL     1      -9.848  15.549  64.134  1.00  0.00     0.623 OA 
HETATM   12  O   UNL     1     -13.508  13.253  65.766  1.00  0.00    -0.097 OA 
HETATM   13  H   UNL     1      -9.702  15.233  63.250  1.00  0.00     0.000 HD 
HETATM   14  C   UNL     1     -12.095  13.249  65.825  1.00  0.00    -0.441 C  
BRANCH   8  15
HETATM   15  C   UNL     1     -12.506  14.505  68.104  1.00  0.00     0.230 C  
BRANCH  15  16
HETATM   16  C   UNL     1     -12.040  14.528  69.549  1.00  0.00    -0.348 C  
HETATM   17  C   UNL     1     -11.477  13.579  70.323  1.00  0.00    -0.017 C  
BRANCH  17  18
HETATM   18  C   UNL     1     -11.143  12.156  69.980  1.00  0.00     0.307 C  
BRANCH  18  19
HETATM   19  C   UNL     1      -9.822  12.037  69.205  1.00  0.00     0.294 C  
BRANCH  19  20
HETATM   20  C   UNL     1      -9.545  10.648  68.644  1.00  0.00    -0.179 C  
BRANCH  20  21
HETATM   21  C   UNL     1     -10.676  10.182  67.780  1.00  0.00    -0.277 C  
HETATM   22  O   UNL     1     -11.861  10.455  67.926  1.00  0.00    -0.293 OA 
BRANCH  21  23
HETATM   23  O   UNL     1     -10.182   9.281  66.887  1.00  0.00    -0.230 OA 
BRANCH  23  24
HETATM   24  C   UNL     1      -9.195   8.479  67.501  1.00  0.00    -0.133 C  
BRANCH  24  25
HETATM   25  C   UNL     1      -9.750   7.182  68.050  1.00  0.00    -0.152 C  
BRANCH  25  26
HETATM   26  C   UNL     1      -9.505   7.017  69.548  1.00  0.00    -0.147 C  
BRANCH  26  27
HETATM   27  C   UNL     1     -10.747   7.199  70.433  1.00  0.00    -0.235 C  
BRANCH  27  28
HETATM   28  O   UNL     1     -10.751   6.201  71.429  1.00  0.00    -0.237 OA 
HETATM   29  N   UNL     1     -11.834   6.340  72.329  1.00  0.00    -0.306 N  
HETATM   30  O   UNL     1     -11.804   5.508  73.239  1.00  0.00    -0.024 OA 
HETATM   31  O   UNL     1     -12.637   7.239  72.112  1.00  0.00    -0.243 OA 
ENDBRANCH  27  28
ENDBRANCH  26  27
ENDBRANCH  25  26
ENDBRANCH  24  25
ENDBRANCH  23  24
ENDBRANCH  21  23
ENDBRANCH  20  21
ENDBRANCH  19  20
ENDBRANCH  18  19
ENDBRANCH  17  18
ENDBRANCH  15  16
ENDBRANCH   8  15
ENDBRANCH   5   6
ENDBRANCH   4   5
ENDBRANCH   2   4
BRANCH   2  32
HETATM   32  C   UNL     1      -6.344  17.396  68.069  1.00  0.00    -0.157 C  
BRANCH  32  33
HETATM   33  C   UNL     1      -7.379  18.124  68.919  1.00  0.00    -0.253 C  
BRANCH  33  34
HETATM   34  C   UNL     1      -8.333  18.847  68.024  1.00  0.00    -0.325 A  
HETATM   35  C   UNL     1      -9.133  19.329  65.795  1.00  0.00     0.248 A  
HETATM   36  C   UNL     1     -10.010  20.541  67.697  1.00  0.00    -0.454 A  
HETATM   37  C   UNL     1      -8.304  18.602  66.644  1.00  0.00    -0.297 A  
HETATM   38  C   UNL     1      -9.184  19.818  68.549  1.00  0.00    -0.334 A  
HETATM   39  C   UNL     1      -9.985  20.298  66.322  1.00  0.00    -0.474 A  
ENDBRANCH  33  34
ENDBRANCH  32  33
ENDBRANCH   2  32
TORSDOF 18
ENDMDL
MODEL      439
REMARK 921   NORMALIZED FREE ENERGY PREDICTED BY IDOCK:    5.99 KCAL/MOL
REMARK 922        TOTAL FREE ENERGY PREDICTED BY IDOCK:    7.51 KCAL/MOL
REMARK 923 INTER-LIGAND FREE ENERGY PREDICTED BY IDOCK:   -1.34 KCAL/MOL
REMARK 924 INTRA-LIGAND FREE ENERGY PREDICTED BY IDOCK:    8.85 KCAL/MOL
REMARK 927      BINDING AFFINITY PREDICTED BY RF-SCORE:    0.00 PKD
ROOT
HETATM    1  O   UNL     1     -13.178  11.386  69.624  1.00  0.00     0.469 OA 
HETATM    2  C   UNL     1     -12.043  12.052  69.075  1.00  0.00    -0.166 C  
HETATM    3  H   UNL     1     -13.928  11.488  69.050  1.00  0.00     0.000 HD 
ENDROOT
BRANCH   2   4
HETATM    4  C   UNL     1     -10.827  11.886  70.006  1.00  0.00     0.583 C  
BRANCH   4   5
HETATM    5  C   UNL     1      -9.539  11.423  69.317  1.00  0.00     0.225 C  
BRANCH   5   6
HETATM    6  C   UNL     1      -9.682  10.252  68.318  1.00  0.00    -0.154 C  
HETATM    7  H   UNL     1      -7.919   8.399  65.214  1.00  0.00     0.000 HD 
HETATM    8  C   UNL     1      -8.487   9.966  67.313  1.00  0.00    -0.121 C  
HETATM    9  C   UNL     1     -10.869  10.545  67.391  1.00  0.00    -0.291 C  
HETATM   10  C   UNL     1     -10.686   9.576  66.259  1.00  0.00     0.133 C  
HETATM   11  O   UNL     1     -12.118  10.320  68.017  1.00  0.00    -0.438 OA 
HETATM   12  O   UNL     1      -8.851   8.373  65.397  1.00  0.00    -0.170 OA 
HETATM   13  H   UNL     1     -12.853  10.501  67.443  1.00  0.00     0.000 HD 
HETATM   14  C   UNL     1      -9.201   9.618  65.968  1.00  0.00    -0.182 C  
BRANCH   8  15
HETATM   15  C   UNL     1      -7.439   8.913  67.795  1.00  0.00    -0.093 C  
BRANCH  15  16
HETATM   16  C   UNL     1      -7.998   7.756  68.604  1.00  0.00    -0.122 C  
HETATM   17  C   UNL     1      -9.186   7.121  68.555  1.00  0.00    -0.134 C  
BRANCH  17  18
HETATM   18  C   UNL     1     -10.363   7.387  67.660  1.00  0.00    -0.297 C  
BRANCH  18  19
HETATM   19  C   UNL     1     -11.693   7.382  68.429  1.00  0.00     1.284 C  
BRANCH  19  20
HETATM   20  C   UNL     1     -11.606   6.793  69.831  1.00  0.00    -0.326 C  
BRANCH  20  21
HETATM   21  C   UNL     1     -11.110   7.809  70.812  1.00  0.00    -0.257 C  
HETATM   22  O   UNL     1     -10.115   8.513  70.690  1.00  0.00    -0.185 OA 
BRANCH  21  23
HETATM   23  O   UNL     1     -11.874   7.719  71.936  1.00  0.00    -0.275 OA 
BRANCH  23  24
HETATM   24  C   UNL     1     -11.186   6.994  72.934  1.00  0.00    -0.236 C  
BRANCH  24  25
HETATM   25  C   UNL     1      -9.814   7.560  73.230  1.00  0.00    -0.343 C  
BRANCH  25  26
HETATM   26  C   UNL     1      -8.883   6.546  73.891  1.00  0.00    -0.148 C  
BRANCH  26  27
HETATM   27  C   UNL     1      -7.618   7.143  74.524  1.00  0.00    -0.124 C  
BRANCH  27  28
HETATM   28  O   UNL     1      -6.591   7.173  73.557  1.00  0.00    -0.065 OA 
HETATM   29  N   UNL     1      -6.671   8.310  72.719  1.00  0.00    -0.093 N  
HETATM   30  O   UNL     1      -5.814   8.306  71.833  1.00  0.00    -0.036 OA 
HETATM   31  O   UNL     1      -7.551   9.128  72.958  1.00  0.00    -0.099 OA 
ENDBRANCH  27  28
ENDBRANCH  26  27
ENDBRANCH  25  26
ENDBRANCH  24  25
ENDBRANCH  23  24
ENDBRANCH  21  23
ENDBRANCH  20  21
ENDBRANCH  19  20
ENDBRANCH  18  19
ENDBRANCH  17  18
ENDBRANCH  15  16
ENDBRANCH   8  15
ENDBRANCH   5   6
ENDBRANCH   4   5
ENDBRANCH   2   4
BRANCH   2  32
HETATM   32  C   UNL     1     -12.430  13.515  68.916  1.00  0.00     0.217 C  
BRANCH  32  33
HETATM   33  C   UNL     1     -11.204  14.416  68.824  1.00  0.00    -0.282 C  
BRANCH  33  34
HETATM   34  C   UNL     1     -11.026  14.866  67.411  1.00  0.00    -0.314 A  
HETATM   35  C   UNL     1     -11.931  15.930  65.438  1.00  0.00     0.786 A  
HETATM   36  C   UNL     1      -9.763  14.859  65.362  1.00  0.00    -0.211 A  
HETATM   37  C   UNL     1     -12.056  15.578  66.779  1.00  0.00     0.732 A  
HETATM   38  C   UNL     1      -9.882  14.505  66.701  1.00  0.00    -0.282 A  
HETATM   39  C   UNL     1     -10.786  15.571  64.731  1.00  0.00    -0.329 A  
ENDBRANCH  33  34
ENDBRANCH  32  33
ENDBRANCH   2  32
TORSDOF 18
ENDMDL
MODEL      440
REMARK 921   NORMALIZED FREE ENERGY PREDICTED BY IDOCK:    6.11 KCAL/MOL
REMARK 922        TOTAL FREE ENERGY PREDICTED BY IDOCK:    7.75 KCAL/MOL
REMARK 923 INTER-LIGAND FREE ENERGY PREDICTED BY IDOCK:   -1.27 KCAL/MOL
REMARK 924 INTRA-LIGAND FREE ENERGY PREDICTED BY IDOCK:    9.03 KCAL/MOL
REMARK 927      BINDING AFFINITY PREDICTED BY RF-SCORE:    0.00 PKD
ROOT
HETATM    1  O   UNL     1     -13.178  11.386  69.624  1.00  0.00     0.469 OA 
HETATM    2  C   UNL     1     -12.043  12.052  69.075  1.00  0.00    -0.166 C  
HETATM    3  H   UNL     1     -13.928  11.488  69.050  1.00  0.00     0.000 HD 
ENDROOT
BRANCH   2   4
HETATM    4  C   UNL     1     -10.827  11.886  70.006  1.00  0.00     0.583 C  
BRANCH   4   5
HETATM    5  C   UNL     1      -9.539  11.423  69.317  1.00  0.00     0.225 C  
BRANCH   5   6
HETATM    6  C   UNL     1      -9.682  10.252  68.318  1.00  0.00    -0.154 C  
HETATM    7  H   UNL     1      -7.919   8.399  65.214  1.00  0.00     0.000 HD 
HETATM    8  C   UNL     1      -8.487   9.966  67.313  1.00  0.00    -0.121 C  
HETATM    9  C   UNL     1     -10.869  10.545  67.391  1.00  0.00    -0.291 C  
HETATM   10  C   UNL     1     -10.686   9.576  66.259  1.00  0.00     0.133 C  
HETATM   11  O   UNL     1     -12.118  10.320  68.017  1.00  0.00    -0.438 OA 
HETATM   12  O   UNL     1      -8.851   8.373  65.397  1.00  0.00    -0.170 OA 
HETATM   13  H   UNL     1     -12.853  10.501  67.443  1.00  0.00     0.000 HD 
HETATM   14  C   UNL     1      -9.201   9.618  65.968  1.00  0.00    -0.182 C  
BRANCH   8  15
HETATM   15  C   UNL     1      -7.439   8.913  67.795  1.00  0.00    -0.093 C  
BRANCH  15  16
HETATM   16  C   UNL     1      -7.998   7.756  68.604  1.00  0.00    -0.122 C  
HETATM   17  C   UNL     1      -9.186   7.121  68.555  1.00  0.00    -0.134 C  
BRANCH  17  18
HETATM   18  C   UNL     1     -10.363   7.387  67.660  1.00  0.00    -0.297 C  
BRANCH  18  19
HETATM   19  C   UNL     1     -11.693   7.382  68.429  1.00  0.00     1.284 C  
BRANCH  19  20
HETATM   20  C   UNL     1     -11.606   6.793  69.831  1.00  0.00    -0.326 C  
BRANCH  20  21
HETATM   21  C   UNL     1     -11.110   7.809  70.812  1.00  0.00    -0.257 C  
HETATM   22  O   UNL     1     -10.115   8.513  70.690  1.00  0.00    -0.185 OA 
BRANCH  21  23
HETATM   23  O   UNL     1     -11.874   7.719  71.936  1.00  0.00    -0.275 OA 
BRANCH  23  24
HETATM   24  C   UNL     1     -11.186   6.994  72.934  1.00  0.00    -0.236 C  
BRANCH  24  25
HETATM   25  C   UNL     1      -9.814   7.560  73.230  1.00  0.00    -0.343 C  
BRANCH  25  26
HETATM   26  C   UNL     1      -8.883   6.546  73.891  1.00  0.00    -0.148 C  
BRANCH  26  27
HETATM   27  C   UNL     1      -7.618   7.143  74.524  1.00  0.00    -0.124 C  
BRANCH  27  28
HETATM   28  O   UNL     1      -6.591   7.173  73.557  1.00  0.00    -0.065 OA 
HETATM   29  N   UNL     1      -6.671   8.310  72.719  1.00  0.00    -0.093 N  
HETATM   30  O   UNL     1      -5.814   8.306  71.833  1.00  0.00    -0.036 OA 
HETATM   31  O   UNL     1      -7.551   9.128  72.958  1.00  0.00    -0.099 OA 
ENDBRANCH  27  28
ENDBRANCH  26  27
ENDBRANCH  25  26
ENDBRANCH  24  25
ENDBRANCH  23  24
ENDBRANCH  21  23
ENDBRANCH  20  21
ENDBRANCH  19  20
ENDBRANCH  18  19
ENDBRANCH  17  18
ENDBRANCH  15  16
ENDBRANCH   8  15
ENDBRANCH   5   6
ENDBRANCH   4   5
ENDBRANCH   2   4
BRANCH   2  32
HETATM   32  C   UNL     1     -12.430  13.515  68.916  1.00  0.00     0.217 C  
BRANCH  32  33
HETATM   33  C   UNL     1     -13.675  13.861  69.725  1.00  0.00     2.725 C  
BRANCH  33  34
HETATM   34  C   UNL     1     -13.279  14.651  70.929  1.00  0.00    -0.392 A  
HETATM   35  C   UNL     1     -12.155  16.568  71.880  1.00  0.00    -0.096 A  
HETATM   36  C   UNL     1     -13.064  14.847  73.318  1.00  0.00    -0.585 A  
HETATM   37  C   UNL     1     -12.598  15.866  70.763  1.00  0.00    -0.268 A  
HETATM   38  C   UNL     1     -13.509  14.142  72.206  1.00  0.00    -0.578 A  
HETATM   39  C   UNL     1     -12.388  16.059  73.156  1.00  0.00    -0.637 A  
ENDBRANCH  33  34
ENDBRANCH  32  33
ENDBRANCH   2  32
TORSDOF 18
ENDMDL
MODEL      441
REMARK 921   NORMALIZED FREE ENERGY PREDICTED BY IDOCK:    8.45 KCAL/MOL
REMARK 922        TOTAL FREE ENERGY PREDICTED BY IDOCK:   12.55 KCAL/MOL
REMARK 923 INTER-LIGAND FREE ENERGY PREDICTED BY IDOCK:    9.96 KCAL/MOL
REMARK 924 INTRA-LIGAND FREE ENERGY PREDICTED BY IDOCK:    2.59 KCAL/MOL
REMARK 927      BINDING AFFINITY PREDICTED BY RF-SCORE:    0.00 PKD
ROOT
HETATM    1  O   UNL     1      -6.042  18.320  67.748  1.00  0.00    -0.176 OA 
HETATM    2  C   UNL     1      -6.417  17.056  68.293  1.00  0.00    -0.151 C  
HETATM    3  H   UNL     1      -5.096  18.404  67.736  1.00  0.00     0.000 HD 
ENDROOT
BRANCH   2   4
HETATM    4  C   UNL     1      -7.952  16.920  68.312  1.00  0.00    -0.211 C  
BRANCH   4   5
HETATM    5  C   UNL     1      -8.500  15.648  67.656  1.00  0.00    -0.169 C  
BRANCH   5   6
HETATM    6  C   UNL     1      -9.824  15.801  66.872  1.00  0.00    -0.243 C  
HETATM    7  H   UNL     1     -13.655  14.588  66.707  1.00  0.00     0.000 HD 
HETATM    8  C   UNL     1     -11.117  15.063  67.425  1.00  0.00    -0.324 C  
HETATM    9  C   UNL     1      -9.636  15.197  65.475  1.00  0.00    -0.188 C  
HETATM   10  C   UNL     1     -11.037  15.052  64.956  1.00  0.00    -0.421 C  
HETATM   11  O   UNL     1      -8.892  16.039  64.614  1.00  0.00     2.226 OA 
HETATM   12  O   UNL     1     -13.165  14.921  65.964  1.00  0.00     0.662 OA 
HETATM   13  H   UNL     1      -8.776  15.665  63.748  1.00  0.00     0.000 HD 
HETATM   14  C   UNL     1     -11.820  14.521  66.139  1.00  0.00    -0.336 C  
BRANCH   8  15
HETATM   15  C   UNL     1     -12.028  15.916  68.364  1.00  0.00     0.023 C  
BRANCH  15  16
HETATM   16  C   UNL     1     -11.531  16.079  69.789  1.00  0.00    -0.318 C  
HETATM   17  C   UNL     1     -10.881  15.232  70.612  1.00  0.00    -0.278 C  
BRANCH  17  18
HETATM   18  C   UNL     1     -10.451  13.815  70.361  1.00  0.00     1.684 C  
BRANCH  18  19
HETATM   19  C   UNL     1      -9.995  13.592  68.911  1.00  0.00     0.009 C  
BRANCH  19  20
HETATM   20  C   UNL     1     -10.234  12.181  68.387  1.00  0.00    -0.212 C  
BRANCH  20  21
HETATM   21  C   UNL     1     -11.385  11.534  69.092  1.00  0.00    -0.286 C  
HETATM   22  O   UNL     1     -11.749  11.752  70.241  1.00  0.00    -0.309 OA 
BRANCH  21  23
HETATM   23  O   UNL     1     -11.874  10.551  68.287  1.00  0.00    -0.406 OA 
BRANCH  23  24
HETATM   24  C   UNL     1     -10.815   9.891  67.626  1.00  0.00    -0.257 C  
BRANCH  24  25
HETATM   25  C   UNL     1     -10.672   8.444  68.046  1.00  0.00    -0.118 C  
BRANCH  25  26
HETATM   26  C   UNL     1      -9.285   8.120  68.598  1.00  0.00    -0.143 C  
BRANCH  26  27
HETATM   27  C   UNL     1      -9.278   7.410  69.959  1.00  0.00    -0.148 C  
BRANCH  27  28
HETATM   28  O   UNL     1      -8.225   6.471  69.982  1.00  0.00    -0.125 OA 
HETATM   29  N   UNL     1      -8.684   5.141  69.834  1.00  0.00    -0.102 N  
HETATM   30  O   UNL     1      -7.773   4.314  69.918  1.00  0.00    -0.053 OA 
HETATM   31  O   UNL     1      -9.884   4.974  69.654  1.00  0.00    -0.179 OA 
ENDBRANCH  27  28
ENDBRANCH  26  27
ENDBRANCH  25  26
ENDBRANCH  24  25
ENDBRANCH  23  24
ENDBRANCH  21  23
ENDBRANCH  20  21
ENDBRANCH  19  20
ENDBRANCH  18  19
ENDBRANCH  17  18
ENDBRANCH  15  16
ENDBRANCH   8  15
ENDBRANCH   5   6
ENDBRANCH   4   5
ENDBRANCH   2   4
BRANCH   2  32
HETATM   32  C   UNL     1      -5.833  16.995  69.697  1.00  0.00    -0.217 C  
BRANCH  32  33
HETATM   33  C   UNL     1      -6.829  17.482  70.744  1.00  0.00     2.524 C  
BRANCH  33  34
HETATM   34  C   UNL     1      -6.390  18.812  71.263  1.00  0.00     1.211 A  
HETATM   35  C   UNL     1      -5.131  20.853  70.953  1.00  0.00    -0.196 A  
HETATM   36  C   UNL     1      -6.195  20.383  73.076  1.00  0.00     3.825 A  
HETATM   37  C   UNL     1      -5.612  19.648  70.449  1.00  0.00    -0.283 A  
HETATM   38  C   UNL     1      -6.678  19.179  72.577  1.00  0.00     2.668 A  
HETATM   39  C   UNL     1      -5.423  21.219  72.266  1.00  0.00     0.978 A  
ENDBRANCH  33  34
ENDBRANCH  32  33
ENDBRANCH   2  32
TORSDOF 18
ENDMDL
MODEL      442
REMARK 921   NORMALIZED FREE ENERGY PREDICTED BY IDOCK:   10.86 KCAL/MOL
REMARK 922        TOTAL FREE ENERGY PREDICTED BY IDOCK:   17.51 KCAL/MOL
REMARK 923 INTER-LIGAND FREE ENERGY PREDICTED BY IDOCK:   15.43 KCAL/MOL
REMARK 924 INTRA-LIGAND FREE ENERGY PREDICTED BY IDOCK:    2.08 KCAL/MOL
REMARK 927      BINDING AFFINITY PREDICTED BY RF-SCORE:    0.00 PKD
ROOT
HETATM    1  O   UNL     1      -6.079  18.296  67.983  1.00  0.00    -0.170 OA 
HETATM    2  C   UNL     1      -6.403  16.977  68.418  1.00  0.00    -0.150 C  
HETATM    3  H   UNL     1      -5.139  18.432  68.019  1.00  0.00     0.000 HD 
ENDROOT
BRANCH   2   4
HETATM    4  C   UNL     1      -7.927  16.757  68.359  1.00  0.00    -0.224 C  
BRANCH   4   5
HETATM    5  C   UNL     1      -8.368  15.424  67.746  1.00  0.00    -0.156 C  
BRANCH   5   6
HETATM    6  C   UNL     1      -9.696  15.444  66.953  1.00  0.00    -0.241 C  
HETATM    7  H   UNL     1     -13.470  14.056  66.908  1.00  0.00     0.000 HD 
HETATM    8  C   UNL     1     -10.957  14.707  67.574  1.00  0.00    -0.301 C  
HETATM    9  C   UNL     1      -9.478  14.719  65.619  1.00  0.00    -0.090 C  
HETATM   10  C   UNL     1     -10.869  14.464  65.118  1.00  0.00    -0.397 C  
HETATM   11  O   UNL     1      -8.768  15.505  64.680  1.00  0.00     2.333 OA 
HETATM   12  O   UNL     1     -12.992  14.338  66.136  1.00  0.00    -0.219 OA 
HETATM   13  H   UNL     1      -8.633  15.056  63.854  1.00  0.00     0.000 HD 
HETATM   14  C   UNL     1     -11.632  14.016  66.347  1.00  0.00    -0.369 C  
BRANCH   8  15
HETATM   15  C   UNL     1     -11.907  15.606  68.429  1.00  0.00    -0.211 C  
BRANCH  15  16
HETATM   16  C   UNL     1     -11.378  16.005  69.795  1.00  0.00    -0.331 C  
HETATM   17  C   UNL     1     -10.644  15.331  70.702  1.00  0.00    -0.135 C  
BRANCH  17  18
HETATM   18  C   UNL     1     -10.122  13.924  70.637  1.00  0.00     2.914 C  
BRANCH  18  19
HETATM   19  C   UNL     1      -9.766  13.499  69.204  1.00  0.00     0.364 C  
BRANCH  19  20
HETATM   20  C   UNL     1     -10.063  12.039  68.889  1.00  0.00    -0.033 C  
BRANCH  20  21
HETATM   21  C   UNL     1     -11.158  11.512  69.764  1.00  0.00    -0.084 C  
HETATM   22  O   UNL     1     -11.410  11.870  70.908  1.00  0.00     0.758 OA 
BRANCH  21  23
HETATM   23  O   UNL     1     -11.741  10.461  69.124  1.00  0.00    -0.213 OA 
BRANCH  23  24
HETATM   24  C   UNL     1     -10.755   9.661  68.506  1.00  0.00    -0.200 C  
BRANCH  24  25
HETATM   25  C   UNL     1     -10.685   8.264  69.086  1.00  0.00    -0.117 C  
BRANCH  25  26
HETATM   26  C   UNL     1      -9.305   7.918  69.638  1.00  0.00    -0.153 C  
BRANCH  26  27
HETATM   27  C   UNL     1      -9.298   7.369  71.072  1.00  0.00    -0.157 C  
BRANCH  27  28
HETATM   28  O   UNL     1     -10.229   6.313  71.164  1.00  0.00    -0.191 OA 
HETATM   29  N   UNL     1     -10.916   6.306  72.401  1.00  0.00    -0.241 N  
HETATM   30  O   UNL     1     -11.683   5.347  72.511  1.00  0.00    -0.233 OA 
HETATM   31  O   UNL     1     -10.672   7.211  73.189  1.00  0.00    -0.286 OA 
ENDBRANCH  27  28
ENDBRANCH  26  27
ENDBRANCH  25  26
ENDBRANCH  24  25
ENDBRANCH  23  24
ENDBRANCH  21  23
ENDBRANCH  20  21
ENDBRANCH  19  20
ENDBRANCH  18  19
ENDBRANCH  17  18
ENDBRANCH  15  16
ENDBRANCH   8  15
ENDBRANCH   5   6
ENDBRANCH   4   5
ENDBRANCH   2   4
BRANCH   2  32
HETATM   32  C   UNL     1      -5.874  16.844  69.839  1.00  0.00    -0.226 C  
BRANCH  32  33
HETATM   33  C   UNL     1      -5.260  15.470  70.086  1.00  0.00    -0.120 C  
BRANCH  33  34
HETATM   34  C   UNL     1      -5.909  14.846  71.278  1.00  0.00     0.099 A  
HETATM   35  C   UNL     1      -7.798  14.701  72.780  1.00  0.00     6.620 A  
HETATM   36  C   UNL     1      -5.774  13.455  73.237  1.00  0.00     0.562 A  
HETATM   37  C   UNL     1      -7.216  15.218  71.626  1.00  0.00     2.878 A  
HETATM   38  C   UNL     1      -5.189  13.967  72.086  1.00  0.00    -0.212 A  
HETATM   39  C   UNL     1      -7.077  13.821  73.585  1.00  0.00     4.367 A  
ENDBRANCH  33  34
ENDBRANCH  32  33
ENDBRANCH   2  32
TORSDOF 18
ENDMDL
